158

Mg 42.62800 41.87600 26.24600
C  42.01700 44.09100 28.70400
C  43.85800 39.62900 28.62600
C  43.85800 39.75200 23.75700
C  42.13200 44.35400 23.80900
N  42.76900 41.82100 28.39800
C  42.33100 42.79800 29.17800
C  42.47600 42.41400 30.68700
C  43.43700 41.15900 30.61300
C  43.32600 40.80000 29.15100
C  44.92400 41.34600 31.03900
C  41.03000 42.19300 31.28800
C  40.75600 42.88700 32.62400
H  41.78400 42.69100 33.78600
N  43.50000 39.85100 26.21500
C  43.86900 39.12800 27.32200
C  44.33500 37.81300 26.94200
C  44.44900 37.88400 25.47700
C  43.85800 39.20700 25.04200
C  44.54600 36.75900 27.93700
C  44.96300 36.82400 24.53100
O  45.06300 36.93600 23.34400
C  45.46000 35.43500 25.21700
N  42.92500 42.00300 24.13800
C  43.45700 41.01000 23.30300
C  43.40700 41.36200 21.86100
C  42.67100 42.76400 21.85000
C  42.53400 43.06500 23.33400
C  44.92400 41.45000 21.29600
C  41.33400 42.72700 21.14000
C  40.29200 41.83900 21.77200
N  42.06800 43.82800 26.15300
C  41.96200 44.74100 25.14500
C  41.59600 46.04000 25.75700
C  41.53400 45.80900 27.19000
C  41.89300 44.50600 27.31800
C  41.33000 47.23000 24.96800
C  41.33800 46.46200 28.42400
O  41.03400 47.57100 28.70300
C  41.54500 45.33100 29.53300
C  42.54100 45.80000 30.50400
O  43.69600 45.89900 30.20100
O  42.00000 46.14100 31.73800
C  42.92200 46.61900 32.76500
H  44.28200 38.91100 29.33100
H  44.29300 39.04100 23.05100
H  41.96500 45.16800 23.10000
H  42.89200 43.25500 31.24200
H  43.00100 40.33600 31.17900
H  45.66200 41.26700 30.24100
H  45.06100 40.48500 31.69300
H  44.95600 42.20800 31.70400
H  40.78000 41.13200 31.27800
H  40.29000 42.62100 30.61200
H  39.77900 42.56000 32.98000
H  40.60500 43.90500 32.26500
H  43.98100 36.94300 28.85100
H  45.60400 36.61600 28.15500
H  44.21100 35.73600 27.76600
H  44.54700 34.87400 25.41900
H  46.03700 35.45600 26.14200
H  46.03200 34.83400 24.51000
H  42.84000 40.58500 21.34700
H  43.34200 43.46800 21.35800
H  45.71200 41.06800 21.94500
H  45.23500 42.44800 20.98500
H  44.93400 40.75800 20.45500
H  41.48400 42.48200 20.08800
H  40.90100 43.72700 21.13600
H  40.48700 41.42000 22.76000
H  39.97100 41.08600 21.05300
H  39.38600 42.38900 22.02400
H  42.04800 47.16100 24.15100
H  41.53000 48.15700 25.50500
H  40.32400 47.30200 24.55500
H  40.61500 45.12500 30.06300
H  43.40000 47.54500 32.44500
H  43.67600 45.83500 32.83100
H  42.43600 46.92300 33.69200
Mg 30.13500 57.32600 38.89300
C  27.22200 55.62300 37.95300
C  31.93300 54.53100 38.20300
C  32.92600 59.21000 38.43300
C  28.24800 60.27000 39.12300
N  29.56600 55.36300 38.26100
C  28.34400 54.85700 37.91600
C  28.40200 53.28900 37.72800
C  29.88100 52.98800 38.17100
C  30.52100 54.33400 38.20600
C  30.00700 52.07000 39.44400
C  28.09300 52.79100 36.24000
C  28.82400 53.57400 35.16400
H  27.93400 54.53200 34.35200
N  32.23700 56.90300 38.57100
C  32.70800 55.69700 38.29300
C  34.12500 55.78400 38.00700
C  34.46800 57.13500 38.09600
C  33.22600 57.84500 38.40200
C  35.07500 54.56400 37.68300
C  35.80500 57.72600 37.77200
O  36.74800 56.93100 37.74200
C  36.14600 59.08700 37.62700
N  30.51300 59.41000 38.81100
C  31.77200 59.95100 38.70400
C  31.76400 61.49800 38.68000
C  30.30200 61.82500 39.17000
C  29.62800 60.41300 38.98800
C  32.92000 62.12000 39.62200
C  29.65100 63.06000 38.44400
C  29.42400 64.32200 39.30800
N  28.04600 57.89500 38.72600
C  27.48000 59.13700 38.87900
C  25.99300 59.02100 38.72700
C  25.88700 57.59400 38.38100
C  27.13000 56.99600 38.33500
C  24.96400 60.14300 38.74600
C  24.93700 56.52900 38.13600
O  23.72000 56.61700 38.12200
C  25.75500 55.27100 37.69500
C  25.40100 54.19000 38.66400
O  25.36900 54.25700 39.91100
O  25.10500 53.10400 37.94600
C  24.59500 51.95700 38.69500
H  32.41800 53.55800 38.10000
H  33.71700 59.96200 38.42100
H  27.85700 61.26300 39.35600
H  27.59200 52.92500 38.36000
H  30.34600 52.39900 37.38000
H  30.39400 52.66700 40.27000
H  30.74100 51.29600 39.21800
H  29.00400 51.69200 39.64400
H  27.02300 52.95800 36.12000
H  28.35100 51.73700 36.13600
H  29.22200 52.83900 34.46300
H  29.66200 54.12400 35.59200
H  35.55000 54.76100 36.72200
H  34.60100 53.58900 37.56900
H  35.81000 54.41100 38.47400
H  36.56300 59.42500 38.57600
H  35.26400 59.65400 37.32800
H  36.77000 59.27200 36.75200
H  31.84500 61.86100 37.65500
H  30.32700 61.97700 40.24900
H  33.25300 61.28000 40.23100
H  32.63800 62.80700 40.42000
H  33.77900 62.44700 39.03600
H  28.71700 62.58700 38.14000
H  30.28100 63.45000 37.64500
H  30.06600 64.26900 40.18700
H  28.38100 64.24500 39.61600
H  29.50900 65.16100 38.61700
H  24.45500 60.21700 37.78400
H  25.59200 61.02700 38.85000
H  24.19400 60.19700 39.51500
H  25.50200 55.04400 36.65900
H  24.05300 52.28900 39.58100
H  25.43200 51.34100 39.02500
H  24.01600 51.23000 38.12600

