158

Mg 17.11900 -1.36800 27.72700
C  16.20200 0.49700 30.57700
C  19.05800 -3.47500 29.81400
C  18.42300 -2.79900 24.99100
C  15.80200 1.17900 25.71500
N  17.62100 -1.43000 29.89900
C  17.13700 -0.54900 30.83500
C  17.60000 -0.93700 32.25600
C  18.66400 -2.07100 31.97600
C  18.45000 -2.38500 30.46200
C  20.17800 -1.66700 32.39000
C  16.35500 -1.25800 33.15700
C  16.41300 -0.86500 34.66100
H  17.83900 -0.37000 35.14600
N  18.48900 -2.92500 27.44100
C  19.13400 -3.67800 28.42300
C  19.72100 -4.85200 27.86100
C  19.60800 -4.67400 26.41200
C  18.78000 -3.41600 26.25100
C  20.34900 -5.99500 28.53900
C  20.31400 -5.41500 25.27300
O  19.99900 -5.35500 24.07500
C  21.28800 -6.56900 25.57600
N  16.94600 -0.95800 25.67800
C  17.65600 -1.62500 24.70500
C  17.62800 -1.03900 23.29600
C  16.63200 0.17000 23.51700
C  16.36500 0.12100 25.04600
C  18.94300 -0.77100 22.55400
C  15.32000 0.04800 22.68200
C  15.11900 1.30600 21.70300
N  16.00000 0.29000 28.02100
C  15.60400 1.24600 27.12500
C  14.90700 2.25800 27.81800
C  15.09900 1.95400 29.13100
C  15.83600 0.78800 29.25200
C  14.19000 3.41500 27.26400
C  14.85500 2.52900 30.42700
O  14.20300 3.53900 30.71600
C  15.54200 1.58100 31.37900
C  16.54900 2.44200 32.07600
O  17.73800 2.55300 31.71800
O  15.96600 2.83400 33.23600
C  16.79200 3.68000 34.13100
H  19.55500 -4.18100 30.48300
H  18.73600 -3.22400 24.03500
H  15.39800 2.02000 25.14600
H  18.16600 -0.07300 32.60300
H  18.45100 -2.84800 32.70900
H  20.91000 -1.86600 31.60700
H  20.45300 -2.28900 33.24200
H  20.35100 -0.65400 32.75100
H  16.08300 -2.30600 33.02900
H  15.52900 -0.71800 32.69400
H  16.11100 -1.68500 35.31300
H  15.62800 -0.11100 34.72700
H  20.06700 -6.98700 28.18400
H  20.17200 -5.98600 29.61400
H  21.43300 -5.87800 28.53100
H  21.95900 -6.32400 26.40000
H  21.96700 -6.63000 24.72500
H  20.78900 -7.44800 25.98400
H  17.14900 -1.77100 22.64500
H  17.10300 1.14700 23.41300
H  18.93200 0.27500 22.24700
H  19.06200 -1.41800 21.68400
H  19.75200 -0.98900 23.25200
H  14.43300 0.25400 23.28200
H  15.23100 -0.93400 22.21700
H  14.85000 0.92500 20.71800
H  16.06000 1.84700 21.80700
H  14.30300 1.88100 22.14000
H  13.54900 3.07600 26.45000
H  14.80400 4.22300 26.86800
H  13.50700 3.78800 28.02800
H  14.79900 1.22800 32.09400
H  17.58000 4.19100 33.57800
H  17.08300 3.11300 35.01500
H  16.08600 4.37500 34.58500
Mg 41.39500 41.92900 26.14300
C  40.73800 44.22900 28.63700
C  42.44800 39.65700 28.56100
C  42.63700 39.98500 23.69400
C  40.60200 44.46500 23.80200
N  41.41600 41.86300 28.32800
C  41.13900 42.97400 29.10600
C  41.28100 42.69100 30.61600
C  41.84700 41.21100 30.53500
C  41.88100 40.83800 29.07500
C  43.14400 40.93300 31.34800
C  39.97400 42.73800 31.53100
C  40.24400 43.27000 32.99300
H  40.20500 42.29800 34.10500
N  42.33100 40.00300 26.14800
C  42.70200 39.23400 27.25300
C  43.29100 38.02700 26.76500
C  43.39700 38.11400 25.33100
C  42.81200 39.41800 24.98000
C  43.88700 36.95800 27.63200
C  44.16800 37.17400 24.35000
O  44.36200 37.42900 23.15500
C  44.80300 35.87400 24.83600
N  41.67900 42.20600 24.09800
C  42.17200 41.24700 23.24400
C  42.01200 41.59100 21.76300
C  41.24100 42.99700 21.84000
C  41.12700 43.27200 23.34300
C  43.27100 41.58200 20.89000
C  39.82000 43.12100 21.23500
C  39.42900 44.41600 20.50400
N  40.71900 43.90700 26.14300
C  40.42800 44.76600 25.16700
C  40.09200 46.06700 25.72600
C  40.07200 45.89000 27.10100
C  40.53000 44.57800 27.32600
C  39.87000 47.39800 25.02500
C  39.89400 46.56100 28.44400
O  39.56700 47.69200 28.72300
C  40.29500 45.48100 29.50500
C  41.27300 45.99800 30.34200
O  42.43000 46.03100 30.07000
O  40.70000 46.25500 31.59200
C  41.64200 46.85000 32.54700
H  42.69100 38.95600 29.36200
H  42.94600 39.33700 22.87100
H  40.23000 45.20500 23.09100
H  42.05200 43.39500 30.92900
H  41.05900 40.50400 30.79600
H  43.32500 41.69900 32.10200
H  44.09700 40.84300 30.82600
H  43.14200 40.05800 31.99800
H  39.56500 41.73300 31.63800
H  39.12600 43.21100 31.03600
H  39.51300 44.06500 33.14100
H  41.20600 43.76200 32.84700
H  44.93900 37.21400 27.76000
H  43.78900 36.01700 27.09100
H  43.34600 36.99500 28.57800
H  45.45200 35.98800 25.70500
H  45.49200 35.49800 24.08000
H  44.07400 35.13600 25.17100
H  41.42100 40.80900 21.28500
H  41.86600 43.80700 21.46500
H  44.12600 41.39600 21.54100
H  43.40300 42.48700 20.29600
H  43.23100 40.70800 20.24000
H  39.08700 43.12600 22.04200
H  39.69600 42.37800 20.44700
H  38.44900 44.71100 20.87800
H  39.29900 44.25900 19.43300
H  40.19800 45.17800 20.62800
H  38.89200 47.35800 24.54500
H  40.71900 47.52200 24.35300
H  39.81500 48.21600 25.74300
H  39.44600 45.19100 30.12500
H  42.15700 46.03100 33.04900
H  41.08300 47.39400 33.30800
H  42.39000 47.58400 32.24500

