158

Mg 49.34100 44.88300 42.76800
C  46.03800 45.39400 41.33100
C  49.32900 41.82100 41.09200
C  52.73400 44.98700 42.77900
C  49.31400 48.28900 43.61400
N  47.88700 43.81200 41.14900
C  46.55800 44.15500 40.90100
C  45.86900 42.93800 40.30400
C  46.83600 41.72500 40.48300
C  48.14000 42.47500 40.85600
C  46.32900 40.62300 41.44300
C  45.32700 43.11200 38.83100
C  44.27000 42.15200 38.50900
H  44.64200 41.11000 37.51400
N  50.81300 43.53000 42.17700
C  50.57400 42.28500 41.57300
C  51.84000 41.59400 41.55300
C  52.77600 42.44300 42.16100
C  52.13800 43.69100 42.47700
C  51.95700 40.20300 41.03800
C  54.23000 42.13200 42.42900
O  54.71400 41.02100 42.13200
C  55.23100 43.11300 43.07300
N  50.82700 46.54100 42.88400
C  52.14500 46.17200 43.07500
C  52.97400 47.33300 43.65800
C  51.90200 48.44000 43.89600
C  50.57300 47.69800 43.49300
C  53.82900 46.89500 44.96300
C  52.05300 49.83700 43.21200
C  52.28200 51.05500 44.07100
N  47.99100 46.44000 42.70700
C  48.07800 47.75000 43.20200
C  46.74900 48.34300 43.22400
C  45.96500 47.52100 42.43600
C  46.79900 46.33200 42.15400
C  46.45600 49.65100 43.68600
C  44.63300 47.25600 41.99400
O  43.55800 47.79400 42.28900
C  44.71900 46.02100 41.04900
C  43.52400 45.08100 41.24300
O  42.74500 44.79000 40.35300
O  43.63000 44.42200 42.45000
C  42.67200 43.35400 42.78400
H  49.23900 40.75900 40.85400
H  53.79700 45.21600 42.87700
H  49.15600 49.28400 44.03600
H  44.93300 42.90300 40.86100
H  47.16300 41.35100 39.51300
H  46.84000 40.75700 42.39700
H  46.68600 39.64200 41.13100
H  45.25500 40.47500 41.56100
H  46.19200 42.92200 38.19600
H  44.97100 44.14100 38.77400
H  43.43500 42.77600 38.18900
H  44.06100 41.69900 39.47800
H  52.77700 40.15800 40.32100
H  51.06200 39.76500 40.59600
H  52.08300 39.48600 41.84900
H  55.37100 43.85900 42.29100
H  56.21800 42.67400 43.22100
H  54.88700 43.51200 44.02700
H  53.60700 47.74200 42.87000
H  51.74300 48.63500 44.95700
H  54.65000 46.29900 44.56500
H  53.10500 46.35100 45.56900
H  54.31900 47.73400 45.45700
H  51.17400 50.01100 42.59200
H  52.84300 49.79600 42.46100
H  52.90100 50.75000 44.91500
H  51.37900 51.50600 44.48100
H  52.85300 51.77800 43.48800
H  45.44300 49.58200 44.08300
H  46.54700 50.32700 42.83600
H  47.12400 49.92900 44.50200
H  44.58700 46.26800 39.99600
H  42.00700 43.78400 43.53400
H  43.14300 42.44700 43.16200
H  41.96500 43.06400 42.00700
Mg 9.48000 48.03300 26.01900
C  7.44700 48.43900 28.87600
C  12.15700 49.20700 27.95100
C  11.39800 48.10900 23.24900
C  6.57300 47.69900 24.14100
N  9.67300 48.83400 28.12500
C  8.79000 48.74700 29.17700
C  9.49800 49.00500 30.55900
C  10.93900 49.58200 30.19500
C  10.95800 49.18300 28.66000
C  11.20400 51.15700 30.30200
C  9.55700 47.71900 31.42900
C  10.38800 47.77100 32.68000
H  9.83300 46.99200 33.86900
N  11.55700 48.35000 25.71000
C  12.45400 48.81800 26.60600
C  13.78100 48.83900 25.95900
C  13.59800 48.42400 24.60800
C  12.14600 48.31000 24.47200
C  15.07600 49.12100 26.68400
C  14.64900 48.15600 23.58300
O  14.30600 47.77800 22.46900
C  16.20000 48.24800 23.85900
N  9.10500 47.61300 24.09800
C  10.02500 47.80500 23.05300
C  9.38600 47.63000 21.62700
C  7.91400 47.33500 21.98700
C  7.84300 47.57100 23.52800
C  9.67400 48.60000 20.43600
C  7.38200 46.00300 21.47900
C  6.54300 46.07600 20.20300
N  7.42700 47.95200 26.38800
C  6.35800 47.78600 25.48000
C  5.07900 47.84900 26.19100
C  5.49000 48.07900 27.60000
C  6.88500 48.20400 27.58600
C  3.69800 47.61000 25.64700
C  5.00500 48.29100 28.91300
O  3.87300 48.22100 29.37400
C  6.29500 48.43300 29.88700
C  6.22700 47.21200 30.71100
O  6.51900 46.14100 30.30300
O  5.73200 47.40500 31.98700
C  5.22200 46.29300 32.78500
H  13.02400 49.60400 28.48400
H  11.87200 48.00200 22.27100
H  5.72600 47.54900 23.46800
H  8.89200 49.79200 31.00600
H  11.86400 49.17000 30.59800
H  11.54700 51.33100 31.32200
H  10.20700 51.56000 30.12200
H  11.85400 51.59800 29.54600
H  9.88000 46.98800 30.68800
H  8.54300 47.51000 31.77000
H  10.54500 48.82600 32.90100
H  11.32900 47.32200 32.36000
H  15.00900 49.69600 27.60800
H  15.63300 49.75100 25.99000
H  15.70100 48.27700 26.97500
H  16.36400 47.61400 24.73000
H  16.50700 49.27200 24.07200
H  16.85600 47.91700 23.05400
H  9.85400 46.67000 21.40800
H  7.35000 48.19400 21.62400
H  10.33300 48.18100 19.67600
H  10.17300 49.44900 20.90300
H  8.75300 48.99600 20.00900
H  6.64700 45.63200 22.19400
H  8.13000 45.21600 21.37800
H  6.75600 47.00600 19.67400
H  5.48300 46.03200 20.45200
H  6.85000 45.15500 19.70800
H  2.92200 47.75200 26.39900
H  3.78000 46.54100 25.45000
H  3.47500 48.03600 24.66900
H  6.33500 49.27500 30.57700
H  4.83500 46.74000 33.70100
H  6.07600 45.64600 32.98700
H  4.50000 45.62200 32.32000

