158

Mg 48.49400 44.44600 41.93800
C  45.11000 43.62800 41.61200
C  49.26800 41.24500 41.90300
C  51.64500 45.42400 41.43000
C  47.56000 47.94300 41.53300
N  47.33100 42.68600 41.55400
C  45.99500 42.55300 41.64900
C  45.54000 41.05200 41.78900
C  46.91500 40.33300 41.97700
C  47.92100 41.48800 41.84600
C  47.11300 39.52900 43.37400
C  44.58100 40.47700 40.65300
C  44.74800 41.04300 39.26000
H  44.95800 40.05300 38.09300
N  50.20800 43.44100 41.71800
C  50.37300 42.10500 41.80000
C  51.79300 41.77600 41.81500
C  52.54600 42.99500 41.79500
C  51.44500 44.00200 41.67500
C  52.23200 40.32600 41.84800
C  54.10200 43.23300 41.87100
O  54.91100 42.28900 41.85700
C  54.75800 44.61400 41.77700
N  49.43800 46.42400 41.47500
C  50.77800 46.53700 41.49000
C  51.26700 48.02600 41.31600
C  49.85400 48.78300 41.25700
C  48.88400 47.65400 41.45100
C  52.13400 48.36800 42.58900
C  49.59400 49.77300 40.02500
C  49.06600 51.22800 40.40000
N  46.69600 45.63400 41.74900
C  46.47300 46.97800 41.63500
C  44.98500 47.17200 41.55800
C  44.39200 45.88500 41.52800
C  45.45800 44.99500 41.67200
C  44.26600 48.51200 41.57300
C  43.14600 45.11700 41.40600
O  41.97200 45.50200 41.25800
C  43.57800 43.61100 41.60800
C  42.91000 43.11700 42.89400
O  42.20200 42.09500 42.93300
O  43.24400 43.91300 43.90500
C  42.81000 43.47600 45.20500
H  49.44500 40.17900 42.05600
H  52.67600 45.77700 41.49800
H  47.23900 48.98700 41.50300
H  44.96200 40.97000 42.71000
H  47.00400 39.76100 41.05400
H  46.47000 38.65000 43.41600
H  46.73400 40.18400 44.15800
H  48.18000 39.33500 43.49000
H  43.55900 40.48900 41.03000
H  44.85700 39.42300 40.63200
H  45.56800 41.75700 39.18100
H  43.81700 41.59700 39.14400
H  51.87800 39.76500 40.98300
H  51.58700 39.84100 42.58000
H  53.28800 40.12400 42.02800
H  54.49800 44.98700 40.78600
H  55.81100 44.34100 41.83900
H  54.37700 45.22600 42.59400
H  51.79400 48.13200 40.36800
H  49.85300 49.46500 42.10700
H  51.66400 49.16200 43.16900
H  53.13000 48.60600 42.21700
H  52.27300 47.52400 43.26600
H  48.83600 49.30400 39.39800
H  50.51800 49.73800 39.44700
H  49.32500 51.39200 41.44600
H  47.99300 51.34500 40.25200
H  49.66200 52.01600 39.93900
H  43.40200 48.61700 40.91600
H  45.04700 49.19500 41.23800
H  43.94500 48.79700 42.57500
H  43.15800 42.93300 40.86500
H  42.85200 44.29700 45.92000
H  43.45300 42.70800 45.63400
H  41.82000 43.01900 45.19300
Mg 35.65800 48.74300 24.53400
C  35.80200 46.92100 27.60000
C  34.68000 51.54400 26.16700
C  35.01300 50.01100 21.61700
C  36.82000 45.74900 23.07900
N  35.24000 49.18500 26.66400
C  35.41100 48.32200 27.71200
C  35.08200 49.03700 29.03000
C  34.53800 50.45800 28.51000
C  34.84600 50.45800 27.03100
C  33.06000 50.71400 28.85500
C  36.40000 49.05900 29.90900
C  36.27000 48.81300 31.39000
H  34.86200 48.83100 32.03000
N  35.03400 50.53800 23.92800
C  34.66800 51.60900 24.74800
C  34.49400 52.80800 23.84800
C  34.39300 52.33500 22.51600
C  34.84900 50.93800 22.64300
C  34.28200 54.13300 24.42100
C  33.95700 53.02600 21.29100
O  33.99900 52.47100 20.21600
C  33.55900 54.50000 21.29900
N  35.83700 47.98300 22.64800
C  35.58200 48.75100 21.58000
C  35.65400 47.94100 20.30200
C  36.60900 46.78600 20.75700
C  36.36400 46.75600 22.32300
C  34.40000 47.36400 19.64300
C  38.00200 47.04600 20.27500
C  38.80600 45.81800 19.74300
N  36.06600 46.62500 25.11900
C  36.70400 45.61100 24.48900
C  36.89900 44.45000 25.28800
C  36.47500 44.89300 26.54700
C  36.09000 46.27000 26.41000
C  37.46100 43.10900 25.00700
C  36.48200 44.57400 28.00200
O  36.82900 43.55000 28.60200
C  35.99600 45.84400 28.66500
C  34.72400 45.53400 29.37600
O  33.56100 45.36200 28.87800
O  35.09500 45.42800 30.71400
C  33.98800 44.98900 31.51100
H  34.40200 52.43100 26.74000
H  34.87100 50.35200 20.59000
H  37.35300 44.92400 22.60100
H  34.24000 48.54600 29.52000
H  35.11500 51.28600 28.92300
H  32.64300 49.95800 29.52000
H  32.44200 50.79700 27.96100
H  32.84900 51.68600 29.30200
H  36.79300 50.07600 29.88100
H  37.08400 48.28700 29.55800
H  36.82900 49.55600 31.96000
H  36.69300 47.83300 31.61000
H  33.23700 54.39600 24.58700
H  34.70000 54.95000 23.83200
H  34.69200 54.13100 25.43100
H  34.46500 55.00500 21.63600
H  32.72000 54.55200 21.99300
H  33.23100 54.76300 20.29400
H  36.07600 48.58200 19.52800
H  36.18600 45.84700 20.40000
H  34.57400 46.35500 19.27000
H  34.29100 48.03000 18.78700
H  33.46800 47.39700 20.20700
H  38.59000 47.41900 21.11400
H  37.92600 47.73600 19.43400
H  39.04800 45.84700 18.68000
H  38.31900 44.86800 19.96200
H  39.68500 45.83400 20.38800
H  36.76900 42.55200 24.37500
H  37.53000 42.54600 25.93800
H  38.43100 43.13400 24.51000
H  36.88500 46.05300 29.25900
H  33.70700 44.01300 31.11500
H  33.22700 45.73500 31.28100
H  34.20200 45.05700 32.57800

