158

Mg 26.72400 51.16300 26.43900
C  24.96700 52.33200 29.17300
C  29.16700 50.08600 28.67700
C  28.57100 50.17200 23.75400
C  24.63500 52.98900 24.35600
N  26.94200 51.23900 28.70600
C  26.05900 51.60200 29.65500
C  26.42200 51.18500 31.05200
C  27.86800 50.63000 30.85200
C  27.98100 50.66100 29.30700
C  29.00800 51.40100 31.51900
C  25.35500 50.23400 31.72300
C  24.81400 50.71700 33.08000
H  25.86800 51.19000 34.10800
N  28.41800 50.02100 26.24100
C  29.29300 49.66500 27.31000
C  30.38800 48.87900 26.66600
C  30.08500 48.69400 25.31400
C  28.97000 49.66700 25.02400
C  31.40800 48.12800 27.50800
C  30.71400 47.87600 24.22300
O  30.22900 47.76800 23.07500
C  31.95500 47.16500 24.49900
N  26.67800 51.58200 24.33500
C  27.55900 51.03400 23.42700
C  27.15600 51.43100 21.98000
C  25.75200 52.22500 22.21300
C  25.68100 52.24600 23.75000
C  28.28300 52.28900 21.29800
C  24.39700 51.66100 21.59200
C  24.18400 51.97300 20.15100
N  25.14200 52.41100 26.69300
C  24.36500 53.06700 25.75900
C  23.21200 53.64300 26.36700
C  23.46300 53.45700 27.72400
C  24.64200 52.68500 27.89300
C  22.22500 54.42400 25.65500
C  22.94300 53.77800 29.01900
O  21.96600 54.45700 29.37400
C  23.88100 53.03700 30.00000
C  24.40600 54.14600 30.97500
O  25.22100 55.04300 30.74100
O  23.68100 54.03500 32.15900
C  23.83800 55.03900 33.20600
H  29.83300 49.70000 29.45200
H  29.29400 50.00500 22.95400
H  23.94900 53.40800 23.61700
H  26.41200 52.06300 31.69700
H  27.92300 49.64900 31.32400
H  29.81700 50.73800 31.82700
H  28.65500 51.80400 32.46800
H  29.37400 52.07400 30.74400
H  25.77600 49.23500 31.84200
H  24.56600 50.14200 30.97600
H  24.22200 49.96400 33.59800
H  24.20900 51.57600 32.78800
H  31.24300 47.05900 27.37300
H  31.43700 48.52200 28.52400
H  32.30300 48.43100 26.96500
H  32.76500 47.77000 24.90700
H  32.32700 46.66600 23.60400
H  31.74300 46.40100 25.24700
H  27.02700 50.54600 21.35700
H  25.98200 53.22800 21.85300
H  28.72000 53.04200 21.95500
H  27.88400 52.86000 20.46000
H  28.95600 51.63000 20.74900
H  23.49900 51.93900 22.14300
H  24.48000 50.57400 21.62600
H  24.29900 51.08900 19.52400
H  24.82400 52.81100 19.87500
H  23.17500 52.33200 19.94900
H  22.73800 55.38100 25.55900
H  21.24400 54.45400 26.13000
H  22.02700 54.08000 24.64000
H  23.29000 52.29600 30.53800
H  24.04700 56.05500 32.87300
H  24.50400 54.63500 33.96800
H  22.87100 55.18000 33.68800
Mg 1.54700 42.95700 26.02100
C  3.63300 43.16100 28.72500
C  -1.05000 42.03700 28.04200
C  -0.43900 42.31100 23.20300
C  4.20900 43.62000 23.83500
N  1.36900 42.61700 28.07900
C  2.30700 42.90400 29.05700
C  1.74800 42.84200 30.48100
C  0.27700 42.38700 30.18700
C  0.19900 42.30600 28.68100
C  -0.18100 41.15600 30.96800
C  1.83100 44.25300 31.16300
C  2.12100 44.22100 32.65400
H  1.84400 42.90200 33.45300
N  -0.42200 42.15800 25.61500
C  -1.28200 41.92000 26.64100
C  -2.59300 41.57500 26.04600
C  -2.49400 41.65600 24.63600
C  -1.04500 42.02200 24.41700
C  -3.75900 41.24200 26.91400
C  -3.52200 41.45500 23.52300
O  -3.21800 41.55300 22.32600
C  -4.88600 41.27200 23.89600
N  1.80300 42.97200 23.79100
C  0.84800 42.70400 22.84700
C  1.40600 42.78500 21.43700
C  2.86000 43.35200 21.68700
C  3.01100 43.26800 23.19500
C  1.40900 41.47100 20.68500
C  3.09300 44.80500 21.14700
C  4.33800 44.99200 20.29500
N  3.53700 43.37300 26.21400
C  4.50400 43.60000 25.26400
C  5.75400 43.71600 25.96500
C  5.49300 43.60500 27.34400
C  4.16400 43.31300 27.41100
C  7.07900 43.83000 25.24100
C  6.05100 43.57800 28.63900
O  7.18100 43.74000 28.98800
C  4.86700 43.38000 29.75300
C  5.15100 42.15600 30.53700
O  4.92800 40.99500 30.31000
O  5.63900 42.51300 31.73800
C  5.88200 41.47500 32.78900
H  -1.90400 41.82500 28.68900
H  -1.03700 42.11300 22.31100
H  5.05200 43.96000 23.22900
H  2.35600 42.11400 31.01700
H  -0.41800 43.19800 30.40400
H  -1.11300 41.42100 31.46700
H  0.68900 40.87400 31.56100
H  -0.52400 40.32400 30.35400
H  0.99100 44.88300 30.86900
H  2.65700 44.84600 30.77100
H  1.42900 44.92700 33.11400
H  3.13700 44.57700 32.82500
H  -3.41000 40.62500 27.74200
H  -4.65900 40.73700 26.56400
H  -4.17700 42.18700 27.26200
H  -5.51700 41.40800 23.01800
H  -5.04200 42.13100 24.54800
H  -5.13000 40.34100 24.40800
H  0.84100 43.59300 20.97100
H  3.69900 42.75400 21.33100
H  0.60200 41.58400 19.96200
H  1.15200 40.64500 21.34800
H  2.37500 41.18400 20.27000
H  3.27800 45.41900 22.02900
H  2.30300 45.30800 20.58900
H  4.81500 44.04300 20.04800
H  5.11200 45.48200 20.88600
H  4.24100 45.48600 19.32900
H  7.78800 44.23500 25.96300
H  6.97800 44.61300 24.49000
H  7.51100 42.89100 24.89300
H  4.66200 44.19200 30.45000
H  6.80900 40.96300 32.53100
H  5.12500 40.69200 32.83400
H  6.06900 41.84900 33.79600

