158

Mg 17.51400 -2.57400 27.44000
C  16.67600 -0.41300 30.15000
C  19.29700 -4.58800 29.75100
C  18.73600 -4.27400 24.84200
C  16.06100 -0.24700 25.30500
N  17.92400 -2.53800 29.74800
C  17.52800 -1.48200 30.56800
C  17.92400 -1.83700 32.03700
C  18.86000 -3.11700 31.87600
C  18.71600 -3.43800 30.37000
C  20.33400 -2.98400 32.42600
C  16.73600 -1.99900 33.01000
C  16.68500 -1.22500 34.29400
H  18.03000 -0.89500 35.00600
N  18.70900 -4.25900 27.30000
C  19.28000 -4.99800 28.39200
C  19.84600 -6.23400 27.83200
C  19.89000 -6.00700 26.40600
C  19.15800 -4.78400 26.13600
C  20.42600 -7.23000 28.70900
C  20.63600 -6.80500 25.35800
O  20.50000 -6.54300 24.16600
C  21.45200 -7.94800 25.77100
N  17.66500 -2.17200 25.39900
C  18.16500 -3.08800 24.51500
C  17.84700 -2.68500 23.08800
C  16.87900 -1.51800 23.26800
C  16.87100 -1.23300 24.78300
C  18.98600 -2.59400 22.16300
C  15.48900 -1.70100 22.62500
C  14.37300 -2.12600 23.58800
N  16.44300 -0.80300 27.63800
C  15.88600 0.02400 26.68000
C  15.08400 1.06100 27.32300
C  15.40000 0.90300 28.67400
C  16.25000 -0.21600 28.77900
C  14.29300 2.13800 26.75700
C  15.25600 1.53200 29.98700
O  14.61700 2.53400 30.25900
C  16.08500 0.66800 31.04100
C  16.97500 1.51700 31.78900
O  18.16300 1.70800 31.61200
O  16.27500 2.00500 32.88300
C  17.02800 3.10800 33.55500
H  19.85300 -5.20800 30.45800
H  18.85900 -4.96700 24.00700
H  15.45500 0.43500 24.70600
H  18.59400 -1.05400 32.39300
H  18.41100 -3.92800 32.45000
H  20.38600 -3.78800 33.16000
H  20.40100 -2.01200 32.91500
H  21.10300 -3.15600 31.67300
H  16.53200 -3.05600 33.18100
H  15.92000 -1.67400 32.36500
H  16.23900 -1.98100 34.94000
H  15.92200 -0.45700 34.17600
H  20.07000 -8.18900 28.33100
H  20.02800 -7.20800 29.72300
H  21.50900 -7.11100 28.73800
H  20.74600 -8.67700 26.17100
H  22.04500 -7.60200 26.61800
H  21.92200 -8.39300 24.89400
H  17.35800 -3.54600 22.63200
H  17.46400 -0.70800 22.83400
H  19.10700 -1.62800 21.67300
H  18.89800 -3.36800 21.40000
H  19.85100 -2.72800 22.81200
H  15.59800 -2.55100 21.95300
H  15.16600 -0.78700 22.12700
H  14.69500 -2.84300 24.34400
H  13.63600 -2.76400 23.10000
H  13.82100 -1.22200 23.84300
H  14.05800 1.82100 25.74100
H  15.00900 2.95200 26.64400
H  13.38700 2.31700 27.33500
H  15.31000 0.30400 31.71500
H  17.32800 3.97100 32.96200
H  17.91300 2.78200 34.10300
H  16.34900 3.37600 34.36400
Mg 5.18400 57.09700 41.92600
C  5.24900 53.61200 41.46900
C  8.13200 57.33600 40.27000
C  4.65200 60.50000 41.75200
C  1.90200 56.67000 43.24100
N  6.38400 55.64600 40.89200
C  6.21500 54.27600 40.77600
C  7.36500 53.70500 39.90900
C  8.44500 54.75600 40.06600
C  7.63100 56.01100 40.42700
C  9.52200 54.42900 41.10600
C  6.84200 53.41700 38.46000
C  7.35800 52.08500 37.82600
H  6.50100 51.57200 36.68800
N  6.27300 58.76400 41.08700
C  7.50500 58.59200 40.52500
C  7.91200 59.89000 40.09000
C  6.87700 60.83600 40.41900
C  5.90400 60.06200 41.16200
C  9.30300 60.13500 39.49900
C  6.90200 62.34600 40.10600
O  7.96500 62.88100 39.72700
C  5.76600 63.27000 40.37500
N  3.49700 58.34500 42.39200
C  3.69600 59.72900 42.43900
C  2.42400 60.44900 42.98500
C  1.63500 59.23400 43.49900
C  2.40300 57.95700 43.04300
C  2.75700 61.52000 44.01300
C  0.08600 59.14600 43.16100
C  -1.03200 58.62300 44.10900
N  3.88500 55.52500 42.43000
C  2.57600 55.46800 42.94500
C  2.15300 54.09600 43.08300
C  3.21600 53.40000 42.56400
C  4.21900 54.26800 42.08600
C  1.00900 53.62600 43.82200
C  3.69600 52.06700 42.41500
O  3.30900 51.00700 42.72400
C  5.03300 52.16100 41.71300
C  5.01100 51.33300 40.47600
O  4.15400 51.34500 39.55800
O  5.97000 50.30400 40.58500
C  5.91400 49.25700 39.57800
H  9.09400 57.36100 39.75300
H  4.45900 61.57400 41.71300
H  1.03100 56.50800 43.88000
H  7.68400 52.73500 40.29000
H  9.01300 55.16600 39.23100
H  10.49200 54.54600 40.62300
H  9.42300 53.36700 41.33300
H  9.28000 55.06400 41.95800
H  7.39500 54.19200 37.93100
H  5.76500 53.57600 38.40100
H  7.37100 51.33000 38.61100
H  8.37700 52.16400 37.44600
H  9.06500 60.79800 38.66700
H  9.82100 59.24200 39.15100
H  9.93500 60.67500 40.20400
H  4.87700 62.80300 39.95100
H  6.04600 64.18200 39.84600
H  5.61000 63.42000 41.44300
H  1.78500 60.88600 42.21800
H  1.65700 59.09300 44.58000
H  3.84000 61.62500 43.95200
H  2.47000 61.22200 45.02200
H  2.16100 62.40500 43.78800
H  -0.05900 58.88000 42.11400
H  -0.19100 60.18200 42.97000
H  -1.66400 59.40800 44.52600
H  -0.45200 58.00200 44.79100
H  -1.69900 57.91200 43.62200
H  1.21200 53.58200 44.89200
H  0.53200 52.71400 43.46100
H  0.17800 54.32300 43.71800
H  5.84600 51.81100 42.34900
H  6.96000 48.98400 39.43300
H  5.40600 49.49500 38.64400
H  5.45400 48.39200 40.05600

