158

Mg 36.37300 49.74900 24.70000
C  36.22500 48.06700 27.77100
C  35.34900 52.65000 26.23000
C  35.97200 51.23400 21.58400
C  36.99600 46.67800 23.12700
N  35.76400 50.21400 26.71300
C  35.99000 49.42800 27.83400
C  35.74200 50.31700 29.15300
C  35.28000 51.72400 28.58300
C  35.47600 51.55000 27.09600
C  33.98600 52.22500 29.09800
C  37.09800 50.39300 29.95600
C  37.14900 50.51000 31.49300
H  35.93300 50.76600 32.31400
N  35.75300 51.70900 23.99000
C  35.48400 52.74300 24.81000
C  35.17600 53.91100 24.03300
C  35.39100 53.58900 22.65300
C  35.75100 52.11000 22.67700
C  34.74200 55.31700 24.60100
C  35.16900 54.32500 21.34000
O  35.28500 53.76400 20.22000
C  34.66600 55.76900 21.42800
N  36.51100 49.03000 22.66000
C  36.34600 49.87400 21.60700
C  36.77100 49.15200 20.29700
C  37.22300 47.75400 20.82500
C  36.79700 47.76900 22.25000
C  35.70500 49.09900 19.21700
C  38.79900 47.46400 20.69700
C  39.28400 46.04500 20.37900
N  36.60800 47.75800 25.24700
C  36.78300 46.61300 24.52100
C  36.90100 45.51300 25.39400
C  36.71600 45.96700 26.68300
C  36.50400 47.32800 26.57700
C  37.15700 44.11400 24.98100
C  36.60600 45.62700 28.09000
O  36.76900 44.56600 28.65900
C  36.28700 47.03200 28.83500
C  35.07200 46.90500 29.70900
O  33.96300 47.06600 29.35500
O  35.44700 46.41500 30.97300
C  34.32000 46.36400 31.94000
H  35.11700 53.56900 26.77400
H  35.75600 51.61300 20.58300
H  37.36200 45.71700 22.76000
H  34.95300 49.80800 29.70700
H  35.97300 52.50500 28.89200
H  33.80100 51.78500 30.07800
H  33.11700 52.23600 28.44000
H  34.25900 53.26200 29.29300
H  37.67900 51.22700 29.56300
H  37.66700 49.50200 29.69000
H  37.86600 51.30900 31.68000
H  37.68700 49.70400 31.99300
H  35.53800 56.04100 24.42700
H  34.43100 55.24200 25.64300
H  33.86400 55.60400 24.02200
H  35.36600 56.42500 21.94600
H  33.65000 55.78300 21.82200
H  34.58500 56.04900 20.37800
H  37.56600 49.71100 19.80200
H  36.70100 46.93600 20.32800
H  35.85900 49.87400 18.46700
H  34.70300 49.31300 19.58700
H  35.55700 48.11000 18.78500
H  39.32100 47.75400 21.60800
H  39.13800 48.26800 20.04200
H  39.99400 46.18000 19.56300
H  38.45600 45.42500 20.03400
H  39.70100 45.49300 21.22200
H  37.91100 43.98200 24.20400
H  36.20100 43.65900 24.72100
H  37.67200 43.67700 25.83600
H  37.06600 47.21800 29.57500
H  34.56700 46.04700 32.95300
H  33.51200 45.80500 31.46700
H  33.90500 47.36900 32.01900
Mg -5.62300 24.81700 26.94500
C  -4.06900 26.30900 29.78900
C  -6.93500 22.46600 28.96100
C  -6.60600 23.16800 24.13800
C  -3.57500 26.88900 24.95400
N  -5.35500 24.36300 29.11000
C  -4.78900 25.14300 30.14700
C  -5.22600 24.66500 31.51700
C  -5.82000 23.28500 31.16000
C  -6.10300 23.36700 29.63600
C  -4.85000 22.15200 31.43500
C  -6.36200 25.68800 32.04800
C  -6.76300 25.51600 33.49900
H  -5.98700 24.64800 34.48400
N  -6.74400 23.18100 26.55600
C  -7.24000 22.34200 27.55500
C  -8.21000 21.40800 26.95600
C  -7.98500 21.48000 25.52800
C  -7.12900 22.61900 25.34900
C  -8.92000 20.44400 27.80900
C  -8.60700 20.61300 24.41600
O  -8.47100 20.86700 23.20400
C  -9.24800 19.35100 24.83700
N  -5.18700 25.07900 24.84100
C  -5.78800 24.29500 23.87900
C  -5.41200 24.66500 22.41900
C  -4.48300 25.95400 22.69100
C  -4.38600 25.97700 24.25400
C  -4.64200 23.52400 21.65200
C  -5.12100 27.18000 21.98700
C  -4.29900 27.84500 20.86200
N  -4.19100 26.34500 27.26600
C  -3.46400 27.06900 26.34000
C  -2.53500 27.96400 27.02400
C  -2.71300 27.72400 28.40600
C  -3.78500 26.73600 28.50700
C  -1.67900 29.01500 26.38400
C  -2.37700 28.24600 29.76200
O  -1.53900 28.94300 30.31800
C  -3.22600 27.20500 30.73000
C  -2.35900 26.41000 31.61400
O  -1.60000 25.51600 31.20100
O  -2.35600 26.97300 32.88200
C  -1.37700 26.40900 33.79800
H  -7.15600 21.62300 29.61900
H  -7.01600 22.60300 23.29800
H  -3.09000 27.64600 24.33500
H  -4.31800 24.63200 32.11900
H  -6.74200 23.08100 31.70400
H  -5.45500 21.31000 31.77000
H  -4.23300 22.35100 32.31200
H  -4.19300 21.87600 30.61100
H  -7.20900 25.71200 31.36200
H  -5.96100 26.68000 31.84400
H  -7.78400 25.15400 33.37700
H  -6.72600 26.50300 33.96000
H  -9.97400 20.37500 27.54100
H  -8.86100 20.67200 28.87300
H  -8.46300 19.46000 27.70700
H  -9.17000 18.79500 23.90200
H  -10.30700 19.37800 25.09200
H  -8.61800 18.74200 25.48600
H  -6.29000 24.89800 21.81700
H  -3.49800 25.85800 22.23500
H  -4.88500 23.43700 20.59300
H  -4.74600 22.57700 22.18200
H  -3.57000 23.72400 21.65800
H  -5.16300 27.91100 22.79500
H  -6.07900 26.98900 21.50400
H  -3.51100 27.20600 20.46400
H  -3.89800 28.76000 21.29800
H  -4.96300 27.96500 20.00500
H  -2.34100 29.70400 25.86100
H  -0.99800 28.61700 25.63200
H  -0.98100 29.42800 27.11200
H  -3.92100 27.78000 31.34100
H  -0.43300 26.95100 33.85100
H  -1.14800 25.35400 33.64800
H  -1.77200 26.58400 34.79800

