158

Mg 50.49200 46.87600 42.02600
C  47.38900 47.59100 40.61800
C  50.10700 43.63100 40.75500
C  53.76700 46.53000 42.39200
C  50.79400 50.36800 42.83900
N  48.97300 45.83400 40.67900
C  47.76700 46.25800 40.42600
C  46.87600 45.16500 39.82100
C  47.57900 43.81500 40.13900
C  48.99200 44.46900 40.58300
C  46.98600 42.88900 41.26500
C  46.57400 45.44200 38.24900
C  45.10800 45.22000 37.81300
H  44.96200 44.14300 36.73600
N  51.74300 45.34500 41.48200
C  51.38200 44.10000 41.03400
C  52.56200 43.26600 41.05300
C  53.63900 44.11500 41.47700
C  53.03900 45.37800 41.82100
C  52.60100 41.74900 40.54800
C  55.09200 43.60000 41.67500
O  55.33000 42.40500 41.52000
C  56.22600 44.49500 41.93800
N  52.10200 48.36000 42.51700
C  53.36700 47.83700 42.74500
C  54.27400 48.85200 43.37300
C  53.31600 50.13100 43.43700
C  51.97500 49.61700 42.95500
C  54.93500 48.53100 44.71800
C  53.90100 51.42500 42.76500
C  54.23300 52.60900 43.69500
N  49.23600 48.57900 42.09500
C  49.52600 49.88700 42.36200
C  48.40200 50.70600 42.01600
C  47.55500 49.81800 41.36700
C  48.09600 48.56100 41.41200
C  48.26500 52.15900 42.23200
C  46.21900 49.73200 40.74100
O  45.41600 50.68800 40.44200
C  46.10200 48.31600 40.18300
C  44.83000 47.75900 40.73000
O  44.65700 47.43200 41.89800
O  43.87500 47.80500 39.67900
C  42.48300 47.50600 40.11000
H  49.97200 42.56700 40.55100
H  54.75100 46.32100 42.81600
H  50.80500 51.39500 43.21000
H  45.93400 45.20300 40.36800
H  47.87600 43.35600 39.19600
H  46.47300 43.50600 42.00300
H  47.74500 42.27100 41.74400
H  46.30700 42.19600 40.76700
H  47.17900 44.76500 37.64700
H  46.92000 46.40300 37.86800
H  44.79000 46.19600 37.44600
H  44.38400 45.01400 38.60100
H  53.21000 41.08100 41.15600
H  52.97500 41.71400 39.52400
H  51.63000 41.25800 40.60900
H  56.41600 44.67200 42.99600
H  56.12700 45.43600 41.39700
H  57.09900 43.99900 41.51300
H  55.06300 49.07300 42.65400
H  53.21500 50.32900 44.50400
H  54.45800 47.82500 45.39800
H  54.86000 49.42200 45.34000
H  55.98500 48.24700 44.64000
H  53.19200 51.76600 42.01100
H  54.81200 51.25900 42.19100
H  55.22000 53.03100 43.50600
H  53.96400 52.31500 44.71000
H  53.61800 53.46900 43.43100
H  48.42900 52.69200 41.29500
H  48.99700 52.41400 42.99900
H  47.27700 52.34200 42.65300
H  46.11300 48.38500 39.09500
H  42.14700 48.22100 40.86100
H  42.25600 46.53600 40.55300
H  41.76000 47.54100 39.29400
Mg -5.44200 25.60600 26.31200
C  -4.54100 27.17500 29.26600
C  -7.48300 23.50200 28.17100
C  -6.17300 23.91500 23.45500
C  -3.37900 27.82400 24.52900
N  -5.89400 25.32200 28.46400
C  -5.38700 26.06400 29.46900
C  -6.01700 25.69700 30.79500
C  -6.61800 24.26500 30.43400
C  -6.76300 24.40800 28.95900
C  -5.74100 22.99600 30.78500
C  -7.08600 26.76500 31.28500
C  -6.90400 27.24800 32.76900
H  -6.45000 26.18800 33.87000
N  -6.64900 23.87000 25.92800
C  -7.47200 23.19600 26.80000
C  -8.31600 22.25900 26.05600
C  -7.79000 22.18600 24.72000
C  -6.85400 23.39000 24.66100
C  -9.40100 21.42900 26.77900
C  -8.00700 21.21800 23.70100
O  -7.49300 21.40700 22.58800
C  -8.73900 19.95700 24.02300
N  -4.84400 25.86900 24.24200
C  -5.26600 24.96500 23.32200
C  -4.63700 25.39900 21.99200
C  -3.94600 26.82200 22.29300
C  -4.03900 26.87300 23.76100
C  -3.80900 24.33300 21.18500
C  -4.66600 28.03900 21.58200
C  -4.02400 28.41400 20.27200
N  -4.20400 27.16100 26.73600
C  -3.41800 27.99200 25.89600
C  -2.67700 28.91900 26.69600
C  -3.19100 28.68500 28.00800
C  -4.02500 27.58600 27.97200
C  -1.65800 29.85800 26.13500
C  -3.07400 29.16700 29.39700
O  -2.42600 30.07900 29.92400
C  -3.95400 28.12900 30.25400
C  -3.12700 27.43500 31.30700
O  -2.13600 26.69800 31.10700
O  -3.54300 27.85300 32.57600
C  -2.78600 27.27700 33.72600
H  -8.09000 22.82000 28.77100
H  -6.31100 23.39200 22.50700
H  -2.73200 28.52500 23.99800
H  -5.20400 25.63800 31.51900
H  -7.64400 24.05600 30.73700
H  -5.62000 22.33600 29.92600
H  -6.21000 22.35500 31.53200
H  -4.76800 23.33400 31.14100
H  -8.08400 26.37300 31.09100
H  -6.96600 27.63800 30.64300
H  -7.89400 27.55800 33.10300
H  -6.20300 28.07900 32.84300
H  -10.16700 21.31800 26.01200
H  -9.86700 21.93000 27.62700
H  -9.05300 20.44300 27.08700
H  -8.48600 19.64500 25.03700
H  -8.46200 19.14900 23.34600
H  -9.80100 20.10300 23.82300
H  -5.53400 25.52600 21.38500
H  -2.90600 26.64900 22.01600
H  -3.93600 23.33200 21.59700
H  -2.73900 24.53900 21.15700
H  -4.06400 24.32500 20.12500
H  -4.47200 28.96200 22.12900
H  -5.72100 27.77100 21.52500
H  -3.29800 29.22300 20.35600
H  -4.76500 28.66600 19.51400
H  -3.42300 27.61700 19.83400
H  -1.44100 29.66000 25.08600
H  -0.69500 30.06000 26.60400
H  -2.10000 30.83900 26.31000
H  -4.83400 28.51700 30.76700
H  -2.46300 26.24800 33.57400
H  -3.49200 27.32100 34.55400
H  -1.86500 27.83800 33.88600

