158

Mg 39.90000 10.23600 29.54900
C  41.97200 11.36400 32.15500
C  37.73700 9.17400 31.93700
C  37.96100 8.94600 27.12100
C  42.37400 11.10800 27.32900
N  39.90600 10.30500 31.87200
C  40.74900 11.00700 32.68200
C  40.24600 11.00200 34.14200
C  39.00900 10.07000 34.02100
C  38.88300 9.81400 32.50800
C  39.28600 8.71200 34.80500
C  39.75200 12.44500 34.62600
C  39.43100 12.51000 36.12400
H  40.42200 13.18700 37.08600
N  38.19000 9.16700 29.49700
C  37.41500 8.79100 30.59800
C  36.27400 8.02100 30.23700
C  36.40700 7.88500 28.76800
C  37.51500 8.77900 28.39600
C  35.23000 7.46300 31.23000
C  35.59700 7.03500 27.79800
O  35.77800 6.93600 26.59000
C  34.41000 6.25500 28.35000
N  40.14000 10.03200 27.53000
C  39.12700 9.46600 26.67200
C  39.54500 9.59800 25.16400
C  40.92900 10.38900 25.30600
C  41.19500 10.50200 26.82100
C  39.61600 8.24800 24.28600
C  40.83100 11.81600 24.74000
C  41.76500 12.30000 23.67900
N  41.86200 10.90700 29.68800
C  42.71400 11.34200 28.68000
C  43.81500 12.07400 29.25300
C  43.57500 12.04500 30.62400
C  42.36100 11.38600 30.79900
C  44.91000 12.76600 28.42200
C  44.06700 12.42900 31.95100
O  45.11000 12.99000 32.28400
C  43.01300 12.04800 32.95800
C  43.59700 11.26600 34.08100
O  43.73400 10.07400 34.17700
O  44.05200 12.15000 35.04200
C  44.78800 11.66400 36.22200
H  37.06500 8.90600 32.75500
H  37.28500 8.55000 26.36000
H  43.05200 11.55700 26.59900
H  41.03500 10.59000 34.77100
H  38.12000 10.62100 34.32600
H  38.65600 8.62700 35.69100
H  40.32400 8.69200 35.13600
H  39.12100 7.86100 34.14400
H  38.88200 12.75500 34.04700
H  40.52200 13.20600 34.50200
H  39.29700 11.46900 36.41800
H  38.50400 13.08300 36.14500
H  34.22700 7.72600 30.89500
H  35.37800 7.71200 32.28100
H  35.33300 6.38900 31.07500
H  34.82100 5.47200 28.98900
H  34.03900 5.75200 27.45800
H  33.66700 6.92900 28.77600
H  38.74700 10.20400 24.73400
H  41.77500 9.90000 24.82400
H  40.59000 7.89500 23.94900
H  38.98800 8.34700 23.40100
H  39.35500 7.33500 24.82300
H  40.99900 12.58300 25.49700
H  39.88300 11.91300 24.21100
H  41.24900 12.47600 22.73500
H  42.47400 11.57600 23.27800
H  42.41000 13.12300 23.98600
H  45.49500 13.45400 29.03200
H  44.56500 13.39700 27.60300
H  45.60800 12.00000 28.08500
H  42.58900 12.95900 33.38100
H  45.83800 11.79900 35.96000
H  44.76900 10.59900 36.45600
H  44.60500 12.25100 37.12200
Mg 47.10600 16.92800 27.60100
C  45.20700 16.84200 30.47300
C  49.40000 18.90800 29.23200
C  48.66700 17.45400 24.72800
C  44.33500 15.60700 25.81700
N  47.22700 17.79900 29.70100
C  46.45200 17.43400 30.72400
C  47.06700 17.95400 32.03200
C  48.40800 18.71800 31.61300
C  48.34800 18.46200 30.07100
C  48.43800 20.13100 32.12600
C  47.31800 16.87600 33.04900
C  47.66700 17.36900 34.45800
H  46.88600 18.58400 34.96400
N  48.84700 17.88000 27.04900
C  49.67300 18.60700 27.88000
C  50.88000 18.97800 27.17100
C  50.73000 18.55200 25.80500
C  49.40100 17.86100 25.79100
C  51.98600 19.76400 27.78100
C  51.61500 18.78300 24.58200
O  51.32000 18.41700 23.47300
C  52.90100 19.63400 24.71600
N  46.60500 16.50800 25.55900
C  47.42900 16.81600 24.56100
C  46.75700 16.50400 23.19700
C  45.65100 15.54600 23.56900
C  45.52200 15.86000 25.06300
C  46.42400 17.76500 22.39300
C  46.02800 14.11800 23.36000
C  45.34000 13.51000 22.11900
N  45.14300 16.42600 27.98600
C  44.16100 15.84300 27.15600
C  42.97900 15.57800 27.98000
C  43.37200 15.90800 29.31500
C  44.70200 16.45300 29.23500
C  41.60900 15.10500 27.56600
C  42.90300 15.98100 30.70800
O  41.83800 15.65000 31.20700
C  44.14500 16.47900 31.54900
C  43.66600 17.63000 32.37600
O  44.02900 18.78700 32.17400
O  42.84000 17.23200 33.38100
C  42.18700 18.20600 34.28000
H  50.07100 19.60900 29.73300
H  49.18400 17.62100 23.78100
H  43.45700 15.23500 25.28300
H  46.42600 18.76000 32.38900
H  49.28900 18.20300 31.99500
H  49.40700 20.26300 32.60800
H  47.67300 20.38300 32.86000
H  48.29900 20.82100 31.29400
H  48.12300 16.27300 32.63000
H  46.43700 16.23900 33.11700
H  48.74600 17.51400 34.51600
H  47.58000 16.48100 35.08400
H  52.94100 19.33900 27.47200
H  51.96300 19.68200 28.86800
H  51.81300 20.82400 27.59700
H  53.70000 19.12400 25.25400
H  52.62600 20.60500 25.12800
H  53.28000 19.70800 23.69700
H  47.42500 16.00300 22.49700
H  44.66700 15.72000 23.13400
H  46.79400 18.68000 22.85600
H  45.34800 17.79100 22.22000
H  47.03500 17.69500 21.49300
H  45.72900 13.51100 24.21500
H  47.10600 13.95800 23.36000
H  45.27000 14.04000 21.16900
H  44.37400 13.09300 22.40400
H  45.98400 12.69000 21.80300
H  41.50900 14.07700 27.91400
H  41.49100 15.21200 26.48800
H  40.82300 15.74100 27.97300
H  44.38400 15.63700 32.19800
H  41.11900 18.06100 34.12000
H  42.49600 19.23500 34.09300
H  42.31300 18.02400 35.34700

