158

Mg 25.97700 1.52000 28.75200
C  28.09000 1.33200 31.76800
C  23.30400 1.57800 30.89300
C  24.20400 2.06600 26.08400
C  28.84200 1.28400 26.97200
N  25.77200 1.55800 31.06700
C  26.71700 1.64700 32.08300
C  26.04000 1.73100 33.50300
C  24.49600 1.74700 33.12200
C  24.51100 1.60600 31.62000
C  23.60000 0.66900 33.81600
C  26.59100 3.00300 34.16100
C  27.38300 2.89500 35.53900
H  26.98700 3.80700 36.73100
N  24.05200 1.55400 28.51800
C  23.06100 1.57300 29.50300
C  21.86400 1.58100 28.89000
C  22.04700 1.74200 27.50700
C  23.50200 1.84300 27.30600
C  20.61200 1.45900 29.65200
C  21.02900 1.97800 26.44800
O  21.40900 2.29700 25.30500
C  19.59000 1.82100 26.79300
N  26.45000 1.54400 26.76500
C  25.54000 1.92800 25.81300
C  26.17600 1.83500 24.40900
C  27.72400 1.68900 24.78000
C  27.71100 1.42600 26.25900
C  25.54200 0.70600 23.51700
C  28.52600 2.98200 24.35800
C  30.01300 2.78700 24.02600
N  28.05800 1.18700 29.17000
C  29.05300 1.10600 28.30100
C  30.31000 0.74100 29.07200
C  29.95200 0.93000 30.42500
C  28.56700 1.16700 30.43100
C  31.65400 0.48900 28.43700
C  30.50000 0.88500 31.77600
O  31.56400 0.53100 32.22700
C  29.28500 1.23700 32.66600
C  29.13400 0.06100 33.59600
O  28.39000 -0.87800 33.36200
O  29.87300 0.23900 34.68800
C  29.68000 -0.72900 35.74000
H  22.41900 1.67300 31.52500
H  23.65500 2.46700 25.23000
H  29.76000 1.17800 26.39100
H  26.25700 0.87000 34.13500
H  24.11000 2.74500 33.32900
H  23.34100 -0.13400 33.12600
H  22.74800 1.27800 34.11600
H  24.17700 0.30700 34.66700
H  25.78000 3.69300 34.39900
H  27.17100 3.57100 33.43500
H  28.43800 3.11500 35.37500
H  27.19800 1.88800 35.91300
H  20.12600 2.43500 29.62500
H  20.61800 1.30700 30.73100
H  19.90100 0.76500 29.20400
H  18.96800 1.90000 25.90100
H  19.39400 2.58900 27.54100
H  19.59300 0.80600 27.18900
H  25.87600 2.78500 23.96600
H  28.04700 0.86500 24.14400
H  26.24300 -0.04700 23.15700
H  25.07800 1.17600 22.64900
H  24.85400 0.20100 24.19500
H  28.32000 3.81300 25.03300
H  28.09100 3.33500 23.42200
H  30.24000 2.94500 22.97100
H  30.26800 1.76600 24.30900
H  30.56200 3.51500 24.62300
H  31.92700 1.11500 27.58700
H  31.50300 -0.55500 28.16400
H  32.47200 0.49400 29.15700
H  29.33700 2.14200 33.27100
H  28.86600 -0.27500 36.30600
H  30.59400 -0.70800 36.33400
H  29.44400 -1.74800 35.43600
Mg 35.19400 48.65800 25.92800
C  35.49100 46.68500 28.86500
C  33.87400 51.07500 27.80700
C  34.87100 50.26900 23.15200
C  35.90400 45.62400 24.05700
N  34.59100 48.72200 27.96600
C  34.95100 47.91100 29.03000
C  34.65800 48.59600 30.38600
C  33.78100 49.83200 29.97500
C  34.15100 49.92100 28.46800
C  32.24800 49.72400 30.31300
C  36.02900 49.00700 30.99900
C  36.35400 48.41800 32.40900
H  36.17400 49.37200 33.61500
N  34.56600 50.51100 25.49500
C  34.02900 51.37600 26.44300
C  33.81800 52.63600 25.72700
C  34.21500 52.40700 24.41300
C  34.57400 51.00800 24.32300
C  33.31600 53.80600 26.48200
C  34.26800 53.41400 23.26400
O  34.50900 53.06300 22.14200
C  34.03200 54.89100 23.62000
N  35.26900 48.01700 23.89700
C  35.11700 48.91300 22.91600
C  35.11800 48.27600 21.48300
C  35.75800 46.88900 21.85700
C  35.58100 46.81800 23.37400
C  33.64000 48.21700 20.87000
C  37.24800 46.67900 21.45600
C  37.50700 45.33400 20.66500
N  35.61200 46.51900 26.35700
C  35.89500 45.47700 25.47800
C  36.11700 44.24700 26.28100
C  36.11000 44.72300 27.62300
C  35.66600 46.09800 27.57700
C  36.39200 42.86600 25.78300
C  36.23300 44.38300 29.02100
O  36.52400 43.34400 29.57100
C  35.90100 45.65000 29.89800
C  34.71700 45.16500 30.71600
O  33.53600 44.97400 30.32100
O  35.17000 44.97100 32.01400
C  34.08300 44.82600 33.07700
H  33.49300 51.83000 28.49700
H  34.81900 50.78000 22.18900
H  36.24100 44.78700 23.44200
H  34.13000 47.88900 31.02600
H  33.99800 50.80600 30.41300
H  31.62700 50.16600 29.53400
H  32.06500 50.15500 31.29700
H  32.02900 48.65800 30.36700
H  36.18400 50.08500 30.93900
H  36.88000 48.58400 30.46400
H  37.37000 48.03000 32.48300
H  35.68200 47.59300 32.64400
H  34.07900 54.57900 26.57400
H  32.81800 53.68600 27.44400
H  32.49700 54.25900 25.92500
H  34.52900 55.27400 24.51100
H  32.97300 54.95500 23.87300
H  34.12500 55.48300 22.70900
H  35.76400 48.80800 20.78500
H  35.10500 46.06600 21.56800
H  33.35800 47.21000 20.56500
H  33.46200 48.87000 20.01600
H  32.89400 48.61700 21.55700
H  37.87300 46.57800 22.34300
H  37.61300 47.57900 20.96200
H  38.47200 45.55800 20.21100
H  36.85800 45.21100 19.79700
H  37.48800 44.49000 21.35400
H  36.12100 42.81200 24.72900
H  35.84900 42.01600 26.19600
H  37.46800 42.69300 25.76500
H  36.75300 45.88700 30.53500
H  33.92500 43.77100 33.30200
H  33.12100 45.21200 32.73800
H  34.48700 45.31200 33.96500

