158

Mg 48.28900 16.42800 28.28400
C  46.13700 16.22200 31.10200
C  50.46300 18.11800 30.45500
C  50.14900 17.29700 25.69400
C  45.78200 15.11200 26.44900
N  48.28500 17.10900 30.53300
C  47.37400 16.77800 31.46900
C  47.82200 17.12200 32.93900
C  49.14000 17.94000 32.67400
C  49.34400 17.67400 31.13200
C  48.84900 19.44100 33.06100
C  48.03900 15.86500 33.79600
C  47.29100 15.71300 35.07500
H  47.13600 16.98400 35.91400
N  50.06000 17.56400 28.09500
C  50.79100 18.05600 29.13100
C  52.06800 18.66400 28.59500
C  51.99900 18.36600 27.21400
C  50.69400 17.80000 26.93100
C  53.12500 19.24100 29.51400
C  53.07600 18.70000 26.13200
O  52.90100 18.43400 24.96000
C  54.45300 19.16300 26.49500
N  47.91700 16.37100 26.33000
C  48.87100 16.64200 25.45600
C  48.48900 16.16100 24.01900
C  47.06900 15.46500 24.23300
C  46.88300 15.63300 25.76800
C  48.51500 17.34200 22.99500
C  46.95100 13.95700 23.75700
C  45.60300 13.40200 23.23100
N  46.47300 15.55400 28.65300
C  45.50700 15.06900 27.79200
C  44.30200 14.73100 28.45700
C  44.51300 15.26500 29.70300
C  45.86100 15.68800 29.82100
C  43.02000 14.19500 27.77900
C  43.82200 15.46600 30.96500
O  42.64700 15.35400 31.35500
C  44.97400 15.97500 31.96300
C  44.45000 17.06800 32.73400
O  44.09800 18.15800 32.33600
O  44.25400 16.58900 34.01900
C  43.48300 17.42800 34.84300
H  51.14200 18.50100 31.22000
H  50.77900 17.32700 24.80200
H  44.93900 14.81100 25.82400
H  47.04800 17.69900 33.44400
H  49.93700 17.64800 33.35700
H  49.32900 19.74200 33.99200
H  47.77600 19.58500 33.19300
H  49.15500 20.04500 32.20600
H  49.10100 15.66600 33.94200
H  47.61900 15.02800 33.23900
H  47.84300 14.92400 35.58500
H  46.28400 15.30200 35.00800
H  52.83000 19.46100 30.54000
H  53.48500 20.19500 29.12900
H  53.99500 18.58500 29.54500
H  54.88600 18.87500 27.45300
H  54.37200 20.25000 26.48500
H  55.08100 18.83500 25.66700
H  49.22900 15.49800 23.56900
H  46.29100 16.13500 23.86700
H  49.38200 17.27100 22.33800
H  48.83100 18.23200 23.53900
H  47.62900 17.45400 22.37000
H  47.14500 13.29000 24.59700
H  47.77900 13.76000 23.07600
H  44.98600 14.21800 22.85700
H  45.08800 12.89800 24.04800
H  45.63600 12.54800 22.55400
H  42.87800 13.13100 27.96700
H  42.99100 14.36100 26.70200
H  42.17500 14.60600 28.33200
H  45.09500 15.05100 32.52800
H  42.44700 17.24000 34.56000
H  43.63000 18.50700 34.87800
H  43.58200 17.04200 35.85700
Mg -11.57600 16.85200 41.59400
C  -8.42100 15.35000 41.09600
C  -10.11500 19.80900 40.41000
C  -14.63900 18.05600 41.38700
C  -12.82100 13.64000 42.38200
N  -9.51700 17.47900 40.68000
C  -8.43800 16.70000 40.72600
C  -7.20800 17.43300 40.28300
C  -7.74100 18.91100 40.26600
C  -9.22300 18.73500 40.44400
C  -7.04400 19.88600 41.32400
C  -6.65800 17.01200 38.87100
C  -5.15300 16.96200 38.73100
H  -4.63800 17.19700 37.27900
N  -12.33200 18.68800 40.93000
C  -11.57800 19.78500 40.58000
C  -12.49200 20.87300 40.25600
C  -13.85600 20.44300 40.53000
C  -13.68900 19.03000 41.00500
C  -12.06600 22.25100 39.75700
C  -15.11400 21.23500 40.27800
O  -15.08800 22.38500 39.79900
C  -16.47500 20.66100 40.61000
N  -13.47100 15.96000 41.86100
C  -14.57700 16.67700 41.70600
C  -15.86300 15.87600 41.98000
C  -15.28300 14.48500 42.37200
C  -13.74200 14.66500 42.26700
C  -16.81900 16.50300 42.98700
C  -15.80200 13.28100 41.48900
C  -16.98600 12.54100 42.03900
N  -10.78500 14.86100 41.80100
C  -11.40300 13.69400 42.24300
C  -10.35400 12.66500 42.23900
C  -9.17700 13.24200 41.82000
C  -9.48700 14.55600 41.56300
C  -10.66700 11.24400 42.45900
C  -7.75800 12.98400 41.46700
O  -7.07800 11.99600 41.51800
C  -7.16200 14.45900 41.03500
C  -6.16200 14.86000 42.04700
O  -6.37200 15.14600 43.21200
O  -4.86800 14.83600 41.44400
C  -3.69000 15.03500 42.30600
H  -9.67500 20.80100 40.28700
H  -15.65100 18.46400 41.34400
H  -13.29000 12.66700 42.54300
H  -6.51800 17.28400 41.11300
H  -7.58500 19.43400 39.32200
H  -6.17800 19.41700 41.79100
H  -7.76800 19.90800 42.13900
H  -6.84800 20.90000 40.97500
H  -7.03100 17.61900 38.04600
H  -6.99300 15.98900 38.70100
H  -4.68300 16.01900 39.00800
H  -4.86200 17.80900 39.35200
H  -12.33800 22.56400 38.74900
H  -10.99100 22.41200 39.83000
H  -12.40200 23.01400 40.46000
H  -16.64700 19.84700 39.90600
H  -17.23600 21.43000 40.47400
H  -16.43100 20.25300 41.61900
H  -16.23700 16.01700 40.96600
H  -15.52700 14.34800 43.42500
H  -16.98800 15.92200 43.89400
H  -17.81400 16.66800 42.57400
H  -16.40700 17.46600 43.28700
H  -14.96600 12.61500 41.27700
H  -16.11600 13.66400 40.51800
H  -17.25100 13.01800 42.98300
H  -16.68900 11.52600 42.30300
H  -17.80400 12.48500 41.32000
H  -11.40700 11.25300 43.25900
H  -9.80400 10.62600 42.70500
H  -11.17000 10.79100 41.60400
H  -6.64000 14.43800 40.07900
H  -3.88200 15.05500 43.37900
H  -3.31600 16.04300 42.13200
H  -2.92100 14.32000 42.01300

