158

Mg 16.55700 52.35000 26.53900
C  18.45700 50.93300 28.99200
C  14.18800 53.15900 28.80400
C  14.37500 53.30600 23.91600
C  18.71900 51.07700 24.19900
N  16.29400 51.89100 28.61700
C  17.23200 51.43600 29.46400
C  16.90600 51.76300 31.04000
C  15.34100 52.09200 30.88600
C  15.22600 52.40500 29.28500
C  14.38900 51.01300 31.46100
C  17.70700 52.97000 31.57800
C  17.89400 53.11700 33.14500
H  16.98500 52.18000 33.99100
N  14.70200 53.33400 26.40600
C  13.88900 53.58300 27.48400
C  12.82900 54.39300 27.03700
C  12.91000 54.59000 25.65100
C  14.04500 53.73000 25.21100
C  11.94200 54.99700 28.10200
C  12.07500 55.43000 24.68900
O  12.31200 55.49100 23.52400
C  11.03700 56.42500 25.21000
N  16.47200 51.87200 24.32400
C  15.51200 52.45700 23.51700
C  15.84600 52.25800 22.03800
C  17.29000 51.65800 22.13100
C  17.58000 51.60500 23.61900
C  14.80200 51.48700 21.36600
C  18.37900 52.43000 21.34000
C  19.44000 51.71700 20.59600
N  18.23900 51.16500 26.51800
C  19.03400 50.72800 25.49000
C  20.17800 49.91100 26.00800
C  19.94400 49.98400 27.42500
C  18.81600 50.79900 27.66000
C  21.27900 49.08100 25.35600
C  20.42700 49.56800 28.62000
O  21.35200 48.80100 28.89500
C  19.52900 50.29600 29.77100
C  19.03500 49.18400 30.64600
O  18.57500 48.11900 30.16300
O  19.23200 49.44600 31.92300
C  19.07000 48.41300 32.91700
H  13.51500 53.40800 29.62700
H  13.93300 53.70100 23.00000
H  19.53000 50.80300 23.52100
H  17.05500 50.85100 31.61800
H  15.07800 52.93800 31.52100
H  13.71800 51.54100 32.13900
H  14.98400 50.19100 31.85900
H  13.81800 50.51300 30.67900
H  17.27800 53.90300 31.21300
H  18.72500 52.90200 31.19500
H  17.66700 54.12100 33.50200
H  18.94000 53.01100 33.43300
H  11.23600 55.72000 27.69400
H  12.45200 55.54100 28.89700
H  11.45000 54.16500 28.60700
H  11.56600 57.07900 25.90300
H  10.34000 55.89500 25.85900
H  10.55500 57.00100 24.41900
H  15.84800 53.16200 21.42900
H  17.31700 50.64200 21.73700
H  15.23000 50.62700 20.85100
H  14.28000 52.08600 20.61900
H  14.02100 51.17300 22.05900
H  18.94200 53.09400 21.99700
H  17.94900 53.16600 20.66100
H  20.45600 51.86000 20.96500
H  19.33900 51.94800 19.53600
H  19.36800 50.63900 20.74300
H  21.44100 49.43600 24.33800
H  21.16900 47.99700 25.36300
H  22.23700 49.23000 25.85400
H  20.13700 50.97000 30.37300
H  17.99400 48.46300 33.08500
H  19.59800 48.67600 33.83400
H  19.17500 47.37600 32.59800
Mg -13.04900 16.00000 42.37300
C  -9.99200 14.47500 41.69500
C  -11.75400 18.82500 40.45200
C  -16.13200 17.30200 41.92500
C  -14.40300 12.90100 43.18200
N  -11.15200 16.53700 41.16700
C  -10.00700 15.73500 41.12000
C  -8.82300 16.49600 40.38100
C  -9.40900 17.94300 40.21100
C  -10.89600 17.73600 40.59200
C  -8.73600 19.06500 41.06400
C  -8.30700 15.93400 39.01100
C  -6.78400 16.26300 38.91400
H  -6.39300 16.88400 37.66300
N  -13.82800 17.85900 41.61000
C  -13.08300 18.84200 40.88000
C  -14.08800 19.88500 40.42800
C  -15.39200 19.30400 40.46100
C  -15.17100 18.09700 41.34800
C  -13.77900 21.21000 39.86700
C  -16.65000 19.95700 40.01200
O  -16.60900 20.99200 39.39200
C  -17.94900 19.33500 40.28700
N  -14.96600 15.15800 42.37800
C  -16.04800 15.97400 42.39200
C  -17.30000 15.16000 42.77300
C  -16.82600 13.64600 42.81000
C  -15.31600 13.87700 42.80200
C  -17.83900 15.65900 44.13200
C  -17.41800 12.75800 41.67100
C  -18.03700 11.41300 42.19500
N  -12.33600 14.06700 42.75700
C  -12.94800 12.98000 43.12400
C  -11.96000 11.98200 43.27500
C  -10.77300 12.48200 42.74500
C  -11.05900 13.76100 42.38700
C  -12.19700 10.56000 43.66600
C  -9.38200 12.27100 42.47200
O  -8.69500 11.26400 42.61900
C  -8.83200 13.58300 41.76500
C  -7.72500 14.05700 42.60900
O  -7.79200 14.19700 43.82200
O  -6.63400 14.23600 41.75100
C  -5.29300 14.66900 42.31300
H  -11.51100 19.76200 39.94600
H  -17.08900 17.82600 41.96500
H  -14.81900 11.95500 43.53500
H  -8.03600 16.56400 41.13200
H  -9.42000 18.20900 39.15400
H  -7.93700 18.69400 41.70500
H  -9.40400 19.51200 41.80000
H  -8.38000 19.75200 40.29600
H  -8.84700 16.37600 38.17300
H  -8.45800 14.85900 39.11300
H  -6.17600 15.38100 39.11400
H  -6.55500 17.01400 39.67000
H  -14.18400 22.04900 40.43300
H  -14.13400 21.16600 38.83700
H  -12.72400 21.45000 39.73300
H  -18.02200 18.26800 40.07600
H  -18.63700 19.87800 39.63900
H  -18.26800 19.52200 41.31300
H  -17.91000 15.45200 41.91800
H  -17.02600 13.26700 43.81100
H  -17.01600 16.16400 44.63800
H  -17.92200 14.80800 44.80700
H  -18.75200 16.23700 43.99000
H  -16.54000 12.37400 41.15200
H  -18.05800 13.24800 40.93600
H  -19.12600 11.43800 42.16200
H  -17.86600 11.23900 43.25700
H  -17.69200 10.49000 41.73000
H  -12.89600 10.19300 42.91400
H  -12.70700 10.53500 44.62800
H  -11.30800 9.93000 43.69100
H  -8.64200 13.26300 40.74000
H  -4.61200 14.78400 41.46900
H  -4.88200 13.93400 43.00500
H  -5.40300 15.63400 42.80800

