158

Mg 24.64400 -4.89700 45.68500
C  26.70100 -2.34400 44.62600
C  22.05900 -3.70900 43.92100
C  23.10700 -7.95700 46.11500
C  27.46600 -6.24200 47.53300
N  24.44700 -3.29500 44.22000
C  25.38200 -2.28400 44.13700
C  24.89800 -1.36600 43.00300
C  23.32200 -1.58500 43.08000
C  23.25200 -2.94900 43.73700
C  22.51200 -0.59000 43.94100
C  25.66000 -1.79500 41.71400
C  26.25000 -0.75300 40.73900
H  25.95800 -0.80700 39.23000
N  22.76400 -5.64600 45.21600
C  21.86000 -4.99500 44.48600
C  20.67900 -5.81500 44.32800
C  20.99700 -7.06400 44.92800
C  22.35100 -6.94700 45.47900
C  19.42500 -5.46000 43.58100
C  20.07200 -8.27800 45.00600
O  18.86300 -8.22300 44.61800
C  20.51900 -9.67600 45.47600
N  25.32700 -6.92400 46.39300
C  24.37300 -7.91900 46.62200
C  25.01500 -9.07400 47.49400
C  26.29400 -8.43300 48.00900
C  26.43900 -7.15700 47.26100
C  23.94500 -9.55100 48.52300
C  27.59100 -9.27300 47.74600
C  28.63400 -9.29800 48.89100
N  26.77300 -4.47800 45.97700
C  27.73200 -5.05900 46.85000
C  28.90100 -4.18500 46.85600
C  28.56400 -3.10200 45.94000
C  27.25500 -3.35800 45.40900
C  30.14700 -4.32400 47.60200
C  29.04300 -1.98200 45.33000
O  30.09800 -1.40000 45.45500
C  27.83400 -1.40500 44.35800
C  27.56000 0.01900 44.59100
O  26.93000 0.47400 45.52300
O  28.19600 0.74100 43.64900
C  27.99800 2.18000 43.83000
H  21.19100 -3.34500 43.36700
H  22.67700 -8.92500 46.38000
H  28.30500 -6.57800 48.14600
H  25.16400 -0.32500 43.18400
H  22.80900 -1.62900 42.11900
H  21.82100 -0.02000 43.32100
H  23.16000 0.08400 44.50200
H  21.92000 -1.08100 44.71300
H  24.83900 -2.13300 41.08100
H  26.37300 -2.59000 41.93200
H  27.33600 -0.84700 40.72600
H  25.93700 0.25100 41.02600
H  19.05900 -6.15500 42.82500
H  19.59600 -4.50900 43.07700
H  18.51000 -5.25000 44.13500
H  20.76800 -9.72800 46.53600
H  21.43500 -10.00000 44.98300
H  19.71800 -10.40000 45.32400
H  25.19100 -9.97000 46.89900
H  26.17100 -8.10200 49.04100
H  24.36300 -9.58200 49.53000
H  23.47300 -10.51700 48.34800
H  23.17700 -8.78000 48.57400
H  28.07700 -8.88900 46.84900
H  27.13400 -10.25400 47.62000
H  28.47900 -10.26000 49.37900
H  28.38700 -8.56200 49.65800
H  29.64200 -9.13000 48.51400
H  30.27400 -3.51600 48.32200
H  31.01100 -4.36900 46.93900
H  30.15400 -5.23600 48.19800
H  28.11300 -1.50600 43.30900
H  28.68500 2.93500 43.44600
H  28.04700 2.38800 44.89900
H  26.99600 2.47900 43.52500
Mg 42.33200 41.18100 25.62700
C  41.58500 43.44500 28.10800
C  43.47500 39.12400 28.02200
C  43.31300 39.09400 23.25000
C  41.73900 43.58300 23.20200
N  42.53800 41.38400 27.89700
C  41.90300 42.20700 28.64500
C  41.94000 41.81000 30.16600
C  42.66900 40.42100 30.12600
C  42.91200 40.27600 28.59300
C  44.03600 40.29800 31.04100
C  40.56300 41.83600 30.91400
C  40.41200 41.31100 32.26600
H  39.79900 42.08100 33.34600
N  43.26600 39.24100 25.63500
C  43.75800 38.62100 26.69800
C  44.24100 37.34900 26.28700
C  44.25400 37.37200 24.93400
C  43.59900 38.55500 24.54000
C  44.68500 36.27600 27.32600
C  44.76800 36.24600 23.97500
O  44.68000 36.31500 22.74800
C  45.35600 35.07300 24.59900
N  42.32800 41.26500 23.57100
C  42.78500 40.23300 22.78700
C  42.57500 40.49500 21.33100
C  42.12700 41.98200 21.29800
C  42.04900 42.28100 22.76200
C  43.83400 40.27600 20.48100
C  40.84900 42.31100 20.49600
C  40.95300 43.41200 19.45000
N  41.77300 43.13300 25.60300
C  41.59300 44.00600 24.53400
C  41.22800 45.26100 25.09200
C  41.18700 45.13600 26.49800
C  41.51600 43.75000 26.74800
C  40.73400 46.37000 24.24300
C  40.83000 45.80300 27.71300
O  40.47900 46.95500 27.95100
C  41.14000 44.75100 28.88500
C  42.25100 45.27000 29.76800
O  43.40300 45.25200 29.40600
O  41.78400 45.51800 31.04700
C  42.86900 45.65200 32.10900
H  43.73400 38.33700 28.73200
H  43.54100 38.36100 22.47300
H  41.42600 44.31100 22.45100
H  42.52700 42.54500 30.71500
H  42.02600 39.69200 30.62000
H  44.03000 41.15800 31.71200
H  44.92800 40.19900 30.42300
H  43.94100 39.42700 31.68900
H  39.89600 41.19300 30.34100
H  40.15100 42.84500 30.93400
H  41.40000 40.99000 32.59700
H  39.91600 40.36800 32.03900
H  44.22700 35.32100 27.06800
H  44.42000 36.49900 28.36000
H  45.77000 36.27100 27.22400
H  44.57800 34.49100 25.09400
H  46.05600 35.39200 25.37000
H  45.86800 34.56300 23.78300
H  41.74200 39.94900 20.88900
H  42.95400 42.55000 20.87100
H  43.96000 39.24400 20.15300
H  44.68600 40.54500 21.10500
H  43.80400 40.82400 19.54000
H  40.00800 42.50300 21.16200
H  40.53200 41.46100 19.89200
H  40.27000 44.23600 19.65600
H  40.58000 43.11500 18.47000
H  41.99600 43.68800 19.29100
H  40.49400 45.94800 23.26700
H  41.58900 47.03200 24.10400
H  39.88600 46.80900 24.76800
H  40.19300 44.61100 29.40700
H  43.11700 44.62600 32.38100
H  42.46900 46.14700 32.99400
H  43.69500 46.20600 31.66400

