158

Mg 46.72100 25.25300 28.46900
C  47.75500 27.53500 31.00600
C  45.62500 23.14200 30.84800
C  45.97100 23.21600 25.96000
C  48.30000 27.51200 26.11200
N  46.79500 25.26900 30.71600
C  47.19900 26.32000 31.51600
C  46.96600 25.95600 32.99800
C  46.18800 24.54700 32.90700
C  46.19000 24.26600 31.35100
C  46.67600 23.28800 33.84800
C  46.38400 27.05000 33.93900
C  45.62000 26.63000 35.10200
H  46.37300 26.34700 36.44200
N  45.78800 23.56700 28.39600
C  45.43700 22.77000 29.48600
C  44.79200 21.61400 29.01400
C  44.89300 21.50300 27.59800
C  45.59700 22.81600 27.22400
C  44.24600 20.60200 29.83400
C  44.52100 20.41500 26.61500
O  44.83900 20.42000 25.46300
C  43.76600 19.25000 27.04600
N  46.97800 25.48500 26.38400
C  46.64200 24.40700 25.60800
C  47.03200 24.59800 24.13000
C  47.40000 26.09600 24.13000
C  47.62000 26.39600 25.65000
C  48.20500 23.70800 23.64900
C  46.42400 27.12800 23.48800
C  47.04600 28.35100 22.84400
N  47.84600 27.09200 28.51700
C  48.44100 27.85900 27.48900
C  48.90200 29.17400 27.98900
C  48.66400 29.07500 29.38500
C  47.99400 27.80700 29.63100
C  49.63100 30.14900 27.17500
C  48.82200 29.77100 30.62100
O  49.22300 30.91900 30.84900
C  48.40500 28.75600 31.73800
C  49.65500 28.38200 32.49300
O  50.70500 27.93500 32.05000
O  49.47500 28.56200 33.84000
C  50.45700 28.06800 34.81700
H  45.19200 22.34400 31.45600
H  45.67200 22.56300 25.13800
H  48.69600 28.30400 25.47200
H  48.00500 25.76500 33.26900
H  45.15900 24.69300 33.23500
H  47.30800 23.67500 34.64700
H  47.26500 22.65900 33.18100
H  45.85900 22.74400 34.32100
H  45.81300 27.78500 33.37100
H  47.28300 27.41100 34.43900
H  44.95400 25.80000 34.86600
H  45.04200 27.53500 35.28700
H  44.80500 19.66600 29.82800
H  43.23100 20.31000 29.56200
H  44.19100 20.98500 30.85300
H  42.88600 19.69100 27.51400
H  44.44600 18.59100 27.58600
H  43.38800 18.77800 26.14000
H  46.12700 24.31500 23.59200
H  48.43900 26.32400 23.88900
H  48.62900 23.05500 24.41200
H  48.94100 24.40300 23.24500
H  47.79800 23.16000 22.80000
H  45.65700 27.38500 24.21900
H  45.72900 26.67800 22.77900
H  46.66600 28.50100 21.83300
H  48.11900 28.19000 22.95000
H  46.84200 29.20100 23.49600
H  49.40300 31.15200 27.53400
H  49.32000 30.20700 26.13200
H  50.67900 30.01300 27.44300
H  47.65900 29.28300 32.33400
H  50.67700 28.92600 35.45200
H  51.43100 27.78700 34.41700
H  49.98400 27.23600 35.33800
Mg 43.16600 42.01200 26.05900
C  42.40500 44.30200 28.58300
C  43.85600 39.67700 28.37500
C  44.14000 39.93200 23.55900
C  42.88900 44.55100 23.69900
N  43.32200 42.09400 28.25900
C  42.68900 43.07000 29.04300
C  42.59000 42.65400 30.49700
C  43.20200 41.15000 30.45300
C  43.47100 40.92700 28.91600
C  44.54300 41.08300 31.28800
C  41.16900 42.61000 31.11500
C  41.20100 42.12200 32.51700
H  41.10700 43.24500 33.61500
N  43.82900 40.05500 25.98700
C  44.12500 39.28900 27.07400
C  44.53300 37.96900 26.65100
C  44.46700 37.98400 25.20500
C  44.17100 39.38500 24.85300
C  44.98800 36.77100 27.57300
C  44.57700 36.85500 24.29900
O  44.49300 37.08900 23.08100
C  44.77700 35.43400 24.74600
N  43.61200 42.19600 23.96400
C  43.89400 41.22200 23.13200
C  44.14700 41.67300 21.72500
C  43.49200 43.03300 21.72000
C  43.37800 43.29900 23.20400
C  45.64500 41.85300 21.30100
C  42.12300 43.08800 21.01200
C  40.87600 42.29000 21.61800
N  42.72100 43.99300 26.09900
C  42.61800 44.88400 25.04500
C  42.12100 46.15600 25.57400
C  41.95400 45.93400 26.96400
C  42.46500 44.64000 27.20100
C  41.92000 47.45300 24.96100
C  41.51500 46.56200 28.16200
O  41.06500 47.70800 28.33100
C  41.90000 45.61700 29.34500
C  42.95500 46.19000 30.13700
O  44.13600 46.11500 29.92100
O  42.34600 46.75500 31.26600
C  43.17900 47.29400 32.31100
H  43.89400 38.99500 29.22700
H  44.61400 39.38800 22.74000
H  42.54100 45.38700 23.08800
H  43.17400 43.29600 31.15600
H  42.45300 40.44100 30.80500
H  45.21900 41.86200 30.93400
H  44.96600 40.07900 31.24500
H  44.41000 41.29400 32.34900
H  40.51800 41.99400 30.49500
H  40.75300 43.61500 31.03800
H  42.12400 41.66300 32.87100
H  40.45100 41.34700 32.67000
H  44.28300 35.94200 27.50300
H  44.99100 37.20100 28.57400
H  46.03900 36.48500 27.52400
H  45.03000 34.81900 23.88200
H  43.82200 35.15300 25.19100
H  45.66400 35.37800 25.37700
H  43.56700 40.97500 21.12100
H  44.12100 43.83500 21.33300
H  45.71400 41.50500 20.27000
H  46.21000 41.25700 22.01800
H  46.02300 42.86900 21.41900
H  42.29300 42.59200 20.05700
H  41.73400 44.10700 21.01500
H  41.20200 41.54000 22.33900
H  40.38600 41.74800 20.81000
H  40.17000 42.90100 22.18100
H  41.03600 47.32900 24.33500
H  42.72200 47.47800 24.22300
H  42.09200 48.39100 25.48800
H  40.98200 45.46200 29.91200
H  44.24400 47.37200 32.09400
H  43.21600 46.56100 33.11700
H  42.70200 48.15600 32.77700

