158

Mg 26.12600 1.21000 28.82500
C  28.24700 0.77400 31.63800
C  23.54400 1.75600 31.13100
C  23.96600 1.54500 26.30400
C  28.62400 0.52200 26.74200
N  25.93400 1.19700 31.20100
C  26.97900 1.13700 32.08600
C  26.36400 1.09900 33.46000
C  24.88500 1.52100 33.31500
C  24.75800 1.45000 31.76800
C  23.83300 0.67600 34.18000
C  27.17000 1.96200 34.53100
C  26.44300 2.92100 35.40000
H  27.14800 3.12900 36.71700
N  24.10200 1.61500 28.75700
C  23.20100 1.81700 29.76100
C  21.87500 2.15600 29.15200
C  22.02100 1.80100 27.79900
C  23.42900 1.61200 27.55300
C  20.67200 2.55700 30.01600
C  20.87500 1.79600 26.73400
O  21.02200 1.42100 25.61200
C  19.42700 1.92700 27.20800
N  26.25900 1.20700 26.84200
C  25.26000 1.37700 25.99500
C  25.79600 1.37600 24.58700
C  27.33700 1.13500 24.72400
C  27.46200 1.04400 26.19900
C  25.20700 0.41000 23.55400
C  28.23900 2.30200 24.25600
C  28.44100 3.47400 25.25600
N  27.99100 0.53300 29.03100
C  28.92400 0.31700 28.09000
C  30.18100 -0.00700 28.70400
C  29.97900 0.19100 30.08100
C  28.61800 0.45000 30.26200
C  31.42900 -0.53000 28.03000
C  30.66100 0.21100 31.35200
O  31.82300 -0.11800 31.59600
C  29.52800 0.61500 32.43100
C  29.57400 -0.46000 33.48500
O  29.47200 -1.65400 33.27900
O  29.76800 0.03800 34.68700
C  29.64400 -0.81000 35.91800
H  22.77300 2.03700 31.85200
H  23.31700 1.64600 25.43200
H  29.43300 0.25200 26.06000
H  26.34000 0.04800 33.74700
H  24.75400 2.57600 33.55500
H  23.12600 0.15100 33.53800
H  23.19300 1.30000 34.80400
H  24.40300 -0.00600 34.81100
H  27.92600 2.48900 33.95000
H  27.77900 1.32100 35.16900
H  25.50700 2.38700 35.55900
H  26.15300 3.86800 34.94500
H  20.83600 3.17300 30.89900
H  20.21600 1.62300 30.34300
H  19.98900 3.14600 29.40300
H  19.29800 1.36100 28.13100
H  18.83000 1.55700 26.37500
H  19.38300 3.01500 27.24600
H  25.51400 2.38900 24.29900
H  27.70100 0.13700 24.47900
H  24.54400 1.08500 23.01200
H  24.62900 -0.36600 24.05600
H  26.07200 0.06200 22.99000
H  27.71700 2.51200 23.32200
H  29.23100 1.85800 24.16900
H  27.96500 3.37200 26.23200
H  27.90200 4.33700 24.86300
H  29.46100 3.76700 25.50500
H  31.71700 0.19600 27.27000
H  31.31800 -1.47200 27.49400
H  32.29500 -0.54000 28.69100
H  29.89300 1.53600 32.88500
H  30.58900 -1.12800 36.35800
H  29.04600 -1.66400 35.60100
H  29.22700 -0.21200 36.72800
Mg 45.99700 2.96100 46.74400
C  43.81200 5.72900 46.24700
C  43.18100 1.00900 46.50900
C  48.14200 0.55300 46.34500
C  48.71400 5.36000 46.49300
N  43.79000 3.30700 46.43700
C  43.16200 4.51300 46.26600
C  41.59800 4.38200 45.98900
C  41.37600 2.89300 46.46900
C  42.83600 2.32000 46.47800
C  40.53600 2.71600 47.75900
C  41.05400 4.75300 44.57400
C  40.21500 6.03100 44.43600
H  40.81000 6.95600 43.38800
N  45.74600 0.99900 46.56500
C  44.48200 0.40700 46.45800
C  44.64800 -1.05200 46.37000
C  46.04800 -1.25100 46.23400
C  46.75100 0.10100 46.41300
C  43.56900 -1.98700 46.29400
C  46.71200 -2.62400 45.99600
O  46.04900 -3.65400 45.88700
C  48.20000 -2.78800 46.09500
N  48.10000 3.00000 46.38500
C  48.74600 1.77200 46.40100
C  50.27800 1.98500 46.52700
C  50.51300 3.54300 46.49400
C  49.04000 3.99400 46.50800
C  50.85700 1.31700 47.76200
C  51.29300 4.08500 45.18100
C  52.77900 3.95600 45.16700
N  46.31500 5.15200 46.49600
C  47.44500 5.94900 46.47400
C  47.06100 7.30900 46.35000
C  45.59700 7.31100 46.45300
C  45.22600 5.93000 46.33100
C  48.01900 8.50500 46.30100
C  44.42100 8.13600 46.53600
O  44.28800 9.33400 46.65900
C  43.18900 7.14000 46.49700
C  42.40800 7.27000 47.77800
O  42.27200 6.44000 48.65700
O  41.76500 8.45700 47.67700
C  40.72000 8.72900 48.62900
H  42.31800 0.34400 46.44700
H  48.83100 -0.28800 46.25000
H  49.50900 6.10800 46.52500
H  41.14300 5.17700 46.58100
H  40.88600 2.24500 45.74200
H  41.03600 2.07800 48.48800
H  39.60200 2.21500 47.50500
H  40.30200 3.65300 48.26400
H  40.45000 3.93400 44.18400
H  41.89500 4.91300 43.90000
H  40.17700 6.57000 45.38200
H  39.19000 5.71900 44.23700
H  42.62200 -1.48900 46.08900
H  43.45200 -2.41200 47.29100
H  43.67000 -2.80700 45.58300
H  48.43600 -3.84800 45.99900
H  48.55900 -2.50800 47.08500
H  48.92300 -2.28300 45.45400
H  50.76900 1.41600 45.73800
H  51.01300 3.94700 47.37400
H  51.45500 1.99900 48.36600
H  51.46400 0.49700 47.37600
H  50.09600 0.93600 48.44300
H  51.08000 5.15300 45.21600
H  50.92600 3.51400 44.32700
H  53.05100 3.67900 44.14900
H  53.13400 3.21300 45.88200
H  53.32800 4.88000 45.34600
H  47.65800 9.29000 46.96500
H  48.01500 9.04200 45.35300
H  49.06100 8.32800 46.57100
H  42.58600 7.52500 45.67400
H  39.81500 8.53200 48.05600
H  40.77500 9.75000 49.00700
H  40.77600 8.07300 49.49900

