158

Mg 7.89200 3.22100 27.83200
C  9.73400 1.76000 30.54400
C  6.01500 4.64600 30.18000
C  6.22900 4.37900 25.33500
C  9.51000 0.97100 25.71200
N  7.87500 3.20000 30.11700
C  8.86000 2.71600 30.93600
C  8.64700 3.09500 32.44100
C  7.25600 3.87900 32.25900
C  6.98000 3.92200 30.74500
C  6.08600 3.12900 32.98900
C  9.79700 3.95100 33.09300
C  9.47200 4.79400 34.33800
H  10.43900 4.58300 35.47400
N  6.27100 4.30200 27.79100
C  5.62200 4.83100 28.86700
C  4.61300 5.68600 28.35300
C  4.75600 5.74700 26.92800
C  5.82100 4.79200 26.60100
C  3.48600 6.32200 29.27000
C  3.98400 6.56100 25.90300
O  3.97200 6.36500 24.67000
C  3.07200 7.64200 26.33700
N  7.64900 2.50000 25.76800
C  7.00800 3.30200 24.94200
C  7.19300 2.88300 23.48200
C  8.32500 1.80500 23.60000
C  8.48900 1.68200 25.13700
C  5.91700 2.44800 22.70800
C  9.69000 2.26400 23.06800
C  10.39600 1.09900 22.41300
N  9.37900 1.70700 27.99900
C  9.98100 0.97800 27.01500
C  10.97700 0.12300 27.65900
C  10.93900 0.43700 28.99700
C  9.97300 1.44700 29.15400
C  11.75800 -0.92100 26.90200
C  11.64800 0.17500 30.22200
O  12.66700 -0.41700 30.41200
C  10.91700 1.05700 31.31700
C  10.44000 0.17800 32.38900
O  9.64200 -0.70200 32.32000
O  11.13100 0.48300 33.59600
C  10.80400 -0.30600 34.77500
H  5.49100 5.28600 30.89400
H  5.68200 4.88700 24.53800
H  10.03700 0.44300 24.91400
H  8.57900 2.10500 32.89100
H  7.29900 4.90700 32.62000
H  6.59400 2.42600 33.64900
H  5.49300 2.58500 32.25300
H  5.51000 3.82900 33.59400
H  10.11900 4.62300 32.29700
H  10.60400 3.26000 33.33700
H  8.50100 4.46700 34.71100
H  9.27500 5.80900 33.99300
H  3.62900 5.93700 30.28000
H  2.49000 6.07900 28.89900
H  3.64100 7.39600 29.17000
H  2.91600 8.31800 25.49600
H  3.54600 8.25000 27.10700
H  2.13200 7.24200 26.71800
H  7.60100 3.80500 23.06600
H  7.99200 0.87000 23.15100
H  4.98000 2.49200 23.26400
H  5.85100 1.38900 22.46100
H  5.87800 2.89700 21.71500
H  10.24600 2.67100 23.91400
H  9.50300 3.09700 22.39100
H  10.69900 1.47000 21.43400
H  9.75000 0.23300 22.27000
H  11.25800 0.80800 23.01300
H  12.62500 -1.20300 27.49800
H  12.23300 -0.48400 26.02400
H  11.12800 -1.79800 26.75200
H  11.59700 1.82600 31.68300
H  10.39200 0.39300 35.50200
H  11.70500 -0.70100 35.24600
H  10.10900 -1.12000 34.57200
Mg 49.79000 45.24500 43.21200
C  46.23700 45.62500 42.52000
C  49.53100 42.10400 42.22000
C  53.07400 45.22600 43.40500
C  49.89000 48.85300 43.32500
N  48.04200 44.06400 42.39600
C  46.73500 44.36900 42.26300
C  45.93500 43.08500 41.96600
C  47.02300 41.97300 42.05600
C  48.28700 42.71200 42.24900
C  46.79400 40.92700 43.21300
C  45.10400 43.00800 40.67400
C  45.63200 43.78100 39.45700
H  45.68400 42.90500 38.17000
N  51.09100 43.84500 42.96500
C  50.87000 42.51800 42.58200
C  52.07100 41.76900 42.64100
C  53.13400 42.65800 43.05800
C  52.46400 43.97000 43.14600
C  52.08600 40.29300 42.22800
C  54.58700 42.25500 43.28900
O  54.99800 41.13900 42.94000
C  55.64200 43.20200 43.85100
N  51.26100 46.80900 43.25900
C  52.53400 46.51200 43.52700
C  53.40800 47.74400 43.85200
C  52.48000 48.89700 43.51200
C  51.13700 48.19700 43.39200
C  54.04200 47.79500 45.38500
C  52.91400 49.57500 42.14500
C  52.37700 51.00000 41.82800
N  48.39200 46.90600 43.15800
C  48.59700 48.24500 43.08900
C  47.32000 48.94600 43.08000
C  46.40200 47.98500 42.77700
C  47.08000 46.72600 42.83500
C  47.07300 50.45600 43.27100
C  44.96200 47.75000 42.56400
O  44.03000 48.55100 42.46300
C  44.75900 46.19100 42.42000
C  43.74100 45.70800 43.37600
O  42.75700 45.16500 42.99600
O  44.08700 45.74800 44.70700
C  43.09900 45.12400 45.64900
H  49.38300 41.08600 41.85300
H  54.16300 45.20900 43.32200
H  49.98500 49.94100 43.32400
H  45.18700 42.96900 42.75000
H  47.04300 41.38200 41.14000
H  46.21600 40.12700 42.75000
H  46.37900 41.41400 44.09500
H  47.75400 40.46700 43.44700
H  44.13200 43.43100 40.93000
H  44.96700 41.94300 40.49100
H  46.62300 44.17800 39.68000
H  44.87700 44.56400 39.38300
H  53.04900 39.78600 42.17200
H  51.76500 40.12800 41.20000
H  51.38400 39.76800 42.87600
H  56.16800 43.69400 43.03300
H  56.41400 42.52700 44.21800
H  55.29200 43.84900 44.65500
H  54.27200 47.55900 43.21400
H  52.43300 49.57300 44.36600
H  55.05800 47.40000 45.39100
H  53.36000 47.16000 45.94900
H  53.95400 48.78200 45.83800
H  52.58300 48.91000 41.34700
H  53.98000 49.42700 41.97100
H  53.21800 51.61100 41.50200
H  51.77100 51.39300 42.64400
H  51.76300 50.85800 40.93900
H  47.53300 50.82600 44.18800
H  46.03800 50.79800 43.26800
H  47.62600 51.02500 42.52300
H  44.28600 46.03000 41.45100
H  43.20900 44.04200 45.71400
H  42.09300 45.46200 45.40000
H  43.35200 45.55300 46.61900

