158

Mg 48.31000 35.23400 27.62900
C  45.93500 33.87900 29.92100
C  48.55100 37.96400 29.68900
C  49.74600 36.78500 25.16400
C  47.45500 32.61800 25.42400
N  47.18600 35.91000 29.45700
C  46.37800 35.12500 30.27300
C  46.23400 35.75300 31.67300
C  46.72500 37.22200 31.44900
C  47.62800 36.95900 30.15500
C  45.56900 38.11800 31.15100
C  46.97500 34.88400 32.75200
C  48.03500 35.50700 33.81500
H  47.55800 35.94000 35.17900
N  49.12900 37.08400 27.44300
C  49.16400 38.02700 28.44600
C  50.13900 39.05300 27.97000
C  50.50000 38.70500 26.69800
C  49.75700 37.55600 26.35500
C  50.46800 40.21800 28.80900
C  51.44300 39.44900 25.70900
O  51.77100 39.03900 24.63500
C  52.08300 40.80100 26.13400
N  48.25000 34.89500 25.53000
C  49.10300 35.67800 24.78500
C  49.15900 35.12800 23.31300
C  48.67500 33.66700 23.55000
C  48.09100 33.72200 24.90000
C  48.12800 35.86600 22.44900
C  49.64900 32.47900 23.35100
C  49.21100 31.38300 22.32500
N  47.09700 33.56700 27.71000
C  46.91500 32.53700 26.74800
C  46.00600 31.52000 27.34300
C  45.55900 32.05100 28.51400
C  46.24400 33.27300 28.72900
C  45.71200 30.21500 26.71600
C  44.70400 31.80600 29.59200
O  43.97000 30.85500 29.90300
C  44.87200 33.06900 30.45900
C  44.93800 32.59700 31.87600
O  45.77700 31.85500 32.39500
O  43.78400 33.04500 32.52700
C  43.49700 32.72500 33.95400
H  48.73600 38.67000 30.50100
H  50.40900 37.23400 24.42100
H  47.44300 31.73200 24.78500
H  45.19400 35.68600 31.99400
H  47.29000 37.70400 32.24800
H  44.68400 37.60500 31.52600
H  45.43900 38.16400 30.07000
H  45.74200 39.11400 31.55900
H  47.42200 34.01000 32.27900
H  46.13500 34.59500 33.38300
H  48.60100 36.30600 33.33600
H  48.70900 34.66700 33.98200
H  49.96500 41.01700 28.26500
H  51.54000 40.38700 28.91000
H  49.90800 40.17800 29.74400
H  51.31000 41.43100 26.57600
H  52.57800 41.31500 25.31100
H  52.74000 40.56000 26.97000
H  50.16800 35.20100 22.90900
H  47.79600 33.45600 22.94000
H  48.57900 35.98200 21.46400
H  47.87200 36.80600 22.93800
H  47.15700 35.37400 22.38100
H  49.81800 31.88500 24.25000
H  50.62000 32.87100 23.04800
H  48.23500 31.60200 21.89200
H  49.31500 30.42200 22.82700
H  49.94700 31.55600 21.53900
H  46.68600 29.73000 26.65100
H  45.24500 30.40000 25.74900
H  44.96600 29.67100 27.29600
H  43.87300 33.50400 30.48400
H  44.19000 31.90300 34.13500
H  42.47500 32.48400 34.24500
H  43.84200 33.60500 34.49700
Mg 30.10700 57.84100 38.75400
C  27.54100 55.84900 37.64800
C  32.33500 55.33200 38.24800
C  32.58800 60.18400 39.30900
C  27.78300 60.58500 38.89900
N  29.91400 55.88100 37.85600
C  28.71500 55.21500 37.66500
C  28.98700 53.72100 37.15900
C  30.52700 53.63700 37.44300
C  31.00500 55.02600 37.84500
C  30.98400 52.47300 38.31700
C  28.61700 53.49200 35.61300
C  29.03400 54.68600 34.72300
H  27.99000 55.22600 33.70700
N  32.15200 57.74600 38.86400
C  32.87100 56.59800 38.65800
C  34.29500 56.86000 39.02600
C  34.39500 58.25500 39.39000
C  32.99300 58.78600 39.17400
C  35.35800 55.72400 38.81800
C  35.72900 58.89100 39.87300
O  36.66800 58.13700 40.21000
C  35.83600 60.33200 40.01800
N  30.12200 60.10300 38.98000
C  31.37000 60.76300 39.27600
C  31.08700 62.24300 39.34800
C  29.49500 62.43000 39.37300
C  29.11300 60.95700 39.04200
C  31.98800 63.11500 40.34600
C  29.07400 63.48500 38.39100
C  27.81600 64.23000 38.75300
N  28.09200 58.18500 38.49800
C  27.26600 59.34300 38.50100
C  25.94700 59.00800 38.04700
C  25.95400 57.62700 37.88700
C  27.30600 57.19500 37.98400
C  24.75800 59.92000 37.87100
C  25.17200 56.48400 37.52200
O  23.94600 56.32400 37.33200
C  26.17700 55.24500 37.45300
C  25.72400 54.12900 38.38700
O  26.18500 53.88900 39.46700
O  24.78700 53.39400 37.69000
C  24.05600 52.51900 38.60400
H  33.04900 54.50700 38.29400
H  33.37600 60.88800 39.58900
H  27.17100 61.46000 39.12400
H  28.44300 53.04400 37.81700
H  31.09600 53.54100 36.51800
H  31.40700 52.78700 39.27100
H  31.69900 51.78300 37.86800
H  30.12400 51.84200 38.54100
H  27.60700 53.12500 35.43000
H  29.26200 52.67100 35.30100
H  29.86900 54.32400 34.12200
H  29.34500 55.57600 35.27000
H  35.16900 55.13400 37.92100
H  35.15800 54.99800 39.60600
H  36.39400 56.06400 38.81900
H  35.09600 60.80300 40.66500
H  35.58300 60.79500 39.06400
H  36.84500 60.67800 40.24300
H  31.46800 62.66800 38.41900
H  29.14300 62.72900 40.36000
H  32.53600 63.94400 39.89700
H  32.70400 62.44600 40.82300
H  31.32700 63.52700 41.10800
H  28.93500 62.96700 37.44100
H  29.80300 64.29300 38.33000
H  27.15000 64.14700 37.89400
H  27.94300 65.23500 39.15500
H  27.35700 63.75800 39.62100
H  24.11300 59.63500 38.70200
H  24.18800 59.84600 36.94400
H  24.96300 60.94900 38.16700
H  26.22100 54.88100 36.42700
H  23.03200 52.84200 38.79500
H  24.57100 52.22100 39.51700
H  23.96400 51.60100 38.02400

