158

Mg 6.95500 57.12700 42.11300
C  6.12000 53.65300 42.30600
C  10.09500 56.11400 41.12700
C  7.60400 60.24900 41.64900
C  3.65400 57.77400 43.30300
N  7.99900 55.09400 41.72000
C  7.38700 53.85900 41.78600
C  8.42800 52.77000 41.41200
C  9.69500 53.47600 41.56900
C  9.30700 54.96700 41.49800
C  10.38500 53.23000 43.00300
C  8.40400 52.18500 39.97300
C  8.14900 53.15700 38.81800
H  7.07000 52.88000 37.67200
N  8.63500 58.10200 41.38600
C  9.83000 57.48000 40.97100
C  10.68100 58.50400 40.45100
C  10.03000 59.76600 40.57000
C  8.69600 59.41900 41.22800
C  12.02900 58.24300 39.77800
C  10.45600 61.11400 40.14200
O  11.60800 61.36700 39.81100
C  9.57300 62.26700 40.21900
N  5.75700 58.77200 42.29300
C  6.33100 59.96900 42.17700
C  5.43400 61.08100 42.68800
C  4.18900 60.29300 43.32600
C  4.57500 58.79300 43.01900
C  6.04800 62.01300 43.83900
C  2.81900 60.57400 42.59100
C  1.70200 60.77100 43.66200
N  5.18100 56.04000 42.57300
C  3.95200 56.38900 43.06800
C  3.12800 55.24800 43.50900
C  3.92400 54.12400 43.14000
C  5.14100 54.62200 42.64300
C  1.84800 55.25200 44.21100
C  3.87200 52.78800 43.07400
O  3.00300 51.97900 43.32300
C  5.35000 52.31800 42.46800
C  5.05700 51.64400 41.15600
O  5.24000 52.14400 40.08500
O  4.73900 50.34200 41.33300
C  4.88700 49.40100 40.19600
H  11.07600 55.77000 40.79300
H  7.70200 61.33600 41.62500
H  2.75000 58.00000 43.87100
H  8.29400 51.95100 42.11800
H  10.45600 53.35900 40.79800
H  11.35400 52.73700 42.93400
H  9.76200 52.61700 43.65500
H  10.47400 54.20800 43.47800
H  7.69100 51.36100 39.93600
H  9.37400 51.78800 39.67500
H  9.07700 53.29800 38.26300
H  7.85700 54.10900 39.26000
H  12.17800 58.70100 38.80000
H  12.15500 57.17100 39.62100
H  12.80500 58.44300 40.51700
H  9.34400 62.64600 41.21500
H  8.62000 62.04900 39.73600
H  10.06100 63.07600 39.67500
H  5.16300 61.58200 41.75800
H  4.18800 60.31900 44.41600
H  5.56500 61.96500 44.81500
H  5.91900 63.02200 43.44800
H  7.10900 61.77300 43.90500
H  2.53800 59.88500 41.79500
H  2.86700 61.50000 42.01800
H  1.97200 60.54300 44.69300
H  0.88900 60.10800 43.36700
H  1.41000 61.82100 43.63700
H  1.58400 56.21300 44.65100
H  1.68600 54.45700 44.93800
H  1.08000 55.08900 43.45400
H  5.82600 51.69700 43.22700
H  4.14700 49.59600 39.42000
H  4.73200 48.35800 40.47200
H  5.89800 49.51100 39.80300
Mg 15.97000 51.30400 25.41200
C  17.99500 50.69200 28.20100
C  13.48900 51.97900 27.31800
C  14.10000 51.39800 22.59400
C  18.72200 50.42000 23.41900
N  15.72400 51.33200 27.56000
C  16.73100 51.30700 28.45500
C  16.25600 51.65000 29.83400
C  14.73900 51.81000 29.57000
C  14.68900 51.77800 28.01200
C  13.80700 50.79000 30.30700
C  16.99900 52.92800 30.45500
C  17.30800 52.88800 31.99700
H  16.55800 51.77100 32.84000
N  13.96400 51.73000 25.01300
C  13.09100 51.93300 25.98200
C  11.76600 52.01200 25.43100
C  11.94900 51.79500 24.02300
C  13.33700 51.56200 23.77500
C  10.41800 52.16100 26.27400
C  10.83900 51.73200 22.97400
O  11.14300 51.56900 21.76100
C  9.38600 52.06400 23.30800
N  16.42800 51.27900 23.32200
C  15.45200 51.23800 22.39900
C  16.05500 50.89700 20.94800
C  17.54600 51.24800 21.22200
C  17.54300 50.94100 22.74900
C  15.81200 49.42700 20.38900
C  18.05200 52.67700 20.91000
C  18.83400 52.81000 19.58000
N  17.98800 50.70900 25.65100
C  18.92200 50.28500 24.77500
C  20.08200 49.74200 25.49200
C  19.74900 49.89200 26.87800
C  18.50000 50.48100 26.92200
C  21.36500 49.22700 24.93000
C  20.23200 49.72700 28.22000
O  21.33300 49.41400 28.65500
C  19.07000 50.23300 29.19700
C  18.72200 48.99700 29.97700
O  18.56300 47.84200 29.55500
O  18.70400 49.30400 31.28100
C  18.18600 48.31000 32.16500
H  12.64200 52.10600 27.99500
H  13.56200 51.42300 21.64400
H  19.61200 50.31500 22.79400
H  16.51400 50.78400 30.44300
H  14.38400 52.79800 29.86300
H  13.48400 50.08400 29.54100
H  12.94700 51.36000 30.65700
H  14.31300 50.30000 31.13900
H  16.42200 53.83200 30.26400
H  17.92400 53.03700 29.88900
H  16.92600 53.78200 32.49100
H  18.38900 52.81900 32.11600
H  9.64200 51.49900 25.89000
H  10.07600 53.16900 26.03700
H  10.40000 51.92000 27.33700
H  9.23900 53.03400 23.78200
H  8.84200 51.22700 23.74500
H  8.80400 52.06500 22.38600
H  15.45100 51.59200 20.36600
H  18.13700 50.53900 20.64100
H  15.31400 48.91400 21.21200
H  16.76400 48.94200 20.17200
H  15.35500 49.30800 19.40600
H  18.76900 52.90000 21.70000
H  17.21300 53.35200 21.07700
H  18.45800 52.14600 18.80300
H  19.91000 52.75400 19.74300
H  18.65300 53.79500 19.15100
H  21.69600 49.67400 23.99200
H  21.32000 48.15000 24.76700
H  22.19000 49.35600 25.63000
H  19.40400 51.00100 29.89500
H  18.53800 47.33800 31.82000
H  17.09700 48.35300 32.12900
H  18.63400 48.24900 33.15700

