158

Mg 26.06300 -0.70200 29.10000
C  27.65100 -0.60700 32.32400
C  23.06400 -0.33600 30.74600
C  24.67700 -0.47600 26.12700
C  29.32900 -1.35500 27.74600
N  25.38100 -0.59700 31.33000
C  26.29300 -0.44300 32.44800
C  25.50100 -0.09400 33.70600
C  23.99800 -0.09900 33.16300
C  24.11300 -0.35700 31.68100
C  22.98900 -1.14700 33.92900
C  25.91400 1.31200 34.23900
C  25.36300 1.61200 35.61900
H  26.37800 2.01400 36.75800
N  24.09900 -0.61600 28.57600
C  23.02200 -0.43400 29.37600
C  21.85400 -0.36600 28.55200
C  22.29200 -0.28600 27.23300
C  23.75400 -0.46100 27.22100
C  20.43000 -0.22200 29.11600
C  21.38600 -0.07500 25.93500
O  21.84800 -0.09700 24.79800
C  19.95500 0.43600 26.18500
N  26.95200 -0.74700 27.23400
C  26.12600 -0.69100 26.14000
C  26.99300 -0.82800 24.84400
C  28.44000 -1.05000 25.43200
C  28.24100 -1.01300 26.89000
C  26.51800 -1.95100 23.89100
C  29.57700 -0.05200 24.91100
C  29.47600 0.59000 23.54500
N  28.01700 -1.01400 29.83300
C  29.20900 -1.34400 29.10800
C  30.23200 -1.45500 30.03200
C  29.66800 -1.10300 31.30200
C  28.36800 -0.90500 31.13100
C  31.60000 -1.81600 29.72400
C  30.01400 -0.84700 32.69600
O  31.06400 -0.71000 33.23300
C  28.65600 -0.42200 33.41900
C  28.44400 -1.34600 34.61300
O  28.23800 -2.51400 34.51900
O  28.75500 -0.62800 35.70600
C  28.66300 -1.32600 37.03000
H  22.12300 -0.09800 31.24700
H  24.30700 -0.32300 25.11100
H  30.30200 -1.51200 27.27500
H  25.67400 -0.89200 34.42700
H  23.61700 0.86200 33.50900
H  22.03900 -0.79300 34.32900
H  23.55800 -1.43300 34.81300
H  22.79800 -2.07700 33.39400
H  25.54300 2.05100 33.52800
H  26.98300 1.49000 34.34800
H  24.77700 0.74700 35.92900
H  24.68600 2.43800 35.40200
H  19.91200 0.68700 28.81000
H  20.20800 -0.18900 30.18200
H  19.87900 -1.12000 28.83800
H  19.58700 0.77600 25.21800
H  20.04100 1.28400 26.86400
H  19.34900 -0.40800 26.51500
H  26.80600 0.14600 24.39200
H  28.71600 -2.07400 25.17800
H  26.22700 -2.81500 24.49000
H  27.22600 -2.26900 23.12600
H  25.73600 -1.58200 23.22700
H  30.50600 -0.61100 25.02200
H  29.54800 0.79700 25.59400
H  30.41900 0.46900 23.01100
H  29.43100 1.67400 23.65200
H  28.69900 0.21200 22.88000
H  32.26600 -0.99700 29.99600
H  31.70900 -1.98500 28.65200
H  31.93400 -2.71900 30.23400
H  28.76900 0.55000 33.89800
H  27.86500 -0.72600 37.46800
H  29.57000 -1.47800 37.61400
H  28.26400 -2.33200 36.90600
Mg 46.66500 24.36900 28.33200
C  47.56300 26.75700 30.90300
C  46.08800 22.19100 30.87200
C  46.48900 22.10400 26.13800
C  47.82400 26.72700 26.02000
N  46.58900 24.57700 30.67600
C  46.99300 25.60300 31.47800
C  46.78100 25.23800 32.94500
C  46.38900 23.78400 32.94100
C  46.35000 23.48500 31.39800
C  47.32000 22.89200 33.70900
C  45.86700 26.17900 33.76600
C  46.52500 26.77900 35.09600
H  45.54300 27.19300 36.12800
N  46.17300 22.44100 28.40300
C  45.99300 21.73800 29.53900
C  45.48700 20.41100 29.17200
C  45.69300 20.30800 27.76600
C  46.09100 21.63100 27.35700
C  44.98600 19.34100 30.14000
C  45.37100 19.19600 26.81900
O  45.20400 19.32500 25.59900
C  45.03500 17.81500 27.47200
N  47.14300 24.38100 26.31500
C  46.75800 23.31200 25.58900
C  47.01200 23.54800 24.11300
C  47.14000 25.09700 24.07800
C  47.42400 25.48300 25.60600
C  48.30900 22.94000 23.50100
C  45.97000 25.92800 23.52600
C  44.76700 26.23100 24.40300
N  47.50000 26.35400 28.36500
C  47.91300 27.15400 27.37000
C  48.56300 28.32400 27.82700
C  48.39900 28.25500 29.21500
C  47.78600 26.99000 29.50400
C  49.17900 29.42500 26.97100
C  48.61300 28.91700 30.43900
O  49.06200 30.02700 30.62600
C  48.16300 27.97400 31.62100
C  49.29900 27.46400 32.46300
O  49.83700 26.37700 32.48000
O  49.72000 28.45000 33.33500
C  50.52600 28.08300 34.48200
H  45.87100 21.47700 31.66900
H  46.52100 21.31700 25.38100
H  48.01900 27.54000 25.31700
H  47.73600 25.26700 33.46900
H  45.34200 23.81300 33.24300
H  46.70600 22.06800 34.07200
H  47.75100 23.39800 34.57200
H  48.11900 22.48000 33.09200
H  45.00100 25.57500 34.03600
H  45.47700 27.01800 33.19000
H  47.14300 27.62600 34.79800
H  47.23400 26.03600 35.46100
H  44.00900 19.00300 29.79500
H  44.64900 19.81500 31.06200
H  45.72400 18.55300 30.28800
H  45.91000 17.31000 27.88100
H  44.82900 17.10500 26.67100
H  44.14300 17.69700 28.08800
H  46.11000 23.33700 23.53900
H  47.92200 25.40100 23.38200
H  49.10100 23.61900 23.18700
H  48.04400 22.28100 22.67400
H  48.72200 22.26400 24.25000
H  45.65600 25.36900 22.64400
H  46.43400 26.86500 23.21800
H  44.83900 25.72200 25.36500
H  43.82000 25.81700 24.05700
H  44.79000 27.31800 24.47600
H  49.59600 28.96800 26.07300
H  49.95700 29.96100 27.51300
H  48.45400 30.14500 26.59100
H  47.42200 28.44500 32.26600
H  50.47400 28.88900 35.21500
H  51.51500 27.76400 34.15500
H  50.16700 27.18600 34.98600

