158

Mg 26.86000 50.43500 26.74600
C  24.76700 51.37900 29.32300
C  29.24100 49.80700 29.13700
C  29.01900 49.45700 24.23100
C  24.61800 51.38200 24.42500
N  26.96900 50.48900 28.94500
C  25.97800 50.96200 29.81300
C  26.42800 50.83600 31.27500
C  27.90000 50.59900 31.12200
C  28.07400 50.32100 29.62600
C  28.85100 51.79900 31.58000
C  25.60200 49.71000 32.10600
C  24.87400 50.24700 33.30900
H  24.78500 49.37900 34.54600
N  28.80800 49.66000 26.64300
C  29.64900 49.51900 27.76300
C  31.00000 49.04700 27.34700
C  30.90900 49.09600 25.90200
C  29.56000 49.37800 25.53700
C  31.97300 48.60100 28.34900
C  32.08000 48.95800 24.89600
O  32.01400 49.10300 23.67400
C  33.40600 48.74300 25.48400
N  26.82900 50.18200 24.62000
C  27.80300 49.83000 23.78700
C  27.26200 49.81200 22.31300
C  25.80100 50.37300 22.45000
C  25.72900 50.71700 23.93100
C  28.05900 50.50600 21.25600
C  24.65500 49.36300 21.96500
C  23.80300 49.80700 20.75900
N  25.09000 51.25300 26.82800
C  24.27000 51.61800 25.77400
C  23.14600 52.34100 26.38100
C  23.18700 52.18100 27.75000
C  24.43300 51.51300 27.93000
C  22.00400 53.01900 25.52300
C  22.52400 52.48200 29.04800
O  21.43900 53.05600 29.21500
C  23.58500 51.91200 30.13300
C  23.93800 53.13500 30.86000
O  24.65800 54.04600 30.45700
O  23.31800 53.03900 32.09600
C  23.76600 53.96700 33.16200
H  29.91100 49.59400 29.97300
H  29.66300 48.98600 23.48600
H  23.83900 51.58200 23.68700
H  26.23300 51.82000 31.70100
H  28.13900 49.79600 31.81900
H  29.28700 51.59800 32.55800
H  28.34600 52.75800 31.70200
H  29.67800 51.93000 30.88300
H  26.18800 48.88500 32.50900
H  24.87400 49.32300 31.39200
H  23.85800 50.44400 32.96500
H  25.32300 51.16900 33.67700
H  32.93300 49.11100 28.28300
H  32.21500 47.53800 28.34500
H  31.65600 48.82500 29.36800
H  33.84200 49.57000 26.04500
H  34.02600 48.45000 24.63700
H  33.30900 47.86300 26.12000
H  27.30300 48.75400 22.05200
H  25.62000 51.32100 21.94500
H  28.93900 50.92500 21.74500
H  27.50100 51.36800 20.89100
H  28.31200 49.83200 20.43700
H  24.10700 49.11900 22.87600
H  25.05700 48.42200 21.58900
H  24.04600 50.85300 20.57000
H  22.73700 49.80000 20.98500
H  24.06300 49.19700 19.89400
H  22.20200 52.79500 24.47500
H  22.06400 54.05300 25.86200
H  21.00700 52.66900 25.79200
H  23.05600 51.21500 30.78300
H  24.69700 53.69600 33.65900
H  23.03000 54.30100 33.89300
H  24.01300 54.97800 32.83800
Mg 9.62000 47.43100 25.74200
C  7.29700 47.29100 28.53600
C  11.96600 48.37100 27.92800
C  11.63100 47.32700 23.13900
C  6.82900 46.90100 23.58000
N  9.57700 47.85000 28.05400
C  8.57400 47.59400 28.98000
C  9.13400 47.75900 30.41000
C  10.53900 48.34800 30.13800
C  10.70900 48.26100 28.59600
C  10.58400 49.86000 30.64700
C  9.02700 46.53000 31.35000
C  9.91400 46.40400 32.55500
H  9.27600 45.80700 33.86800
N  11.50300 47.94700 25.54200
C  12.29200 48.33100 26.59200
C  13.65500 48.53500 26.05500
C  13.58000 48.13200 24.63800
C  12.18800 47.76600 24.37500
C  14.93900 48.74000 26.85900
C  14.70900 48.08900 23.57900
O  14.43800 47.73900 22.45800
C  16.13000 48.39600 23.89200
N  9.24300 47.48200 23.62600
C  10.31100 47.28500 22.79500
C  9.69200 47.05000 21.32800
C  8.20000 47.05200 21.50800
C  8.07200 46.98200 22.98000
C  10.20400 48.16300 20.36400
C  7.60500 45.83600 20.74600
C  7.84300 45.76300 19.25600
N  7.52200 47.14300 25.97000
C  6.48200 46.97900 24.99200
C  5.21400 46.90000 25.66600
C  5.52100 47.00800 27.02400
C  6.91900 47.10400 27.18200
C  3.78500 46.80300 25.06000
C  4.92900 47.13000 28.28400
O  3.74300 47.11300 28.56700
C  6.01400 47.16000 29.32800
C  5.99300 45.91900 30.05100
O  6.48600 44.78700 29.75700
O  5.24300 46.14800 31.22600
C  4.97500 45.10300 32.19300
H  12.80100 48.62100 28.58600
H  12.19500 47.07100 22.23900
H  5.92800 46.89100 22.96300
H  8.55400 48.57800 30.83400
H  11.30000 47.82900 30.72100
H  10.45300 50.63800 29.89500
H  11.52000 50.06100 31.16800
H  9.83300 49.98900 31.42600
H  9.13300 45.63300 30.74000
H  7.99800 46.58900 31.70200
H  10.43100 47.32100 32.83900
H  10.61900 45.63100 32.24900
H  14.71500 48.72200 27.92600
H  15.49900 49.66400 26.71600
H  15.81200 48.11900 26.65800
H  16.45500 48.84300 22.95300
H  16.62800 47.53000 24.32700
H  16.10000 49.21300 24.61200
H  10.05500 46.04300 21.12200
H  7.72700 47.91100 21.03300
H  11.06400 48.59400 20.87700
H  9.43200 48.92700 20.26500
H  10.53900 47.81000 19.38900
H  6.53400 45.69400 20.89300
H  8.08800 44.95700 21.17200
H  7.77700 46.63800 18.60900
H  7.04600 45.11100 18.90000
H  8.79800 45.29200 19.02600
H  3.89000 46.50300 24.01800
H  3.10800 47.63100 25.26800
H  3.31200 46.07900 25.72400
H  5.87400 47.99400 30.01600
H  3.94400 44.77800 32.33300
H  5.37600 45.51700 33.11800
H  5.49300 44.16500 31.99300

