158

Mg 46.75000 24.60400 28.21800
C  47.40900 27.01000 30.80400
C  45.70400 22.41100 30.58300
C  46.68900 22.29200 25.78300
C  47.88200 27.05700 25.92600
N  46.54700 24.76700 30.43600
C  46.98400 25.76800 31.28500
C  46.74800 25.35200 32.77400
C  46.30400 23.83700 32.68600
C  46.20000 23.62400 31.16500
C  47.21700 22.77700 33.23400
C  45.66000 26.22300 33.58800
C  46.01700 26.41000 35.08800
H  44.89400 26.32000 36.11300
N  45.89900 22.70000 28.08800
C  45.57900 21.96300 29.21700
C  45.23100 20.58300 28.74500
C  45.61900 20.50000 27.33900
C  46.07100 21.87300 26.98400
C  44.74500 19.45600 29.70800
C  45.68500 19.22100 26.47600
O  46.05700 19.24900 25.30300
C  45.30500 17.89400 27.07900
N  47.35400 24.65200 26.20900
C  47.29400 23.55000 25.41200
C  47.66000 23.89100 23.93300
C  47.76100 25.43400 23.92200
C  47.70200 25.73200 25.43600
C  48.89000 23.10600 23.31000
C  46.78100 26.27500 23.06500
C  45.30000 26.44500 23.59800
N  47.68400 26.51500 28.26300
C  47.92800 27.40700 27.25000
C  48.31600 28.73000 27.79000
C  48.05500 28.64000 29.17900
C  47.65400 27.27900 29.40200
C  48.83600 29.90200 26.98300
C  48.05500 29.39400 30.47000
O  48.27400 30.56100 30.76800
C  47.71900 28.26600 31.54700
C  48.86000 28.14900 32.47300
O  49.95500 27.77800 32.15400
O  48.57900 28.70900 33.63500
C  49.60700 28.67300 34.69800
H  45.42400 21.72400 31.38400
H  46.85600 21.58000 24.97200
H  48.14100 27.85200 25.22300
H  47.71400 25.44300 33.27200
H  45.30500 23.63200 33.07300
H  47.93300 23.32800 33.84300
H  47.92300 22.25900 32.58500
H  46.64100 22.18600 33.94700
H  44.70800 25.71900 33.41900
H  45.62000 27.15100 33.01900
H  46.31800 27.45600 35.14900
H  46.93100 25.84000 35.25300
H  45.52900 18.69800 29.71700
H  43.85700 19.06200 29.21400
H  44.48100 19.87000 30.68100
H  45.79400 17.56000 27.99400
H  45.59000 17.09800 26.39100
H  44.22600 18.00500 27.19400
H  46.81200 23.61600 23.30600
H  48.76600 25.79200 23.69900
H  48.45400 22.70200 22.39700
H  49.28600 22.38500 24.02500
H  49.57600 23.90200 23.02100
H  46.69100 25.75200 22.11300
H  47.35000 27.18900 22.89400
H  44.57400 26.23500 22.81300
H  45.08600 27.47300 23.88800
H  45.02200 25.92500 24.51500
H  48.02500 30.29300 26.36900
H  49.71600 29.69800 26.37400
H  48.88200 30.69900 27.72500
H  46.94800 28.71000 32.17700
H  49.41800 27.73200 35.21500
H  49.50100 29.52000 35.37600
H  50.64900 28.66200 34.37700
Mg 46.66400 34.71700 27.81700
C  45.20400 32.74500 30.40700
C  46.66600 37.36200 30.06000
C  47.48000 36.71400 25.29800
C  45.98900 32.18500 25.50300
N  45.99800 34.98600 29.95300
C  45.75200 33.95100 30.85700
C  45.80400 34.50300 32.30700
C  45.94600 36.06000 32.07300
C  46.23400 36.17000 30.60900
C  44.76100 36.90700 32.58000
C  47.09100 33.92600 33.05100
C  47.03400 33.64500 34.55300
H  45.98800 34.57600 35.36700
N  47.21100 36.68000 27.71400
C  47.09900 37.65800 28.74900
C  47.60700 38.97400 28.24700
C  47.87100 38.68100 26.83900
C  47.52000 37.30800 26.54800
C  47.96000 40.13200 29.17000
C  48.42000 39.65400 25.78400
O  48.60200 39.40300 24.59800
C  48.75900 41.07200 26.28800
N  46.63400 34.52100 25.70300
C  47.00800 35.48800 24.86700
C  46.99100 35.00400 23.42800
C  46.75000 33.47400 23.50300
C  46.42900 33.36700 25.02400
C  45.82700 35.73700 22.69200
C  47.89600 32.57800 22.94200
C  49.19100 32.49000 23.85300
N  45.77300 32.83600 27.90200
C  45.62100 31.98600 26.83200
C  45.09400 30.72800 27.35700
C  44.79600 31.03100 28.77900
C  45.24800 32.34300 29.05600
C  44.80400 29.42700 26.67500
C  44.23600 30.50400 30.03300
O  43.71800 29.42900 30.21300
C  44.35000 31.68600 31.08800
C  44.74700 31.30400 32.47800
O  45.78400 30.84700 32.88700
O  43.62400 31.57600 33.28000
C  43.88000 31.44900 34.74300
H  46.64800 38.17100 30.79300
H  47.65800 37.35100 24.42800
H  45.85500 31.33500 24.83000
H  44.78900 34.32800 32.66300
H  46.82500 36.39300 32.62400
H  45.22900 37.78900 33.01800
H  44.08500 36.38700 33.26000
H  44.15700 37.20400 31.72300
H  47.91300 34.64000 32.99100
H  47.28300 32.96700 32.57100
H  48.00400 33.91800 34.96700
H  46.86000 32.61400 34.86200
H  48.91400 40.60400 28.93700
H  47.93300 39.75800 30.19400
H  47.19100 40.90300 29.11800
H  49.55100 41.17100 27.03100
H  47.85000 41.50300 26.70800
H  49.11700 41.69100 25.46600
H  47.88200 35.15800 22.81900
H  45.89200 33.23600 22.87400
H  45.78300 36.80800 22.89200
H  44.85300 35.34100 22.98000
H  46.06900 35.70400 21.63000
H  48.19600 32.95300 21.96300
H  47.41500 31.60500 22.84800
H  50.04700 32.54800 23.18000
H  49.28000 31.46700 24.22000
H  49.13600 33.37100 24.49100
H  43.75400 29.17500 26.81900
H  45.47000 28.68600 27.11900
H  45.03400 29.62400 25.62800
H  43.40200 32.19500 31.26400
H  43.39200 30.55100 35.12400
H  43.37100 32.33200 35.12900
H  44.88800 31.43500 35.15800

