158

Mg 40.50500 9.53800 29.08000
C  42.03400 10.32600 31.99600
C  37.80000 8.28100 30.82000
C  39.26100 8.72400 26.09300
C  43.52700 10.54200 27.36100
N  39.96100 9.31600 31.14200
C  40.77900 9.75300 32.10200
C  40.10700 9.61400 33.47500
C  38.88600 8.71500 33.19000
C  38.80600 8.79000 31.61900
C  38.94500 7.26600 33.75000
C  39.87800 10.88200 34.31400
C  40.53900 10.70400 35.72800
H  40.97900 11.87300 36.62400
N  38.80200 8.65400 28.53700
C  37.79100 8.18200 29.39100
C  36.69100 7.62800 28.54700
C  37.21200 7.65500 27.21900
C  38.50600 8.43700 27.23700
C  35.34400 7.07300 29.11600
C  36.45400 7.25100 25.87100
O  36.88500 7.38400 24.72700
C  34.88800 6.90100 26.03900
N  41.19500 9.79500 26.93500
C  40.46800 9.34400 25.93600
C  41.26300 9.34100 24.61000
C  42.54400 10.13500 25.03300
C  42.40900 10.19000 26.58200
C  41.58100 7.84200 24.21100
C  42.63300 11.55900 24.40500
C  41.78200 12.77200 24.99100
N  42.42300 10.27700 29.46800
C  43.45700 10.67800 28.74100
C  44.43200 11.30200 29.63700
C  43.95800 11.15000 30.90600
C  42.71100 10.44200 30.78700
C  45.74200 11.92400 29.05900
C  44.12800 11.39300 32.35300
O  44.99000 11.97200 32.95700
C  42.96800 10.83000 33.08500
C  43.56000 9.74500 33.93600
O  43.83800 8.61600 33.47800
O  43.89900 10.09800 35.21000
C  44.79600 9.22600 36.00300
H  36.91100 7.93800 31.35300
H  38.94200 8.43500 25.08900
H  44.50700 10.65600 26.89300
H  40.85800 8.96700 33.93000
H  37.97400 9.11400 33.63300
H  38.05200 7.16600 34.36800
H  39.78400 6.99300 34.39000
H  38.92900 6.58100 32.90200
H  38.80600 11.06300 34.39700
H  40.25000 11.73600 33.74700
H  41.43400 10.11600 35.52400
H  39.83800 10.08800 36.29100
H  35.17200 7.40700 30.13900
H  35.40400 5.98900 29.21700
H  34.58800 7.44300 28.42300
H  34.80200 6.03600 26.69800
H  34.36300 6.66500 25.11400
H  34.43000 7.84000 26.34900
H  40.57400 9.78600 23.89300
H  43.45700 9.55700 24.89000
H  41.32200 7.17400 25.03200
H  42.63000 7.63200 24.00300
H  41.04200 7.51600 23.32100
H  42.42200 11.57900 23.33600
H  43.62300 11.95400 24.63300
H  41.31500 12.40100 25.90400
H  40.94500 13.11800 24.38500
H  42.44300 13.57900 25.30600
H  46.48000 11.14900 29.26300
H  46.15700 12.82500 29.51000
H  45.57900 12.17500 28.01100
H  42.46700 11.55400 33.72800
H  44.22600 8.46300 36.53300
H  45.25100 9.94800 36.68100
H  45.45100 8.63400 35.36400
Mg -13.22000 38.00600 43.38000
C  -11.17500 35.62800 41.87100
C  -11.50400 40.50000 41.73500
C  -15.83300 40.07500 43.98000
C  -14.87900 35.41300 45.01000
N  -11.51800 38.07100 41.97600
C  -10.83800 36.94100 41.57100
C  -9.61400 37.34200 40.67800
C  -9.50600 38.93800 40.95800
C  -10.92500 39.18600 41.53800
C  -8.29700 39.36200 41.94800
C  -9.83100 37.00700 39.17900
C  -8.81500 35.99500 38.60800
H  -7.97000 36.43500 37.37200
N  -13.60200 39.99600 42.88800
C  -12.77100 40.90200 42.25800
C  -13.43600 42.17300 42.06100
C  -14.77700 41.95900 42.50800
C  -14.81100 40.57800 43.17400
C  -12.86000 43.41800 41.51600
C  -15.93900 42.90800 42.39600
O  -15.77400 44.06800 42.03600
C  -17.35400 42.50200 42.56600
N  -15.18200 37.73800 44.24700
C  -15.98200 38.79200 44.51100
C  -17.15000 38.40400 45.41500
C  -16.77700 36.87700 45.80000
C  -15.50300 36.63100 45.01900
C  -17.56900 39.28700 46.64100
C  -17.88600 35.87200 45.46900
C  -18.04300 34.77700 46.52500
N  -13.21000 35.85900 43.42700
C  -13.82800 34.97100 44.19900
C  -13.23600 33.68100 44.08500
C  -12.28300 33.84700 43.08300
C  -12.25900 35.26100 42.72600
C  -13.54800 32.45000 44.99100
C  -11.25600 33.21700 42.35900
O  -10.96200 31.99600 42.17900
C  -10.44200 34.35600 41.55900
C  -9.00800 34.35500 42.09200
O  -8.02200 34.01300 41.41900
O  -8.92500 34.78800 43.41800
C  -7.61600 34.83600 44.04300
H  -10.75500 41.25800 41.49900
H  -16.57000 40.80100 44.33200
H  -15.26000 34.59400 45.62400
H  -8.71600 36.83900 41.03700
H  -9.43600 39.40900 39.97700
H  -7.59100 40.03300 41.45900
H  -7.73000 38.62800 42.51900
H  -8.87000 39.91200 42.69500
H  -9.76000 37.90100 38.55900
H  -10.80800 36.53000 39.11100
H  -9.42900 35.18400 38.21600
H  -8.12300 35.65800 39.38000
H  -13.38000 44.34300 41.76300
H  -12.91200 43.34700 40.42900
H  -11.79900 43.59200 41.69500
H  -17.50300 41.47800 42.22500
H  -17.97500 43.15600 41.95400
H  -17.62000 42.65000 43.61300
H  -17.99500 38.35500 44.72700
H  -16.63700 36.83900 46.88000
H  -16.95600 40.18800 46.67000
H  -17.59000 38.74200 47.58500
H  -18.58500 39.61800 46.42900
H  -17.54600 35.45600 44.52100
H  -18.86500 36.31000 45.27200
H  -18.95100 34.89900 47.11500
H  -17.24700 34.78600 47.26900
H  -17.88600 33.77900 46.11600
H  -14.61000 32.42900 45.23700
H  -13.03000 32.51600 45.94800
H  -13.25200 31.54700 44.45800
H  -10.47600 34.06800 40.50900
H  -7.42400 35.86100 44.35800
H  -6.69100 34.58600 43.52300
H  -7.59600 34.22000 44.94200

