158

Mg 44.73700 4.42200 45.77100
C  42.86800 7.58400 45.84400
C  41.71500 2.85500 45.35600
C  46.51300 1.71300 45.12000
C  47.58800 6.42800 45.21600
N  42.54000 5.21000 45.50300
C  42.00800 6.44500 45.62000
C  40.48900 6.37300 45.53100
C  40.20500 4.84300 45.48700
C  41.59200 4.24000 45.47300
C  39.24400 4.27000 46.53800
C  39.85200 7.13800 44.37600
C  40.70600 7.43400 43.10100
H  40.09400 7.01700 41.78200
N  44.21900 2.47800 45.47000
C  42.91100 2.01300 45.30200
C  42.97500 0.62200 44.91400
C  44.37100 0.27500 44.96400
C  45.10300 1.49600 45.22400
C  41.75600 -0.22000 44.69800
C  44.86300 -1.16800 44.63500
O  44.04700 -2.04700 44.30400
C  46.33900 -1.50900 44.54700
N  46.76600 4.18700 45.03700
C  47.24200 2.88800 45.03900
C  48.74600 2.88000 44.71100
C  49.04300 4.41900 44.77400
C  47.76100 5.05900 44.97200
C  49.64000 2.02500 45.65200
C  49.75500 4.91600 43.54100
C  51.11500 5.39200 43.77100
N  45.21900 6.54500 45.76500
C  46.44800 7.18300 45.59500
C  46.26000 8.66900 45.71800
C  44.89900 8.86000 45.96200
C  44.30100 7.53200 45.94800
C  47.32000 9.71200 45.61200
C  43.88200 9.85600 46.19800
O  43.95600 11.06800 46.31500
C  42.51600 9.08800 46.02500
C  41.76000 9.31800 47.27400
O  41.90800 8.63000 48.29400
O  40.94500 10.40700 47.14700
C  40.15000 10.65100 48.37800
H  40.77500 2.32600 45.18700
H  47.03100 0.76500 44.96000
H  48.53800 6.96500 45.18200
H  40.14400 6.79000 46.47600
H  39.74500 4.57200 44.53700
H  39.83700 3.66200 47.22100
H  38.44200 3.64700 46.14300
H  38.79600 5.05100 47.15200
H  39.64900 8.10500 44.83400
H  38.98100 6.58400 44.02600
H  41.69500 7.01700 43.29000
H  40.82000 8.51800 43.10500
H  41.93800 -0.95500 43.91400
H  40.89000 0.33800 44.34200
H  41.49400 -0.68400 45.64900
H  46.30500 -2.58500 44.37600
H  46.77200 -1.36700 45.53700
H  46.84200 -0.97000 43.74400
H  48.74800 2.48500 43.69600
H  49.57500 4.74900 45.66600
H  48.90700 1.70900 46.39400
H  50.50900 2.60600 45.96000
H  50.02400 1.16800 45.10000
H  49.28300 5.70900 42.96100
H  49.95000 4.05400 42.90300
H  51.80900 4.72900 43.25600
H  51.37100 5.22800 44.81800
H  51.39400 6.42600 43.56700
H  46.90400 10.69100 45.84900
H  47.66100 9.81800 44.58200
H  48.08400 9.55000 46.37300
H  41.93000 9.48900 45.19800
H  40.70200 10.40900 49.28600
H  39.16400 10.18900 48.32900
H  39.94800 11.72200 48.34900
Mg 28.29800 58.69700 42.35200
C  25.80900 56.92100 40.69000
C  30.67600 56.73800 40.86400
C  30.66600 60.77700 43.56300
C  25.75600 60.76300 43.67400
N  28.17900 56.95900 40.93700
C  27.08000 56.38300 40.36400
C  27.47000 55.32900 39.35900
C  28.92700 55.08100 39.81300
C  29.34200 56.31000 40.62500
C  28.99200 53.81700 40.65400
C  27.34700 55.92500 37.93200
C  26.69000 54.90400 36.93000
H  27.39700 54.67800 35.62700
N  30.39300 58.77300 42.20200
C  31.17600 57.88200 41.60000
C  32.52400 58.39600 41.60900
C  32.57000 59.62500 42.37200
C  31.19900 59.73700 42.77500
C  33.60400 57.77500 40.83900
C  33.73500 60.39800 42.65500
O  34.85800 59.95700 42.32800
C  33.70800 61.73300 43.33700
N  28.20400 60.45500 43.58400
C  29.33300 61.05300 43.99300
C  29.01100 62.34000 44.78400
C  27.45500 62.29400 44.86500
C  27.10400 61.10400 43.94700
C  29.76600 62.45900 46.14900
C  26.76200 63.64600 44.47300
C  26.34200 64.62900 45.61500
N  26.14900 58.81200 42.30900
C  25.27700 59.72100 42.84800
C  23.92000 59.35100 42.52000
C  24.07800 58.28400 41.57900
C  25.45800 57.95500 41.53300
C  22.79600 60.15500 42.94600
C  23.37500 57.36900 40.77200
O  22.22700 57.18100 40.54500
C  24.49400 56.50900 40.11300
C  24.03100 55.08600 40.55300
O  23.88500 54.69400 41.68700
O  23.88900 54.33100 39.44200
C  23.62500 52.92700 39.53000
H  31.37800 55.96300 40.54900
H  31.28600 61.60000 43.92600
H  25.08800 61.49100 44.13800
H  26.82700 54.45100 39.41600
H  29.69300 54.82100 39.08300
H  29.66500 53.10200 40.18100
H  28.02200 53.33300 40.76400
H  29.31300 54.01600 41.67700
H  28.36200 56.13600 37.59700
H  26.73400 56.82500 37.88100
H  25.70600 55.30100 36.68200
H  26.61900 53.89400 37.33500
H  34.18100 57.01000 41.36000
H  34.18900 58.59800 40.42800
H  33.21100 57.25500 39.96600
H  32.88100 62.37800 43.04000
H  34.63300 62.23800 43.05800
H  33.72600 61.59000 44.41700
H  29.37800 63.15700 44.16300
H  27.19200 62.20100 45.91900
H  30.54300 61.69500 46.14800
H  29.13200 62.30000 47.02100
H  30.27400 63.41800 46.04500
H  25.82000 63.46000 43.95600
H  27.36900 64.27200 43.81900
H  25.26200 64.76700 45.65700
H  26.94600 65.53200 45.52700
H  26.76800 64.28300 46.55800
H  21.88700 59.65000 42.62000
H  22.79900 61.09300 42.39100
H  22.72600 60.27500 44.02700
H  24.51200 56.61100 39.02800
H  22.71300 52.74200 40.09700
H  24.42300 52.35100 40.00000
H  23.40000 52.51100 38.54900

