158

Mg 0.38100 8.13100 25.54200
C  1.38800 10.11800 28.08800
C  0.89100 5.41200 27.54700
C  -0.14100 6.18000 22.82000
C  0.67500 10.85000 23.40700
N  1.26200 7.77500 27.53900
C  1.28600 8.74100 28.44700
C  1.42600 8.17000 29.84900
C  1.45000 6.64700 29.67600
C  1.12200 6.60700 28.18600
C  2.80600 5.98300 30.01900
C  0.26700 8.58100 30.73300
C  0.41600 8.28400 32.23100
H  1.64300 7.54700 32.74700
N  0.35900 6.10100 25.22700
C  0.63800 5.08800 26.24600
C  0.40400 3.71800 25.74400
C  -0.02700 3.93800 24.34500
C  0.01000 5.44300 24.03700
C  0.43400 2.38000 26.51000
C  -0.41700 2.94500 23.19100
O  -0.73100 3.36100 22.10600
C  -0.50600 1.48500 23.44700
N  0.31900 8.47200 23.38200
C  0.02200 7.52800 22.44600
C  -0.10900 8.11800 20.98700
C  0.17700 9.59800 21.23800
C  0.40700 9.72400 22.79300
C  0.86100 7.45000 19.92900
C  -0.97800 10.55500 20.78600
C  -2.20300 10.51100 21.79000
N  0.95500 10.11300 25.65500
C  0.86200 11.08800 24.75200
C  1.17900 12.36400 25.38200
C  1.26800 12.03500 26.78900
C  1.21700 10.62900 26.82500
C  1.32700 13.65800 24.74000
C  1.65900 12.54300 28.08600
O  2.00300 13.66500 28.47900
C  1.69800 11.33000 28.99100
C  3.04300 11.31300 29.63700
O  3.97100 10.55300 29.36800
O  2.98600 12.11600 30.65800
C  4.00000 11.96800 31.68800
H  0.87500 4.54600 28.21200
H  -0.33700 5.50500 21.98400
H  0.81400 11.77200 22.83900
H  2.27800 8.68300 30.29400
H  0.71500 6.12700 30.29000
H  3.52800 6.74600 30.30800
H  3.16900 5.59300 29.06800
H  2.74100 5.21000 30.78400
H  -0.59200 8.02200 30.36200
H  0.11000 9.65400 30.62400
H  -0.38800 7.60800 32.52200
H  0.36600 9.13000 32.91600
H  -0.43200 1.76400 26.26800
H  0.26700 2.38100 27.58700
H  1.33100 1.82400 26.23500
H  -1.37500 1.16300 24.02100
H  0.33100 1.13500 24.05100
H  -0.41800 0.96300 22.49400
H  -1.09600 7.84200 20.61600
H  1.05000 9.89200 20.65500
H  1.70800 6.94400 20.39300
H  1.15400 8.24200 19.24000
H  0.35400 6.65400 19.38300
H  -1.19200 10.26300 19.75800
H  -0.67800 11.60100 20.84800
H  -2.29100 11.35200 22.47700
H  -2.13200 9.54200 22.28400
H  -3.11600 10.46600 21.19600
H  0.39200 14.21300 24.68200
H  1.72200 13.39600 23.75800
H  1.94500 14.37500 25.28000
H  0.92700 11.63900 29.69700
H  4.91600 12.14300 31.12400
H  3.96100 10.94100 32.05000
H  3.78500 12.62100 32.53500
Mg 43.07500 3.49500 46.82300
C  41.39400 6.60700 47.01600
C  39.81900 1.91100 46.83100
C  44.42400 0.62900 46.12900
C  46.06600 5.25900 46.28100
N  40.94400 4.24800 46.93600
C  40.54100 5.53900 47.03200
C  39.00900 5.70200 47.19600
C  38.57500 4.18800 47.14500
C  39.84300 3.35800 46.98800
C  37.69900 3.69000 48.36400
C  38.21000 6.45600 46.13600
C  38.84600 6.49700 44.65000
H  38.08600 5.76800 43.48800
N  42.24700 1.49400 46.46700
C  40.91300 1.03700 46.63500
C  40.91800 -0.36900 46.41100
C  42.25900 -0.77700 46.16600
C  43.09500 0.42100 46.21400
C  39.69000 -1.20400 46.56300
C  42.69400 -2.26800 45.93700
O  41.84900 -3.16800 45.74800
C  44.07200 -2.62300 45.53700
N  44.96700 3.04600 46.21900
C  45.25800 1.74000 46.10100
C  46.78300 1.61400 46.03300
C  47.34600 3.03900 45.79200
C  46.05400 3.84400 46.13700
C  47.34600 1.01500 47.30800
C  47.93100 3.28700 44.42300
C  49.16400 4.04100 44.27400
N  43.69700 5.49000 46.75000
C  44.91200 6.04700 46.51900
C  44.75600 7.52000 46.56900
C  43.39600 7.68900 46.72600
C  42.82500 6.50300 46.88300
C  45.85200 8.60900 46.42600
C  42.37900 8.81700 46.80400
O  42.44700 10.06500 46.72600
C  41.06900 8.10400 46.95800
C  40.52300 8.65800 48.27100
O  40.96400 8.54700 49.38200
O  39.36700 9.32600 48.00900
C  38.82300 10.00400 49.20600
H  38.84200 1.42200 46.81900
H  45.00300 -0.29600 46.10300
H  46.96400 5.87000 46.17000
H  38.86800 6.17900 48.16500
H  38.09500 3.92000 46.20400
H  37.80000 2.61800 48.53200
H  36.65600 3.92700 48.15700
H  37.94200 4.11200 49.33900
H  38.10300 7.45300 46.56400
H  37.21300 6.07200 45.91600
H  39.79700 5.97000 44.56600
H  38.93600 7.56900 44.47700
H  39.82600 -2.18800 47.01300
H  39.06100 -1.10700 45.67900
H  39.03100 -0.72500 47.28700
H  44.56700 -2.69700 46.50600
H  44.35700 -1.85300 44.82100
H  44.11600 -3.56000 44.98200
H  46.99100 1.06400 45.11500
H  47.99000 3.45900 46.56500
H  46.66300 0.54500 48.01600
H  47.84700 1.81500 47.85200
H  48.10700 0.30800 46.97600
H  47.21400 3.82700 43.80300
H  47.90200 2.39000 43.80400
H  49.00400 4.93500 43.67200
H  49.90900 3.41600 43.78200
H  49.50900 4.31500 45.27200
H  46.90100 8.31200 46.41400
H  45.71500 9.25700 47.29100
H  45.76200 9.13800 45.47700
H  40.37300 8.24700 46.13200
H  38.57100 9.20800 49.90700
H  37.83800 10.40800 48.97200
H  39.43400 10.79000 49.65100

