158

Mg 41.21300 9.04500 30.08500
C  43.13600 10.35700 32.71400
C  38.81400 7.96900 32.29500
C  39.35900 7.91700 27.47600
C  43.76400 10.02300 27.85300
N  40.99800 9.22100 32.26800
C  41.86700 9.86300 33.18300
C  41.31600 9.81700 34.64800
C  40.07100 8.78800 34.48000
C  39.94300 8.66400 32.93500
C  40.32200 7.45100 35.18800
C  41.04000 11.18800 35.24300
C  40.36100 11.23400 36.68800
H  41.05300 12.17400 37.65300
N  39.29600 8.05400 29.89900
C  38.47900 7.72800 30.95500
C  37.30600 7.13000 30.39700
C  37.38000 7.15200 28.95500
C  38.69000 7.75900 28.74100
C  36.25700 6.53400 31.33900
C  36.37600 6.67900 27.86100
O  36.66800 6.59800 26.68600
C  34.91500 6.24600 28.24900
N  41.57500 8.87700 27.99900
C  40.62100 8.46300 27.17800
C  41.00200 8.51800 25.75400
C  42.46000 9.13200 25.84400
C  42.63000 9.39000 27.31300
C  40.91900 7.29400 24.80600
C  42.72800 10.37100 24.92400
C  42.34200 11.74200 25.50300
N  43.06100 9.93600 30.19700
C  44.00600 10.22400 29.21400
C  45.08000 10.95500 29.78000
C  44.80500 11.05700 31.13600
C  43.56900 10.35900 31.37900
C  46.24000 11.54000 29.10400
C  45.15400 11.68300 32.43800
O  46.06800 12.50700 32.63700
C  44.09200 11.25000 33.52300
C  44.73400 10.48800 34.62900
O  45.36300 9.49800 34.55000
O  44.41500 11.13800 35.77700
C  44.61700 10.34500 37.05900
H  37.97400 7.78400 32.96900
H  38.79100 7.70200 26.56800
H  44.53100 10.45900 27.20900
H  42.08400 9.30800 35.23200
H  39.10500 9.14600 34.83600
H  39.75900 7.34400 36.11500
H  41.38300 7.37100 35.42400
H  40.06600 6.60700 34.54700
H  40.46900 11.86600 34.60800
H  42.00300 11.67200 35.40300
H  40.34300 10.27400 37.20500
H  39.35200 11.63500 36.59500
H  36.10600 5.50700 31.00600
H  35.32100 7.05800 31.14700
H  36.50400 6.34600 32.38300
H  34.27500 6.35700 27.37400
H  34.61600 6.73300 29.17800
H  35.13500 5.20100 28.46700
H  40.40200 9.30000 25.28800
H  43.31000 8.55600 25.47900
H  40.85900 6.36000 25.36500
H  41.81500 7.34500 24.18700
H  40.11600 7.35000 24.07100
H  42.24300 10.24800 23.95500
H  43.81200 10.42400 24.82200
H  41.47500 11.60000 26.14800
H  42.05900 12.39600 24.67900
H  43.16900 12.09200 26.12100
H  45.93700 12.23200 28.31900
H  46.80400 10.71400 28.67100
H  46.92300 12.04500 29.78700
H  43.65200 12.21200 33.78800
H  44.26900 9.31500 36.98100
H  44.20500 10.80300 37.95900
H  45.67800 10.42300 37.29800
Mg 47.54500 16.26200 29.46800
C  45.61900 16.04200 32.22500
C  49.97900 18.01900 31.37700
C  49.43700 16.75500 26.59000
C  45.02200 14.91300 27.47700
N  47.73300 17.02600 31.55500
C  46.83300 16.68900 32.50000
C  47.24800 17.35400 33.89700
C  48.52600 18.19200 33.58900
C  48.73900 17.80600 32.05700
C  48.43200 19.69200 33.87400
C  47.52600 16.18700 34.91500
C  48.12500 16.62000 36.24300
H  48.09700 18.04200 36.90100
N  49.43500 17.19500 29.03400
C  50.31100 17.68700 29.98000
C  51.64300 17.90200 29.33800
C  51.52900 17.58900 27.95000
C  50.05800 17.18900 27.78000
C  52.85500 18.35300 30.07000
C  52.51900 17.60200 26.71200
O  52.22800 17.20600 25.60700
C  53.98300 18.15300 27.00700
N  47.17200 16.02700 27.25400
C  48.15700 16.23000 26.32500
C  47.56600 16.03100 24.95800
C  46.24500 15.20800 25.14800
C  46.13200 15.33100 26.70800
C  47.54000 17.32000 24.03800
C  46.26400 13.71700 24.62700
C  44.92900 13.38200 23.90400
N  45.78600 15.47700 29.74000
C  44.82300 14.97600 28.84700
C  43.69800 14.50200 29.67400
C  43.98300 14.96900 30.98300
C  45.25000 15.49800 30.95900
C  42.50500 13.78900 29.13300
C  43.33300 15.11100 32.27100
O  42.26600 14.70000 32.66800
C  44.47000 15.79800 33.17800
C  43.97100 17.07500 33.83000
O  43.79400 18.15600 33.26300
O  44.02400 16.92900 35.19900
C  43.80200 18.10400 36.03300
H  50.81700 18.47100 31.91200
H  49.94500 16.88000 25.63200
H  44.22400 14.37900 26.95600
H  46.44600 18.01700 34.22200
H  49.45500 17.85800 34.05000
H  48.50200 20.20000 32.91300
H  49.27500 20.08800 34.44100
H  47.50800 19.99200 34.36800
H  48.22100 15.52700 34.39600
H  46.58700 15.66000 35.08400
H  49.21200 16.55300 36.21000
H  47.67500 15.93900 36.96600
H  52.61900 18.94000 30.95700
H  53.46100 19.07800 29.52600
H  53.49400 17.50100 30.30000
H  54.64900 18.24900 26.14900
H  54.50200 17.59900 27.78900
H  53.92500 19.11000 27.52600
H  48.32300 15.41700 24.47100
H  45.40800 15.77700 24.74300
H  47.66900 18.20900 24.65500
H  46.58000 17.31500 23.52200
H  48.34300 17.26700 23.30200
H  46.35100 13.15000 25.55400
H  47.11100 13.54400 23.96400
H  44.85400 13.94700 22.97500
H  44.03800 13.65200 24.47100
H  44.86300 12.31100 23.71400
H  42.58600 12.82800 29.64100
H  42.42500 13.62000 28.06000
H  41.56400 14.23200 29.45800
H  44.69200 15.00000 33.88700
H  44.77600 18.50000 36.32300
H  43.19000 17.77000 36.87200
H  43.21200 18.88400 35.55400

