158

Mg 35.60000 48.90700 25.14800
C  35.86500 47.15300 28.35200
C  34.31400 51.48300 26.80500
C  34.80500 50.28000 22.15100
C  36.70500 45.95800 23.71200
N  35.06700 49.22200 27.31600
C  35.40500 48.50200 28.48700
C  35.09900 49.22200 29.83300
C  34.48900 50.52800 29.24800
C  34.65500 50.47500 27.68800
C  33.03400 50.98900 29.55600
C  36.33300 49.54600 30.79300
C  36.27600 49.05100 32.33500
H  34.87900 48.89000 32.98800
N  34.88200 50.67400 24.51600
C  34.40500 51.65100 25.40300
C  34.05800 52.86700 24.68700
C  34.04100 52.48800 23.25700
C  34.60200 51.08600 23.23500
C  33.62500 54.16600 25.28300
C  33.57100 53.25700 22.05200
O  33.63100 52.88800 20.86700
C  33.01500 54.69000 22.27800
N  35.67600 48.18400 23.18300
C  35.36500 48.90400 22.08900
C  35.81100 48.16300 20.79800
C  36.71500 47.00200 21.34200
C  36.30800 47.00800 22.83200
C  34.65000 47.70000 19.89700
C  38.21800 47.31300 21.13700
C  39.22400 46.19100 21.57700
N  35.99100 46.90800 25.83400
C  36.37300 45.80000 25.09400
C  36.63300 44.68800 25.99000
C  36.46000 45.17700 27.24700
C  36.03600 46.53500 27.08900
C  37.11100 43.34600 25.58200
C  36.48800 44.80100 28.65600
O  36.82300 43.71800 29.21700
C  36.03300 46.09900 29.37700
C  34.80100 45.76900 30.03800
O  33.74300 46.27800 29.84000
O  35.09200 44.98400 31.13300
C  34.00300 44.72100 32.11000
H  34.08700 52.46900 27.21500
H  34.66400 50.69700 21.15100
H  37.11300 45.13400 23.12300
H  34.27600 48.67800 30.29700
H  35.19000 51.31000 29.54000
H  33.02900 52.00700 29.94600
H  32.73500 50.38300 30.41100
H  32.32900 50.80600 28.74500
H  36.58800 50.59500 30.94300
H  37.27100 49.17600 30.37700
H  37.03100 49.56100 32.93300
H  36.62200 48.01800 32.33200
H  32.58200 54.14500 25.59700
H  33.83800 55.14200 24.84700
H  34.07400 54.28500 26.26900
H  33.65100 55.50400 22.62700
H  32.22300 54.83400 23.01300
H  32.52600 55.06100 21.37700
H  36.32300 48.93800 20.22600
H  36.50800 45.99500 20.98100
H  33.66500 47.75200 20.36000
H  34.83600 46.67200 19.58400
H  34.72700 48.31700 19.00300
H  38.43200 48.29000 21.57000
H  38.33100 47.35600 20.05400
H  39.83100 46.41100 22.45600
H  39.88300 45.91900 20.75200
H  38.71600 45.27200 21.86900
H  36.33400 42.58900 25.68800
H  38.04700 42.99000 26.01100
H  37.19300 43.30600 24.49500
H  36.82500 46.42900 30.04900
H  33.17000 44.41600 31.47700
H  33.83200 45.56000 32.78500
H  34.16000 43.81600 32.69600
Mg -3.42700 34.65100 25.99500
C  -4.94400 32.71200 28.64400
C  -2.08900 36.64800 28.50100
C  -2.33400 36.73300 23.65500
C  -5.18700 32.70400 23.74200
N  -3.62400 34.63900 28.26200
C  -4.08400 33.66500 29.13200
C  -3.68300 33.98600 30.65700
C  -2.79100 35.30000 30.46300
C  -2.81400 35.53400 28.96600
C  -3.26600 36.52400 31.31300
C  -3.04300 32.81000 31.44600
C  -3.70200 32.40000 32.80200
H  -2.84200 32.47200 33.98700
N  -2.23300 36.32000 26.09200
C  -1.73500 36.97600 27.20800
C  -0.81700 38.07900 26.76100
C  -0.81900 37.99700 25.30600
C  -1.84700 37.01400 24.93300
C  -0.05000 38.94700 27.73200
C  0.06700 38.83900 24.32300
O  0.04800 38.74800 23.10400
C  0.97600 39.91700 24.89500
N  -3.88300 34.75400 24.07900
C  -3.32300 35.78200 23.27300
C  -3.87300 35.68400 21.81900
C  -4.40500 34.19900 21.77900
C  -4.50000 33.86000 23.24500
C  -4.93000 36.82800 21.48600
C  -3.45300 33.22300 21.04100
C  -2.13200 32.83400 21.68800
N  -4.83200 33.03900 26.15300
C  -5.45200 32.34700 25.10300
C  -6.24600 31.25700 25.62100
C  -6.13200 31.33500 27.06600
C  -5.24500 32.49000 27.29500
C  -7.08400 30.31800 24.85400
C  -6.40500 30.68500 28.29700
O  -7.01000 29.66200 28.59100
C  -5.73300 31.64200 29.37700
C  -6.78900 32.14400 30.27500
O  -7.80200 32.77500 30.01800
O  -6.50400 31.74000 31.60600
C  -7.57400 31.93600 32.60300
H  -1.57200 37.21400 29.27800
H  -2.08400 37.47300 22.89200
H  -5.51800 31.95900 23.01600
H  -4.60700 34.28300 31.15400
H  -1.79300 35.05400 30.82700
H  -2.44500 37.04100 31.80900
H  -3.92700 36.16800 32.10400
H  -3.82200 37.28000 30.75900
H  -2.07200 33.14400 31.81300
H  -2.92600 31.85800 30.92800
H  -4.09500 31.39800 32.62500
H  -4.62400 32.89700 33.10300
H  -0.44900 39.96000 27.68000
H  1.02300 38.94300 27.53800
H  -0.14900 38.58400 28.75500
H  1.56500 40.33400 24.07800
H  1.73200 39.43000 25.51000
H  0.47700 40.65300 25.52500
H  -3.00600 35.89200 21.19200
H  -5.39500 34.13400 21.32800
H  -4.37400 37.61600 20.97900
H  -5.46200 37.15800 22.37800
H  -5.73300 36.47300 20.84000
H  -3.16300 33.60200 20.06200
H  -4.13900 32.39600 20.85800
H  -1.94100 31.76400 21.77400
H  -1.97800 33.29100 22.66500
H  -1.33000 33.33500 21.14600
H  -7.46300 29.71600 25.68000
H  -6.47900 29.86900 24.06600
H  -7.98000 30.70100 24.36500
H  -5.08700 30.95700 29.92700
H  -7.26900 31.51000 33.55800
H  -8.42100 31.33700 32.27000
H  -7.92400 32.96400 32.70400

