158

Mg 34.73300 48.63300 26.06400
C  35.52000 46.72400 28.80500
C  33.52700 51.13500 28.26500
C  33.84500 50.43300 23.47400
C  35.84100 46.07800 24.00500
N  34.52500 48.89500 28.26300
C  35.08000 48.01500 29.18000
C  34.92100 48.53100 30.62800
C  34.08100 49.85300 30.44200
C  34.09600 49.96600 28.87500
C  32.62200 49.83700 31.05400
C  36.35100 48.75200 31.33500
C  36.58400 48.45300 32.81500
H  36.18200 49.62700 33.74100
N  33.86000 50.46600 25.90500
C  33.43300 51.34400 26.89300
C  32.96400 52.54100 26.28300
C  33.03400 52.33600 24.86900
C  33.72400 51.07500 24.73500
C  32.44200 53.73100 27.11100
C  32.51200 53.30800 23.74200
O  32.56500 53.01000 22.55600
C  31.88000 54.60300 24.18800
N  34.78300 48.28400 23.99600
C  34.34200 49.20200 23.06600
C  34.47800 48.72900 21.63500
C  35.29400 47.36100 21.88500
C  35.40000 47.24400 23.39000
C  33.08100 48.44000 20.98900
C  36.67300 47.22800 21.14700
C  36.90700 45.84200 20.56400
N  35.42000 46.73900 26.25000
C  35.81400 45.83800 25.37500
C  36.26300 44.62100 26.07100
C  36.26000 45.01600 27.42300
C  35.74100 46.29300 27.52200
C  36.82200 43.35400 25.54200
C  36.59100 44.54800 28.77900
O  37.01000 43.45500 29.15300
C  36.11500 45.61500 29.70900
C  35.18600 45.13900 30.74500
O  33.95900 45.10100 30.66900
O  35.86200 44.86300 31.86200
C  35.09800 44.81800 33.06600
H  33.28700 51.74700 29.13600
H  33.62300 50.98300 22.55700
H  36.29100 45.27300 23.42200
H  34.28700 47.86200 31.20900
H  34.58700 50.70600 30.89300
H  31.84300 50.41900 30.56200
H  32.80200 50.24100 32.05000
H  32.28000 48.80400 31.12000
H  36.60000 49.78900 31.11000
H  37.15900 48.15200 30.91500
H  37.64700 48.42900 33.05500
H  35.99800 47.58700 33.12100
H  32.89200 54.65100 26.74000
H  32.80200 53.80800 28.13700
H  31.35400 53.78700 27.13100
H  32.71200 55.19600 24.56800
H  31.20000 54.42300 25.02000
H  31.34200 55.13200 23.40100
H  35.08300 49.54400 21.23600
H  34.71500 46.44200 21.80600
H  32.83200 47.38900 20.84000
H  33.10500 48.87200 19.98900
H  32.30000 48.91800 21.58100
H  37.43400 47.39000 21.91000
H  36.68600 47.94200 20.32400
H  37.94200 45.66100 20.27500
H  36.19100 45.79100 19.74400
H  36.69600 45.04600 21.27800
H  36.22200 42.52300 25.91200
H  37.89700 43.29400 25.71400
H  36.76800 43.36200 24.45300
H  36.97800 46.01900 30.23800
H  34.53100 45.74900 33.05300
H  35.75000 44.66500 33.92600
H  34.46900 43.92800 33.08200
Mg -10.89900 39.53000 40.61300
C  -9.45900 36.43300 39.72400
C  -8.42400 41.14600 39.07500
C  -12.85300 42.29900 40.75900
C  -13.86600 37.52400 41.62500
N  -9.29400 38.76900 39.21600
C  -8.78000 37.53600 39.08600
C  -7.43100 37.51700 38.34900
C  -7.07200 39.06500 38.37600
C  -8.33500 39.70100 38.90100
C  -5.76600 39.40200 39.13000
C  -7.47600 36.77000 37.00500
C  -6.95300 37.49700 35.74900
H  -8.02100 38.22300 34.91400
N  -10.65600 41.46700 39.98700
C  -9.49100 42.00600 39.47200
C  -9.53800 43.42300 39.45800
C  -10.83300 43.77100 39.95600
C  -11.53400 42.46100 40.26900
C  -8.38200 44.33600 38.99400
C  -11.38900 45.23700 40.01800
O  -10.66800 46.15800 39.76600
C  -12.86200 45.58300 40.23600
N  -13.15000 39.81500 40.78600
C  -13.57500 41.10200 40.98900
C  -15.00200 41.11800 41.60400
C  -15.41700 39.67300 41.72000
C  -14.11700 38.93800 41.38500
C  -15.07200 41.93000 42.93000
C  -16.46800 39.26800 40.69700
C  -17.30300 37.98800 40.94300
N  -11.52200 37.45200 40.85400
C  -12.69100 36.84100 41.28800
C  -12.38700 35.44200 41.50100
C  -11.15500 35.23300 40.93400
C  -10.69200 36.45700 40.43800
C  -13.35700 34.39900 42.11000
C  -10.18500 34.24100 40.52600
O  -10.17000 33.02900 40.69900
C  -9.05300 34.99300 39.74700
C  -7.79200 34.66700 40.46500
O  -7.33800 33.53400 40.43800
O  -7.22400 35.75400 41.15900
C  -6.18400 35.32100 42.11400
H  -7.54100 41.67900 38.71700
H  -13.37900 43.24100 40.92800
H  -14.61900 36.97800 42.19800
H  -6.71500 36.95500 38.94900
H  -6.88700 39.47100 37.38100
H  -5.20900 40.05100 38.45500
H  -5.26700 38.48100 39.43300
H  -6.03300 40.05900 39.95700
H  -8.52900 36.52900 36.86500
H  -6.75500 35.96900 37.16800
H  -6.38800 36.91500 35.02100
H  -6.15300 38.18800 36.01900
H  -7.47900 43.73500 38.88100
H  -8.16100 45.09700 39.74200
H  -8.62300 44.75100 38.01500
H  -12.99200 46.56500 39.78000
H  -13.12000 45.56100 41.29500
H  -13.43800 44.83800 39.68800
H  -15.61100 41.63100 40.86000
H  -15.73000 39.45700 42.74100
H  -15.73800 41.45900 43.65300
H  -15.51100 42.90600 42.72700
H  -14.10900 42.04000 43.43000
H  -15.97100 39.23500 39.72800
H  -17.20600 40.05800 40.55700
H  -17.11200 37.24800 40.16500
H  -18.36300 38.23900 40.97900
H  -17.12800 37.54500 41.92300
H  -13.15700 33.41300 41.69200
H  -14.39300 34.72200 42.01200
H  -13.12700 34.43600 43.17500
H  -9.09700 34.55700 38.74900
H  -6.51800 34.66800 42.92000
H  -5.67900 36.15000 42.60900
H  -5.36200 34.82500 41.59700

