158

Mg 1.40200 8.46000 25.09400
C  2.47300 10.42900 27.95100
C  1.69100 5.74200 27.03600
C  0.42200 6.72000 22.39600
C  1.67900 11.33700 23.08800
N  1.90500 8.11100 27.34100
C  2.32600 9.07200 28.27800
C  2.24200 8.39500 29.68400
C  2.32800 6.86400 29.30800
C  2.03400 6.89900 27.78500
C  3.58900 6.03400 29.67900
C  0.97600 8.76200 30.43200
C  1.02300 8.84400 31.97000
H  2.08600 7.99300 32.78100
N  0.95400 6.43100 24.78100
C  1.14000 5.44100 25.74300
C  0.65000 4.26700 25.16400
C  0.31500 4.51600 23.86300
C  0.52600 5.94000 23.60900
C  0.75600 2.95700 25.81100
C  -0.14300 3.59900 22.69300
O  -0.33900 3.99100 21.59100
C  -0.31900 2.13100 22.94400
N  1.28000 8.98900 23.07400
C  0.82100 8.05500 22.15200
C  0.95500 8.56600 20.73000
C  1.05800 10.16600 21.03100
C  1.47400 10.12700 22.49500
C  2.13800 8.06700 19.83400
C  -0.33700 10.82200 20.68500
C  -0.18900 12.21600 19.98500
N  1.96500 10.50000 25.42100
C  1.97900 11.53000 24.48000
C  2.36700 12.74500 25.15100
C  2.41400 12.40600 26.56900
C  2.20300 11.00300 26.66600
C  2.66600 14.05800 24.53700
C  2.72400 12.89700 27.88700
O  3.01700 13.99500 28.33900
C  2.75800 11.59000 28.82400
C  4.00900 11.37800 29.56000
O  4.97100 10.73500 29.26700
O  3.83000 11.92100 30.76200
C  4.94500 11.57800 31.69400
H  1.69700 4.89000 27.71900
H  0.10800 6.23000 21.47200
H  1.77400 12.27000 22.52900
H  3.03900 8.83300 30.28600
H  1.53700 6.25000 29.74100
H  4.03600 6.64800 30.46100
H  4.23300 5.77900 28.83700
H  3.17800 5.12600 30.11900
H  0.22000 8.06400 30.07200
H  0.72100 9.70700 29.95200
H  0.04300 8.74400 32.43700
H  1.26400 9.86800 32.25600
H  -0.23600 2.58300 26.06200
H  1.31900 2.93000 26.74400
H  1.37900 2.20900 25.32100
H  -0.89300 2.01400 23.86300
H  0.67700 1.69900 23.03900
H  -0.74400 1.64700 22.06500
H  0.07300 8.29300 20.15100
H  1.85600 10.63700 20.45700
H  2.78200 7.31700 20.29300
H  2.76500 8.84100 19.39100
H  1.59700 7.55100 19.04100
H  -0.81500 10.94500 21.65700
H  -0.98700 10.14400 20.13200
H  -0.91700 12.29600 19.17800
H  0.73400 12.51800 19.48800
H  -0.46000 12.99400 20.69800
H  2.04100 14.10700 23.64500
H  3.74600 14.13500 24.40700
H  2.40500 14.85600 25.23200
H  1.94600 11.68200 29.54600
H  5.00700 10.51500 31.92400
H  4.70000 12.10300 32.61800
H  5.89200 11.88900 31.25300
Mg 36.48400 0.41700 29.64300
C  34.26700 1.60500 32.01700
C  38.89300 0.43800 32.05600
C  38.74800 0.00400 27.15400
C  34.00900 1.11700 27.15500
N  36.50700 0.94200 31.77200
C  35.51700 1.41000 32.57000
C  35.93300 1.49300 34.01400
C  37.50700 1.38300 33.90800
C  37.66800 0.89900 32.47500
C  38.32500 2.70400 34.08100
C  35.20900 0.43500 34.85600
C  35.61800 0.25400 36.37200
H  36.41400 1.39600 37.09300
N  38.48600 0.14300 29.63000
C  39.31400 0.15100 30.75400
C  40.62000 -0.10400 30.32300
C  40.65200 -0.35300 28.93300
C  39.26200 -0.07500 28.48000
C  41.70700 -0.24500 31.33300
C  41.82300 -0.67000 27.94200
O  41.63500 -0.79800 26.69700
C  43.26200 -0.74800 28.45700
N  36.36400 0.45200 27.51000
C  37.45200 0.21300 26.75900
C  37.08000 0.19000 25.21500
C  35.62900 0.47400 25.23600
C  35.31100 0.71000 26.71000
C  37.93800 1.06000 24.22800
C  34.62500 -0.56400 24.52100
C  34.16800 -1.77900 25.38000
N  34.47900 1.07100 29.60300
C  33.65500 1.37100 28.51800
C  32.39800 1.91700 29.01300
C  32.58400 2.01600 30.41300
C  33.83900 1.46400 30.69200
C  31.34100 2.38500 28.12000
C  32.04000 2.50700 31.57400
O  31.00500 3.10000 31.78000
C  33.04000 2.21000 32.70500
C  33.25900 3.43500 33.48200
O  33.96600 4.39500 33.16900
O  32.73300 3.31900 34.76200
C  32.89900 4.53900 35.60000
H  39.64800 0.47100 32.84400
H  39.36100 -0.27500 26.29500
H  33.27000 1.31100 26.37500
H  35.77000 2.51400 34.35800
H  37.99600 0.70100 34.60400
H  37.72800 3.60800 34.20600
H  38.98700 2.84400 33.22600
H  39.10300 2.58300 34.83500
H  35.50900 -0.46900 34.32600
H  34.12400 0.53100 34.87800
H  36.32700 -0.55600 36.19800
H  34.89500 -0.18000 37.06300
H  42.23500 0.67400 31.58700
H  42.44400 -0.93800 30.92600
H  41.40200 -0.82000 32.20700
H  43.46100 0.03500 29.18800
H  43.88800 -0.63400 27.57100
H  43.45100 -1.72700 28.89700
H  37.19200 -0.82600 24.83800
H  35.38400 1.37400 24.67100
H  38.85700 1.37700 24.71900
H  37.34000 1.91300 23.90600
H  38.21100 0.37200 23.42800
H  34.93900 -1.00500 23.57600
H  33.71600 0.01000 24.33800
H  34.27500 -2.71100 24.82600
H  33.11400 -1.70000 25.64600
H  34.88700 -1.85700 26.19600
H  31.14600 1.63000 27.35900
H  31.72600 3.23700 27.55900
H  30.35600 2.55900 28.55500
H  32.62500 1.45900 33.37700
H  32.38500 5.38500 35.14200
H  33.97100 4.73300 35.62700
H  32.51000 4.32600 36.59600

