158

Mg 47.89500 15.28900 27.79800
C  46.10600 15.19600 30.67800
C  50.11500 17.61600 29.28200
C  49.52300 15.56100 24.89000
C  45.15400 13.95200 26.18800
N  48.16700 16.21500 29.75100
C  47.33500 15.92600 30.78800
C  47.97400 16.34500 32.10500
C  49.24600 17.24400 31.70900
C  49.08800 17.07900 30.18100
C  49.21600 18.76500 32.15100
C  48.32400 15.18300 33.08000
C  48.25100 15.50600 34.58400
H  48.54800 16.90300 35.07100
N  49.71800 16.31300 27.18800
C  50.47100 17.21300 27.92600
C  51.59600 17.66200 27.09200
C  51.49200 17.01500 25.87600
C  50.24000 16.24400 25.94900
C  52.63100 18.75900 27.49100
C  52.44700 17.08700 24.70100
O  52.21500 16.44300 23.68200
C  53.88300 17.70500 24.81700
N  47.45500 14.76400 25.80500
C  48.27000 14.96900 24.76100
C  47.45500 14.83900 23.39100
C  46.12800 14.18000 23.81900
C  46.22600 14.27900 25.34900
C  47.28900 16.15500 22.54800
C  45.89200 12.67300 23.43400
C  46.41900 11.51300 24.39400
N  46.10300 14.60800 28.28500
C  45.06200 14.11000 27.55100
C  43.89000 13.90600 28.32200
C  44.25300 14.28500 29.63300
C  45.59700 14.67900 29.51700
C  42.55200 13.34700 27.80800
C  43.87300 14.41300 31.05900
O  42.80700 14.19500 31.57800
C  45.04300 14.94900 31.77300
C  44.69200 16.17300 32.47300
O  44.64900 17.27000 31.99000
O  44.37000 15.84100 33.77300
C  43.76100 16.86500 34.59900
H  50.87400 18.17400 29.83400
H  50.02300 15.52800 23.92000
H  44.26400 13.64300 25.63400
H  47.22300 16.98800 32.56400
H  50.15800 16.71500 31.98700
H  48.24900 19.06800 32.55200
H  49.35000 19.53500 31.39200
H  50.04000 18.88900 32.85400
H  49.32100 14.89300 32.74700
H  47.58300 14.44300 32.77800
H  48.98700 14.81000 34.98400
H  47.35900 15.24700 35.15500
H  53.49600 18.39600 28.04700
H  52.17800 19.46900 28.18200
H  53.14500 19.22700 26.65100
H  53.93300 18.79000 24.72500
H  54.45000 17.36100 23.95200
H  54.43600 17.25200 25.64000
H  48.04200 14.24400 22.69000
H  45.34600 14.81700 23.40600
H  47.46600 17.00600 23.20600
H  46.24100 16.26700 22.27300
H  48.02600 16.05000 21.75100
H  46.24000 12.28400 22.47800
H  44.80900 12.62100 23.32500
H  45.59400 11.17500 25.02000
H  47.28000 11.80400 24.99700
H  46.61400 10.65800 23.74600
H  42.77600 12.35500 27.41500
H  42.24900 13.89000 26.91200
H  41.79200 13.21600 28.57800
H  45.19100 14.13100 32.47900
H  43.40600 17.70100 33.99700
H  44.63300 17.13600 35.19500
H  43.02200 16.33300 35.19900
Mg 48.31600 34.82100 26.28800
C  46.21100 33.36000 28.85400
C  48.59500 37.52000 28.31200
C  49.47800 36.40500 23.72300
C  47.40700 32.02100 24.34600
N  47.47700 35.26900 28.36100
C  46.83600 34.52000 29.23700
C  46.90900 35.02200 30.70600
C  47.33600 36.51700 30.39900
C  47.90400 36.39700 28.95400
C  46.34100 37.73300 30.61300
C  48.05100 34.24700 31.47200
C  47.80300 33.99200 32.99000
H  46.89000 34.89500 33.70000
N  49.14800 36.66000 26.13400
C  49.16400 37.63500 27.03400
C  49.93100 38.75800 26.49300
C  50.24200 38.45600 25.18100
C  49.59900 37.17300 24.97000
C  50.26200 39.92800 27.36200
C  51.02100 39.29600 24.14800
O  51.04100 39.04900 22.95400
C  51.74100 40.57400 24.56100
N  48.21800 34.41500 24.15100
C  48.85400 35.21100 23.32600
C  49.39000 34.34200 22.13500
C  48.87800 32.85500 22.46000
C  48.13700 33.10300 23.74800
C  49.02000 34.89500 20.75600
C  49.98200 31.82000 22.61900
C  50.04500 30.60700 21.60600
N  47.15700 32.96500 26.50500
C  46.81500 32.02600 25.67200
C  46.00900 31.01000 26.25800
C  45.75000 31.51400 27.48000
C  46.37800 32.78400 27.59800
C  45.52400 29.70500 25.72200
C  45.11200 31.22700 28.73200
O  44.60400 30.18800 29.13500
C  45.29300 32.42400 29.62600
C  45.74500 31.84200 30.94800
O  46.80300 31.20400 31.15200
O  44.73300 32.06500 31.82700
C  44.81200 31.46300 33.18600
H  48.91300 38.30900 28.99600
H  50.07400 36.91500 22.96300
H  47.31300 31.12100 23.73400
H  46.05200 34.89500 31.36700
H  48.18900 36.85100 30.99000
H  46.81500 38.65900 30.94000
H  45.57600 37.57400 31.37400
H  45.91400 37.90900 29.62600
H  48.99900 34.78500 31.42900
H  48.23800 33.31900 30.93200
H  48.77100 34.29200 33.39100
H  47.61100 32.94800 33.23700
H  51.30000 40.20400 27.18000
H  50.15500 39.76500 28.43400
H  49.52300 40.68900 27.11300
H  52.39700 41.06200 23.84000
H  52.40700 40.19000 25.33400
H  51.06500 41.37100 24.87200
H  50.47800 34.36600 22.19100
H  48.28200 32.46000 21.63800
H  48.77800 35.94900 20.89300
H  48.11400 34.50400 20.29400
H  49.82000 34.82200 20.02000
H  49.99200 31.50500 23.66300
H  50.94300 32.32900 22.55200
H  50.95200 30.71300 21.01100
H  49.20900 30.59000 20.90600
H  50.04800 29.72300 22.24300
H  46.01700 29.53900 24.76400
H  44.46400 29.63700 25.47500
H  45.63200 28.95700 26.50700
H  44.29800 32.84900 29.76000
H  45.76200 30.97900 33.41000
H  43.94800 30.82400 33.37000
H  44.65000 32.25000 33.92300

