158

Mg 47.42100 24.16100 28.31400
C  48.20100 26.34700 30.83600
C  46.50400 21.72700 30.65300
C  46.99600 22.11100 25.74300
C  48.66300 26.52900 25.94500
N  47.53300 23.95900 30.45400
C  47.63000 25.12400 31.25800
C  47.37200 24.70800 32.71700
C  47.20200 23.19200 32.74400
C  47.04900 22.89700 31.23100
C  48.41300 22.34000 33.23600
C  46.27500 25.59200 33.52200
C  46.78100 26.47700 34.64300
H  45.71900 26.96800 35.64900
N  46.82400 22.23100 28.14900
C  46.47000 21.36000 29.23200
C  45.99700 20.06700 28.66200
C  46.12700 20.14500 27.27000
C  46.67500 21.52800 26.99300
C  45.54300 18.92200 29.55600
C  45.88200 18.99000 26.26000
O  46.07400 19.12000 25.00500
C  45.55800 17.60600 26.76200
N  47.77500 24.30400 26.17400
C  47.45300 23.31900 25.32400
C  47.54000 23.64100 23.80400
C  47.95700 25.12400 23.91900
C  48.10300 25.34500 25.44400
C  48.65100 22.82300 23.03400
C  47.07000 26.14500 23.09200
C  45.77000 26.64900 23.72100
N  48.31500 26.06000 28.35600
C  48.72000 26.88800 27.35100
C  49.17200 28.12700 27.93600
C  49.02500 27.99200 29.29200
C  48.37100 26.72400 29.51700
C  49.86700 29.34900 27.26400
C  49.21800 28.71700 30.60400
O  49.66400 29.80000 30.99500
C  48.77400 27.59400 31.57700
C  50.01900 27.26500 32.31900
O  50.89100 26.52400 31.94700
O  49.96900 27.70000 33.61500
C  51.08800 27.31000 34.51800
H  46.20000 20.99900 31.40700
H  46.76500 21.47400 24.88700
H  49.17500 27.17000 25.22300
H  48.31200 24.91900 33.22800
H  46.40100 22.88700 33.41700
H  48.70300 21.54300 32.55100
H  48.17600 21.91800 34.21200
H  49.30300 22.96800 33.19900
H  45.44600 25.04800 33.97700
H  45.83300 26.27100 32.79300
H  47.10500 27.40700 34.17600
H  47.65900 26.06700 35.14400
H  45.28700 19.17200 30.58500
H  46.22900 18.07500 29.54900
H  44.59400 18.60900 29.11900
H  45.81900 16.85200 26.02000
H  44.52500 17.49300 27.09300
H  46.22100 17.38500 27.59800
H  46.71500 23.51300 23.10300
H  48.97600 25.19100 23.53700
H  49.45200 22.61300 23.74200
H  49.04000 23.38200 22.18300
H  48.15800 21.90800 22.70400
H  46.91100 25.70800 22.10600
H  47.69500 27.01600 22.89700
H  45.49800 26.14000 24.64600
H  44.91400 26.71700 23.05000
H  46.00700 27.67300 24.00800
H  50.95000 29.26700 27.35300
H  49.54500 30.19600 27.86900
H  49.61700 29.46600 26.20900
H  47.96200 27.85700 32.25500
H  52.05100 27.69100 34.17900
H  51.15000 26.22800 34.40700
H  51.02000 27.58600 35.57000
Mg 30.75700 59.28800 38.83100
C  27.83200 57.37600 38.10700
C  32.59600 56.52000 38.17600
C  33.37700 61.18900 38.79700
C  28.62600 62.03200 39.26200
N  30.21800 57.26800 37.91700
C  28.94700 56.66700 37.92200
C  29.09500 55.21200 37.43400
C  30.55000 54.86800 37.99900
C  31.20900 56.31700 38.04800
C  30.54700 54.41400 39.48400
C  28.77300 55.14400 35.85600
C  27.55500 54.34100 35.46500
H  26.71100 55.03300 34.33600
N  32.65200 58.98300 38.28100
C  33.23500 57.71900 38.10500
C  34.64400 57.84200 37.82200
C  34.94800 59.26500 38.03000
C  33.62900 59.90500 38.40000
C  35.57900 56.71500 37.53200
C  36.34400 59.90800 37.93600
O  37.23200 59.11700 37.63500
C  36.69800 61.37000 38.26600
N  31.00300 61.32900 38.98300
C  32.19300 61.87000 39.11300
C  32.11000 63.35200 39.43500
C  30.58700 63.60100 39.67700
C  30.02300 62.23600 39.27400
C  33.06200 63.73600 40.64100
C  29.98000 64.73600 38.80900
C  28.87600 65.62400 39.43000
N  28.66200 59.66400 38.83500
C  27.97200 60.80900 39.06200
C  26.58300 60.56300 38.87200
C  26.40400 59.25600 38.51500
C  27.73300 58.72300 38.52300
C  25.43000 61.48900 39.06200
C  25.42800 58.26200 38.09700
O  24.17200 58.28000 38.12100
C  26.37600 56.97300 37.81100
C  26.02000 55.82900 38.67100
O  26.29000 55.71500 39.84800
O  25.23400 54.90400 38.02200
C  24.37200 54.13900 38.90400
H  33.16600 55.58900 38.19700
H  34.20400 61.90000 38.83900
H  27.99900 62.89300 39.50300
H  28.41100 54.60700 38.02900
H  31.11700 54.24200 37.31000
H  29.61900 53.91800 39.76700
H  30.64400 55.30500 40.10400
H  31.39800 53.73800 39.56900
H  29.73200 54.79700 35.47200
H  28.61200 56.11400 35.38600
H  27.00800 54.18900 36.39500
H  27.97500 53.43200 35.03500
H  35.13000 55.80300 37.14000
H  36.19900 56.39100 38.36800
H  36.24500 57.01300 36.72200
H  37.75000 61.47600 37.99900
H  36.51400 61.74600 39.27200
H  36.07800 61.92400 37.56100
H  32.44200 63.94600 38.58400
H  30.32000 63.75500 40.72300
H  34.02600 64.04300 40.23500
H  33.25800 62.89700 41.30900
H  32.59400 64.50200 41.25800
H  29.58700 64.30100 37.89000
H  30.74800 65.44700 38.50500
H  29.16900 66.59100 39.84000
H  28.34400 65.09800 40.22200
H  28.27700 65.83100 38.54300
H  24.87900 61.72700 38.15200
H  25.64700 62.24200 39.81900
H  24.72500 60.83600 39.57500
H  26.27500 56.68900 36.76300
H  23.99900 53.29600 38.32300
H  23.44800 54.70700 39.01400
H  24.72800 53.73100 39.84900

