158

Mg 39.93900 9.12000 28.91500
C  41.86100 10.25500 31.55200
C  37.65400 7.76600 31.07300
C  38.18400 8.01400 26.25700
C  42.60400 9.90900 26.76300
N  39.90600 8.91600 31.06100
C  40.71800 9.54400 31.92900
C  40.15900 9.51200 33.32800
C  38.92500 8.52100 33.19500
C  38.76700 8.43200 31.67800
C  38.96900 7.19300 33.93800
C  39.85100 10.91700 33.86100
C  39.51000 11.17500 35.34800
H  40.50300 11.96100 36.19400
N  38.16000 8.06000 28.72200
C  37.29700 7.61300 29.72300
C  36.03800 7.12500 29.20800
C  36.22400 7.20900 27.73600
C  37.56800 7.79600 27.49700
C  34.85700 6.58700 30.03100
C  35.23600 6.99200 26.71900
O  35.49700 7.09200 25.51800
C  33.75100 6.59500 27.06300
N  40.41600 8.94300 26.83100
C  39.44900 8.52000 25.86200
C  40.00100 8.41200 24.41600
C  41.42500 9.11300 24.61800
C  41.52600 9.35200 26.15600
C  39.98100 6.98200 23.87500
C  41.45300 10.59600 23.92100
C  40.73800 11.81500 24.52700
N  41.81700 10.04200 29.03000
C  42.77700 10.33000 28.11200
C  43.88000 11.02700 28.71600
C  43.63500 11.00700 30.12700
C  42.34000 10.41100 30.21500
C  45.06900 11.61400 28.01400
C  44.11900 11.29200 31.43800
O  45.18100 11.75700 31.87600
C  42.94600 10.94300 32.42400
C  43.42200 10.10900 33.50500
O  44.16900 9.16600 33.33600
O  42.96000 10.63200 34.67300
C  43.36500 10.04600 35.90500
H  36.96600 7.37200 31.82400
H  37.62300 7.78400 25.34900
H  43.45900 10.05600 26.10000
H  40.83900 9.06600 34.05400
H  38.04300 9.07600 33.51600
H  39.81700 7.22600 34.62200
H  39.05400 6.36700 33.23200
H  38.04300 7.10100 34.50500
H  38.94200 11.22900 33.34700
H  40.74900 11.47900 33.60400
H  39.56200 10.13800 35.67700
H  38.50900 11.60800 35.34000
H  34.89800 6.76400 31.10500
H  34.62500 5.53500 29.86100
H  33.97300 7.14000 29.71100
H  33.59100 5.95500 27.93100
H  33.25300 6.14200 26.20600
H  33.18700 7.49900 27.29400
H  39.46700 9.01000 23.67700
H  42.29900 8.51600 24.35500
H  39.09100 6.85000 23.25900
H  39.88300 6.42100 24.80400
H  40.91000 6.81500 23.33100
H  41.04700 10.40300 22.92900
H  42.52500 10.74800 23.79100
H  40.12000 11.55400 25.38700
H  39.96400 12.13200 23.82900
H  41.41800 12.65800 24.64700
H  44.64200 11.81600 27.03200
H  45.82600 10.83000 27.99400
H  45.46100 12.54200 28.43200
H  42.59100 11.89800 32.81200
H  42.49700 9.88100 36.54300
H  44.03700 10.79200 36.32900
H  43.92900 9.11300 35.90200
Mg 27.06900 51.33200 26.24200
C  25.19100 52.13100 29.00800
C  29.60500 50.34400 28.43600
C  29.06800 50.65800 23.63700
C  24.80600 52.86800 24.22700
N  27.40600 51.44700 28.46000
C  26.44500 51.62400 29.40300
C  26.87900 51.26500 30.85200
C  28.39100 51.00400 30.62500
C  28.50200 50.94900 29.10100
C  29.46300 51.82200 31.37800
C  26.12600 50.07900 31.58900
C  25.13700 50.44400 32.75200
H  25.19000 49.75100 34.11300
N  29.00500 50.51300 26.03900
C  29.84100 50.15200 27.08200
C  31.09800 49.67500 26.55500
C  30.98500 49.64400 25.12000
C  29.65300 50.34500 24.84400
C  32.24300 49.20200 27.41200
C  31.89400 49.06800 24.06400
O  31.76400 49.31600 22.88100
C  33.00900 48.15300 24.50100
N  27.03300 51.80000 24.25400
C  27.83900 51.30600 23.33500
C  27.33700 51.46700 21.88900
C  25.90200 52.03400 22.11400
C  25.91100 52.29400 23.63500
C  28.18000 52.36800 20.94500
C  24.72800 51.08300 21.66500
C  23.63300 51.75600 20.88000
N  25.29800 52.19200 26.43300
C  24.44300 52.85000 25.53300
C  23.26600 53.30100 26.19100
C  23.50600 52.95000 27.53100
C  24.76200 52.34500 27.63200
C  22.13800 54.17000 25.63900
C  22.95300 53.01800 28.90200
O  21.89400 53.41900 29.33300
C  24.01700 52.56600 29.89100
C  24.29100 53.69100 30.81600
O  25.28400 54.38900 30.83100
O  23.33000 53.71500 31.81600
C  23.53300 54.71500 32.89300
H  30.31200 49.90700 29.14400
H  29.62700 50.41400 22.73200
H  24.04500 53.14800 23.49700
H  26.88200 52.17900 31.44500
H  28.59300 49.99200 30.97400
H  29.97200 51.15600 32.07500
H  28.91000 52.55600 31.96400
H  30.08800 52.39100 30.69000
H  26.76300 49.27300 31.95200
H  25.50200 49.63800 30.81100
H  24.17600 50.07400 32.39500
H  25.10300 51.53000 32.84100
H  32.07300 48.12800 27.34800
H  32.18600 49.52400 28.45200
H  33.19000 49.42100 26.91800
H  33.71100 48.73200 25.10100
H  33.38200 47.55300 23.67100
H  32.54400 47.39000 25.12500
H  27.21100 50.49900 21.40300
H  25.74900 53.02800 21.69200
H  27.61100 53.26000 20.68300
H  28.57500 51.81900 20.08900
H  29.06400 52.60400 21.53700
H  24.15700 50.76300 22.53600
H  25.08400 50.16500 21.19800
H  22.67800 51.53400 21.35700
H  23.58300 51.52600 19.81500
H  23.79700 52.82700 20.99800
H  21.21400 54.24100 26.21300
H  21.83600 53.83400 24.64800
H  22.45900 55.20000 25.48500
H  23.53400 51.70200 30.34700
H  24.20400 54.24500 33.61200
H  22.67200 54.94100 33.52300
H  23.93700 55.68300 32.59900

