158

Mg 23.76700 -7.81600 47.05200
C  26.24100 -5.79600 45.68300
C  21.49500 -6.43600 44.71300
C  21.55000 -10.33500 47.86300
C  26.23500 -9.46300 48.98600
N  23.90500 -6.24300 45.48800
C  25.04000 -5.51800 45.10200
C  24.71400 -4.49900 44.07400
C  23.11300 -4.59000 43.94500
C  22.81600 -5.87800 44.74300
C  22.28600 -3.40100 44.47500
C  25.50600 -4.70900 42.77700
C  26.04300 -3.48400 42.05700
H  25.60600 -3.05600 40.71000
N  21.81300 -8.35100 46.35600
C  21.02500 -7.60500 45.48200
C  19.64800 -8.26500 45.41900
C  19.68800 -9.40400 46.32200
C  21.06700 -9.40000 46.97600
C  18.61300 -7.86000 44.46600
C  18.46300 -10.32500 46.52600
O  17.46100 -10.13500 45.91400
C  18.29600 -11.42600 47.54700
N  23.87700 -9.64900 48.21200
C  22.81000 -10.50700 48.43100
C  23.27000 -11.74000 49.29900
C  24.66900 -11.32900 49.77300
C  24.98400 -10.03700 48.97400
C  22.29500 -12.02100 50.50500
C  25.82700 -12.41800 49.46800
C  26.85500 -12.73700 50.55900
N  25.77800 -7.66800 47.37200
C  26.67200 -8.35400 48.21800
C  27.93500 -7.71900 48.14400
C  27.84500 -6.74900 47.14100
C  26.50100 -6.75700 46.70500
C  29.11700 -8.12700 48.87900
C  28.56200 -5.72800 46.44000
O  29.75800 -5.44200 46.43100
C  27.55100 -5.07400 45.43700
C  27.42100 -3.58100 45.83600
O  27.06700 -3.14700 46.95100
O  27.68000 -2.74400 44.74100
C  27.41300 -1.29600 45.02600
H  20.84000 -5.82600 44.08700
H  20.82800 -11.12100 48.09500
H  26.85300 -9.92100 49.76200
H  25.00300 -3.54200 44.51000
H  22.87000 -4.82000 42.90800
H  21.63900 -3.48100 45.34900
H  21.63700 -3.38300 43.59900
H  22.91800 -2.51700 44.56100
H  24.73400 -5.07200 42.09800
H  26.25400 -5.49500 42.88200
H  27.13000 -3.57200 42.06100
H  25.79800 -2.62500 42.68200
H  18.72700 -8.67900 43.75500
H  18.82400 -6.92300 43.95200
H  17.58000 -7.84700 44.81300
H  18.14600 -10.88800 48.48300
H  19.00400 -12.25400 47.58400
H  17.30300 -11.86900 47.48600
H  23.27300 -12.67400 48.73700
H  24.67400 -11.00800 50.81400
H  22.86100 -12.10400 51.43300
H  21.79700 -12.98100 50.37100
H  21.59700 -11.18300 50.51800
H  26.35900 -12.24300 48.53300
H  25.36900 -13.40100 49.35500
H  26.64800 -12.31200 51.54100
H  27.88800 -12.50300 50.30300
H  26.88800 -13.82000 50.68100
H  29.09800 -7.74100 49.89800
H  30.00500 -7.77400 48.35500
H  29.09000 -9.21700 48.88100
H  27.91500 -5.21500 44.42000
H  26.34000 -1.10800 44.99800
H  27.81000 -0.78400 44.15000
H  27.81100 -0.97800 45.99000
Mg 47.39600 24.23900 28.21800
C  48.15200 26.48400 30.98500
C  46.65100 21.82700 30.41900
C  47.19600 22.22000 25.59200
C  48.39500 26.98300 26.05600
N  47.35700 24.22900 30.51600
C  47.69400 25.25900 31.41000
C  47.43500 24.74000 32.80200
C  47.00100 23.19500 32.59400
C  46.92800 23.06300 31.05900
C  47.86100 22.13800 33.31000
C  46.42400 25.62600 33.47500
C  46.69300 25.86200 34.99000
H  45.54700 25.85800 36.02500
N  46.88200 22.27200 28.05200
C  46.53500 21.44600 29.09700
C  46.22900 20.16600 28.53400
C  46.41500 20.23200 27.15800
C  46.89400 21.60200 26.85700
C  45.90900 18.94500 29.36500
C  46.20800 19.13300 26.14000
O  46.48300 19.33400 24.95200
C  45.52000 17.76200 26.53600
N  47.69300 24.59500 26.14800
C  47.61300 23.54000 25.28400
C  47.92200 24.03200 23.84700
C  47.91600 25.61500 23.94100
C  48.02200 25.78900 25.48600
C  49.35200 23.52900 23.36300
C  46.69800 26.38900 23.35200
C  45.29000 26.11300 23.94700
N  48.08700 26.31300 28.41200
C  48.48200 27.26600 27.43300
C  48.88700 28.47400 28.07900
C  48.79100 28.17500 29.42800
C  48.34500 26.84400 29.62400
C  49.29500 29.79900 27.52200
C  49.02900 28.77700 30.70900
O  49.36800 29.95100 30.90000
C  48.71400 27.63000 31.82200
C  50.01100 27.20400 32.45900
O  50.87500 26.52200 31.97600
O  50.07100 27.72700 33.69300
C  51.25900 27.29100 34.47100
H  46.31400 21.08800 31.14900
H  47.27600 21.63300 24.67500
H  48.56600 27.90200 25.49000
H  48.42900 24.93400 33.20600
H  45.98800 22.97700 32.93200
H  48.43300 22.68500 34.06000
H  48.60500 21.85500 32.56500
H  47.43400 21.29300 33.84800
H  45.43600 25.24300 33.22100
H  46.34100 26.60600 33.00500
H  47.21000 26.81900 35.05500
H  47.42200 25.15000 35.37600
H  44.87600 18.67600 29.14500
H  45.96300 19.16700 30.43100
H  46.59700 18.13100 29.13600
H  45.22200 17.18400 25.66200
H  44.57500 17.90600 27.05900
H  46.15500 17.17600 27.20100
H  47.20900 23.79100 23.05900
H  48.69300 25.93700 23.24700
H  49.30900 23.25000 22.31000
H  49.86200 22.76400 23.94800
H  50.12600 24.29500 23.40000
H  46.79300 26.20900 22.28200
H  46.86700 27.44400 23.56500
H  45.45000 25.34500 24.70400
H  44.64600 25.71800 23.16200
H  44.79500 26.96800 24.40800
H  48.76400 29.76700 26.57100
H  50.36800 29.89700 27.35800
H  48.85500 30.57100 28.15400
H  48.02300 27.95200 32.60100
H  52.08200 27.59800 33.82500
H  51.20700 26.24900 34.78400
H  51.26500 27.96100 35.33100

