158

Mg 35.41400 2.99000 29.82700
C  33.12100 3.73000 32.30700
C  37.91100 2.94500 32.12300
C  37.62300 2.65000 27.21700
C  32.82700 3.07400 27.45900
N  35.58300 3.34500 31.94600
C  34.47100 3.57400 32.72700
C  34.89500 3.59000 34.16500
C  36.44900 3.69100 34.05200
C  36.72100 3.37200 32.60800
C  37.06000 5.00700 34.45700
C  34.35400 2.29600 34.99500
C  34.06700 2.34500 36.48100
H  34.70300 3.42400 37.29200
N  37.43800 2.84300 29.67800
C  38.34600 2.84600 30.69700
C  39.67100 2.71100 30.23100
C  39.59900 2.55300 28.79100
C  38.17000 2.66800 28.47700
C  40.83800 2.76000 31.14800
C  40.76700 2.25000 27.72200
O  40.66500 2.19300 26.49000
C  42.24500 2.25900 28.23900
N  35.27700 2.94400 27.67500
C  36.26700 2.70000 26.81600
C  35.76600 2.35900 25.46700
C  34.29700 2.60300 25.53100
C  34.07500 2.88200 27.00800
C  36.52700 3.06100 24.24300
C  33.34600 1.53200 24.91900
C  33.29000 0.05800 25.48500
N  33.37400 3.25600 29.82800
C  32.43100 3.32200 28.77800
C  31.09900 3.67500 29.32200
C  31.33900 3.80400 30.70500
C  32.72600 3.62700 30.95300
C  29.77000 3.84200 28.77100
C  30.69700 4.01300 32.00100
O  29.57400 4.39900 32.32700
C  31.87900 3.96900 33.07000
C  31.86700 5.18900 33.91000
O  31.94800 6.31700 33.46700
O  31.63100 4.82200 35.24200
C  31.64600 5.90500 36.27900
H  38.73900 2.88600 32.83300
H  38.35000 2.53800 26.41000
H  32.02700 3.20400 26.72700
H  34.54200 4.55900 34.52000
H  36.94800 2.98200 34.71200
H  37.71000 5.35200 33.65300
H  37.73200 5.05400 35.31400
H  36.29900 5.78100 34.55500
H  35.03700 1.45600 34.87300
H  33.42000 1.95900 34.54700
H  34.31600 1.35900 36.87200
H  32.99700 2.38500 36.68600
H  41.30600 1.78200 31.26600
H  40.55800 3.28600 32.06000
H  41.58300 3.32000 30.58100
H  42.41400 3.27600 28.59400
H  42.89700 1.97400 27.41400
H  42.41000 1.42600 28.92200
H  35.78300 1.27100 25.39600
H  34.00900 3.51800 25.01300
H  35.81000 3.40000 23.49600
H  37.19800 2.38600 23.71200
H  37.11100 3.94400 24.50100
H  33.55600 1.51200 23.84900
H  32.33400 1.93500 24.91200
H  33.71400 -0.53600 24.67600
H  32.31900 -0.36400 25.74600
H  33.95800 -0.01500 26.34300
H  29.88700 4.29900 27.78800
H  29.14200 4.49000 29.38200
H  29.22600 2.90000 28.69300
H  31.63200 3.09700 33.67500
H  30.68200 6.41000 36.22700
H  32.35700 6.67700 35.98700
H  31.82500 5.45500 37.25500
Mg 30.71800 58.26100 40.63000
C  27.87400 56.64100 39.61400
C  32.69200 55.88300 39.14800
C  33.44500 60.27900 41.00300
C  28.66800 61.10000 41.31000
N  30.30100 56.54500 39.50800
C  29.04500 55.98200 39.31200
C  29.22500 54.66900 38.51800
C  30.71800 54.28200 38.69900
C  31.25400 55.61200 39.18900
C  30.98800 53.07400 39.66600
C  28.82800 54.93700 36.99500
C  27.85800 53.99600 36.30800
H  27.97100 53.94100 34.76200
N  32.84700 58.10300 40.17400
C  33.40500 56.98100 39.62100
C  34.83200 57.23500 39.47700
C  35.10400 58.41400 40.17700
C  33.76100 58.97400 40.55600
C  35.76700 56.24300 38.79600
C  36.57900 58.85400 40.48300
O  37.51600 58.32400 39.98000
C  36.90200 60.03600 41.36900
N  30.99300 60.40700 41.16400
C  32.24500 60.95000 41.26900
C  32.17000 62.47200 41.52400
C  30.62900 62.65600 41.84300
C  30.00200 61.34800 41.34400
C  33.12800 63.00800 42.64200
C  29.95700 63.89200 41.27900
C  30.77600 65.17700 41.47600
N  28.63600 58.79700 40.56300
C  27.96600 59.91100 40.91000
C  26.51900 59.61700 40.79500
C  26.40900 58.32000 40.31800
C  27.71500 57.90500 40.13700
C  25.38200 60.51000 41.23100
C  25.42800 57.22500 39.94500
O  24.20300 57.15000 40.01100
C  26.45900 56.14900 39.35100
C  26.25800 54.79600 40.02100
O  26.77300 54.36900 41.05000
O  25.21200 54.12400 39.33400
C  24.80600 52.80300 39.95700
H  33.28400 55.06000 38.74300
H  34.36500 60.86700 40.97800
H  28.01600 61.91200 41.63700
H  28.51800 54.01400 39.02700
H  31.06100 53.92700 37.72800
H  30.98000 53.40200 40.70500
H  32.01500 52.77000 39.46300
H  30.25000 52.30500 39.43900
H  29.70100 54.96700 36.34400
H  28.31800 55.90000 37.01500
H  26.86200 54.39300 36.50400
H  27.95100 53.02200 36.78800
H  35.63000 56.25300 37.71500
H  35.55100 55.22700 39.12700
H  36.78100 56.41900 39.15500
H  36.52800 60.90500 40.82600
H  37.97300 60.21100 41.46500
H  36.50600 60.05100 42.38400
H  32.39100 62.90500 40.54900
H  30.48800 62.70700 42.92300
H  33.89900 62.25200 42.79100
H  32.50100 63.10300 43.52800
H  33.56800 63.98000 42.41900
H  29.08700 64.06800 41.91100
H  29.49800 63.84300 40.29100
H  31.48300 65.40200 40.67800
H  31.28200 65.18300 42.44100
H  30.13800 66.05800 41.54900
H  24.92700 61.01600 40.37900
H  25.73500 61.25800 41.94100
H  24.66200 59.92400 41.80200
H  26.33600 56.11300 38.26800
H  24.88700 52.68700 41.03800
H  25.16900 51.86700 39.53100
H  23.76800 52.71300 39.63600

