158

Mg -1.77400 33.57400 26.97100
C  -3.46800 32.08500 29.57900
C  -0.39400 35.76800 29.40500
C  -0.13000 35.16700 24.45800
C  -3.38900 31.54200 24.70000
N  -1.83300 33.84200 29.33100
C  -2.62600 33.07300 30.12500
C  -2.34400 33.26800 31.57800
C  -1.53600 34.64200 31.59500
C  -1.17500 34.82900 30.09000
C  -2.36500 35.91700 32.07700
C  -1.60400 32.03500 32.34100
C  -2.35800 31.39600 33.57400
H  -1.54200 31.44200 34.85700
N  -0.52600 35.31600 26.95500
C  -0.09900 36.05200 28.05900
C  0.85300 37.00600 27.52200
C  0.88400 36.88100 26.06500
C  0.05400 35.72900 25.75900
C  1.57400 37.91900 28.38700
C  1.65900 37.74400 25.00400
O  1.75300 37.45300 23.85600
C  2.38200 39.00500 25.49800
N  -1.73400 33.44100 24.86500
C  -0.90200 34.01900 24.04800
C  -1.04600 33.54100 22.53100
C  -1.90800 32.25000 22.82700
C  -2.43500 32.42100 24.24300
C  -1.74300 34.62700 21.57200
C  -1.19300 30.94900 22.61700
C  -2.12900 29.80800 22.02000
N  -3.13000 32.06500 27.11500
C  -3.77000 31.38500 26.04700
C  -4.75100 30.48600 26.56500
C  -4.65000 30.67000 27.95500
C  -3.68600 31.69900 28.25700
C  -5.67200 29.60800 25.79100
C  -5.05900 30.17500 29.26800
O  -5.90700 29.35800 29.61500
C  -4.40800 31.16900 30.35100
C  -5.47100 32.01800 31.05600
O  -5.73900 33.21400 30.84600
O  -5.99400 31.18700 31.99300
C  -6.91400 31.87300 32.86400
H  0.09600 36.43200 30.12000
H  0.49600 35.55600 23.65300
H  -3.65100 30.86400 23.88500
H  -3.32000 33.45400 32.02700
H  -0.58800 34.61600 32.13200
H  -3.40500 35.63500 32.24200
H  -2.21700 36.67700 31.31100
H  -1.92600 36.45100 32.91900
H  -0.61300 32.30500 32.70500
H  -1.36100 31.29300 31.58100
H  -2.60300 30.34600 33.41700
H  -3.27300 31.96500 33.74100
H  0.83100 38.11400 29.16100
H  1.83300 38.89200 27.96900
H  2.34700 37.41600 28.96900
H  1.58600 39.62900 25.90500
H  2.79900 39.46000 24.60000
H  3.09100 38.68700 26.26100
H  -0.11000 33.12400 22.15800
H  -2.77400 32.28400 22.16600
H  -1.03200 35.42000 21.34500
H  -2.60600 35.20400 21.90400
H  -1.98200 34.07500 20.66300
H  -0.81900 30.57800 23.57200
H  -0.42600 31.14400 21.86600
H  -1.63000 29.36000 21.16100
H  -3.09200 30.24200 21.75100
H  -2.28100 29.01500 22.75200
H  -5.40800 29.60400 24.73300
H  -6.68500 29.99000 25.91900
H  -5.68200 28.57200 26.13100
H  -3.88300 30.60200 31.12000
H  -7.47100 32.58600 32.25600
H  -6.42200 32.44300 33.65300
H  -7.48200 31.04200 33.28100
Mg -12.46600 16.49300 42.30200
C  -9.70000 14.51400 41.62800
C  -10.96300 18.98500 40.55100
C  -15.27400 18.00300 42.38000
C  -14.04400 13.49000 43.68700
N  -10.61300 16.64200 40.91800
C  -9.56700 15.69700 40.94600
C  -8.31200 16.31400 40.24500
C  -8.76000 17.80400 39.98900
C  -10.20900 17.82300 40.50700
C  -7.76200 18.78300 40.73200
C  -7.93400 15.66100 38.89300
C  -6.44200 15.48500 38.52700
H  -5.87000 16.34900 37.42700
N  -12.99600 18.29700 41.65200
C  -12.26300 19.23400 41.07000
C  -13.00800 20.44400 40.92300
C  -14.30400 20.22400 41.39000
C  -14.25200 18.80400 41.85600
C  -12.35900 21.69000 40.24900
C  -15.39700 21.19400 41.43800
O  -15.20700 22.32100 40.94300
C  -16.74000 20.93900 41.99100
N  -14.44800 15.80800 42.93800
C  -15.41200 16.72100 42.82100
C  -16.78300 16.04700 43.12000
C  -16.42400 14.53600 43.45100
C  -14.85500 14.61200 43.43300
C  -17.44200 16.90900 44.28900
C  -17.04600 13.58600 42.41800
C  -17.63400 12.16800 42.87000
N  -12.03100 14.46800 42.75300
C  -12.68500 13.39200 43.33400
C  -11.78800 12.29100 43.53000
C  -10.54800 12.72800 42.99400
C  -10.77200 14.03800 42.40500
C  -12.04800 11.00200 44.30000
C  -9.18200 12.31600 42.74500
O  -8.66800 11.28500 43.14900
C  -8.55200 13.44800 41.88200
C  -7.50700 14.03000 42.78300
O  -7.71500 14.62600 43.80300
O  -6.23200 13.80000 42.33500
C  -5.18700 14.48000 43.12400
H  -10.42200 19.87900 40.23300
H  -16.19500 18.56900 42.22200
H  -14.40500 12.53100 44.06400
H  -7.46300 16.17300 40.91400
H  -8.76000 18.10400 38.94100
H  -8.14300 19.27300 41.62800
H  -7.45500 19.53600 40.00700
H  -6.93500 18.24600 41.19600
H  -8.40200 16.12900 38.02700
H  -8.50600 14.73800 38.79900
H  -6.19300 14.45200 38.28100
H  -5.78700 15.83400 39.32400
H  -12.77200 22.60800 40.66800
H  -12.50300 21.62000 39.17100
H  -11.29700 21.70100 40.49300
H  -16.62000 20.50000 42.98200
H  -17.34100 20.35300 41.29600
H  -17.22100 21.90600 42.13500
H  -17.50700 16.00800 42.30600
H  -16.83600 14.38300 44.44900
H  -16.81300 17.72500 44.64400
H  -17.59800 16.15800 45.06400
H  -18.46800 17.23000 44.10800
H  -16.31500 13.42800 41.62600
H  -17.99200 14.03700 42.11900
H  -17.20100 11.89400 43.83200
H  -17.27500 11.39100 42.19500
H  -18.72200 12.22200 42.82800
H  -11.33300 10.80200 45.09800
H  -11.98700 10.19200 43.57300
H  -13.04800 10.97000 44.73100
H  -8.00800 12.98300 41.06100
H  -4.23400 14.01700 42.86900
H  -5.32000 14.34600 44.19700
H  -5.23800 15.52800 42.82800

