158

Mg -1.32800 16.88000 26.48000
C  -1.79000 14.77400 29.23500
C  -1.90700 19.61000 28.51000
C  -1.49400 18.91900 23.73400
C  -1.33000 14.10100 24.39800
N  -1.68100 17.11100 28.68400
C  -1.73700 16.11000 29.60100
C  -2.04000 16.72800 30.99000
C  -2.29500 18.22800 30.74700
C  -1.89600 18.38100 29.18800
C  -3.77900 18.64500 31.03000
C  -0.97000 16.42100 32.05300
C  -0.95400 17.12400 33.40700
H  -0.74800 16.23500 34.68900
N  -1.64400 18.94300 26.20000
C  -1.66600 19.91100 27.19000
C  -1.59200 21.21300 26.61800
C  -1.51400 21.08100 25.21100
C  -1.61000 19.60600 24.98700
C  -1.53300 22.48600 27.53800
C  -1.35600 22.14000 24.13600
O  -1.35500 21.93400 22.91500
C  -0.94800 23.48600 24.58600
N  -1.69200 16.53800 24.28200
C  -1.51300 17.59300 23.40000
C  -1.29700 17.08100 21.98300
C  -1.19300 15.48800 22.24100
C  -1.37100 15.35900 23.74800
C  -2.55000 17.33000 21.08100
C  0.12600 14.83400 21.62600
C  1.35500 14.88900 22.56600
N  -1.50500 14.88900 26.70700
C  -1.51900 13.85300 25.73300
C  -1.56200 12.55700 26.43700
C  -1.79700 12.91200 27.78500
C  -1.74100 14.31600 27.87800
C  -1.37700 11.28600 25.74100
C  -1.92700 12.31400 29.06600
O  -1.97800 11.13600 29.47100
C  -2.14300 13.46400 30.04500
C  -1.25900 13.16600 31.15200
O  -0.02800 13.18600 31.10600
O  -2.05900 12.82600 32.23800
C  -1.40400 12.21000 33.46100
H  -2.00500 20.42100 29.23400
H  -1.25700 19.52900 22.86000
H  -1.19700 13.22900 23.75300
H  -2.96700 16.22900 31.27300
H  -1.63700 18.87900 31.32200
H  -4.20200 18.74200 30.03000
H  -3.87700 19.55600 31.62000
H  -4.40400 17.96800 31.61300
H  0.00600 16.39100 31.56800
H  -1.10700 15.42400 32.47300
H  -1.79900 17.79500 33.56400
H  -0.10800 17.78500 33.22000
H  -1.71500 22.36600 28.60600
H  -2.36800 23.13100 27.26300
H  -0.56800 22.97200 27.40000
H  -1.75400 23.93000 25.17100
H  -0.75000 24.08000 23.69300
H  0.05100 23.43000 25.01900
H  -0.33800 17.31700 21.52100
H  -2.06300 15.10300 21.70800
H  -3.19000 16.45900 20.94400
H  -2.15900 17.61600 20.10500
H  -3.14900 18.20000 21.35100
H  0.32700 15.38700 20.70900
H  -0.14100 13.81400 21.35200
H  1.50100 13.86000 22.89500
H  1.22900 15.50400 23.45700
H  2.27400 15.16500 22.04900
H  -0.64700 10.69900 26.29900
H  -0.95700 11.33900 24.73700
H  -2.31400 10.78200 25.97500
H  -3.20200 13.53100 30.29300
H  -1.39200 13.04800 34.15700
H  -0.34300 11.98100 33.36700
H  -2.05300 11.48900 33.95900
Mg -4.36500 24.65100 26.15700
C  -3.37100 26.23000 28.98100
C  -6.13500 22.39000 28.12400
C  -5.32500 22.96600 23.37200
C  -2.66000 26.93100 24.17700
N  -4.99000 24.56900 28.32200
C  -4.37800 25.28100 29.23900
C  -4.91800 24.88000 30.66700
C  -5.57800 23.48100 30.39600
C  -5.56800 23.45200 28.82300
C  -5.01900 22.26800 31.15500
C  -5.87900 25.98500 31.19300
C  -5.60300 26.37300 32.70000
H  -4.83700 25.58200 33.73200
N  -5.57200 22.94300 25.81000
C  -6.21400 22.17700 26.76000
C  -6.84200 21.02800 26.12800
C  -6.64800 21.18500 24.72500
C  -5.75700 22.38500 24.57300
C  -7.51700 19.91400 26.95000
C  -7.15200 20.30700 23.51300
O  -6.65100 20.48100 22.40700
C  -8.08200 19.13900 23.77700
N  -4.05400 24.91900 24.07400
C  -4.58700 24.17100 23.11600
C  -4.43100 24.79000 21.72900
C  -3.48900 25.99300 22.01100
C  -3.42700 25.98800 23.49100
C  -3.78900 23.92300 20.61400
C  -3.97700 27.29600 21.44200
C  -2.90700 28.26300 20.89200
N  -3.21200 26.27200 26.41200
C  -2.56900 27.08500 25.56400
C  -1.76500 28.08400 26.27500
C  -2.00900 27.74600 27.68600
C  -2.98000 26.71100 27.70000
C  -0.84000 29.17700 25.67700
C  -1.70800 28.10600 29.02800
O  -0.95200 28.86600 29.52100
C  -2.55300 27.19700 29.86300
C  -1.56500 26.34800 30.70700
O  -1.02400 25.31100 30.34600
O  -1.31900 27.08600 31.79400
C  -0.48100 26.42600 32.81300
H  -6.42900 21.64800 28.87000
H  -5.78500 22.62200 22.44400
H  -2.32900 27.80200 23.60700
H  -4.04800 24.80700 31.32000
H  -6.64300 23.51600 30.62400
H  -4.06800 21.95900 30.72100
H  -5.75500 21.46700 31.22500
H  -4.76300 22.57800 32.16800
H  -6.91700 25.67000 31.09000
H  -5.77100 26.80400 30.48200
H  -6.60900 26.53600 33.08700
H  -5.10700 27.33700 32.58600
H  -7.01400 19.73200 27.90000
H  -7.51900 18.98000 26.38800
H  -8.54900 20.16800 27.18800
H  -8.84200 19.49400 24.47400
H  -7.52200 18.29800 24.18600
H  -8.64300 18.84500 22.89000
H  -5.37500 25.22000 21.39300
H  -2.50400 25.87800 21.55800
H  -4.59500 23.51200 20.00500
H  -3.03900 23.22800 20.99300
H  -3.10100 24.48900 19.98700
H  -4.56900 27.68900 22.26800
H  -4.65600 27.12000 20.60700
H  -1.89900 27.86500 21.00700
H  -3.02600 29.27000 21.29300
H  -3.09600 28.33900 19.82100
H  -1.27000 30.15700 25.88200
H  -0.68800 29.17500 24.59800
H  0.12800 29.11800 26.17600
H  -3.11000 27.90900 30.47200
H  0.52000 26.61600 32.42500
H  -0.62900 25.35100 32.92000
H  -0.56600 27.08600 33.67700

