158

Mg 50.21800 45.22800 41.49300
C  46.88000 45.85100 40.34800
C  50.14200 42.31300 39.64300
C  53.46900 45.22700 41.65000
C  50.34800 48.74700 42.24700
N  48.79400 44.30800 40.04700
C  47.45900 44.70900 39.84600
C  46.82900 43.77400 38.76200
C  47.71100 42.50600 38.81200
C  48.99400 43.04100 39.52700
C  47.06500 41.24000 39.42600
C  46.77600 44.41600 37.33500
C  45.40700 44.46100 36.58200
H  45.33600 44.37800 34.99700
N  51.56100 43.81000 40.91100
C  51.37900 42.66200 40.20000
C  52.58300 41.85400 40.27200
C  53.57600 42.56500 41.03900
C  52.86800 44.00300 41.20700
C  52.60500 40.47900 39.64900
C  54.94500 42.09300 41.48100
O  55.33400 40.97200 41.14400
C  55.79400 42.94800 42.31400
N  51.68500 46.77700 41.76200
C  52.99100 46.46300 41.86600
C  53.89400 47.61100 42.27300
C  52.83600 48.71300 42.67600
C  51.53200 48.03900 42.19400
C  54.97300 47.34400 43.33700
C  53.08200 50.01300 41.88600
C  52.64800 50.02800 40.38800
N  48.89000 46.90700 41.63700
C  49.06700 48.24900 41.92100
C  47.81400 48.93900 41.83000
C  46.94200 48.01600 41.29900
C  47.59500 46.82000 41.11100
C  47.50300 50.31300 42.21300
C  45.56000 47.84900 40.89000
O  44.63100 48.62000 40.81900
C  45.45000 46.44200 40.22100
C  44.56000 45.52300 40.94900
O  43.96000 44.60500 40.43200
O  44.30800 45.88900 42.25800
C  42.97500 45.47300 42.78200
H  49.98400 41.35700 39.13900
H  54.54100 45.02500 41.60100
H  50.44600 49.74100 42.68700
H  45.88100 43.41900 39.16700
H  48.00500 42.15600 37.82300
H  47.77500 40.62200 39.97600
H  46.70400 40.67400 38.56700
H  46.25000 41.48800 40.10500
H  47.34100 43.80100 36.63500
H  47.17900 45.42800 37.35500
H  44.96100 45.39900 36.91400
H  44.72500 43.68400 36.92800
H  51.57200 40.16000 39.78400
H  53.33200 39.72900 39.96000
H  52.80000 40.60700 38.58400
H  55.19000 43.49900 43.03500
H  56.41100 43.51500 41.61700
H  56.44500 42.28200 42.88000
H  54.44400 47.91200 41.38200
H  52.81200 48.88300 43.75200
H  55.06000 48.12200 44.09600
H  55.89800 47.38400 42.76200
H  54.90500 46.34300 43.76400
H  54.15600 50.19500 41.92200
H  52.58600 50.85200 42.37400
H  53.45200 50.51400 39.83500
H  51.70200 50.55300 40.26200
H  52.56800 48.99500 40.05000
H  47.39800 50.99900 41.37200
H  48.28000 50.62200 42.91100
H  46.51900 50.38800 42.67600
H  45.15100 46.53000 39.17700
H  43.19200 45.06900 43.77100
H  42.32700 44.77300 42.25400
H  42.50100 46.41600 43.05200
Mg -0.27600 44.42200 26.91600
C  2.03300 44.23200 29.42200
C  -2.81300 44.22000 29.22700
C  -2.59600 44.15300 24.38600
C  2.11400 44.66600 24.41900
N  -0.36200 44.28700 29.02600
C  0.70500 44.15300 29.87500
C  0.28600 44.02500 31.34000
C  -1.22100 43.71300 31.21700
C  -1.49500 44.20800 29.76800
C  -1.66100 42.32100 31.60700
C  0.51800 45.36200 32.06500
C  0.98300 45.23900 33.56200
H  0.61500 43.96800 34.42900
N  -2.41600 44.31500 26.80400
C  -3.23500 44.31400 27.89100
C  -4.61300 44.15200 27.46800
C  -4.56300 44.05300 26.01800
C  -3.15400 44.19800 25.68300
C  -5.65800 43.91400 28.46300
C  -5.72600 43.72800 25.11700
O  -5.59600 43.78200 23.89100
C  -7.12500 43.30900 25.70600
N  -0.19600 44.42700 24.64300
C  -1.31100 44.23400 23.87300
C  -0.95200 44.16700 22.40500
C  0.51800 44.55700 22.38400
C  0.87300 44.51300 23.86000
C  -1.26300 42.82800 21.71000
C  0.78100 45.86100 21.66400
C  2.06300 45.85800 20.70800
N  1.72300 44.45700 26.93100
C  2.60200 44.58900 25.82500
C  3.94800 44.57900 26.31700
C  3.79200 44.46200 27.71000
C  2.38400 44.39100 27.99300
C  5.11500 44.80300 25.45200
C  4.44000 44.34300 29.01700
O  5.60700 44.33500 29.26400
C  3.27300 44.23100 30.14100
C  3.52700 43.01700 30.99200
O  3.24500 41.87200 30.65600
O  3.97700 43.42600 32.22800
C  4.46700 42.37900 33.11200
H  -3.53700 44.06600 30.03000
H  -3.28200 44.01800 23.54700
H  2.97100 44.77300 23.75000
H  0.84100 43.22100 31.82300
H  -1.75800 44.26000 31.99100
H  -0.93600 41.75000 32.18700
H  -1.95500 41.77400 30.71100
H  -2.55000 42.37300 32.23600
H  -0.37400 45.98300 32.14700
H  1.27900 45.99100 31.60300
H  0.71900 46.11500 34.15600
H  2.07300 45.25300 33.54700
H  -6.60100 44.38900 28.19500
H  -5.53300 44.46100 29.39700
H  -5.80400 42.86000 28.70100
H  -7.91800 43.20800 24.96500
H  -7.43100 44.11000 26.37800
H  -6.97100 42.39500 26.27900
H  -1.55100 44.94800 21.93700
H  1.15900 43.74300 22.04800
H  -1.53900 42.07800 22.45200
H  -0.39600 42.43700 21.17600
H  -2.04100 43.09400 20.99400
H  0.95900 46.63400 22.41100
H  -0.07100 46.17700 21.06200
H  2.80600 46.47200 21.21700
H  1.86400 46.31400 19.73900
H  2.34500 44.81600 20.55800
H  4.86200 45.52300 24.67400
H  5.44500 43.83300 25.08200
H  5.76800 45.39000 26.09700
H  3.36800 45.14300 30.73000
H  4.55900 41.44000 32.56600
H  3.77400 42.32100 33.95100
H  5.43000 42.69200 33.51500

