158

Mg -0.38100 7.52300 26.11700
C  0.35500 9.49000 28.82100
C  -0.27300 4.65200 28.32300
C  -0.91600 5.41400 23.52500
C  -0.21500 10.21600 24.02900
N  0.00700 7.11300 28.32400
C  0.24700 8.13700 29.22400
C  0.11100 7.53500 30.65600
C  0.14500 5.97200 30.46200
C  -0.07800 5.88600 28.97200
C  1.48600 5.36600 30.89200
C  -1.09700 8.02500 31.55200
C  -0.95900 8.33900 33.03800
H  0.35800 7.88800 33.68600
N  -0.50900 5.28800 25.92300
C  -0.45200 4.37000 26.96500
C  -0.55400 3.02300 26.40400
C  -0.76900 3.17300 25.02600
C  -0.74600 4.66300 24.77600
C  -0.73900 1.77200 27.18600
C  -0.95200 2.07100 23.94400
O  -1.10000 2.32200 22.80000
C  -0.89000 0.58200 24.25800
N  -0.44800 7.77700 24.04000
C  -0.75200 6.77800 23.17700
C  -0.84500 7.34000 21.67800
C  -0.84000 8.89600 21.91900
C  -0.54000 9.00100 23.43000
C  0.25300 6.87500 20.66100
C  -2.03800 9.69400 21.26300
C  -3.27500 9.69200 22.19700
N  0.05600 9.48600 26.33400
C  0.13800 10.45600 25.40900
C  0.51100 11.72400 26.00300
C  0.68200 11.40300 27.38700
C  0.32000 10.04200 27.51400
C  0.63700 13.02200 25.27800
C  0.98100 11.90300 28.74100
O  1.40700 12.97700 29.13500
C  0.58800 10.68000 29.70200
C  1.81400 10.56400 30.57200
O  2.91900 10.35800 30.14300
O  1.49700 10.68100 31.94700
C  2.65700 10.82600 32.82500
H  -0.30000 3.85200 29.06600
H  -1.13600 4.71200 22.71700
H  -0.19400 11.06600 23.34400
H  1.01800 7.78400 31.20700
H  -0.67000 5.55300 31.05300
H  1.97300 4.82000 30.08400
H  1.45800 4.81600 31.83300
H  2.25400 6.13300 30.99400
H  -1.85700 7.25500 31.42200
H  -1.43500 8.96800 31.12200
H  -1.84100 8.18100 33.66000
H  -0.87500 9.42500 33.03800
H  0.11100 1.10700 27.03800
H  -1.66500 1.24900 26.94700
H  -0.76900 1.76800 28.27600
H  -0.95400 -0.02800 23.35700
H  -1.74000 0.31700 24.88600
H  0.04500 0.39500 24.78600
H  -1.78300 7.12600 21.16700
H  0.03800 9.35300 21.46200
H  1.08200 6.31600 21.09600
H  0.66100 7.68800 20.05900
H  -0.27300 6.21500 19.97100
H  -2.24300 9.17200 20.32800
H  -1.71200 10.69500 20.98000
H  -3.36000 10.62400 22.75600
H  -3.22600 8.88100 22.92400
H  -4.16500 9.42600 21.62600
H  1.13800 12.89700 24.31800
H  1.22400 13.64200 25.95600
H  -0.31900 13.51200 25.09200
H  -0.31700 10.99000 30.22300
H  3.48300 10.14300 32.62200
H  2.37400 10.77200 33.87600
H  2.85700 11.88500 32.66500
Mg 48.67800 35.69300 27.97800
C  46.28300 34.37400 30.18300
C  49.08400 38.20700 30.21100
C  50.63800 37.00600 25.65900
C  47.49100 33.31300 25.66900
N  47.98600 36.07200 30.00500
C  47.17400 35.26900 30.70600
C  47.33300 35.58100 32.21900
C  47.79700 37.06300 32.16000
C  48.27400 37.14600 30.69400
C  46.65900 38.09400 32.46200
C  48.39400 34.61300 32.99000
C  48.87500 35.00000 34.46700
H  48.28900 36.20200 35.23300
N  49.83100 37.29100 28.05100
C  49.81000 38.31600 29.01400
C  50.77000 39.37000 28.61300
C  51.26600 38.91200 27.34600
C  50.66600 37.63500 26.97000
C  51.00200 40.61300 29.44200
C  52.23400 39.69300 26.43100
O  52.55800 39.34900 25.30100
C  52.86700 40.95800 26.95800
N  48.91200 35.25700 25.80300
C  49.89000 35.94000 25.09900
C  50.09700 35.29800 23.68000
C  49.00700 34.15700 23.66100
C  48.48600 34.12900 25.13600
C  50.02500 36.47900 22.56500
C  49.48100 32.73900 23.13600
C  48.80500 32.15700 21.92600
N  47.21000 34.15200 27.93000
C  46.90600 33.27900 26.89500
C  45.80400 32.45100 27.34400
C  45.51500 32.86000 28.60000
C  46.42600 33.86200 28.89700
C  45.23200 31.33200 26.46500
C  44.68100 32.51000 29.75700
O  43.78700 31.67100 29.93000
C  45.12800 33.56600 30.83700
C  45.41700 32.82500 32.10100
O  46.02000 31.72400 32.15000
O  44.86700 33.47600 33.20200
C  44.83500 32.68700 34.47700
H  49.29900 39.07500 30.83800
H  51.44100 37.32600 24.99100
H  47.07600 32.63400 24.92100
H  46.36900 35.58200 32.72700
H  48.58600 37.29700 32.87600
H  46.88800 38.60100 33.39900
H  45.76700 37.51200 32.69200
H  46.49700 38.80800 31.65400
H  49.26900 34.57700 32.34200
H  47.91600 33.63500 33.05000
H  49.94600 35.10100 34.29000
H  48.73500 34.12500 35.10300
H  50.79600 41.53500 28.89700
H  52.05500 40.64800 29.72400
H  50.40000 40.53000 30.34700
H  52.14000 41.77000 26.98500
H  53.77400 41.14800 26.38600
H  53.24500 40.81200 27.97000
H  51.06500 34.80800 23.57600
H  48.20900 34.45100 22.97900
H  49.07800 36.26300 22.07100
H  50.86400 36.48000 21.86900
H  49.89700 37.46700 23.00800
H  49.30700 32.02800 23.94400
H  50.54700 32.71300 22.91100
H  48.39200 32.91400 21.25900
H  48.02200 31.44000 22.17300
H  49.56500 31.60000 21.38000
H  44.91500 31.75500 25.51200
H  44.43000 30.68600 26.82200
H  46.12300 30.75600 26.21400
H  44.26100 34.20700 30.99700
H  43.81300 32.63500 34.85400
H  45.38500 33.29500 35.19500
H  45.11400 31.63500 34.41300

