158

Mg -2.25000 17.61700 26.67800
C  -2.90400 15.86800 29.61500
C  -3.02500 20.47900 28.60500
C  -2.19600 19.52500 23.88700
C  -2.46400 14.83200 24.79100
N  -3.03100 18.10000 28.90000
C  -3.00900 17.23400 29.92700
C  -3.34800 17.88800 31.26700
C  -3.90500 19.29600 30.83600
C  -3.29600 19.37200 29.32800
C  -5.37100 19.63800 30.97800
C  -2.11600 17.93000 32.23800
C  -2.39100 17.47900 33.65300
H  -1.20500 17.41200 34.53200
N  -2.30700 19.72200 26.32100
C  -2.57900 20.67800 27.24600
C  -2.46900 22.01000 26.59900
C  -2.16500 21.82500 25.21900
C  -2.14700 20.30300 25.03900
C  -2.80600 23.34100 27.19000
C  -1.90000 22.81100 24.08000
O  -1.69500 22.44000 22.95300
C  -2.05900 24.30400 24.39600
N  -2.56400 17.32800 24.57400
C  -2.37500 18.18800 23.58200
C  -2.01200 17.56700 22.25300
C  -2.20700 16.06300 22.58300
C  -2.38100 16.02500 24.12300
C  -2.93000 18.15000 21.12200
C  -1.08700 15.17400 21.95200
C  0.37400 15.43000 22.40800
N  -2.53200 15.72300 27.03000
C  -2.60000 14.66000 26.20100
C  -2.67500 13.43000 27.00400
C  -2.77600 13.85400 28.32400
C  -2.73700 15.25800 28.33000
C  -2.53200 12.08000 26.38100
C  -2.88300 13.45800 29.71400
O  -3.02300 12.28900 30.12800
C  -2.86200 14.66900 30.56300
C  -1.65100 14.63800 31.46100
O  -0.55800 15.15200 31.23700
O  -1.97500 13.82900 32.56200
C  -0.94900 13.53500 33.55000
H  -3.19500 21.36400 29.22200
H  -2.16700 20.12300 22.97400
H  -2.31100 13.93400 24.18900
H  -4.17200 17.33300 31.71600
H  -3.53000 20.14700 31.40400
H  -5.44800 20.43800 31.71500
H  -5.99900 18.85300 31.40100
H  -5.73900 20.04800 30.03800
H  -1.90700 18.99800 32.30700
H  -1.23400 17.51200 31.75400
H  -2.82600 16.48000 33.66300
H  -3.13100 18.12300 34.12900
H  -3.05200 23.26300 28.24900
H  -3.55600 23.88900 26.61900
H  -1.85000 23.85500 27.09000
H  -1.93600 24.76500 23.41600
H  -1.38100 24.68100 25.16200
H  -3.05100 24.47700 24.81400
H  -0.95700 17.76000 22.05800
H  -3.13300 15.69100 22.14300
H  -3.61800 18.90900 21.49300
H  -3.62800 17.40200 20.74800
H  -2.21700 18.44400 20.35100
H  -1.21300 15.37800 20.88900
H  -1.19000 14.09800 22.09300
H  0.35700 15.87700 23.40200
H  0.94800 15.97400 21.65800
H  0.80000 14.43700 22.54800
H  -1.85900 11.41000 26.91700
H  -1.96700 12.23800 25.46200
H  -3.46000 11.51700 26.28300
H  -3.77300 14.85200 31.13200
H  -1.07900 13.97100 34.54000
H  0.01300 13.90400 33.19500
H  -0.93300 12.44500 33.54900
Mg 24.58800 -5.02500 45.80500
C  26.84500 -2.60800 44.45700
C  22.25700 -3.78100 43.64700
C  22.83000 -7.73300 46.32600
C  27.42900 -6.38600 47.49800
N  24.59600 -3.32400 44.15400
C  25.58600 -2.47700 43.87900
C  25.06100 -1.35900 42.96600
C  23.52300 -1.49900 43.23700
C  23.43500 -2.99100 43.63200
C  22.91800 -0.53300 44.25900
C  25.63800 -1.62500 41.55700
C  25.72300 -0.36500 40.57500
H  25.08000 -0.45800 39.27900
N  22.75400 -5.61000 45.26400
C  21.95300 -4.94200 44.38200
C  20.73200 -5.71000 44.20300
C  20.73000 -6.74000 45.11400
C  22.09900 -6.74900 45.70700
C  19.60500 -5.22800 43.29900
C  19.57200 -7.63900 45.40400
O  18.48500 -7.60200 44.87300
C  19.71200 -8.59200 46.66400
N  25.01400 -6.76800 46.90300
C  24.15400 -7.78700 46.84500
C  24.74000 -9.09800 47.42600
C  26.19800 -8.65500 47.75900
C  26.20400 -7.14500 47.44700
C  23.88500 -9.84100 48.43500
C  27.35200 -9.41000 47.06100
C  28.56700 -9.58500 47.93800
N  26.76900 -4.47000 46.11400
C  27.71600 -5.18000 46.84400
C  28.89500 -4.41800 46.84900
C  28.67600 -3.35900 45.93800
C  27.32800 -3.49400 45.45900
C  30.19300 -4.72800 47.52600
C  29.21000 -2.19800 45.30000
O  30.24200 -1.60700 45.54200
C  28.14200 -1.75200 44.20000
C  27.87300 -0.28200 44.51700
O  27.14400 0.05100 45.45600
O  28.42500 0.51300 43.56400
C  28.36300 1.99600 43.84600
H  21.44400 -3.30700 43.09300
H  22.33700 -8.67800 46.56000
H  28.30600 -6.91400 47.88000
H  25.49800 -0.40300 43.25700
H  22.93300 -1.46800 42.32100
H  22.86500 -0.96400 45.25900
H  21.88300 -0.31000 44.00000
H  23.60600 0.31300 44.27400
H  25.00200 -2.32200 41.01000
H  26.61900 -2.10000 41.55500
H  26.78600 -0.12300 40.55000
H  25.29400 0.49600 41.08800
H  19.38900 -5.78600 42.38800
H  19.56300 -4.14600 43.17500
H  18.65600 -5.38300 43.81200
H  20.22300 -8.15100 47.52000
H  20.16000 -9.51900 46.30500
H  18.75200 -9.02600 46.94000
H  24.84300 -9.80300 46.60000
H  26.25500 -8.79400 48.83800
H  23.13800 -9.10600 48.73400
H  24.42500 -10.09100 49.34800
H  23.43700 -10.73400 47.99700
H  27.73400 -8.89400 46.18000
H  26.98300 -10.38700 46.75100
H  28.54400 -9.21400 48.96300
H  29.44800 -9.09400 47.52700
H  28.86500 -10.62900 48.03900
H  30.66700 -5.53200 46.96300
H  29.84000 -5.18900 48.44900
H  30.79400 -3.84500 47.74000
H  28.59000 -1.84600 43.21100
H  28.41400 2.15500 44.92300
H  27.48600 2.50900 43.45000
H  29.14500 2.41700 43.21300

