158

Mg 46.26500 25.76500 28.26300
C  47.37800 27.90600 30.88000
C  44.89200 23.72700 30.59900
C  45.38500 23.88900 25.79400
C  47.62500 28.12400 26.03800
N  46.17600 25.82200 30.51800
C  46.70500 26.79300 31.34600
C  46.20400 26.53600 32.76200
C  45.76600 25.02500 32.78700
C  45.52900 24.84500 31.17900
C  47.05600 24.17400 33.17400
C  45.12200 27.59000 33.18300
C  45.54100 28.29000 34.49700
H  44.60400 28.44300 35.71900
N  45.41300 23.93900 28.19900
C  44.88500 23.26800 29.24200
C  44.25200 22.02900 28.79600
C  44.41900 21.99200 27.34400
C  45.05400 23.33500 27.03800
C  43.70300 20.92600 29.74200
C  43.97500 20.96000 26.33400
O  44.16400 21.14300 25.15600
C  43.22800 19.84800 26.73700
N  46.39800 26.08100 26.20200
C  45.97900 25.11800 25.39700
C  46.68400 25.28800 23.98900
C  47.15600 26.75700 23.94800
C  47.02000 27.03000 25.46200
C  47.75300 24.15800 23.63200
C  46.27400 27.77600 23.11400
C  47.13000 28.48500 22.02700
N  47.30900 27.53800 28.35200
C  47.79200 28.40200 27.37700
C  48.63600 29.45700 27.89300
C  48.39700 29.31900 29.24700
C  47.56300 28.15200 29.50900
C  49.32200 30.59900 27.15400
C  48.57100 30.05500 30.52900
O  49.13100 31.11500 30.78300
C  47.92400 29.13300 31.66100
C  49.04900 28.77700 32.55000
O  50.05100 28.23200 32.24400
O  48.65700 28.95500 33.86200
C  49.57900 28.48400 34.91900
H  44.54400 23.03100 31.36500
H  45.28300 23.15000 24.99600
H  48.00200 28.88400 25.35000
H  46.98800 26.58900 33.51800
H  44.86700 24.85100 33.38000
H  46.76700 23.40400 33.89000
H  47.91100 24.62800 33.67600
H  47.38800 23.66100 32.27200
H  44.10900 27.23200 33.37100
H  45.16300 28.38000 32.43300
H  45.63800 29.33100 34.19100
H  46.52900 27.96200 34.82100
H  42.80000 20.43200 29.38600
H  43.38800 21.23000 30.74100
H  44.45500 20.15500 29.91100
H  43.75400 19.22800 27.46300
H  42.84300 19.22700 25.92800
H  42.30600 20.27300 27.13400
H  45.85400 25.22400 23.28600
H  48.22600 26.83200 23.75400
H  47.80800 23.50100 24.50000
H  48.72000 24.55500 23.32400
H  47.34900 23.63900 22.76200
H  45.85800 28.51400 23.79900
H  45.50500 27.26000 22.53900
H  46.75200 29.50700 22.04100
H  46.87300 28.08800 21.04500
H  48.21500 28.43900 22.12200
H  48.99800 30.60000 26.11400
H  50.38400 30.36300 27.22400
H  49.28000 31.53800 27.70600
H  47.18700 29.86400 31.99500
H  50.29000 29.26800 35.18000
H  50.06700 27.52300 34.75100
H  48.95100 28.32900 35.79600
Mg -0.16500 33.54300 26.97400
C  -1.99300 31.75000 29.51800
C  1.21000 35.38700 29.44600
C  1.31400 34.96000 24.60700
C  -2.05500 31.46300 24.61400
N  -0.30100 33.52600 29.28800
C  -1.03100 32.66700 30.05500
C  -0.92600 32.98200 31.57300
C  0.05300 34.22700 31.47500
C  0.31100 34.43500 29.96000
C  -0.35200 35.48900 32.22200
C  -0.35600 31.83800 32.43700
C  -1.26800 31.30800 33.58000
H  -0.65500 30.98600 34.97500
N  0.92800 35.08500 27.02700
C  1.49600 35.74700 28.07400
C  2.37100 36.83100 27.59400
C  2.37700 36.67500 26.20500
C  1.53900 35.49900 25.86800
C  3.07200 37.78900 28.45700
C  3.17100 37.47400 25.18500
O  3.09900 37.37000 24.01700
C  4.19400 38.45900 25.65900
N  -0.37500 33.30500 24.94000
C  0.50900 33.97700 24.17600
C  0.36700 33.67300 22.60100
C  -0.67100 32.47900 22.65500
C  -1.15300 32.42900 24.14000
C  0.00800 34.82200 21.68700
C  -0.17300 31.08700 22.31500
C  -1.00600 30.25500 21.38300
N  -1.58500 31.93600 27.00200
C  -2.26200 31.17700 25.95100
C  -3.17900 30.22600 26.54500
C  -3.07700 30.37200 27.94900
C  -2.19500 31.51200 28.12500
C  -4.12500 29.19400 25.86700
C  -3.65700 29.95800 29.23300
O  -4.51200 29.10000 29.48300
C  -2.91300 30.86900 30.31600
C  -3.83000 31.59900 31.18000
O  -4.12300 32.79900 30.95900
O  -4.33000 30.90300 32.29200
C  -5.34000 31.65200 33.07500
H  1.69400 35.86800 30.29800
H  1.78800 35.58100 23.84500
H  -2.52500 30.81400 23.87200
H  -1.86600 33.43200 31.89300
H  0.98900 33.84500 31.88200
H  0.57600 36.01400 32.45000
H  -0.94200 35.34100 33.12600
H  -0.94100 36.15400 31.59000
H  0.63300 32.02100 32.85600
H  -0.27400 30.98000 31.76900
H  -1.67400 30.32300 33.35000
H  -2.09200 31.99600 33.77400
H  2.64900 37.91600 29.45400
H  3.03800 38.82000 28.10300
H  4.12900 37.55300 28.58400
H  3.66800 39.32500 26.06100
H  4.80300 38.62600 24.77000
H  4.74000 38.09900 26.53100
H  1.33600 33.28100 22.29400
H  -1.55200 32.70400 22.05300
H  0.86800 34.83900 21.01700
H  -0.23700 35.70500 22.27600
H  -0.81800 34.74800 20.97900
H  -0.12300 30.46400 23.20800
H  0.83900 31.04800 21.91100
H  -0.24900 29.71900 20.81000
H  -1.73900 30.77400 20.76600
H  -1.48500 29.53200 22.04400
H  -3.41600 28.49900 25.41500
H  -4.78000 29.66800 25.13600
H  -4.54800 28.51900 26.61100
H  -2.27900 30.25100 30.95200
H  -5.89100 32.36600 32.46200
H  -4.96900 32.27900 33.88500
H  -6.00600 30.88600 33.47200

