158

Mg 54.16300 24.41400 44.46000
C  51.45300 26.33800 43.29600
C  52.50200 21.65000 43.42800
C  57.03500 22.76600 44.52600
C  55.93500 27.42200 45.09600
N  52.16800 24.11900 43.41400
C  51.24800 24.97600 43.00200
C  50.01200 24.24000 42.44800
C  50.22800 22.75600 42.99400
C  51.72600 22.81300 43.37500
C  49.30200 22.26300 44.14700
C  49.87800 24.36400 40.86300
C  48.82100 23.43900 40.22800
H  48.33400 23.69200 38.77200
N  54.67000 22.43800 44.20900
C  53.82700 21.48600 43.80600
C  54.58000 20.19300 43.83800
C  55.93700 20.51800 43.97700
C  55.91000 21.94700 44.26300
C  53.83700 18.87500 43.67100
C  57.12300 19.52700 43.70300
O  56.83000 18.36900 43.42300
C  58.57200 19.89600 43.80500
N  56.24400 25.06400 44.62400
C  57.21700 24.13700 44.75500
C  58.61000 24.84100 44.81300
C  58.22500 26.32300 45.10400
C  56.73200 26.29700 44.89600
C  59.60700 24.17600 45.93200
C  58.93400 27.33000 44.15400
C  58.31500 27.74100 42.75000
N  53.73600 26.47100 44.36500
C  54.46300 27.59600 44.78400
C  53.65800 28.84900 44.69200
C  52.48800 28.36600 43.99500
C  52.59000 26.96000 43.87000
C  54.11000 30.14400 45.01000
C  51.27200 28.82100 43.32300
O  50.95000 29.96700 43.04900
C  50.56900 27.52000 42.86800
C  50.37600 27.67800 41.42700
O  51.18800 27.80100 40.55500
O  49.03400 27.70800 41.24000
C  48.64100 27.90500 39.80900
H  51.92700 20.82100 43.01000
H  57.94400 22.16100 44.55600
H  56.59200 28.27200 45.29300
H  49.16500 24.75500 42.90300
H  50.14200 21.99000 42.22300
H  48.81300 21.30800 43.95200
H  48.49700 22.99200 44.05400
H  49.77500 22.33000 45.12600
H  50.88400 24.15300 40.50000
H  49.63600 25.41400 40.70200
H  48.00800 23.42400 40.95400
H  49.26800 22.46000 40.05200
H  53.58100 18.80700 42.61300
H  52.97700 19.01500 44.32600
H  54.36200 18.02800 44.11200
H  58.92300 20.55500 43.01100
H  59.20600 19.01800 43.68400
H  58.75700 20.23700 44.82400
H  59.06700 24.64200 43.84300
H  58.48900 26.57300 46.13100
H  60.29100 24.96700 46.24200
H  60.19900 23.34800 45.54300
H  59.11900 23.99100 46.88800
H  59.97000 27.07900 43.92700
H  59.18500 28.22200 44.72800
H  58.03700 28.79400 42.69500
H  57.46100 27.12200 42.47400
H  59.06300 27.62100 41.96600
H  55.14800 30.10300 44.67900
H  54.06200 30.38000 46.07300
H  53.56400 30.99000 44.59200
H  49.64400 27.62900 43.43400
H  48.65500 26.94500 39.29200
H  49.36100 28.57800 39.34400
H  47.70800 28.42800 39.60100
Mg 49.85900 46.63300 42.63200
C  46.74700 47.56400 41.43700
C  49.55900 43.68000 40.67700
C  53.19900 45.92500 43.11100
C  50.27500 49.68600 43.97500
N  48.35700 45.84900 41.07900
C  47.11500 46.31100 40.93300
C  46.22900 45.43900 40.06700
C  47.06700 44.07100 40.18600
C  48.47800 44.57000 40.53700
C  46.45200 43.09400 41.07600
C  46.08700 46.01200 38.62700
C  44.85600 45.61600 37.81000
H  45.06800 44.33400 36.99000
N  51.11500 44.99700 42.11200
C  50.83000 43.87000 41.36600
C  51.92000 42.99500 41.37600
C  52.95700 43.54400 42.10500
C  52.44300 44.94100 42.46300
C  51.86200 41.65700 40.82000
C  54.30500 42.92500 42.42600
O  54.68400 41.86800 41.93600
C  55.21800 43.51700 43.41400
N  51.55600 47.68800 43.26500
C  52.79700 47.16900 43.48800
C  53.72400 48.25900 44.00900
C  52.74300 49.38600 44.41000
C  51.41400 48.88700 43.83300
C  54.68700 47.83100 45.18400
C  53.11800 50.80800 43.91900
C  52.97000 51.96400 44.94200
N  48.81200 48.33700 42.68200
C  49.02500 49.54400 43.37000
C  47.91200 50.40100 43.25100
C  46.98200 49.68300 42.46800
C  47.58900 48.43200 42.18200
C  47.75500 51.74100 43.95300
C  45.65500 49.67600 41.96600
O  44.70200 50.46400 42.16900
C  45.49400 48.36900 41.13500
C  44.15600 47.78100 41.41800
O  43.25100 47.69000 40.56500
O  44.16900 47.05600 42.54400
C  43.00500 46.24000 42.90500
H  49.34900 42.74900 40.14700
H  54.27600 45.76400 43.18300
H  50.41000 50.54600 44.63400
H  45.19000 45.36500 40.38900
H  47.32400 43.57700 39.24900
H  45.52400 43.48600 41.49400
H  47.08600 42.91000 41.94300
H  46.18600 42.14100 40.62000
H  46.90700 45.60200 38.03700
H  46.11600 47.09800 38.53500
H  44.66800 46.48300 37.17500
H  43.91400 45.41700 38.32100
H  52.43600 41.61800 39.89500
H  50.87800 41.22100 40.64500
H  52.30800 40.96600 41.53500
H  56.02000 42.90400 43.82500
H  54.53900 43.94100 44.15500
H  55.73000 44.35600 42.94300
H  54.41400 48.49200 43.19800
H  52.57900 49.33500 45.48600
H  54.46400 46.89400 45.69300
H  54.83200 48.59600 45.94700
H  55.69400 47.69600 44.79100
H  52.67100 50.98400 42.94100
H  54.17800 50.85700 43.66800
H  52.40000 52.79200 44.51900
H  53.94300 52.35300 45.24200
H  52.45100 51.65300 45.84800
H  48.65200 52.28800 43.66400
H  47.70700 51.53200 45.02200
H  46.90700 52.15900 43.41000
H  45.55400 48.66300 40.08700
H  43.45200 45.46400 43.52700
H  42.52900 45.70900 42.08100
H  42.36600 46.91500 43.47500

