158

Mg 34.37700 3.40600 29.30600
C  32.45300 4.24300 31.97600
C  37.05900 2.82400 31.51900
C  36.55000 2.81100 26.64800
C  31.81000 3.92500 27.15800
N  34.70000 3.53400 31.45700
C  33.72900 3.86600 32.34000
C  34.26200 3.87500 33.79000
C  35.79300 3.64300 33.70200
C  35.86600 3.24200 32.13800
C  36.65100 4.96500 33.98500
C  33.49700 2.86900 34.70200
C  33.20700 3.35400 36.06800
H  33.90900 4.41500 36.79800
N  36.46800 2.84000 29.13000
C  37.32900 2.57500 30.11400
C  38.62500 2.35500 29.64600
C  38.55800 2.33600 28.22600
C  37.17000 2.69500 27.92400
C  39.82200 2.14700 30.59800
C  39.65600 2.03800 27.16900
O  39.45600 2.12800 25.91500
C  41.07500 1.59000 27.76100
N  34.18900 3.36400 27.21800
C  35.20300 3.04200 26.26800
C  34.78700 3.35700 24.84800
C  33.27000 3.65300 25.00200
C  33.08700 3.66000 26.56300
C  35.60300 4.46900 24.12200
C  32.39100 2.66400 24.12400
C  31.89500 1.37800 24.86200
N  32.45900 3.92400 29.47100
C  31.52500 4.07600 28.51000
C  30.28000 4.55400 29.09300
C  30.62600 4.62400 30.48000
C  31.96200 4.22100 30.62900
C  29.09300 4.81600 28.21700
C  30.06600 4.92000 31.79700
O  28.92500 5.10500 32.24500
C  31.25600 4.68200 32.82900
C  31.43000 5.94300 33.59500
O  32.11800 6.91300 33.31400
O  30.60300 5.90300 34.69300
C  30.59000 7.15700 35.45500
H  37.81500 2.74500 32.30300
H  37.08700 2.81900 25.69700
H  31.08800 4.14000 26.36800
H  34.08400 4.89700 34.12300
H  36.15000 2.78700 34.27600
H  36.03300 5.56200 34.65600
H  36.95600 5.57100 33.13200
H  37.53400 4.74000 34.58200
H  34.02700 1.92900 34.54300
H  32.56900 2.68600 34.16000
H  33.47100 2.55700 36.76300
H  32.13600 3.51100 36.19600
H  40.71300 2.59700 30.16100
H  40.12900 1.13000 30.84100
H  39.66500 2.68300 31.53400
H  41.69000 1.20000 26.95000
H  41.00500 0.79700 28.50500
H  41.65700 2.45100 28.09100
H  34.86400 2.37400 24.38400
H  33.11700 4.66300 24.62000
H  36.09100 3.88300 23.34200
H  36.32600 4.98800 24.75000
H  34.89900 5.20300 23.73000
H  32.88500 2.31700 23.21600
H  31.52900 3.27100 23.84600
H  32.44700 1.27800 25.79600
H  32.06900 0.50300 24.23500
H  30.81600 1.48300 24.97800
H  28.69800 3.98600 27.62900
H  29.48800 5.57300 27.54000
H  28.24500 5.21000 28.77700
H  30.84200 3.94200 33.51300
H  29.78200 7.14600 36.18700
H  30.48000 8.11100 34.93900
H  31.57600 7.24700 35.91100
Mg -11.82700 38.11300 41.34100
C  -9.55400 35.45800 40.96500
C  -9.48800 40.17900 39.86300
C  -14.27400 40.32600 40.89500
C  -14.15100 35.81000 42.66200
N  -9.83800 37.75300 40.35200
C  -9.05400 36.64800 40.33100
C  -7.69400 36.85700 39.66200
C  -7.64900 38.38500 39.77100
C  -9.04600 38.84200 39.96200
C  -6.57900 38.94100 40.75800
C  -7.61900 36.20100 38.21500
C  -6.24800 35.53700 37.88200
H  -5.42000 36.16000 36.83100
N  -11.88700 40.02100 40.38200
C  -10.80900 40.75700 40.04700
C  -11.21100 42.11000 39.79400
C  -12.63000 42.19900 40.03800
C  -12.98500 40.77000 40.45200
C  -10.23700 43.25100 39.45500
C  -13.47900 43.46800 39.95400
O  -13.00600 44.53400 39.58600
C  -14.99700 43.42100 40.05600
N  -13.92500 38.03000 41.73400
C  -14.72100 39.10100 41.44100
C  -16.20400 38.87200 41.77600
C  -16.10400 37.37500 42.32500
C  -14.65200 37.01600 42.22400
C  -16.85000 39.87000 42.74800
C  -16.94900 36.40900 41.48200
C  -18.44500 36.50700 41.65200
N  -11.85100 36.05200 41.87900
C  -12.80800 35.26600 42.54700
C  -12.21000 33.95000 42.82000
C  -10.95900 34.00700 42.16700
C  -10.82000 35.21700 41.54000
C  -12.95700 32.91300 43.60000
C  -9.75400 33.26900 41.92400
O  -9.42300 32.13300 42.31500
C  -8.81100 34.16700 41.05900
C  -7.58500 34.19300 41.83100
O  -6.74900 33.30300 41.79500
O  -7.41900 35.36300 42.49100
C  -6.31000 35.22000 43.38100
H  -8.70200 40.88600 39.59100
H  -15.04600 41.07100 40.69000
H  -14.86200 35.12800 43.13400
H  -6.82600 36.52300 40.23000
H  -7.29000 38.85200 38.85400
H  -5.99600 38.13800 41.21000
H  -7.16800 39.38500 41.56100
H  -5.97000 39.69900 40.26600
H  -7.84800 36.99800 37.50800
H  -8.37400 35.41700 38.15700
H  -6.47600 34.50400 37.61700
H  -5.62800 35.44300 38.77400
H  -10.42900 43.61100 38.44400
H  -9.19400 43.04100 39.21800
H  -10.28600 44.04100 40.20400
H  -15.51000 44.37200 39.91200
H  -15.22100 42.98100 41.02800
H  -15.31100 42.66800 39.33400
H  -16.83700 38.85300 40.88800
H  -16.28500 37.32400 43.39800
H  -17.28500 39.34200 43.59700
H  -17.56400 40.48200 42.19700
H  -16.12000 40.57400 43.14800
H  -16.60600 35.37600 41.54700
H  -16.75900 36.71800 40.45400
H  -18.73600 35.46700 41.80000
H  -18.97100 36.92900 40.79600
H  -18.66900 37.09900 42.54000
H  -12.42400 32.56400 44.48500
H  -13.14100 32.02700 42.99300
H  -13.87000 33.36500 43.98900
H  -8.73500 33.65200 40.10100
H  -5.42100 35.20200 42.75100
H  -6.33900 34.29900 43.96300
H  -6.29200 36.07300 44.06000

