158

Mg 1.09100 7.39700 25.21000
C  1.96000 9.67600 27.94300
C  1.25400 4.94900 27.34100
C  0.49100 5.51800 22.61100
C  1.32100 10.36000 23.04900
N  1.68600 7.32700 27.36800
C  1.90000 8.29300 28.28900
C  1.91000 7.70300 29.72700
C  1.93500 6.19700 29.41000
C  1.57100 6.12600 27.95100
C  3.11900 5.40000 29.91700
C  0.60400 8.08100 30.49100
C  0.63600 8.38900 31.96000
H  1.71400 7.68100 32.86200
N  0.84900 5.49600 25.01300
C  0.96700 4.60900 25.97400
C  0.57500 3.32300 25.41700
C  0.35700 3.40100 24.02100
C  0.48600 4.88000 23.83800
C  0.57500 2.06700 26.25100
C  0.14200 2.29500 23.01000
O  -0.12300 2.53500 21.85100
C  0.04200 0.80900 23.58900
N  0.96100 7.82500 23.09700
C  0.65200 6.87200 22.25300
C  0.59700 7.38400 20.77600
C  0.61200 8.93100 21.01900
C  1.03500 9.08200 22.48800
C  1.71900 6.90800 19.73800
C  -0.80500 9.64100 20.92200
C  -0.95800 11.00500 20.09500
N  1.50900 9.60500 25.38600
C  1.51400 10.66500 24.43800
C  1.75600 11.97900 25.07300
C  1.91200 11.62800 26.45300
C  1.75600 10.18300 26.57600
C  1.81800 13.31700 24.36700
C  2.18800 12.17300 27.78400
O  2.35800 13.31500 28.17900
C  2.00400 10.87100 28.82800
C  3.09100 10.79700 29.88000
O  4.28000 10.40000 29.67900
O  2.57400 11.33000 31.00600
C  3.50200 11.21700 32.12100
H  1.18400 4.09700 28.02000
H  0.27100 4.83000 21.79200
H  1.35900 11.24100 22.40500
H  2.72400 8.15100 30.29700
H  1.11200 5.67300 29.89600
H  3.54900 4.94500 29.02500
H  2.90100 4.68900 30.71400
H  3.88500 6.04200 30.35400
H  -0.10700 7.26200 30.38300
H  0.06700 8.83300 29.91300
H  -0.33700 8.09400 32.35300
H  0.77400 9.46500 32.07000
H  0.50900 2.22700 27.32700
H  1.56200 1.62700 26.10700
H  -0.18700 1.33200 25.99000
H  -0.16400 0.20500 22.70500
H  -0.91300 0.84700 24.11300
H  0.95600 0.45300 24.06300
H  -0.31300 7.03400 20.29000
H  1.21900 9.30500 20.19400
H  1.39400 6.10300 19.07900
H  2.59100 6.63000 20.32900
H  1.93000 7.65100 18.96800
H  -1.12100 9.86700 21.94000
H  -1.44800 8.89200 20.45900
H  -1.86900 10.98600 19.49700
H  0.01800 11.18000 19.64300
H  -1.06400 11.80000 20.83400
H  2.64000 13.22900 23.65700
H  2.01400 14.15300 25.03800
H  0.81100 13.39800 23.95700
H  1.06700 11.04600 29.35600
H  4.42900 10.64400 32.10500
H  2.91300 10.73600 32.90200
H  3.64200 12.24300 32.46200
Mg 46.93500 24.66300 27.89700
C  47.47300 26.85700 30.55600
C  46.00900 22.23100 30.25100
C  46.41400 22.30000 25.35900
C  48.22500 26.81500 25.72200
N  46.52500 24.69200 30.13200
C  46.83500 25.70000 31.00600
C  46.57600 25.34300 32.50600
C  46.25600 23.79300 32.33700
C  46.37600 23.51200 30.79000
C  47.16800 22.85200 33.13900
C  45.45300 26.17800 33.13500
C  45.76400 26.65100 34.54900
H  44.69600 26.41100 35.65600
N  46.02400 22.70000 27.77700
C  45.77600 21.85000 28.84200
C  45.14500 20.58500 28.36500
C  45.31300 20.59800 26.95700
C  45.98300 21.92800 26.61100
C  44.64600 19.52200 29.35200
C  45.03600 19.48400 25.96300
O  45.36900 19.64900 24.80700
C  44.33400 18.15200 26.47200
N  47.21700 24.50800 25.84700
C  47.08500 23.49300 25.03200
C  47.55900 23.87400 23.60900
C  47.65800 25.46600 23.65600
C  47.66900 25.59900 25.18900
C  48.84900 23.12900 23.05300
C  46.51400 26.19200 22.91400
C  45.22100 26.61600 23.67900
N  47.89300 26.38900 28.08000
C  48.38000 27.15600 27.06600
C  48.90300 28.38700 27.69800
C  48.60700 28.28700 29.05500
C  47.92600 27.10200 29.21100
C  49.56200 29.48200 26.88700
C  48.73700 28.93600 30.28600
O  49.26300 30.03900 30.58000
C  48.02200 28.01800 31.34200
C  48.85000 27.51800 32.44200
O  49.76000 26.77300 32.27500
O  48.57500 28.05400 33.65800
C  49.47400 27.64100 34.71100
H  45.63700 21.51200 30.98400
H  46.35500 21.57200 24.54700
H  48.52300 27.60400 25.02800
H  47.50000 25.40400 33.08100
H  45.24500 23.52700 32.64500
H  47.36100 21.99700 32.49000
H  46.69500 22.44400 34.03300
H  48.07800 23.36500 33.44900
H  44.47700 25.69200 33.14400
H  45.27800 27.05700 32.51500
H  45.78900 27.74000 34.49700
H  46.73200 26.28900 34.89500
H  43.57000 19.39100 29.23200
H  44.70500 19.92000 30.36500
H  45.22400 18.61700 29.16500
H  43.43500 18.46400 27.00300
H  45.01000 17.46300 26.97900
H  44.04200 17.61300 25.57100
H  46.71300 23.54600 23.00600
H  48.60900 25.84900 23.28600
H  49.18000 22.43400 23.82500
H  49.56100 23.91600 22.80800
H  48.53800 22.53900 22.19000
H  46.28200 25.64300 22.00100
H  46.96800 27.15100 22.66200
H  45.02400 27.68700 23.73300
H  45.30700 26.15600 24.66300
H  44.42700 26.07300 23.16600
H  49.37800 30.49000 27.25900
H  49.21200 29.41500 25.85700
H  50.65000 29.46500 26.82200
H  47.26200 28.63700 31.81800
H  50.38400 27.06300 34.54900
H  48.97000 27.13800 35.53700
H  49.91500 28.56200 35.09200

