158

Mg 2.36700 -0.61900 43.00800
C  5.79900 0.31500 42.70000
C  1.60600 2.58700 41.98400
C  -0.69800 -1.70000 42.79500
C  3.53100 -3.92800 43.78200
N  3.62800 1.21900 42.40400
C  5.00000 1.43400 42.48400
C  5.38700 2.84700 41.98000
C  3.99700 3.58800 42.07300
C  2.97800 2.39700 42.16900
C  3.72200 4.67600 43.20600
C  6.03800 2.77500 40.65900
C  5.73900 1.68000 39.59700
H  5.83000 2.02000 38.05100
N  0.64900 0.33700 42.42500
C  0.50500 1.68000 42.06500
C  -0.93200 1.97900 41.94300
C  -1.59900 0.74200 42.13300
C  -0.57300 -0.28200 42.45100
C  -1.54500 3.28200 41.71800
C  -3.11100 0.48100 42.00100
O  -3.78400 1.43000 41.62600
C  -3.78200 -0.90300 42.22900
N  1.51100 -2.59800 43.16100
C  0.15700 -2.69300 43.15500
C  -0.35400 -4.11300 43.50500
C  1.04800 -4.83400 43.84100
C  2.10700 -3.73400 43.58900
C  -1.42100 -4.22800 44.59100
C  1.34700 -6.19300 42.93400
C  0.60400 -7.41800 43.42100
N  4.24900 -1.67500 43.31000
C  4.53900 -2.98100 43.58900
C  5.93900 -3.14300 43.65100
C  6.40200 -1.90200 43.29100
C  5.39200 -1.02600 43.17300
C  6.81100 -4.31900 43.99700
C  7.63000 -1.23000 43.11500
O  8.78400 -1.65300 43.21900
C  7.27000 0.19800 42.70500
C  7.95600 1.20500 43.56200
O  8.78100 2.04400 43.22000
O  7.39900 1.26200 44.79600
C  8.07000 2.12300 45.82100
H  1.43000 3.64600 41.78700
H  -1.66300 -2.19300 42.65700
H  3.93900 -4.91600 44.00500
H  6.09800 3.31900 42.65800
H  3.84400 4.16500 41.16100
H  2.79400 4.56500 43.76700
H  3.72300 5.70700 42.85300
H  4.50000 4.63600 43.96900
H  7.11800 2.86800 40.76400
H  5.67800 3.56900 40.00500
H  4.67700 1.47100 39.72500
H  6.35600 0.82000 39.86000
H  -1.76600 3.45700 40.66500
H  -0.67500 3.86000 42.03000
H  -2.36100 3.42600 42.42600
H  -3.31100 -1.38000 43.08800
H  -3.53400 -1.32300 41.25400
H  -4.82800 -0.64300 42.39100
H  -0.76000 -4.42700 42.54400
H  1.10900 -5.14200 44.88500
H  -0.93800 -4.27800 45.56700
H  -2.10600 -5.05700 44.41100
H  -1.96700 -3.29500 44.45200
H  2.42500 -6.35400 42.91000
H  0.98900 -5.94400 41.93500
H  0.30500 -7.30400 44.46300
H  1.11300 -8.37800 43.34300
H  -0.31700 -7.62000 42.87400
H  6.56000 -5.24700 43.48300
H  6.92500 -4.50700 45.06400
H  7.81800 -4.22200 43.59100
H  7.73000 0.27800 41.72100
H  9.04000 2.46700 45.46200
H  8.18900 1.60200 46.77100
H  7.40800 2.97900 45.95500
Mg -9.50000 18.30800 42.93000
C  -5.97700 17.58300 42.80900
C  -8.85300 21.46900 41.75300
C  -12.88300 18.85900 42.69800
C  -9.98800 14.90900 43.28700
N  -7.56900 19.31400 42.34100
C  -6.24700 18.90800 42.49400
C  -5.30100 20.03500 42.13100
C  -6.24600 21.29300 41.81000
C  -7.64600 20.68000 41.95100
C  -5.95900 22.50000 42.68300
C  -4.45800 19.79100 40.84500
C  -4.97800 18.73700 39.81500
H  -4.71700 19.06500 38.34500
N  -10.74400 19.89000 42.27100
C  -10.26800 21.13100 41.85700
C  -11.41200 22.05600 41.55600
C  -12.58400 21.28400 41.72900
C  -12.13200 19.89500 42.21900
C  -11.23900 23.63600 41.26500
C  -14.00600 21.75600 41.46000
O  -14.25700 22.94400 41.16200
C  -15.22000 20.89600 41.54800
N  -11.18000 17.02100 42.93000
C  -12.41900 17.56300 42.98600
C  -13.36300 16.45400 43.42900
C  -12.50500 15.12700 43.24400
C  -11.11100 15.70000 43.12500
C  -14.08300 16.64800 44.74500
C  -12.94000 14.23900 41.95900
C  -12.72300 12.71300 42.16200
N  -8.28000 16.60300 43.07200
C  -8.66200 15.30200 43.24700
C  -7.49900 14.40000 43.30700
C  -6.44100 15.30200 43.18200
C  -6.95100 16.60000 43.07700
C  -7.57500 12.86900 43.39400
C  -4.96900 15.42700 43.28600
O  -4.14700 14.52700 43.37300
C  -4.63700 16.88600 42.95200
C  -3.70500 17.34000 43.98800
O  -2.51100 17.53100 43.88300
O  -4.38200 17.37500 45.15600
C  -3.49600 17.29100 46.39500
H  -8.73200 22.53800 41.56200
H  -13.97200 18.93000 42.74500
H  -10.25800 13.90300 43.61400
H  -4.66900 20.15400 43.01100
H  -6.20300 21.76100 40.82600
H  -6.82200 22.69300 43.32100
H  -5.59100 23.29800 42.03900
H  -5.12700 22.37100 43.37600
H  -3.49500 19.51700 41.27600
H  -4.19500 20.71300 40.32700
H  -6.04700 18.74500 40.02600
H  -4.59700 17.75100 40.08100
H  -11.82300 23.90200 40.38400
H  -10.25800 23.96600 40.92500
H  -11.51600 24.30600 42.07900
H  -15.45300 20.68500 42.59100
H  -14.84800 20.01600 41.02300
H  -16.08300 21.33000 41.04200
H  -14.09200 16.48700 42.61900
H  -12.55000 14.55000 44.16800
H  -13.94100 17.61100 45.23500
H  -13.78100 15.88300 45.46100
H  -15.14300 16.43600 44.61000
H  -12.33300 14.54200 41.10600
H  -13.97700 14.33100 41.63900
H  -12.35900 12.35200 43.12400
H  -11.79400 12.38000 41.70000
H  -13.58300 12.14700 41.80300
H  -6.63400 12.58500 43.86600
H  -7.59500 12.38500 42.41800
H  -8.41200 12.55900 44.02000
H  -4.12900 16.86200 41.98800
H  -2.87800 18.18900 46.36800
H  -3.07700 16.28900 46.48400
H  -4.06600 17.37900 47.31900

