158

Mg 42.66400 42.00700 26.13800
C  42.02800 44.29200 28.83100
C  44.25500 40.07400 28.38100
C  43.54900 40.16100 23.51400
C  41.44000 44.54000 23.95000
N  43.14700 42.28900 28.33700
C  42.72100 43.13600 29.22800
C  43.01800 42.74100 30.67800
C  43.85200 41.41500 30.51400
C  43.78400 41.25700 29.00700
C  45.40700 41.42700 31.07400
C  41.66900 42.54800 31.52400
C  41.55300 43.47000 32.76200
H  40.98800 42.79400 34.00000
N  43.64500 40.23600 26.00900
C  44.11700 39.53500 27.05700
C  44.61900 38.23300 26.55700
C  44.36000 38.25100 25.17900
C  43.76700 39.54800 24.80900
C  45.18900 37.14800 27.46300
C  44.58700 37.12000 24.18100
O  44.16900 37.18800 23.03400
C  45.27500 35.83100 24.65200
N  42.64200 42.35800 24.03400
C  42.94800 41.39300 23.17500
C  42.71200 41.71900 21.69600
C  41.84500 43.02500 21.86000
C  41.96100 43.31900 23.37700
C  44.02600 41.83000 20.86700
C  40.32600 42.77500 21.54400
C  39.64800 41.61300 22.27100
N  41.84900 43.98300 26.30400
C  41.42900 44.88000 25.30000
C  41.03000 46.15400 25.91800
C  41.14900 45.91300 27.31300
C  41.69000 44.62900 27.48900
C  40.68000 47.49500 25.22700
C  40.97100 46.50800 28.61600
O  40.58400 47.61500 28.95400
C  41.55000 45.49000 29.69200
C  42.59300 46.15600 30.45200
O  43.75200 46.14300 30.18300
O  42.08000 46.74200 31.55700
C  42.95800 47.27100 32.53800
H  44.85900 39.39200 28.98300
H  43.98800 39.51800 22.74800
H  40.98200 45.23700 23.24400
H  43.63700 43.50400 31.15000
H  43.44500 40.51000 30.96400
H  46.12600 41.19700 30.28800
H  45.56700 40.71200 31.88100
H  45.62400 42.40100 31.51300
H  41.63100 41.55200 31.96600
H  40.81000 42.72000 30.87500
H  40.89100 44.30100 32.52100
H  42.54500 43.90800 32.86500
H  46.27200 37.04100 27.52000
H  44.80500 36.14100 27.30100
H  44.66900 37.37700 28.39300
H  45.76600 35.46900 23.74900
H  44.59600 35.16700 25.18800
H  46.12900 35.88800 25.32600
H  42.15500 40.92400 21.20100
H  42.28000 43.79300 21.22100
H  44.18100 42.84600 20.50300
H  43.93000 41.16200 20.01100
H  44.91400 41.47200 21.38700
H  40.35200 42.38500 20.52700
H  39.81900 43.73500 21.64100
H  40.31600 41.21300 23.03400
H  39.33600 40.86400 21.54400
H  38.74700 42.04100 22.71000
H  40.04200 47.46600 24.34300
H  41.54400 48.12800 25.02200
H  40.14200 48.12800 25.93300
H  40.69900 45.07900 30.23700
H  43.32400 46.54900 33.26800
H  42.43600 48.07200 33.06100
H  43.74200 47.89400 32.10800
Mg -1.14800 34.25000 27.37100
C  -3.01000 32.20500 29.44700
C  0.16700 35.76000 30.08900
C  0.50500 36.25400 25.25600
C  -2.61600 32.60800 24.52500
N  -1.46000 34.13000 29.50100
C  -2.20000 33.12800 30.11800
C  -2.09200 33.21600 31.63000
C  -1.13600 34.51100 31.83800
C  -0.82800 34.84200 30.40600
C  -1.70500 35.76700 32.58500
C  -1.50100 31.91000 32.32400
C  -2.40300 31.27100 33.36600
H  -1.73500 31.28300 34.77700
N  0.14500 35.82000 27.68100
C  0.60600 36.25900 28.88200
C  1.60200 37.31100 28.61000
C  1.66200 37.56400 27.22400
C  0.76300 36.47300 26.69400
C  2.28800 37.98200 29.76500
C  2.49600 38.48000 26.46100
O  2.47400 38.58500 25.23600
C  3.37900 39.48100 27.20700
N  -1.07600 34.46500 25.21100
C  -0.27800 35.37600 24.58100
C  -0.53600 35.45900 23.03500
C  -1.34200 34.15000 22.79000
C  -1.71200 33.66500 24.24400
C  -1.23600 36.72800 22.63100
C  -0.62900 33.04300 21.97000
C  -1.53000 32.39400 20.91000
N  -2.62500 32.70400 26.99000
C  -3.11400 32.20200 25.83100
C  -4.06000 31.18200 26.20500
C  -3.99500 31.10000 27.63000
C  -3.16400 32.10800 28.06200
C  -4.71600 30.30300 25.28400
C  -4.38900 30.34600 28.79300
O  -5.12300 29.31900 28.86500
C  -3.84400 31.07100 30.02900
C  -5.04800 31.60900 30.82000
O  -5.87200 32.44000 30.40900
O  -5.15100 30.87000 31.96300
C  -6.32000 31.07400 32.85400
H  0.50600 36.08000 31.07600
H  0.96800 37.04700 24.66400
H  -3.15700 32.13100 23.70500
H  -3.04000 33.50100 32.08600
H  -0.22300 34.15100 32.31200
H  -1.89200 36.60700 31.91600
H  -1.03400 36.04900 33.39700
H  -2.62000 35.46900 33.09700
H  -0.52200 32.15200 32.73800
H  -1.30100 31.17800 31.54100
H  -2.40800 30.23800 33.01700
H  -3.40200 31.68500 33.22500
H  1.87700 37.70600 30.73600
H  2.05600 39.04200 29.66500
H  3.37200 37.88000 29.71300
H  3.72800 40.13300 26.40600
H  4.24300 38.96200 27.62200
H  2.75600 40.05900 27.88800
H  0.46400 35.40700 22.60300
H  -2.30600 34.37800 22.33600
H  -0.53700 37.51000 22.92800
H  -2.03600 36.93000 23.34300
H  -1.45300 36.61700 21.56800
H  -0.25700 32.33200 22.70900
H  0.24100 33.41200 21.42700
H  -1.00000 32.53500 19.96800
H  -2.56400 32.73500 20.94700
H  -1.59400 31.30800 20.97900
H  -4.09100 30.33500 24.39100
H  -5.68200 30.61800 24.89000
H  -4.79300 29.32100 25.75100
H  -3.24700 30.37900 30.62200
H  -7.03900 31.84300 32.56900
H  -5.87100 31.52100 33.74100
H  -6.67500 30.10300 33.19800

