158

Mg 18.01000 -0.94400 27.90400
C  17.02300 1.07400 30.82000
C  19.77000 -2.86100 30.05200
C  18.63000 -2.74500 25.28300
C  16.01600 1.36500 25.98100
N  18.26000 -0.96400 30.12400
C  17.88800 -0.05500 31.07100
C  18.25800 -0.52000 32.52500
C  19.14800 -1.76000 32.27200
C  19.09500 -1.84600 30.71000
C  20.58600 -1.90300 32.80200
C  16.95200 -0.80200 33.39300
C  16.81500 -0.01800 34.71300
H  18.14500 0.55100 35.33500
N  19.21300 -2.45000 27.61000
C  19.87600 -3.16100 28.61400
C  20.65200 -4.20300 27.96700
C  20.27100 -4.19000 26.58700
C  19.24400 -3.11900 26.43100
C  21.44700 -5.19200 28.69300
C  20.76000 -5.11600 25.43400
O  20.45700 -4.98400 24.26000
C  21.75000 -6.17200 25.70500
N  17.54500 -0.64500 25.91600
C  17.81300 -1.64000 25.04100
C  17.23800 -1.33900 23.63400
C  16.37400 -0.05800 23.93800
C  16.68000 0.24800 25.33800
C  18.24400 -1.07600 22.45100
C  14.87600 -0.28500 23.66200
C  14.04300 -1.06300 24.68300
N  16.74300 0.81800 28.29700
C  15.96500 1.62400 27.34500
C  15.39500 2.74300 28.03300
C  15.74900 2.54500 29.34900
C  16.60600 1.46400 29.49000
C  14.48500 3.68500 27.44500
C  15.60700 3.10500 30.63700
O  14.98100 4.02900 31.05600
C  16.29600 2.07700 31.65400
C  17.27700 2.89000 32.48800
O  18.51100 3.04200 32.32600
O  16.50400 3.41700 33.50700
C  17.18500 4.49500 34.23000
H  20.43600 -3.43500 30.70000
H  18.67500 -3.45500 24.45400
H  15.36100 1.93700 25.32000
H  18.87400 0.28600 32.92400
H  18.65300 -2.63300 32.69700
H  20.60400 -1.40500 33.77100
H  21.19100 -1.36900 32.07000
H  20.97100 -2.92300 32.83800
H  16.80000 -1.84500 33.67100
H  16.21900 -0.45100 32.66800
H  16.31600 -0.66600 35.43400
H  16.23500 0.89200 34.55900
H  21.49200 -4.99400 29.76400
H  22.48100 -5.04700 28.38100
H  21.05500 -6.19000 28.49400
H  22.67400 -5.76200 26.11300
H  22.00900 -6.55400 24.71800
H  21.43500 -7.03400 26.29400
H  16.56300 -2.17500 23.45000
H  16.62900 0.83200 23.36100
H  18.56100 -1.89800 21.80900
H  19.16000 -0.65600 22.86700
H  17.90100 -0.21600 21.87700
H  14.76900 -0.80800 22.71200
H  14.38300 0.67900 23.53600
H  13.30700 -0.32300 25.00100
H  14.59500 -1.47400 25.52800
H  13.35000 -1.81600 24.30900
H  14.03800 3.25400 26.54900
H  14.98900 4.60400 27.14600
H  13.67300 4.02900 28.08500
H  15.43900 1.65900 32.18000
H  18.26500 4.34800 34.21800
H  16.76000 4.55100 35.23200
H  16.86200 5.41400 33.73900
Mg 45.47800 2.92500 47.42500
C  43.73700 5.87800 46.89800
C  42.65200 1.05900 47.05900
C  47.37000 -0.02500 46.87700
C  48.41800 4.77200 46.94100
N  43.46800 3.43700 46.93000
C  42.93600 4.71500 46.84400
C  41.39300 4.68100 46.65000
C  41.11700 3.17100 46.92100
C  42.44400 2.50400 47.04000
C  40.21800 3.02800 48.29100
C  40.97900 5.23600 45.27000
C  41.45100 4.42300 44.09600
H  42.07500 5.22100 42.92400
N  45.08100 0.82100 47.18600
C  43.82600 0.29100 47.02300
C  43.86700 -1.16800 46.80800
C  45.24100 -1.49700 46.97500
C  45.99800 -0.20800 47.01600
C  42.71100 -2.07900 46.52400
C  45.87000 -2.91700 46.93800
O  45.15500 -3.94100 46.84100
C  47.28200 -3.15800 47.21200
N  47.49400 2.46600 46.83700
C  48.03700 1.18500 46.81600
C  49.55200 1.17100 46.78200
C  49.88500 2.70300 46.69700
C  48.56200 3.34400 46.89800
C  50.16500 0.35700 48.02500
C  50.61500 3.19500 45.41400
C  51.88000 3.91100 45.65500
N  46.01200 4.91900 47.19100
C  47.22600 5.52200 46.94600
C  47.06000 6.91600 46.85000
C  45.71700 7.07600 47.00000
C  45.08900 5.83500 47.01600
C  48.21300 7.96500 46.73800
C  44.69100 8.14100 47.13300
O  44.71600 9.37200 47.18400
C  43.35600 7.38100 46.95100
C  42.39400 7.71400 48.09600
O  42.33000 7.23900 49.27500
O  41.45000 8.64700 47.66800
C  40.41400 8.91800 48.64000
H  41.70700 0.51200 47.04700
H  48.04400 -0.86700 46.70700
H  49.38700 5.27400 46.89200
H  41.09900 5.28400 47.50900
H  40.55600 2.80500 46.06100
H  39.66300 3.95600 48.43000
H  40.77600 2.77600 49.19300
H  39.43200 2.28100 48.18400
H  41.19000 6.30400 45.22200
H  39.89500 5.20700 45.16100
H  40.61500 3.80800 43.76500
H  42.21700 3.70200 44.38400
H  41.98000 -1.55700 45.90700
H  42.29600 -2.13700 47.53000
H  43.02200 -3.06600 46.18200
H  47.50400 -2.45300 48.01300
H  47.83200 -2.89600 46.30800
H  47.48200 -4.20700 47.43200
H  49.83600 0.70400 45.83900
H  50.55500 2.96300 47.51700
H  50.32400 -0.68700 47.75900
H  49.34300 0.35600 48.74200
H  51.12900 0.73300 48.36900
H  50.00100 3.97600 44.96500
H  50.71800 2.41800 44.65600
H  52.74600 3.25200 45.58500
H  51.92000 4.41300 46.62200
H  51.99400 4.71700 44.93100
H  47.86800 8.99800 46.68700
H  48.80100 7.70400 45.85800
H  48.91200 7.91000 47.57300
H  42.94600 7.69300 45.99000
H  40.73800 9.41700 49.55300
H  39.76600 8.08000 48.89800
H  39.65400 9.64300 48.34900

