158

Mg 36.13500 49.37400 26.22100
C  36.07200 47.65300 29.45300
C  35.04200 52.11200 27.92700
C  36.11700 50.75100 23.48300
C  36.88600 46.27600 24.83000
N  35.56300 49.82000 28.50700
C  35.60000 48.99900 29.57700
C  35.21900 49.76200 30.88200
C  34.87300 51.22700 30.28100
C  35.11700 51.04900 28.82600
C  33.45000 51.76000 30.52400
C  36.29300 49.74200 31.99700
C  35.89300 49.34200 33.43400
H  35.79800 50.50400 34.49200
N  35.53000 51.16400 25.69200
C  35.19400 52.18700 26.53400
C  35.06500 53.39800 25.78600
C  35.32800 53.04000 24.39900
C  35.66600 51.61900 24.47400
C  34.84500 54.77400 26.35000
C  35.40700 53.95200 23.18900
O  35.75000 53.52400 22.07900
C  34.92000 55.26700 23.25800
N  36.43800 48.60100 24.43600
C  36.38700 49.35000 23.43000
C  36.45300 48.66100 22.08100
C  36.71600 47.21600 22.52000
C  36.69100 47.36700 24.03700
C  35.18100 48.90800 21.28300
C  37.97600 46.58700 21.91100
C  37.68900 46.26000 20.35300
N  36.44500 47.34600 26.97100
C  36.80500 46.18100 26.21200
C  36.98900 45.01400 27.14600
C  36.83700 45.59500 28.44000
C  36.50500 46.99600 28.27900
C  37.35200 43.58500 26.75800
C  36.86400 45.27500 29.78900
O  37.08200 44.19900 30.40600
C  36.40200 46.60500 30.53100
C  35.21700 46.34200 31.34200
O  34.12500 45.94000 30.90600
O  35.54800 46.32000 32.67400
C  34.48000 45.79000 33.54100
H  34.60400 53.02500 28.33600
H  35.95100 51.21600 22.50900
H  36.98300 45.27400 24.40600
H  34.28900 49.28700 31.19500
H  35.59500 51.98400 30.58800
H  32.91500 51.27900 31.34300
H  32.82600 51.53900 29.65800
H  33.49100 52.81500 30.79500
H  36.61100 50.77600 32.13100
H  37.13800 49.08700 31.78700
H  36.74200 48.77300 33.81200
H  34.97300 48.75700 33.42900
H  34.11700 55.29400 25.72800
H  35.81400 55.27300 26.32100
H  34.51800 54.77700 27.39000
H  34.99600 55.72800 22.27300
H  35.56100 55.80800 23.95500
H  33.85500 55.31800 23.48300
H  37.22200 49.07100 21.42600
H  35.81600 46.61800 22.37800
H  34.42200 49.23000 21.99600
H  34.88500 47.95100 20.85400
H  35.28800 49.65900 20.50000
H  38.24000 45.66000 22.42100
H  38.76500 47.33500 21.83900
H  38.49800 46.84500 19.91500
H  36.72900 46.69900 20.08300
H  37.76500 45.20600 20.08500
H  37.71300 43.54000 25.73100
H  36.46200 42.99800 26.98500
H  38.16600 43.19300 27.36700
H  37.26500 46.95300 31.09800
H  34.08600 46.62900 34.11500
H  35.04800 45.20200 34.26200
H  33.59300 45.26100 33.19300
Mg -5.02000 25.46600 26.05400
C  -3.96700 26.98600 29.11100
C  -6.87100 23.19300 27.96200
C  -5.96400 24.07100 23.12700
C  -2.95200 27.58900 24.24300
N  -5.48000 25.24700 28.33500
C  -4.85500 25.94200 29.33400
C  -5.45400 25.43700 30.70100
C  -5.98000 24.03900 30.36100
C  -6.20100 24.15200 28.79900
C  -5.18600 22.73100 30.80500
C  -6.50800 26.47800 31.30700
C  -6.36000 26.92700 32.80400
H  -5.65600 25.83600 33.77500
N  -6.19900 23.90600 25.56900
C  -6.87200 23.09700 26.49300
C  -7.67800 22.22800 25.77700
C  -7.38100 22.32900 24.40400
C  -6.47400 23.43000 24.30000
C  -8.74700 21.31000 26.43700
C  -7.78200 21.52900 23.21900
O  -7.50100 21.74500 22.04400
C  -8.57500 20.27700 23.39300
N  -4.41500 25.67900 24.00200
C  -4.98900 25.03700 22.97700
C  -4.51200 25.51800 21.57000
C  -3.91500 26.84700 21.99500
C  -3.65200 26.63900 23.49300
C  -3.50700 24.45400 21.01100
C  -4.88500 28.03700 21.63400
C  -4.39000 29.11800 20.76000
N  -3.77400 26.91400 26.55300
C  -2.99300 27.71400 25.68900
C  -2.41900 28.75100 26.44200
C  -2.65500 28.46600 27.80100
C  -3.57900 27.41400 27.82300
C  -1.56200 29.86000 25.91200
C  -2.45700 28.79800 29.12600
O  -1.75900 29.69700 29.52800
C  -3.23500 27.89900 30.13900
C  -2.22700 27.18500 31.00800
O  -1.22700 26.61700 30.63300
O  -2.67500 27.28300 32.27700
C  -1.68800 26.72300 33.20900
H  -7.39200 22.36600 28.44900
H  -6.30300 23.67100 22.16900
H  -2.65600 28.43200 23.61500
H  -4.67200 25.24400 31.43600
H  -7.05000 23.96500 30.55700
H  -5.13900 21.98500 30.01200
H  -5.58800 22.27200 31.70700
H  -4.15600 22.91800 31.11000
H  -7.54700 26.26900 31.05200
H  -6.14800 27.41400 30.88000
H  -7.36600 27.08200 33.19300
H  -5.88300 27.89700 32.94200
H  -9.54000 21.13600 25.71000
H  -9.12600 21.78600 27.34100
H  -8.20500 20.39200 26.66400
H  -9.62400 20.40900 23.65500
H  -8.11000 19.76300 24.23400
H  -8.32100 19.54900 22.62200
H  -5.38000 25.65400 20.92600
H  -2.96700 27.07800 21.50900
H  -3.66500 24.45400 19.93300
H  -3.69200 23.47800 21.46100
H  -2.47900 24.77400 21.18200
H  -5.19400 28.45900 22.59100
H  -5.84600 27.68100 21.26400
H  -3.30500 29.13000 20.65900
H  -4.53500 30.04400 21.31600
H  -4.76900 29.23200 19.74500
H  -1.57600 29.90400 24.82300
H  -0.58100 29.84600 26.38700
H  -1.93800 30.85300 26.16000
H  -3.93700 28.45300 30.76200
H  -1.47400 25.72500 32.82500
H  -2.25400 26.59800 34.13200
H  -0.84900 27.39600 33.38400

