158

Mg 6.07500 55.70900 40.11200
C  5.57100 52.22900 39.89000
C  9.37700 55.10000 39.18200
C  6.59600 58.84200 40.03300
C  2.58200 56.14500 40.50100
N  7.30000 53.82800 39.31600
C  6.91700 52.55300 39.55300
C  7.97100 51.62000 39.26100
C  9.29000 52.45200 39.53500
C  8.66200 53.92500 39.35700
C  9.85500 52.34200 40.97100
C  7.94300 50.85400 37.80800
C  7.52400 51.65800 36.61200
H  6.94600 50.95400 35.41400
N  7.69800 56.81600 39.59700
C  8.92900 56.43300 39.24800
C  9.82200 57.54700 38.94600
C  9.07900 58.67300 39.22300
C  7.69500 58.14400 39.59800
C  11.26700 57.53500 38.46400
C  9.46700 60.17400 39.00700
O  10.62200 60.44800 38.90000
C  8.49100 61.43800 38.99400
N  4.65900 57.30500 39.77400
C  5.24300 58.48800 40.08500
C  4.07100 59.54700 40.26300
C  2.86400 58.55400 40.62100
C  3.36800 57.23000 40.18700
C  4.31800 60.57100 41.38200
C  1.52200 59.01000 40.02000
C  0.25600 59.06500 40.91800
N  4.35600 54.50800 40.15300
C  3.04400 54.83600 40.39500
C  2.31100 53.62700 40.51300
C  3.23700 52.57400 40.41900
C  4.51300 53.14700 40.19400
C  0.76600 53.49700 40.79600
C  3.33200 51.07900 40.38600
O  2.49100 50.23100 40.43300
C  4.91500 50.84100 40.15000
C  5.00000 49.95800 39.00900
O  4.73400 50.18200 37.80300
O  5.30000 48.63600 39.52000
C  5.47200 47.57300 38.50300
H  10.46100 54.98700 39.10200
H  6.78800 59.87400 40.33400
H  1.51000 56.20500 40.70300
H  7.89500 50.71300 39.86000
H  10.06100 52.18700 38.81100
H  10.93900 52.23600 40.94100
H  9.28900 51.51700 41.40500
H  9.62600 53.27600 41.48400
H  7.28000 49.99000 37.82700
H  8.97200 50.53900 37.63500
H  8.49200 52.02700 36.27200
H  6.88700 52.48700 36.92100
H  11.76700 57.89700 39.36200
H  11.53500 58.24700 37.68400
H  11.58100 56.49300 38.42000
H  8.93800 62.35000 38.59900
H  8.10300 61.60900 39.99800
H  7.67100 61.19200 38.31900
H  3.93600 60.00900 39.28500
H  2.75900 58.49600 41.70400
H  5.31700 60.47500 41.80600
H  3.65500 60.51600 42.24600
H  4.17700 61.57900 40.99200
H  1.39400 58.41300 39.11700
H  1.63000 60.02900 39.64600
H  -0.39500 58.32300 40.45700
H  -0.19600 60.04700 41.05400
H  0.52200 58.77100 41.93400
H  0.34000 52.78900 40.08500
H  0.29800 54.43500 40.49900
H  0.48200 53.06800 41.75700
H  5.40400 50.35600 40.99400
H  4.44200 47.21700 38.49400
H  6.08000 46.73800 38.84900
H  5.87300 47.86400 37.53200
Mg -1.20700 34.87000 27.47300
C  -2.89400 33.09800 29.95900
C  -0.05400 37.07500 29.81300
C  -0.12200 36.88100 24.97300
C  -2.52200 32.67300 25.06300
N  -1.57500 35.08900 29.71200
C  -2.17800 34.19500 30.52200
C  -2.06600 34.67000 32.00500
C  -1.30800 36.01300 31.82600
C  -0.87900 36.06000 30.38700
C  -2.12800 37.29400 32.31300
C  -1.32200 33.61900 32.91600
C  -1.92700 33.44700 34.31600
H  -0.97600 33.43300 35.46100
N  -0.07500 36.57800 27.43100
C  0.29500 37.32900 28.50200
C  1.10800 38.43300 28.04300
C  1.01400 38.51500 26.65100
C  0.30600 37.27100 26.28200
C  1.85300 39.36500 29.02400
C  1.70200 39.44300 25.62900
O  1.40300 39.44300 24.44400
C  2.96800 40.23700 25.98100
N  -1.27300 34.76400 25.35900
C  -0.82900 35.78000 24.49500
C  -1.34300 35.62600 23.10900
C  -1.77700 34.13900 23.16000
C  -1.89200 33.85000 24.60100
C  -2.56300 36.57400 22.87400
C  -0.98000 33.12900 22.31800
C  0.31700 32.55800 22.82800
N  -2.45900 33.27100 27.42600
C  -2.82400 32.40100 26.40700
C  -3.71900 31.41000 26.92200
C  -3.70400 31.51300 28.31900
C  -3.02000 32.74700 28.60100
C  -4.38500 30.35700 25.98800
C  -4.09300 30.94400 29.62200
O  -4.73100 29.89300 29.85100
C  -3.66800 31.95700 30.76900
C  -4.82400 32.41300 31.51000
O  -5.76600 33.09200 31.08500
O  -4.67800 31.99700 32.81100
C  -5.81500 32.42300 33.66200
H  0.30100 37.73100 30.61100
H  0.14700 37.59200 24.19000
H  -2.77900 31.98100 24.25900
H  -3.09800 34.77600 32.34000
H  -0.33600 36.04800 32.31800
H  -1.40900 37.99800 32.73200
H  -2.83400 37.05900 33.10900
H  -2.72400 37.72200 31.50700
H  -0.40300 34.14500 33.17400
H  -1.26900 32.68300 32.36000
H  -2.39200 32.46100 34.30400
H  -2.81500 34.07600 34.37500
H  2.93200 39.21700 29.07900
H  1.54400 39.08500 30.03100
H  1.58500 40.37100 28.70100
H  2.71500 40.90300 26.80500
H  3.32000 40.92300 25.21100
H  3.86500 39.71300 26.31300
H  -0.59800 35.85300 22.34700
H  -2.80800 34.01600 22.82600
H  -2.50000 37.42000 23.55900
H  -3.55300 36.11900 22.87900
H  -2.59600 37.03700 21.88800
H  -0.77300 33.55100 21.33400
H  -1.66300 32.29800 22.14300
H  0.76700 33.18700 23.59600
H  0.94000 32.47100 21.93800
H  0.06700 31.56300 23.19600
H  -4.50400 29.43600 26.55900
H  -3.76900 30.04300 25.14500
H  -5.32500 30.65800 25.52500
H  -2.93400 31.41500 31.36500
H  -6.58400 33.08200 33.26000
H  -5.37800 32.73200 34.61200
H  -6.33900 31.54300 34.03600

