158

Mg 24.46400 0.69500 29.45200
C  26.53200 1.03800 32.08600
C  21.84700 1.19200 31.53400
C  22.30500 0.18800 26.79100
C  27.15200 0.42600 27.26300
N  24.28100 1.22200 31.54800
C  25.31500 1.36400 32.48900
C  24.80700 1.68800 33.88300
C  23.25300 1.51500 33.66200
C  23.11300 1.38600 32.14100
C  22.66000 0.33100 34.38400
C  25.35700 2.97400 34.52800
C  26.14100 2.74900 35.83400
H  25.98700 3.60400 37.11500
N  22.44400 0.53700 29.23500
C  21.54500 0.76100 30.26000
C  20.21600 0.38200 29.81900
C  20.31900 0.11800 28.45300
C  21.71400 0.27900 28.08600
C  19.01200 0.48600 30.77800
C  19.25000 -0.27100 27.49000
O  19.46000 -0.68600 26.38700
C  17.82300 -0.15900 27.91500
N  24.71000 0.36500 27.35400
C  23.65200 0.36700 26.46700
C  24.23300 0.53800 24.97700
C  25.82500 0.56500 25.20600
C  25.90500 0.37800 26.68000
C  23.68700 -0.56000 23.99400
C  26.46500 1.96300 24.75300
C  25.67800 3.30000 25.06300
N  26.41400 0.64100 29.56500
C  27.41300 0.51100 28.65000
C  28.69900 0.42100 29.23400
C  28.42700 0.52600 30.59300
C  27.02600 0.77200 30.77800
C  29.97700 0.09100 28.33800
C  29.08400 0.47100 31.90500
O  30.17400 0.36200 32.29600
C  27.88100 0.78800 32.88300
C  27.70600 -0.29300 33.85300
O  27.11700 -1.35100 33.67700
O  28.26600 0.19500 35.02300
C  28.18000 -0.70600 36.19800
H  21.06600 1.47800 32.24200
H  21.66300 0.23100 25.90800
H  28.00300 0.47600 26.58100
H  25.24700 0.83100 34.39300
H  22.81000 2.40800 34.10400
H  22.07300 -0.23700 33.66200
H  21.89900 0.69600 35.07300
H  23.36000 -0.40300 34.78300
H  24.52000 3.66300 34.63800
H  26.01700 3.41400 33.78000
H  27.17000 2.88300 35.50200
H  26.07700 1.70100 36.12700
H  18.14000 -0.11000 30.50800
H  18.79200 1.55300 30.82700
H  19.31000 0.12700 31.76300
H  17.25400 -0.15800 26.98500
H  17.50500 0.84400 28.19900
H  17.65600 -1.00400 28.58300
H  23.91700 1.47200 24.51300
H  26.45100 -0.17800 24.71200
H  23.05900 -1.30600 24.48000
H  24.51800 -1.09800 23.53700
H  23.22700 0.00200 23.18000
H  26.47800 1.93400 23.66300
H  27.53300 2.04100 24.95600
H  26.45000 4.07000 25.06500
H  25.08500 3.41100 25.97100
H  25.12100 3.54100 24.15800
H  30.83100 0.19000 29.00900
H  30.04400 0.79100 27.50500
H  29.87300 -0.94000 28.00100
H  28.21200 1.68600 33.40500
H  27.33500 -0.29000 36.74800
H  29.06900 -0.79500 36.82400
H  27.95900 -1.70900 35.83400
Mg 7.07100 54.05700 39.62300
C  6.40000 50.60900 39.53800
C  10.27600 53.42800 38.55200
C  7.63800 57.36700 39.42600
C  3.68200 54.61200 40.02300
N  8.10500 52.21100 39.08700
C  7.71300 50.89500 39.14100
C  8.82100 49.87500 38.81700
C  10.13500 50.86800 38.81100
C  9.47300 52.23300 38.80700
C  10.94300 50.74300 40.06600
C  8.72800 49.15800 37.39400
C  8.35700 50.02400 36.19400
H  7.20400 49.52000 35.26500
N  8.72300 55.25800 38.95200
C  10.00800 54.80700 38.64000
C  10.92400 55.90900 38.44400
C  10.20900 57.05900 38.83400
C  8.79500 56.63100 39.03600
C  12.37100 55.73700 38.08000
C  10.71500 58.43700 39.03000
O  11.92200 58.73100 38.87500
C  9.80600 59.58400 39.21900
N  5.70400 55.74800 39.53300
C  6.23400 57.03100 39.50900
C  5.14100 58.05600 39.73700
C  3.79600 57.16700 39.95800
C  4.39000 55.77000 39.77900
C  5.39100 59.14200 40.79900
C  2.60400 57.44500 38.99900
C  1.52900 58.33100 39.66100
N  5.36300 52.85300 39.80900
C  4.07100 53.23600 40.00900
C  3.23500 52.06300 40.23000
C  4.14600 51.04400 40.14600
C  5.43000 51.55000 39.85500
C  1.68800 52.06700 40.44200
C  4.21700 49.56600 40.22400
O  3.37400 48.75000 40.65500
C  5.69500 49.21500 39.83100
C  5.72300 48.32700 38.65800
O  5.10700 48.46800 37.58700
O  6.36700 47.23200 39.04300
C  6.25900 46.07400 38.10700
H  11.32200 53.16000 38.39100
H  7.75200 58.44400 39.56500
H  2.62500 54.72500 40.27400
H  8.74500 49.18700 39.65900
H  10.64500 50.71600 37.86000
H  11.18800 51.73600 40.44200
H  11.86400 50.22200 39.80500
H  10.41000 50.18500 40.83500
H  8.13900 48.24300 37.32800
H  9.77300 48.86800 37.28900
H  9.18100 50.19400 35.50100
H  7.94300 50.96200 36.56500
H  12.91600 56.19400 38.90600
H  12.65700 56.22200 37.14700
H  12.68600 54.69600 38.15000
H  10.43600 60.46300 39.08000
H  9.47400 59.55500 40.25700
H  9.09500 59.56100 38.39400
H  5.15200 58.57400 38.77800
H  3.43600 57.14500 40.98600
H  6.42000 59.16100 41.15700
H  4.70700 59.13700 41.64800
H  5.26200 60.08200 40.26400
H  2.14800 56.48800 38.74400
H  2.98200 58.10100 38.21600
H  0.55800 57.83500 39.68900
H  1.34000 59.09800 38.91000
H  1.87400 58.81500 40.57400
H  1.29000 53.05900 40.65600
H  1.47900 51.46800 41.32900
H  1.24100 51.68100 39.52600
H  5.99000 48.73700 40.76600
H  6.96600 46.18600 37.28400
H  5.23400 45.89900 37.77900
H  6.57400 45.20400 38.68400

