158

Mg -11.74300 38.25600 42.33500
C  -9.53000 35.61900 41.78700
C  -9.23100 40.34600 41.41100
C  -14.02300 40.66700 42.21500
C  -14.25700 35.89100 42.86300
N  -9.61600 37.99200 41.71000
C  -8.91100 36.82200 41.50600
C  -7.48900 37.08800 40.94400
C  -7.28900 38.56900 41.19400
C  -8.78500 39.06000 41.50400
C  -6.27200 39.17200 42.24600
C  -7.27800 36.55900 39.42200
C  -6.32700 35.30400 39.24900
H  -6.54500 34.35600 38.09800
N  -11.67200 40.25800 41.82900
C  -10.53400 40.95600 41.62600
C  -10.89200 42.37900 41.53200
C  -12.29300 42.51500 41.64900
C  -12.73000 41.12800 41.84800
C  -9.87900 43.48600 41.23200
C  -13.11200 43.85700 41.54500
O  -12.55500 44.97200 41.34100
C  -14.55800 43.79600 41.59500
N  -13.80600 38.30600 42.48800
C  -14.47400 39.42400 42.48800
C  -16.06000 39.17700 42.60700
C  -16.00700 37.64700 42.98700
C  -14.63300 37.27500 42.74000
C  -16.61300 40.07600 43.77700
C  -17.14900 36.85800 42.32300
C  -16.81900 36.23700 40.92100
N  -11.94500 36.14500 42.42400
C  -13.02000 35.31200 42.53300
C  -12.61900 33.92200 42.57300
C  -11.22400 33.98300 42.27800
C  -10.89500 35.37200 42.17800
C  -13.57800 32.80700 42.75500
C  -9.98500 33.26200 41.93900
O  -9.89600 32.02500 41.75300
C  -8.86000 34.24200 41.73900
C  -7.71200 34.13800 42.71200
O  -7.70600 34.75000 43.79700
O  -6.72000 33.39000 42.19600
C  -5.46200 33.22300 42.92100
H  -8.40100 41.05300 41.35400
H  -14.80800 41.42300 42.27100
H  -14.97500 35.16300 43.24600
H  -6.82600 36.59700 41.65500
H  -6.94400 38.95900 40.23700
H  -5.74800 38.43600 42.85500
H  -6.80000 39.85500 42.91300
H  -5.51200 39.74300 41.71200
H  -6.81200 37.31100 38.78600
H  -8.21100 36.28500 38.93000
H  -6.15300 34.78400 40.19100
H  -5.35700 35.78000 39.11100
H  -9.98900 43.66800 40.16300
H  -8.92600 43.07100 41.56000
H  -10.04900 44.35900 41.86200
H  -15.02000 43.04500 40.95500
H  -14.92300 44.78300 41.31200
H  -14.88200 43.70800 42.63200
H  -16.49600 39.36200 41.62600
H  -16.10100 37.56800 44.07000
H  -15.81500 40.64400 44.25500
H  -17.12100 39.59100 44.61200
H  -17.39400 40.74800 43.42100
H  -18.03500 37.49200 42.30000
H  -17.28300 36.01700 43.00300
H  -17.65900 36.36900 40.23900
H  -16.68700 35.16200 41.04500
H  -16.01500 36.72100 40.36700
H  -13.92600 32.70900 43.78300
H  -13.05300 31.90000 42.45700
H  -14.39700 32.94400 42.04800
H  -8.51600 34.01000 40.73000
H  -4.70400 32.95700 42.18400
H  -5.41900 32.55200 43.77800
H  -5.13400 34.19400 43.29300
Mg -1.30600 33.88900 25.99000
C  -3.18700 32.15900 28.61300
C  0.01400 35.99500 28.24900
C  -0.08600 35.48300 23.50600
C  -3.12600 31.86600 23.74300
N  -1.69800 34.06500 28.10200
C  -2.40600 33.27100 29.00700
C  -2.06800 33.71300 30.43600
C  -1.16900 35.01000 30.24000
C  -0.86800 34.99700 28.79700
C  -1.92900 36.30700 30.79700
C  -1.36700 32.54100 31.26300
C  -2.01400 32.29800 32.70700
H  -1.10900 32.25300 33.99800
N  -0.16600 35.54300 25.83500
C  0.29300 36.33400 26.85100
C  1.21800 37.28300 26.39400
C  1.21300 37.12500 25.02100
C  0.29400 36.07000 24.72600
C  2.07400 38.16300 27.32000
C  2.14100 37.89200 24.03200
O  2.11900 37.76600 22.78400
C  3.13000 38.88900 24.51400
N  -1.81300 33.91800 23.80600
C  -1.00800 34.57100 22.99900
C  -1.05600 34.08300 21.57400
C  -1.67100 32.67700 21.73600
C  -2.27400 32.79500 23.17000
C  -1.66100 34.87000 20.48000
C  -0.60500 31.52100 21.62500
C  -1.15800 30.35000 20.80100
N  -2.82300 32.32900 26.09500
C  -3.47100 31.62300 25.07600
C  -4.42100 30.67000 25.60600
C  -4.21100 30.79500 26.99700
C  -3.35800 31.85100 27.23100
C  -5.32300 29.76400 24.84300
C  -4.67000 30.25300 28.25600
O  -5.39300 29.28300 28.44400
C  -4.03600 31.13500 29.32200
C  -5.20600 31.73800 30.02400
O  -5.74600 32.78100 29.75200
O  -5.38700 31.08200 31.21200
C  -6.20300 31.80600 32.19300
H  0.54600 36.59700 28.98900
H  0.28900 36.04800 22.65000
H  -3.68700 31.23100 23.05400
H  -3.07100 33.75600 30.86000
H  -0.25700 34.91300 30.83000
H  -1.40700 36.84400 31.58900
H  -2.87000 35.87300 31.13500
H  -2.14700 36.93900 29.93700
H  -0.35000 32.78700 31.56700
H  -1.45900 31.70300 30.57200
H  -2.64900 31.41300 32.76000
H  -2.74600 33.10200 32.78400
H  1.86300 38.09100 28.38700
H  2.04300 39.22200 27.06800
H  3.12200 37.90000 27.17800
H  2.57200 39.63600 25.07800
H  3.80200 39.38300 23.81100
H  3.84400 38.47100 25.22400
H  0.00900 34.04800 21.34500
H  -2.49900 32.43800 21.06900
H  -2.63100 34.52400 20.12300
H  -0.96000 34.97000 19.65100
H  -1.83900 35.83000 20.96400
H  -0.31500 31.17000 22.61500
H  0.26400 32.00800 21.18100
H  -0.47700 30.36200 19.95000
H  -2.13900 30.39200 20.32700
H  -1.12700 29.36500 21.26800
H  -6.20600 29.51200 25.43100
H  -4.78200 28.89000 24.48000
H  -5.62400 30.40000 24.01000
H  -3.52400 30.49300 30.03800
H  -5.55500 32.41000 32.83000
H  -6.75100 31.15600 32.87500
H  -6.78800 32.58200 31.70000

