158

Mg 44.04400 3.50000 47.96600
C  41.71400 5.97900 47.15500
C  41.56700 1.15700 47.84200
C  46.42800 1.14200 47.80300
C  46.53500 6.02000 47.56900
N  41.99000 3.61200 47.48900
C  41.22800 4.71200 47.15600
C  39.74100 4.27300 46.85100
C  39.70300 2.95200 47.65200
C  41.19400 2.49600 47.72100
C  39.03300 2.94300 49.10300
C  39.34400 4.24300 45.37100
C  38.16400 4.98500 44.73700
H  38.47800 5.62500 43.36300
N  43.95800 1.47400 47.83900
C  42.89300 0.68200 47.90200
C  43.27900 -0.75300 47.77200
C  44.72900 -0.75500 47.66100
C  45.09800 0.68100 47.79900
C  42.28000 -1.86400 47.68600
C  45.46300 -2.03300 47.53800
O  44.89200 -3.12900 47.60700
C  46.93100 -2.07900 47.49000
N  46.18000 3.52000 47.66400
C  47.00300 2.45900 47.71500
C  48.45400 2.82100 47.40700
C  48.41900 4.40000 47.47200
C  46.92700 4.67200 47.51200
C  49.62700 2.20300 48.17600
C  49.27900 5.25800 46.39200
C  50.19400 4.56100 45.38500
N  44.10700 5.59400 47.57100
C  45.22500 6.47100 47.42200
C  44.78000 7.88800 47.22400
C  43.40500 7.73100 47.14800
C  43.05100 6.33500 47.31200
C  45.64300 9.14300 47.03300
C  42.09200 8.34000 46.95600
O  41.85800 9.49600 46.71000
C  40.98800 7.26400 46.92900
C  40.11400 7.52600 48.17400
O  40.22800 6.97900 49.28300
O  39.02400 8.23500 47.72500
C  38.04100 8.27000 48.76600
H  40.79300 0.39600 47.71600
H  47.26600 0.46100 47.64800
H  47.31400 6.78400 47.60900
H  39.11800 4.92600 47.46300
H  39.15100 2.16700 47.13600
H  39.70000 2.66400 49.91800
H  38.30300 2.13400 49.08100
H  38.64400 3.93700 49.32400
H  39.12500 3.20100 45.13900
H  40.26000 4.49300 44.83700
H  37.88700 5.76600 45.44500
H  37.36100 4.24900 44.69900
H  41.25000 -1.50800 47.66400
H  42.34100 -2.46200 48.59500
H  42.43400 -2.57800 46.87600
H  47.35600 -1.44700 46.71000
H  47.23700 -3.12100 47.39700
H  47.12000 -1.66000 48.47800
H  48.76500 2.54300 46.40000
H  48.76300 4.73700 48.45000
H  49.23000 1.76300 49.09100
H  50.28700 2.94500 48.62600
H  50.21600 1.59300 47.49200
H  49.91600 5.83600 47.06100
H  48.71600 5.95700 45.77400
H  50.46700 3.56600 45.73500
H  51.05100 5.23200 45.32600
H  49.68900 4.57300 44.41900
H  46.10900 9.59400 47.90900
H  45.08100 9.96500 46.58900
H  46.46600 8.89500 46.36300
H  40.35600 7.23200 46.04100
H  37.90600 7.24600 49.11400
H  37.08400 8.54700 48.32300
H  38.21100 8.95400 49.59700
Mg -9.54100 40.67700 42.73300
C  -8.59500 37.39400 41.63700
C  -6.76600 41.95400 41.02500
C  -10.81200 43.71900 43.07300
C  -12.54100 39.23500 43.78400
N  -7.98400 39.78300 41.39900
C  -7.79700 38.38600 41.12200
C  -6.41800 38.19700 40.43900
C  -5.78800 39.63500 40.50500
C  -6.93900 40.54800 40.98600
C  -4.43400 39.82900 41.30200
C  -6.46400 37.63300 39.03600
C  -5.51800 36.37800 38.74600
H  -4.38400 36.61100 37.70900
N  -8.92200 42.55100 42.16400
C  -7.74500 42.81900 41.51700
C  -7.59100 44.27500 41.38500
C  -8.71100 44.87800 42.04200
C  -9.56000 43.76800 42.48900
C  -6.38400 44.98300 40.72500
C  -9.01400 46.46400 42.17900
O  -8.27800 47.32000 41.73000
C  -10.26000 46.96400 42.89100
N  -11.49200 41.40700 43.40900
C  -11.65500 42.74700 43.47800
C  -13.20000 42.97700 43.73600
C  -13.77000 41.52400 44.00200
C  -12.52300 40.65700 43.81600
C  -13.40800 44.00500 44.87500
C  -15.05700 41.12400 43.16900
C  -15.78300 39.85900 43.62300
N  -10.45900 38.70800 42.69200
C  -11.59800 38.34400 43.23500
C  -11.69100 36.92600 43.24800
C  -10.50000 36.53300 42.66100
C  -9.78600 37.63700 42.34800
C  -12.87100 36.12600 43.60800
C  -9.78200 35.37200 42.23700
O  -10.01000 34.15200 42.33200
C  -8.53500 35.89200 41.55100
C  -7.32300 35.23400 42.18800
O  -7.06200 35.20500 43.34300
O  -6.71600 34.44800 41.25300
C  -5.63800 33.51300 41.77900
H  -5.86600 42.34400 40.54400
H  -11.26700 44.70800 43.16500
H  -13.44000 38.76100 44.18400
H  -5.88200 37.53800 41.12100
H  -5.57900 39.99100 39.49600
H  -3.89000 38.89000 41.41200
H  -4.75000 40.16000 42.29100
H  -3.83100 40.66100 40.93800
H  -6.14100 38.34400 38.27600
H  -7.47400 37.37700 38.71600
H  -6.11500 35.52600 38.41900
H  -5.06300 36.03500 39.67600
H  -6.67600 45.22600 39.70300
H  -5.54700 44.29300 40.83300
H  -6.10100 45.87200 41.28800
H  -10.08800 48.02200 43.08800
H  -10.30500 46.44900 43.85100
H  -11.15300 46.84100 42.27700
H  -13.70700 43.35100 42.84600
H  -13.92600 41.41900 45.07600
H  -12.47900 44.04300 45.44400
H  -14.26700 43.73200 45.48700
H  -13.46700 45.01900 44.47800
H  -14.79600 40.98400 42.12100
H  -15.82800 41.89000 43.24600
H  -15.40800 39.64800 44.62400
H  -15.73100 38.97400 42.98900
H  -16.82400 40.17100 43.71000
H  -13.50000 36.68200 44.30300
H  -12.65600 35.20100 44.14400
H  -13.34700 35.84800 42.66700
H  -8.54400 35.74400 40.47100
H  -5.92700 32.99300 42.69300
H  -4.67500 34.00200 41.92100
H  -5.36600 32.79000 41.01100

