158

Mg 46.86800 24.34300 27.97400
C  47.45700 26.88600 30.33000
C  46.27900 22.17100 30.36500
C  46.67600 22.15300 25.55800
C  47.91000 26.80300 25.51800
N  46.99200 24.51500 30.11000
C  47.09400 25.63400 30.88700
C  46.70700 25.33700 32.35500
C  46.62200 23.75900 32.26500
C  46.63500 23.44900 30.82200
C  47.71400 23.02700 33.13000
C  45.42300 25.98000 32.89300
C  45.03500 25.51500 34.31100
H  44.80900 26.60500 35.40000
N  46.51600 22.36300 27.97100
C  46.12100 21.62400 29.02800
C  45.96200 20.25100 28.60800
C  46.04000 20.24200 27.15700
C  46.49000 21.60500 26.84900
C  45.54800 19.12900 29.55600
C  45.73800 19.06600 26.22800
O  45.71500 19.18400 24.97400
C  45.37900 17.65600 26.78000
N  47.26100 24.45400 25.86900
C  47.08400 23.34500 25.09100
C  47.34700 23.66100 23.62700
C  47.61900 25.16100 23.57700
C  47.52100 25.51000 25.08100
C  48.69500 22.95200 23.15000
C  46.59000 25.99800 22.68400
C  45.35800 26.56200 23.39200
N  47.47900 26.42300 27.86400
C  47.89400 27.23200 26.79100
C  48.28500 28.53100 27.25100
C  48.15800 28.48500 28.63500
C  47.66700 27.21500 28.94200
C  48.84500 29.52900 26.34600
C  48.39300 29.12100 29.94300
O  48.92300 30.19100 30.10200
C  47.69200 28.21800 31.05600
C  48.47200 28.10200 32.32600
O  49.53400 27.45600 32.51200
O  47.75400 28.70900 33.36000
C  48.45200 28.57800 34.63500
H  45.99000 21.40100 31.08400
H  46.47300 21.48800 24.71600
H  48.18800 27.37300 24.62900
H  47.60300 25.67800 32.87400
H  45.61600 23.47100 32.57100
H  47.43900 22.88500 34.17400
H  48.56300 23.70700 33.20400
H  48.10800 22.10300 32.70700
H  44.51500 25.77800 32.32600
H  45.53400 27.06000 32.80100
H  45.78700 24.85300 34.74200
H  44.12200 24.92500 34.23400
H  44.62300 18.70300 29.16600
H  45.49000 19.48300 30.58500
H  46.38400 18.42900 29.54600
H  46.04100 17.39200 27.60500
H  45.51800 16.93700 25.97200
H  44.31400 17.72300 27.00100
H  46.57100 23.21400 23.00600
H  48.60400 25.47800 23.23600
H  48.95900 22.10300 23.78200
H  49.51600 23.66500 23.08300
H  48.51500 22.48200 22.18400
H  46.16700 25.29800 21.96400
H  47.16200 26.80600 22.22800
H  45.42600 26.30500 24.44900
H  44.40500 26.12400 23.09400
H  45.40800 27.64800 23.31100
H  48.69600 30.50400 26.81000
H  48.25500 29.51800 25.43000
H  49.90800 29.37200 26.16100
H  46.69200 28.55100 31.33500
H  48.23700 29.46300 35.23300
H  49.54100 28.61000 34.66800
H  48.11300 27.70600 35.19400
Mg -10.28300 39.37000 42.31000
C  -9.07100 36.09400 41.64200
C  -7.37200 40.62100 40.75600
C  -11.74800 42.30000 42.25900
C  -13.34500 37.89100 43.09500
N  -8.54300 38.44400 41.20800
C  -8.21700 37.10000 41.10300
C  -6.92900 36.87700 40.40800
C  -6.24900 38.19600 40.59600
C  -7.43900 39.18300 40.90800
C  -5.23200 38.29000 41.75200
C  -7.05500 36.36400 38.96000
C  -6.08800 35.26900 38.50300
H  -5.10100 35.50800 37.39000
N  -9.60000 41.24900 41.70800
C  -8.40700 41.57400 40.99500
C  -8.37000 42.96500 40.57900
C  -9.60000 43.50400 41.09000
C  -10.36700 42.33000 41.75200
C  -7.26000 43.66300 39.73700
C  -10.03000 44.94700 41.06600
O  -9.20200 45.74600 40.72600
C  -11.34000 45.41000 41.39400
N  -12.29100 39.99700 42.67500
C  -12.61100 41.27400 42.65200
C  -14.11000 41.51200 42.86600
C  -14.65900 40.03900 43.24600
C  -13.32700 39.31100 43.09600
C  -14.34100 42.67900 43.96800
C  -15.77000 39.47000 42.27900
C  -16.72300 38.45300 42.83800
N  -11.04200 37.42000 42.55800
C  -12.30900 36.96800 42.85800
C  -12.29400 35.54000 43.07900
C  -11.03000 35.18900 42.61300
C  -10.33700 36.34000 42.32500
C  -13.38900 34.66600 43.43100
C  -10.12900 34.05300 42.37800
O  -10.23900 32.88200 42.59100
C  -8.89200 34.64400 41.71300
C  -7.73700 34.20300 42.52500
O  -7.57900 34.39600 43.75100
O  -6.81800 33.48200 41.73600
C  -5.57100 33.08300 42.37200
H  -6.46200 41.05400 40.33500
H  -12.36400 43.20100 42.26700
H  -14.27500 37.50600 43.51900
H  -6.40200 36.12100 40.99100
H  -5.73800 38.40000 39.65500
H  -5.25400 37.32100 42.25300
H  -5.60400 39.03900 42.45100
H  -4.20400 38.41000 41.40900
H  -6.87400 37.22000 38.31000
H  -8.00600 35.88200 38.73000
H  -6.73500 34.46700 38.14900
H  -5.64800 34.76500 39.36400
H  -7.83000 44.13300 38.93500
H  -6.47500 43.00100 39.37200
H  -6.81700 44.51500 40.25300
H  -12.12700 44.86000 40.87800
H  -11.50200 46.47700 41.23500
H  -11.33600 45.26500 42.47400
H  -14.46000 41.76000 41.86400
H  -14.94400 40.15500 44.29100
H  -13.39400 43.05000 44.35800
H  -14.80200 42.33200 44.89300
H  -14.87400 43.55400 43.59500
H  -15.34000 38.97700 41.40700
H  -16.41000 40.27500 41.91700
H  -17.01400 37.69600 42.11000
H  -17.68400 38.86600 43.14300
H  -16.37300 37.87800 43.69500
H  -14.01100 35.19100 44.15600
H  -13.11500 33.69700 43.84600
H  -13.87400 34.43800 42.48100
H  -8.81200 34.22100 40.71100
H  -5.22600 32.33700 41.65600
H  -5.62800 32.63100 43.36100
H  -4.82700 33.87600 42.29500

