158

Mg 8.68400 3.39100 27.33100
C  10.24100 1.96200 30.11100
C  7.14200 5.65100 29.52700
C  6.67700 4.58400 24.74400
C  9.86900 0.88900 25.31900
N  8.54500 3.60700 29.61600
C  9.42400 3.02100 30.53400
C  9.17800 3.57200 31.92600
C  8.13500 4.78700 31.73400
C  7.92000 4.68700 30.15600
C  6.84500 4.70400 32.67300
C  10.53200 4.08100 32.56800
C  10.36000 4.98100 33.80200
H  11.19700 4.54700 34.99900
N  7.22000 4.97100 27.13400
C  6.80900 5.85600 28.16100
C  5.90400 6.83300 27.58800
C  5.78200 6.54400 26.18400
C  6.60500 5.35100 25.92600
C  5.24800 7.95600 28.39000
C  4.86000 7.21100 25.18200
O  4.47200 6.62200 24.17400
C  4.16200 8.47900 25.42600
N  8.30600 2.87100 25.32000
C  7.46400 3.49600 24.42000
C  7.61200 2.94700 22.97500
C  8.69700 1.81400 23.21800
C  8.94000 1.76900 24.74500
C  6.20000 2.49900 22.39300
C  10.06100 2.03600 22.43100
C  10.24000 1.18400 21.23200
N  9.78300 1.76200 27.51600
C  10.31400 0.88800 26.61500
C  11.37700 0.10000 27.16400
C  11.31000 0.45400 28.54000
C  10.31800 1.44800 28.72100
C  12.21000 -0.93200 26.55200
C  11.93200 0.13900 29.80500
O  12.77700 -0.75000 30.11800
C  11.29600 1.14600 30.85500
C  10.66900 0.55300 32.05000
O  9.57300 -0.01600 32.00500
O  11.38900 0.86600 33.16900
C  10.76000 0.60500 34.48200
H  6.80400 6.35200 30.29400
H  6.15000 4.88500 23.83600
H  10.39200 0.25900 24.59700
H  8.69500 2.71500 32.39500
H  8.60700 5.74700 31.94100
H  7.22300 4.18200 33.55300
H  6.13900 4.03400 32.18200
H  6.48300 5.68400 32.98200
H  11.10400 4.57100 31.78000
H  10.98000 3.12900 32.85200
H  9.36500 5.07000 34.23800
H  10.66800 5.99200 33.53700
H  4.17300 7.78600 28.34000
H  5.48800 8.95700 28.03100
H  5.64500 7.73200 29.38000
H  4.74100 9.26000 25.91900
H  3.39900 8.09100 26.10100
H  3.69300 8.98900 24.58500
H  8.05400 3.73800 22.36900
H  8.31100 0.81200 23.02900
H  6.21500 1.70200 21.65000
H  5.78400 3.40400 21.95300
H  5.61200 2.10700 23.22300
H  10.94500 1.86600 23.04600
H  10.17400 3.08800 22.16700
H  11.19300 0.67400 21.37600
H  10.42900 1.83100 20.37500
H  9.44700 0.44800 21.10000
H  13.14400 -1.20800 27.04100
H  12.51400 -0.62700 25.55000
H  11.47300 -1.73500 26.59100
H  12.11000 1.82900 31.09700
H  9.72600 0.29800 34.32600
H  10.80600 1.52500 35.06500
H  11.35700 -0.13600 35.01300
Mg 35.84400 1.66300 29.80300
C  33.28100 2.86100 31.88600
C  37.95500 1.63300 32.51100
C  38.24800 0.74200 27.66600
C  33.49700 1.78500 27.03600
N  35.63100 2.29500 31.93900
C  34.45800 2.48900 32.61700
C  34.58100 2.19900 34.12800
C  36.08000 2.09600 34.33200
C  36.63400 2.04800 32.86100
C  36.74500 3.06300 35.29500
C  33.83000 0.92300 34.61600
C  33.28800 0.95900 36.13200
H  33.83800 2.02700 37.09600
N  37.87600 1.20800 30.07500
C  38.51900 1.18500 31.27600
C  39.84800 0.81900 30.97500
C  39.98600 0.56500 29.60900
C  38.71600 0.84400 29.01900
C  40.94600 0.74300 32.07300
C  41.16300 0.16200 28.84400
O  41.04800 -0.27100 27.69800
C  42.52300 0.05800 29.46100
N  35.88200 1.35400 27.65500
C  37.05200 1.00800 27.03000
C  36.83600 0.88500 25.52700
C  35.29400 1.05200 25.31800
C  34.81600 1.41200 26.71300
C  37.63700 2.01500 24.70000
C  34.51800 -0.14000 24.75300
C  34.17900 -1.13400 25.78400
N  33.79900 2.25000 29.38700
C  33.03500 2.26700 28.24400
C  31.73800 2.72600 28.65200
C  31.78400 2.99100 30.02200
C  33.10000 2.70300 30.46200
C  30.55500 2.80100 27.67700
C  30.95800 3.36000 31.21800
O  29.80600 3.72600 31.27100
C  31.94300 3.17000 32.47400
C  31.87500 4.36300 33.43500
O  31.91200 5.54200 33.15500
O  31.54600 3.90300 34.68900
C  31.12200 4.81900 35.70900
H  38.58300 1.42400 33.38000
H  39.01000 0.50600 26.91900
H  32.77600 1.79700 26.21700
H  34.22500 3.09700 34.63300
H  36.31700 1.09400 34.69000
H  37.40100 2.61300 36.04100
H  35.96200 3.67300 35.74500
H  37.49400 3.75500 34.91100
H  34.49600 0.06200 34.55500
H  32.92200 0.77300 34.03200
H  33.63400 -0.00300 36.50900
H  32.20400 0.85000 36.10400
H  41.29600 -0.24200 32.38300
H  40.58500 1.24200 32.97300
H  41.76600 1.31000 31.63100
H  42.80300 0.96300 30.00000
H  43.26000 -0.23200 28.71200
H  42.45600 -0.76800 30.16900
H  37.16700 -0.06800 25.11400
H  35.06700 1.88900 24.65700
H  38.51300 1.78700 24.09400
H  38.06100 2.71100 25.42500
H  36.91000 2.54400 24.08400
H  35.05300 -0.47400 23.86400
H  33.57900 0.29600 24.41200
H  34.64600 -2.04400 25.41000
H  33.10900 -1.21600 25.97100
H  34.79800 -0.98800 26.67000
H  30.34600 1.83800 27.21000
H  30.89000 3.41900 26.84400
H  29.68100 3.25300 28.14600
H  31.44600 2.37200 33.02500
H  30.66500 4.38200 36.59700
H  30.37800 5.38700 35.15100
H  32.02300 5.34700 36.02000

