158

Mg 9.08100 3.76300 28.09700
C  10.55100 2.63300 31.04800
C  7.63700 6.29700 30.06700
C  7.38100 4.86100 25.40200
C  10.60800 1.23200 26.32600
N  8.99100 4.38300 30.36700
C  9.69000 3.75300 31.26800
C  9.48600 4.27300 32.70900
C  8.41900 5.33700 32.39700
C  8.33100 5.33900 30.86400
C  7.05300 5.13300 33.09800
C  10.79300 4.87100 33.32000
C  11.27000 4.34700 34.73400
H  11.81500 5.53200 35.64400
N  7.62300 5.24500 27.79900
C  7.20500 6.22100 28.69500
C  6.31600 7.15500 27.99600
C  6.18200 6.61400 26.69100
C  7.07000 5.51800 26.57600
C  5.52200 8.21500 28.67300
C  5.26100 7.07300 25.55000
O  5.04200 6.41100 24.59200
C  4.38100 8.27700 25.81300
N  8.68100 2.84800 26.19300
C  8.17500 3.67800 25.24500
C  8.65100 3.22500 23.79800
C  9.66600 2.15500 24.10800
C  9.67800 2.02700 25.64300
C  7.47100 2.86800 22.83800
C  11.14400 2.53900 23.57700
C  12.08400 1.33600 23.25900
N  10.21000 2.21300 28.57000
C  10.78900 1.26800 27.74400
C  11.60900 0.36000 28.55100
C  11.55200 0.87500 29.83200
C  10.68600 1.98400 29.85600
C  12.42800 -0.69300 28.03700
C  12.03000 0.63000 31.15700
O  12.83600 -0.27600 31.56000
C  11.40400 1.81500 32.06100
C  10.66900 1.17300 33.23500
O  9.48500 0.93700 33.31500
O  11.59500 0.68000 34.09600
C  11.10200 -0.02500 35.27400
H  7.15300 6.96100 30.78700
H  6.96600 5.15200 24.43500
H  11.19900 0.43000 25.87800
H  9.04100 3.48900 33.32200
H  8.75800 6.34400 32.64100
H  6.69800 6.14500 33.29500
H  7.32300 4.64400 34.03400
H  6.39100 4.57000 32.43900
H  10.75000 5.96000 33.34800
H  11.59200 4.58200 32.63700
H  12.00700 3.57900 34.50200
H  10.54100 3.68600 35.20200
H  4.49800 7.90300 28.88000
H  5.58000 9.10800 28.05100
H  6.03400 8.36000 29.62400
H  3.82100 8.55900 24.92000
H  4.91000 9.22800 25.85800
H  3.75200 8.12400 26.69000
H  9.16600 4.07300 23.34700
H  9.40700 1.15300 23.76500
H  6.53200 3.22900 23.25700
H  7.38900 1.78200 22.79200
H  7.58400 3.25800 21.82600
H  11.68500 3.19100 24.26300
H  11.02500 3.06000 22.62700
H  12.38600 1.46700 22.22000
H  11.67300 0.33700 23.40000
H  12.90200 1.38500 23.97800
H  12.46700 -1.51400 28.75300
H  13.35000 -0.33600 27.57900
H  11.80600 -1.11000 27.24500
H  12.26600 2.29800 32.52100
H  10.68000 -0.90300 34.78500
H  10.29100 0.59400 35.65800
H  11.90100 -0.34600 35.94300
Mg 46.57800 24.59000 28.50500
C  47.49000 27.04300 30.89400
C  45.68800 22.45800 31.34700
C  45.92700 22.05400 26.41700
C  48.22000 26.36300 26.11200
N  46.59900 24.72000 30.85400
C  46.86300 25.88200 31.50000
C  46.53500 25.83400 32.99800
C  46.36300 24.26200 33.21600
C  46.19100 23.71700 31.70600
C  47.45000 23.57000 33.97100
C  45.33700 26.68500 33.37800
C  45.42200 27.42100 34.80000
H  46.46800 27.11100 35.84400
N  45.71600 22.69500 28.76000
C  45.53600 21.96000 29.96900
C  45.05800 20.63500 29.70200
C  44.91300 20.48400 28.23400
C  45.54700 21.75000 27.76100
C  44.77000 19.64800 30.76200
C  44.35800 19.37100 27.39600
O  44.37600 19.41500 26.16600
C  43.77700 18.12600 28.11400
N  46.89300 24.26500 26.48000
C  46.67200 23.15000 25.88500
C  47.19100 23.18000 24.47000
C  47.79100 24.63800 24.31300
C  47.63100 25.14300 25.75100
C  48.40400 22.21600 24.12200
C  47.27400 25.49200 23.08500
C  46.23500 26.57700 23.44200
N  47.50300 26.39800 28.44100
C  48.18000 27.00800 27.37800
C  48.64900 28.27900 27.85600
C  48.40500 28.29400 29.22200
C  47.74100 27.12200 29.51900
C  49.22700 29.33800 27.03300
C  48.46600 29.14800 30.41800
O  48.79300 30.33600 30.54200
C  47.89500 28.35500 31.59700
C  48.94200 28.13700 32.64500
O  49.78200 27.26800 32.65700
O  48.91700 29.20500 33.56500
C  49.98200 29.24200 34.55600
H  45.29400 21.96700 32.23900
H  45.75000 21.28000 25.66700
H  48.77100 26.89600 25.33400
H  47.41200 26.24700 33.49600
H  45.51700 24.02200 33.86000
H  48.09500 24.33600 34.40000
H  48.07900 22.91600 33.36800
H  47.11900 22.93100 34.79000
H  44.32600 26.32000 33.19600
H  45.44900 27.48100 32.64100
H  44.47400 27.32100 35.32800
H  45.75600 28.40800 34.47900
H  43.90800 19.05800 30.45300
H  44.71000 20.11300 31.74600
H  45.71100 19.10800 30.66100
H  44.60200 17.62000 28.61600
H  43.38300 17.46200 27.34500
H  42.99100 18.51700 28.76000
H  46.26900 23.01400 23.91200
H  48.86400 24.62300 24.12300
H  49.24700 22.45700 24.77000
H  48.79100 22.47400 23.13600
H  48.11400 21.16500 24.12500
H  46.83600 24.68400 22.49900
H  48.15500 25.72200 22.48600
H  45.76000 26.35400 24.39700
H  45.47900 26.49100 22.66100
H  46.81000 27.50100 23.37500
H  48.52200 29.76900 26.32200
H  49.90000 28.86800 26.31500
H  49.63300 30.13500 27.65600
H  47.05500 28.94200 31.96900
H  49.87800 30.20800 35.05100
H  50.98000 29.16300 34.12400
H  49.86500 28.47700 35.32300

