158

Mg 46.93100 16.98800 28.21700
C  45.02200 16.31500 31.16100
C  49.10600 18.76900 30.09800
C  48.42000 17.95200 25.36100
C  44.30900 15.44300 26.36600
N  47.00900 17.44200 30.40800
C  46.19300 17.02500 31.42600
C  46.77500 17.45300 32.81000
C  48.01400 18.42700 32.42700
C  48.03800 18.25500 30.88800
C  47.77800 19.89100 32.90100
C  47.27600 16.21900 33.64400
C  46.61900 16.00300 35.01800
H  46.33200 17.17900 35.89500
N  48.56800 18.09000 27.80000
C  49.38900 18.66900 28.70600
C  50.57600 19.19300 28.04800
C  50.36000 19.03800 26.63700
C  49.05900 18.33800 26.51600
C  51.82200 19.75900 28.77000
C  51.24600 19.47600 25.50800
O  50.94200 19.24300 24.32300
C  52.42000 20.41200 25.74400
N  46.38500 16.79100 26.14900
C  47.19400 17.33200 25.16300
C  46.59100 17.05600 23.77900
C  45.31100 16.19000 24.11900
C  45.36600 16.04000 25.64300
C  46.36400 18.20700 22.87000
C  45.08600 14.94200 23.29600
C  45.99600 13.64900 23.54700
N  45.02600 15.84800 28.64900
C  44.08500 15.40000 27.75200
C  42.91700 14.95400 28.54400
C  43.30300 15.26300 29.87200
C  44.56200 15.82600 29.85900
C  41.57100 14.44600 28.16400
C  42.80200 15.31000 31.26500
O  41.66100 15.02200 31.73300
C  43.91900 16.00400 32.12800
C  43.36600 17.13600 32.98600
O  43.53600 18.29600 32.71300
O  42.52300 16.67000 33.97000
C  41.70000 17.73400 34.62600
H  49.83200 19.32500 30.69500
H  48.91400 18.21500 24.42300
H  43.43800 15.21900 25.74600
H  45.99100 18.03500 33.29500
H  48.97200 18.00200 32.72600
H  47.01200 20.06000 33.65800
H  47.30700 20.39200 32.05600
H  48.72100 20.41400 33.06100
H  48.35600 16.14600 33.77300
H  47.09200 15.30800 33.07400
H  47.06900 15.19800 35.59900
H  45.59600 15.64800 34.90000
H  52.74500 19.41500 28.30300
H  51.89400 19.50700 29.82800
H  51.73300 20.84300 28.69300
H  52.19300 21.22800 26.43000
H  52.74400 20.77800 24.77000
H  53.23900 19.79600 26.11500
H  47.21500 16.27100 23.35200
H  44.56800 16.92100 23.80000
H  46.01200 18.93000 23.60600
H  45.52400 18.22000 22.17600
H  47.16300 18.56500 22.22100
H  44.94400 15.28800 22.27300
H  44.08800 14.53900 23.46900
H  46.40000 13.24700 22.61800
H  45.41100 12.91500 24.10100
H  46.77700 13.95700 24.24100
H  41.23800 14.89700 27.22900
H  40.90600 14.79900 28.95200
H  41.53100 13.35700 28.13000
H  44.23900 15.19700 32.78700
H  42.33100 18.53500 35.01100
H  41.31100 17.22300 35.50600
H  40.92400 18.11900 33.96400
Mg 6.76000 53.38000 41.24600
C  5.81100 49.98500 41.19700
C  9.94700 52.40300 40.32700
C  7.56000 56.59200 40.62700
C  3.34900 54.25100 41.58800
N  7.65900 51.43600 40.63500
C  7.16800 50.17100 40.82400
C  8.13600 49.07300 40.31300
C  9.51500 49.86000 40.61900
C  9.03300 51.34200 40.43100
C  10.18100 49.51500 41.99100
C  8.07200 48.64700 38.79400
C  7.30400 49.67300 37.85500
H  6.64300 49.06500 36.59200
N  8.54400 54.36700 40.60500
C  9.78400 53.78000 40.39400
C  10.76600 54.80400 40.22700
C  10.09400 56.05900 40.40300
C  8.66400 55.72000 40.55700
C  12.21400 54.53900 39.84400
C  10.70200 57.38400 40.38000
O  11.93600 57.45000 40.22000
C  9.96500 58.66000 40.66100
N  5.61600 55.12200 41.16200
C  6.18500 56.36000 40.87600
C  5.16900 57.44900 40.97300
C  3.85900 56.69500 41.17700
C  4.27800 55.26300 41.33400
C  5.56800 58.42600 42.08500
C  2.92200 56.85600 39.94100
C  1.46000 56.98600 40.24900
N  4.91200 52.37500 41.65100
C  3.65800 52.84200 41.78200
C  2.76800 51.74300 41.98800
C  3.59200 50.58900 41.98700
C  4.89300 51.02900 41.59000
C  1.22800 51.78400 42.01200
C  3.63900 49.13700 42.04700
O  2.79700 48.29100 42.27200
C  5.03700 48.67300 41.44200
C  4.78700 47.89200 40.14800
O  4.44100 48.49100 39.12100
O  4.94200 46.52100 40.22600
C  4.61800 45.70900 38.95400
H  10.98100 52.06300 40.23900
H  7.85200 57.64200 40.69400
H  2.28400 54.46700 41.69300
H  8.06700 48.13600 40.86500
H  10.32900 49.48300 40.00000
H  9.56400 48.81400 42.55400
H  10.28000 50.43800 42.56300
H  11.21300 49.17300 41.91900
H  7.63200 47.65000 38.76300
H  9.06000 48.47500 38.36800
H  8.02900 50.39700 37.48200
H  6.66000 50.37900 38.38000
H  12.90600 55.37900 39.77200
H  12.23100 54.12100 38.83800
H  12.54000 53.75100 40.52300
H  9.50100 59.04500 39.75200
H  10.67400 59.41000 41.01200
H  9.25800 58.69800 41.49000
H  5.26100 57.95400 40.01200
H  3.26600 56.90900 42.06600
H  6.55100 58.21700 42.50700
H  4.86700 58.31200 42.91200
H  5.61700 59.47300 41.78600
H  2.99400 55.97200 39.30600
H  3.23700 57.80500 39.50900
H  1.11500 58.00000 40.04600
H  1.21800 56.70300 41.27300
H  1.02300 56.30800 39.51400
H  0.74500 52.73500 42.23600
H  0.86800 51.01700 42.69700
H  0.85600 51.51700 41.02200
H  5.59000 48.06900 42.16100
H  5.43500 45.73100 38.23300
H  3.74200 46.08900 38.42900
H  4.56900 44.68500 39.32500

