158

Mg 0.68700 -1.79700 43.35600
C  4.09500 -1.99400 42.65000
C  0.63200 1.09000 41.37400
C  -2.70500 -1.83500 43.45600
C  0.88600 -4.93200 44.83300
N  2.13400 -0.64500 42.12200
C  3.49000 -0.86700 42.11500
C  4.26700 0.24600 41.32300
C  3.19800 1.37700 41.08600
C  1.91100 0.60500 41.62100
C  3.46600 2.76400 41.91300
C  4.97800 -0.20600 40.05600
C  6.31000 0.43600 39.90400
H  6.49500 1.59500 38.87600
N  -0.84500 -0.60800 42.47800
C  -0.69100 0.60900 41.74800
C  -1.98200 1.15700 41.33400
C  -2.97400 0.29700 41.96200
C  -2.23000 -0.81700 42.64500
C  -2.13300 2.35700 40.39600
C  -4.48800 0.56900 42.04400
O  -4.91000 1.56200 41.51900
C  -5.58500 -0.26200 42.70500
N  -0.71800 -3.29000 43.91800
C  -2.04300 -2.94400 44.13900
C  -2.78000 -3.91100 45.01700
C  -1.60300 -4.95900 45.25400
C  -0.36000 -4.38300 44.66300
C  -3.61700 -3.35100 46.19700
C  -1.94100 -6.37000 44.62700
C  -2.52300 -7.47300 45.63600
N  2.22600 -3.17200 43.86400
C  2.13000 -4.40300 44.46100
C  3.46600 -4.90800 44.62500
C  4.28800 -4.01600 43.89300
C  3.48100 -2.99500 43.46600
C  3.81300 -6.22800 45.16400
C  5.62200 -3.78000 43.40500
O  6.67500 -4.42400 43.50800
C  5.51900 -2.46100 42.48100
C  6.54100 -1.44500 42.93400
O  6.50200 -0.66800 43.89400
O  7.58800 -1.70400 42.13800
C  8.79700 -0.83800 42.34700
H  0.58300 2.01400 40.79400
H  -3.77900 -1.86700 43.65300
H  1.00700 -5.87400 45.37300
H  4.97400 0.65600 42.04500
H  3.05900 1.71000 40.05700
H  2.62700 2.82600 42.60500
H  3.39500 3.62500 41.24700
H  4.37900 2.76000 42.50800
H  4.29600 0.07300 39.25300
H  5.03400 -1.29400 40.01500
H  7.10000 -0.27500 39.66100
H  6.62700 0.89800 40.84000
H  -3.16600 2.70700 40.41300
H  -1.96400 2.03700 39.36800
H  -1.43200 3.13500 40.69800
H  -6.59900 0.02200 42.42300
H  -5.48200 -0.34800 43.78600
H  -5.36400 -1.26000 42.32500
H  -3.53800 -4.32400 44.35300
H  -1.47000 -5.06100 46.33100
H  -3.41500 -3.90700 47.11300
H  -4.69600 -3.31300 46.04700
H  -3.38900 -2.32000 46.46900
H  -1.02600 -6.85500 44.28600
H  -2.69900 -6.17600 43.86800
H  -3.56900 -7.56300 45.34300
H  -2.22200 -7.18700 46.64300
H  -2.05200 -8.45500 45.59000
H  3.48000 -6.23600 46.20200
H  4.87600 -6.42100 45.02000
H  3.15700 -6.96600 44.70200
H  5.85300 -2.78900 41.49700
H  9.24900 -1.07000 43.31100
H  8.47600 0.20300 42.35400
H  9.51400 -1.05600 41.55600
Mg 47.90900 44.75600 42.29800
C  44.44600 43.98100 42.61500
C  48.52600 41.44600 41.72900
C  50.98000 45.65000 41.86300
C  46.98600 48.21300 42.74100
N  46.59300 42.95400 42.26700
C  45.23000 42.86400 42.30200
C  44.78800 41.39500 41.99300
C  46.10800 40.66200 42.26700
C  47.17400 41.78600 42.06300
C  46.19100 40.16000 43.79300
C  44.09600 41.33200 40.54400
C  44.89400 40.82700 39.33200
H  44.29400 40.44800 37.93000
N  49.58500 43.69100 41.77100
C  49.61200 42.29500 41.60700
C  51.03600 41.96500 41.30500
C  51.81200 43.19100 41.36800
C  50.80000 44.25400 41.70100
C  51.55500 40.57600 40.94600
C  53.30300 43.32600 41.14300
O  53.94900 42.45100 40.61900
C  54.06400 44.51200 41.61400
N  48.87700 46.67800 42.28300
C  50.23100 46.75000 42.17300
C  50.80600 48.16400 42.33000
C  49.54600 48.98400 42.73200
C  48.38600 47.94100 42.56400
C  51.90000 48.24000 43.49000
C  49.22200 50.39100 42.05200
C  48.89900 51.50600 43.02900
N  46.13500 45.80600 42.55200
C  45.94600 47.20300 42.68500
C  44.53400 47.47800 42.86200
C  43.94500 46.21000 42.94000
C  44.97000 45.23700 42.82000
C  43.85900 48.81500 42.73800
C  42.68600 45.58800 42.87200
O  41.53500 46.00700 42.84500
C  42.90900 44.08500 42.76400
C  42.51200 43.33900 43.96800
O  41.64800 42.44700 44.09500
O  43.20000 43.77400 45.11400
C  42.85800 43.18000 46.43900
H  48.78600 40.38600 41.74500
H  52.05100 45.77900 41.69600
H  46.69500 49.22300 43.03500
H  43.89400 41.26900 42.60300
H  46.33400 39.81200 41.62400
H  45.24500 40.37800 44.28800
H  47.07000 40.62300 44.24100
H  46.25900 39.07500 43.71800
H  43.83000 42.35500 40.28000
H  43.21400 40.70000 40.64200
H  45.38400 39.90100 39.63400
H  45.67600 41.54800 39.09300
H  50.87900 39.79300 41.29100
H  52.46500 40.43200 41.52800
H  51.82700 40.38300 39.90800
H  53.80900 45.33800 40.95000
H  55.12300 44.26400 41.54300
H  53.79100 44.74100 42.64400
H  51.09600 48.61900 41.38300
H  49.48900 49.12000 43.81200
H  52.89800 48.09000 43.07800
H  51.76600 47.41100 44.18500
H  51.81600 49.26600 43.84700
H  48.44700 50.34600 41.28700
H  50.09400 50.72700 41.49200
H  48.94400 51.12500 44.04900
H  47.90100 51.93900 43.08600
H  49.59600 52.34400 43.04400
H  43.43600 48.77900 41.73400
H  44.63700 49.57400 42.82600
H  43.01700 48.93800 43.41900
H  42.51500 43.70600 41.82100
H  42.39000 42.19700 46.39200
H  42.26400 43.80300 47.10800
H  43.78700 42.85200 46.90300

