158

Mg -0.17000 7.57800 26.29400
C  0.67100 9.60700 28.93300
C  -0.33000 4.96100 28.44600
C  -0.60100 5.48800 23.58900
C  0.76500 10.09800 24.07200
N  0.22300 7.33000 28.51200
C  0.41700 8.33500 29.39200
C  0.31600 7.85300 30.83300
C  0.27500 6.25000 30.67700
C  0.09400 6.11000 29.13200
C  1.45700 5.38500 31.30200
C  -1.00900 8.38700 31.55200
C  -1.06000 8.37500 33.07500
H  0.09200 7.81600 33.86200
N  -0.43500 5.52600 26.07900
C  -0.51300 4.62400 27.10000
C  -0.89800 3.34300 26.65300
C  -0.98800 3.44200 25.24600
C  -0.70000 4.88600 24.87500
C  -1.04100 2.19800 27.56800
C  -1.29400 2.32400 24.23600
O  -1.23400 2.44600 22.98300
C  -1.45000 0.93900 24.72900
N  -0.08900 7.78600 24.12700
C  -0.29600 6.81400 23.24000
C  -0.22200 7.35600 21.79000
C  0.11400 8.85000 21.98800
C  0.31700 8.89100 23.44600
C  0.90800 6.67300 20.85600
C  -0.90900 9.90200 21.54600
C  -2.31300 10.04500 22.17600
N  0.51400 9.52100 26.38300
C  0.88900 10.40000 25.40800
C  1.12700 11.72600 26.05200
C  1.16500 11.39200 27.44300
C  0.79700 10.10600 27.57700
C  1.36000 13.10200 25.42500
C  1.32400 12.01300 28.80300
O  1.69900 13.19600 29.04200
C  1.04700 10.83500 29.79400
C  2.06300 10.65200 30.78500
O  3.19300 10.23000 30.55300
O  1.56600 11.00600 31.99400
C  2.56900 11.21800 33.02800
H  -0.50100 4.15100 29.15800
H  -0.80500 4.76500 22.79700
H  0.93800 10.89700 23.34800
H  1.21000 8.19500 31.35400
H  -0.62500 5.71800 30.98600
H  1.84900 4.68900 30.56100
H  0.94700 4.75200 32.02800
H  2.25000 6.04200 31.66000
H  -1.84400 7.80400 31.16400
H  -1.10700 9.45400 31.35000
H  -1.91500 7.87400 33.52900
H  -1.16900 9.42100 33.36100
H  -0.11200 1.62900 27.58000
H  -1.93000 1.64600 27.26200
H  -1.20500 2.44900 28.61600
H  -2.43300 0.99000 25.19700
H  -0.68400 0.78300 25.48800
H  -1.38600 0.24700 23.88900
H  -1.17400 7.20900 21.28000
H  1.06000 9.12800 21.52400
H  1.73500 7.36600 20.69900
H  0.42800 6.47100 19.89900
H  1.32100 5.77500 21.31500
H  -1.19800 9.43900 20.60200
H  -0.50600 10.90800 21.43000
H  -2.36700 11.00900 22.68200
H  -2.36200 9.36500 23.02700
H  -3.07700 9.84200 21.42600
H  2.42200 13.34600 25.46200
H  0.74400 13.80700 25.98300
H  0.99600 13.03000 24.40000
H  0.10300 11.22300 30.17600
H  3.29200 11.92000 32.61400
H  3.17300 10.35600 33.31300
H  2.26500 11.72400 33.94400
Mg -5.24000 24.93000 25.62900
C  -3.99800 26.18600 28.50000
C  -7.13200 22.65900 27.55700
C  -6.42300 23.49100 22.78900
C  -2.96600 26.81100 23.82300
N  -5.47200 24.41700 27.81000
C  -4.84200 25.14300 28.82600
C  -5.31000 24.66900 30.20500
C  -6.11300 23.38000 29.81500
C  -6.22100 23.42200 28.31500
C  -5.38400 21.99000 30.21200
C  -6.17300 25.75600 30.97200
C  -5.96400 25.88100 32.58500
H  -5.21400 24.78700 33.22300
N  -6.50600 23.33600 25.21200
C  -7.27000 22.60700 26.14200
C  -8.30400 21.81500 25.48100
C  -7.93600 21.83500 24.11200
C  -6.87900 22.89200 23.98900
C  -9.43600 21.21700 26.17300
C  -8.48000 21.07600 22.99600
O  -7.89600 21.07800 21.90700
C  -9.59600 19.96100 23.14800
N  -4.61000 24.97100 23.52700
C  -5.42100 24.40200 22.58600
C  -5.00300 24.87600 21.24700
C  -3.97900 26.09000 21.49400
C  -3.76100 25.92300 23.04600
C  -4.31500 23.77700 20.45300
C  -4.67200 27.45300 21.11300
C  -3.86500 28.29400 20.10900
N  -3.72800 26.20600 26.02900
C  -2.97100 27.00000 25.20000
C  -2.11600 27.83100 25.96600
C  -2.52700 27.56700 27.26400
C  -3.56800 26.58900 27.23800
C  -1.01500 28.81200 25.48700
C  -2.29400 27.90200 28.67600
O  -1.53100 28.73200 29.17200
C  -3.21100 27.06600 29.50900
C  -2.32400 26.18200 30.28500
O  -1.69800 25.22600 29.84900
O  -2.25800 26.59900 31.58900
C  -1.28000 25.91900 32.43900
H  -7.86600 22.04800 28.08700
H  -6.78700 23.08100 21.84400
H  -2.39500 27.53600 23.24000
H  -4.39500 24.42800 30.74700
H  -7.04200 23.40600 30.38500
H  -5.48400 21.29300 29.38000
H  -5.71800 21.45500 31.10100
H  -4.30600 22.15000 30.21300
H  -7.19400 25.66500 30.60200
H  -5.90100 26.72100 30.54500
H  -6.91100 25.80000 33.11900
H  -5.57800 26.84900 32.90400
H  -9.32500 20.13300 26.19300
H  -10.33900 21.37500 25.58500
H  -9.65700 21.55400 27.18600
H  -9.78700 19.39800 22.23400
H  -10.45800 20.41600 23.63500
H  -9.14700 19.37300 23.94800
H  -5.93800 24.98500 20.69700
H  -3.06600 25.96400 20.91200
H  -4.39700 24.06300 19.40400
H  -4.84400 22.83000 20.56300
H  -3.28500 23.63600 20.78100
H  -4.94800 28.04800 21.98300
H  -5.59200 27.23300 20.57100
H  -3.58200 29.20800 20.63100
H  -4.42600 28.49400 19.19600
H  -2.86500 27.94900 19.84800
H  -1.43800 29.81300 25.40200
H  -0.65500 28.52500 24.49900
H  -0.15900 28.81200 26.16200
H  -3.87100 27.62400 30.17400
H  -1.75400 25.13400 33.02800
H  -0.93300 26.65100 33.16800
H  -0.37400 25.58200 31.93600

