158

Mg 40.28200 9.71300 29.44400
C  42.17600 10.48400 32.08900
C  37.90100 8.27000 31.67400
C  38.24500 8.62000 26.80300
C  42.78400 10.38900 27.19200
N  40.05800 9.40500 31.67500
C  40.91200 10.08800 32.50200
C  40.39600 9.86000 33.89500
C  39.03100 9.13100 33.81400
C  39.01700 8.79100 32.31000
C  38.79900 8.00500 34.83400
C  40.36700 11.19900 34.74100
C  41.36100 11.37000 35.86400
H  40.87600 11.87100 37.22400
N  38.31000 8.65400 29.24400
C  37.58000 8.15800 30.30000
C  36.33400 7.71500 29.75000
C  36.41100 7.74600 28.35300
C  37.73100 8.39000 28.04700
C  35.29700 7.18400 30.65100
C  35.43700 7.19200 27.36500
O  35.66900 7.16600 26.12700
C  34.06400 6.73000 27.83500
N  40.51000 9.53000 27.21900
C  39.50100 9.06600 26.41000
C  39.94100 9.14200 24.90100
C  41.40500 9.68900 25.00900
C  41.62000 9.85100 26.55400
C  39.75000 7.68300 24.29600
C  41.63100 11.08000 24.32400
C  41.23500 12.30200 25.20400
N  42.08400 10.40600 29.57000
C  43.04400 10.59900 28.58400
C  44.28900 11.07100 29.22400
C  43.94900 11.09300 30.58300
C  42.63100 10.59200 30.72500
C  45.57500 11.29400 28.53200
C  44.48300 11.41400 31.89200
O  45.56400 11.93300 32.13700
C  43.29600 11.05100 32.94000
C  43.94600 10.07200 33.90500
O  43.86200 8.87300 33.77200
O  44.55000 10.72000 34.96300
C  44.98100 9.78800 35.96100
H  37.02800 8.11300 32.31100
H  37.66600 8.24300 25.95700
H  43.72900 10.32100 26.64900
H  41.14200 9.16400 34.27900
H  38.25100 9.81200 34.15400
H  37.91200 8.34100 35.37100
H  39.64100 8.03900 35.52500
H  38.76400 7.00700 34.39600
H  39.40900 11.35700 35.23700
H  40.55600 12.03800 34.07100
H  42.07600 12.12800 35.54500
H  41.85500 10.42100 36.07600
H  35.18800 6.10200 30.58500
H  34.29900 7.60900 30.55000
H  35.57100 7.18800 31.70700
H  33.98900 5.69600 28.16900
H  33.32000 6.81000 27.04300
H  33.68800 7.45900 28.55300
H  39.29800 9.80300 24.31900
H  42.14700 9.00800 24.59500
H  39.57100 6.91900 25.05300
H  40.66600 7.27500 23.86800
H  39.04700 7.65700 23.46400
H  41.06100 11.19000 23.40100
H  42.69100 11.09000 24.07100
H  40.33300 12.11800 25.78800
H  40.98300 13.09400 24.49900
H  42.10500 12.57400 25.80300
H  45.78900 10.49700 27.81900
H  46.44400 11.53700 29.14300
H  45.43300 12.23200 27.99500
H  42.93900 11.92100 33.49100
H  45.67400 10.31200 36.62000
H  45.35400 8.79900 35.69700
H  44.09600 9.58600 36.56500
Mg 1.58000 41.77600 25.54000
C  3.69300 41.83300 28.31500
C  -1.09000 41.12300 27.48500
C  -0.04700 41.06000 22.68200
C  4.53700 42.40300 23.60900
N  1.37500 41.59000 27.64100
C  2.35100 41.59700 28.66400
C  1.75100 41.57000 30.10800
C  0.27400 41.14700 29.76400
C  0.13400 41.42300 28.23200
C  -0.23500 39.64800 30.17400
C  1.99600 42.92500 30.76800
C  2.10400 42.85900 32.31700
H  0.73100 43.00600 32.97300
N  -0.32000 41.28300 25.10800
C  -1.25800 41.07600 26.08100
C  -2.51300 40.67700 25.42500
C  -2.29500 40.65100 24.03800
C  -0.84200 40.94500 23.84800
C  -3.81400 40.37600 26.19000
C  -3.28200 40.27200 22.93300
O  -2.77500 40.14500 21.83300
C  -4.72100 40.06000 23.14700
N  2.09100 41.88100 23.42600
C  1.30000 41.38100 22.51800
C  2.02300 41.54200 21.15000
C  3.32300 42.31400 21.42500
C  3.36500 42.14300 22.86300
C  2.35700 40.11200 20.65100
C  3.20600 43.75800 21.03900
C  4.25400 44.44000 20.16400
N  3.64500 41.95300 25.81900
C  4.69800 42.27600 24.96500
C  5.97300 42.35200 25.65900
C  5.61800 42.12200 26.96700
C  4.21200 42.04900 27.01400
C  7.35000 42.63600 25.14500
C  6.11200 41.98900 28.33800
O  7.29000 41.86600 28.70800
C  4.86500 41.86000 29.31300
C  5.04900 40.67800 30.28900
O  4.86000 39.52500 30.04500
O  5.52800 41.17400 31.51300
C  5.33000 40.30000 32.69600
H  -1.95300 40.96400 28.13400
H  -0.56100 40.70400 21.78600
H  5.46900 42.59100 23.07200
H  2.28800 40.91500 30.79400
H  -0.37600 41.80800 30.33800
H  -0.92700 39.72300 31.01300
H  0.54800 38.95100 30.47200
H  -0.85100 39.25100 29.36600
H  1.10100 43.51900 30.58300
H  2.89300 43.44700 30.43400
H  2.78300 43.65000 32.63200
H  2.51200 41.88100 32.57200
H  -4.52900 41.13000 25.86300
H  -3.60100 40.43400 27.25800
H  -4.11900 39.36000 25.94000
H  -5.07100 41.06200 23.39600
H  -4.91500 39.27400 23.87700
H  -5.11400 39.73500 22.18400
H  1.39100 42.05200 20.42300
H  4.02500 41.77800 20.78600
H  2.99900 39.57500 21.34900
H  2.95200 40.21600 19.74400
H  1.56200 39.46500 20.27900
H  3.11500 44.40800 21.90900
H  2.19700 43.88000 20.64500
H  5.02700 43.73900 19.84900
H  4.62800 45.34400 20.64600
H  3.76700 44.82800 19.27000
H  7.38500 42.65100 24.05600
H  7.95300 41.93200 25.71900
H  7.63600 43.58500 25.59800
H  4.76900 42.81300 29.83500
H  4.66900 40.83300 33.37900
H  6.33500 40.20900 33.10900
H  4.90800 39.29600 32.65600

