158

Mg 1.97200 -1.13500 44.85400
C  5.45700 -0.45500 44.05800
C  1.22300 1.48600 42.63200
C  -1.21400 -1.95500 45.15600
C  3.08200 -4.03100 46.41800
N  3.24600 0.37700 43.55000
C  4.60600 0.39500 43.34900
C  5.00500 1.73700 42.54700
C  3.60700 2.28600 42.07900
C  2.57900 1.26000 42.74100
C  3.23800 3.70600 42.55500
C  5.86600 1.45200 41.28100
C  6.94400 2.50400 40.98300
H  6.47700 3.62800 40.12200
N  0.14700 -0.26800 44.09700
C  0.07300 0.81900 43.25200
C  -1.29100 1.09400 43.08900
C  -2.10100 0.18400 43.82200
C  -1.10000 -0.72100 44.44800
C  -1.79400 2.30400 42.27500
C  -3.60200 0.21700 44.01100
O  -4.33700 1.02500 43.39400
C  -4.26500 -0.63100 45.04600
N  1.01800 -2.81300 45.45900
C  -0.27500 -2.87900 45.59400
C  -0.66500 -4.22600 46.25200
C  0.68800 -4.82200 46.71500
C  1.68500 -3.80400 46.19400
C  -1.77400 -4.07600 47.40100
C  0.86600 -6.28700 46.29000
C  1.12700 -7.34400 47.37200
N  3.80600 -2.07300 45.23900
C  4.07900 -3.22200 45.96200
C  5.53300 -3.41400 46.04100
C  6.07100 -2.34300 45.35300
C  4.99700 -1.58200 44.79300
C  6.30000 -4.44200 46.81100
C  7.40300 -1.82700 44.88500
O  8.57200 -2.15900 45.07400
C  6.96900 -0.55200 44.05400
C  7.54300 0.60800 44.90100
O  7.12600 0.94500 45.97300
O  8.58500 1.27500 44.23300
C  9.18800 2.49300 44.87200
H  1.02600 2.38500 42.04400
H  -2.26400 -2.22900 45.27800
H  3.45800 -4.89300 46.97400
H  5.60000 2.37800 43.19700
H  3.50800 2.28800 40.99300
H  4.04600 4.23600 43.05900
H  2.32000 3.71100 43.14200
H  3.05500 4.39400 41.73000
H  5.26400 1.26400 40.39200
H  6.31800 0.46700 41.40100
H  7.61900 1.88500 40.39200
H  7.39300 2.85100 41.91300
H  -1.37100 1.99900 41.31700
H  -1.32300 3.22000 42.63000
H  -2.86400 2.50600 42.23200
H  -5.29300 -0.29000 45.17000
H  -3.68800 -0.56400 45.96800
H  -4.34300 -1.65300 44.67700
H  -0.99700 -4.87900 45.44500
H  0.80500 -4.87800 47.79800
H  -2.03600 -3.02000 47.46200
H  -1.53100 -4.53500 48.36000
H  -2.62500 -4.69100 47.11000
H  1.67800 -6.28400 45.56200
H  -0.04000 -6.70200 45.84800
H  0.18900 -7.82500 47.65000
H  1.76000 -6.96600 48.17400
H  1.83500 -8.08300 46.99600
H  6.09600 -5.42100 46.37700
H  6.02500 -4.42300 47.86600
H  7.37500 -4.36400 46.64700
H  7.42800 -0.64000 43.06900
H  9.02600 3.36400 44.23600
H  10.25200 2.26400 44.92900
H  8.83300 2.61300 45.89500
Mg 8.96600 4.53100 27.46300
C  10.26200 2.89600 30.39500
C  7.05700 6.36800 29.66700
C  7.48000 6.02700 24.85700
C  10.41200 2.15000 25.57900
N  8.55400 4.45800 29.77400
C  9.30400 3.85000 30.80500
C  8.98500 4.35600 32.24500
C  8.00100 5.48700 31.92900
C  7.84000 5.45300 30.34600
C  6.60000 5.42400 32.73800
C  10.19700 4.84100 33.08000
C  9.82400 5.44200 34.45600
H  10.87500 5.13500 35.60000
N  7.52400 5.94900 27.28800
C  6.88100 6.60200 28.32300
C  5.97600 7.62400 27.76300
C  6.21200 7.59500 26.37100
C  7.03400 6.41900 26.11400
C  5.07900 8.53900 28.68300
C  5.66200 8.48000 25.26700
O  5.88400 8.30400 24.05200
C  4.81700 9.73200 25.66000
N  8.95500 4.10300 25.52900
C  8.42100 4.96800 24.57300
C  8.87200 4.61900 23.15000
C  9.68100 3.31200 23.41400
C  9.79100 3.23200 24.90900
C  7.69600 4.40800 22.13700
C  11.07700 3.25300 22.72100
C  12.17800 4.00600 23.51300
N  10.14300 2.89400 27.84900
C  10.65100 2.01200 26.90900
C  11.48000 1.07500 27.58000
C  11.27600 1.35700 28.95600
C  10.50400 2.47500 29.06000
C  12.30600 -0.07200 27.05000
C  11.62800 0.94900 30.28700
O  12.45700 0.15500 30.59000
C  11.00500 1.99300 31.26300
C  10.27200 1.12500 32.28000
O  9.19800 0.64400 32.06300
O  10.97400 1.17400 33.52400
C  10.26000 0.68700 34.72600
H  6.60800 7.12700 30.31200
H  7.11200 6.40900 23.90300
H  11.00100 1.47400 24.95400
H  8.57300 3.47900 32.74500
H  8.43500 6.41000 32.31400
H  6.45100 6.37300 33.25500
H  6.69900 4.70200 33.54800
H  5.86000 5.27700 31.95200
H  10.96400 5.42300 32.56900
H  10.62700 3.92200 33.47800
H  8.84800 5.06600 34.76400
H  9.68300 6.51700 34.34200
H  5.55200 9.46400 29.01200
H  4.93300 7.91800 29.56800
H  4.13400 8.76400 28.19100
H  5.10800 10.23000 26.58600
H  3.80900 9.31800 25.64700
H  4.81700 10.51400 24.90000
H  9.50800 5.45100 22.84500
H  9.18800 2.42500 23.01700
H  7.73000 5.10300 21.29700
H  6.75200 4.31400 22.67300
H  7.71700 3.40400 21.71200
H  11.04700 3.81900 21.79000
H  11.35200 2.20100 22.63500
H  11.66300 4.61700 24.25500
H  12.63600 4.67600 22.78600
H  12.97100 3.32900 23.82900
H  13.14700 -0.14000 27.74100
H  12.54300 0.24000 26.03300
H  11.65300 -0.94500 27.04500
H  11.85400 2.47500 31.74700
H  10.94100 0.44100 35.54000
H  9.66200 -0.20200 34.52300
H  9.58000 1.45700 35.09000

