158

Mg -1.55500 17.28900 26.35100
C  -2.59900 15.25100 29.02700
C  -2.78400 20.04600 28.02000
C  -1.09700 19.01200 23.50000
C  -1.20500 14.30300 24.32800
N  -2.50600 17.61300 28.33800
C  -2.85800 16.61600 29.21800
C  -3.32500 17.31400 30.48500
C  -3.88700 18.64900 29.85900
C  -2.96800 18.85800 28.69000
C  -5.38000 18.65300 29.48100
C  -2.13300 17.53000 31.39300
C  -2.36600 17.09600 32.88700
H  -1.21400 16.67000 33.74100
N  -1.71700 19.25300 25.88300
C  -2.15100 20.23900 26.75300
C  -1.95100 21.48000 26.04700
C  -1.45100 21.20200 24.74100
C  -1.39500 19.79800 24.66600
C  -2.42700 22.81500 26.68800
C  -1.12900 22.12600 23.59300
O  -0.78800 21.75100 22.47500
C  -1.19400 23.53000 23.82500
N  -1.42100 16.66400 24.20000
C  -1.09400 17.65100 23.34500
C  -0.98500 17.07200 21.87400
C  -0.61800 15.54500 22.24100
C  -1.16600 15.46900 23.67900
C  -2.18000 17.32800 21.00400
C  0.89600 15.08100 22.20600
C  1.90700 15.86200 23.01300
N  -1.76700 15.25300 26.57900
C  -1.53500 14.14400 25.75800
C  -1.90800 12.97300 26.47000
C  -2.19500 13.32200 27.78300
C  -2.12900 14.71800 27.76000
C  -1.76300 11.59500 25.87200
C  -2.47400 12.78900 29.10900
O  -2.52400 11.63100 29.46400
C  -2.89800 14.01300 29.93800
C  -2.18000 13.94300 31.23800
O  -1.03300 14.18800 31.39700
O  -3.06700 13.55500 32.20400
C  -2.46800 12.99400 33.42600
H  -3.21100 20.94800 28.46200
H  -1.15700 19.48200 22.51700
H  -1.17300 13.47500 23.61700
H  -4.08200 16.65300 30.90800
H  -3.71800 19.48700 30.53600
H  -5.78200 17.64700 29.35600
H  -5.40700 19.17100 28.52300
H  -5.98100 19.03800 30.30600
H  -1.75200 18.55000 31.33500
H  -1.18500 17.12600 31.03800
H  -3.02800 16.23500 32.79600
H  -2.92400 17.90300 33.36100
H  -2.87800 22.80700 27.68000
H  -3.19300 23.20100 26.01600
H  -1.47800 23.34900 26.74400
H  -2.21600 23.76300 24.12500
H  -0.84000 24.09800 22.96500
H  -0.60200 23.73600 24.71700
H  -0.09300 17.50000 21.41700
H  -1.25200 14.89500 21.63700
H  -2.79800 18.05700 21.52900
H  -2.75700 16.40300 21.01400
H  -1.84200 17.58400 20.00000
H  1.03100 15.30300 21.14800
H  0.86000 14.00100 22.35400
H  1.45200 16.64900 23.61300
H  2.64000 16.28600 22.32700
H  2.36300 15.04900 23.57900
H  -2.12900 11.63800 24.84600
H  -2.19700 10.78400 26.45700
H  -0.71000 11.42900 25.64600
H  -3.95700 13.83900 30.13000
H  -1.72800 13.73200 33.73500
H  -1.90000 12.07600 33.27900
H  -3.16000 12.84700 34.25600
Mg 30.15400 58.62400 39.46800
C  27.09300 57.13500 38.80000
C  31.72100 55.71500 38.50700
C  33.06800 60.35500 39.38500
C  28.48600 61.67100 40.12100
N  29.46400 56.72400 38.54100
C  28.16500 56.27300 38.45000
C  28.13800 54.95300 37.75100
C  29.53700 54.37900 38.00800
C  30.29200 55.62900 38.41600
C  29.51300 53.28800 39.12000
C  27.81500 55.21700 36.25100
C  26.61000 54.62500 35.55100
H  25.93700 55.55400 34.51000
N  32.12400 58.10800 39.10000
C  32.55300 56.87000 38.76300
C  34.03200 56.86600 38.66200
C  34.43000 58.22300 38.77400
C  33.21900 58.96500 39.16200
C  34.80200 55.68900 38.13300
C  35.81300 58.73000 38.49800
O  36.63700 57.91400 38.13800
C  36.22000 60.10300 38.52000
N  30.67800 60.60700 39.68600
C  31.95400 61.11000 39.61400
C  32.03100 62.65100 39.70000
C  30.64700 62.96400 40.32000
C  29.88400 61.68200 40.00400
C  33.26800 63.28100 40.38300
C  30.07100 64.27500 39.70400
C  29.52400 65.30000 40.67000
N  28.10000 59.27400 39.62800
C  27.61600 60.58200 39.85000
C  26.14100 60.47900 39.78100
C  25.89900 59.10700 39.46100
C  27.13900 58.43000 39.27900
C  25.06700 61.54700 40.26600
C  24.86700 58.14300 39.22900
O  23.65100 58.13000 39.38300
C  25.60300 56.88200 38.67700
C  25.06600 55.69700 39.36700
O  25.42200 55.26800 40.45600
O  24.13100 55.06200 38.56600
C  23.56900 53.78600 39.07200
H  32.22500 54.75500 38.37800
H  33.91300 61.04600 39.39400
H  27.98600 62.62800 40.28800
H  27.38900 54.29500 38.19100
H  29.92500 53.95400 37.08200
H  28.58200 53.18400 39.67700
H  30.20300 53.63000 39.89200
H  29.83600 52.31100 38.76000
H  28.68700 54.92500 35.66500
H  27.55200 56.27400 36.20100
H  25.88200 54.28700 36.28800
H  27.01000 53.84200 34.90700
H  35.03800 55.89200 37.08800
H  34.29400 54.73000 38.23700
H  35.70100 55.62300 38.74600
H  37.06700 60.23000 37.84600
H  36.31000 60.42900 39.55600
H  35.49400 60.62000 37.89300
H  31.88100 63.01000 38.68200
H  30.75600 62.93000 41.40400
H  32.93000 64.05800 41.07000
H  33.71400 63.67400 39.47000
H  34.05600 62.62400 40.75100
H  29.26400 64.02400 39.01500
H  30.80100 64.83000 39.11600
H  30.17200 66.15600 40.85700
H  29.42800 64.75700 41.61000
H  28.57300 65.67900 40.29500
H  25.61000 62.29300 40.84600
H  24.29600 61.01700 40.82600
H  24.59400 62.08200 39.44300
H  25.30400 56.84700 37.63000
H  24.44000 53.16600 39.28200
H  22.97900 53.30700 38.29100
H  23.00000 54.01200 39.97400

