158

Mg 8.95000 2.92200 27.57500
C  10.59400 1.47700 30.29400
C  7.61400 5.14900 29.68400
C  7.41900 4.21000 24.91300
C  10.29800 0.47800 25.54500
N  8.92000 3.14400 29.79900
C  9.73600 2.54900 30.70800
C  9.52800 3.15000 32.14700
C  8.53600 4.30900 31.89500
C  8.25000 4.14300 30.41800
C  7.26800 4.39600 32.76700
C  10.78100 3.72000 32.82600
C  10.53400 4.52600 34.09400
H  11.40100 4.22900 35.31900
N  7.77400 4.45900 27.28400
C  7.41200 5.32800 28.31100
C  6.58200 6.35600 27.75600
C  6.52400 6.17400 26.35900
C  7.17000 4.89200 26.10500
C  6.05900 7.55300 28.61100
C  5.90100 7.04600 25.28300
O  6.05100 6.81500 24.13200
C  5.14300 8.24200 25.72100
N  8.86200 2.49000 25.50600
C  8.05700 3.07700 24.58000
C  8.25100 2.51000 23.22400
C  9.33200 1.42000 23.40900
C  9.62100 1.50900 24.93000
C  6.99100 2.09000 22.56400
C  10.61500 1.45400 22.44400
C  10.75000 0.40500 21.32900
N  10.20500 1.29900 27.83100
C  10.61100 0.40700 26.90400
C  11.38500 -0.59200 27.47300
C  11.47200 -0.21300 28.83100
C  10.72800 0.95500 28.96300
C  12.03000 -1.74600 26.81800
C  11.94800 -0.53100 30.16100
O  12.57900 -1.42700 30.71200
C  11.36700 0.58100 31.11400
C  10.45100 -0.07600 32.14000
O  9.44700 -0.71800 31.93400
O  10.90000 0.31300 33.36400
C  10.20300 -0.27400 34.49500
H  7.14100 5.91000 30.30700
H  6.98700 4.71000 24.04400
H  10.48400 -0.42700 24.96200
H  9.16200 2.37800 32.82400
H  9.03200 5.27900 31.87000
H  6.33100 4.34100 32.21200
H  7.25800 5.37800 33.23900
H  7.23500 3.68100 33.58800
H  11.31800 4.28800 32.06700
H  11.53500 2.97800 33.08800
H  9.47600 4.39700 34.32100
H  10.50600 5.60300 33.92700
H  6.50200 8.52800 28.40700
H  5.86700 7.30100 29.65300
H  5.01100 7.70900 28.35600
H  5.90100 8.74400 26.32200
H  4.25800 7.96800 26.29500
H  4.66500 8.74300 24.88000
H  8.64800 3.34900 22.65300
H  8.84800 0.45200 23.27700
H  7.01200 1.08200 22.15100
H  6.78400 2.77100 21.73800
H  6.18000 2.20100 23.28400
H  11.49800 1.36100 23.07600
H  10.80500 2.43500 22.00900
H  9.79000 -0.05900 21.10800
H  11.42600 -0.38700 21.65300
H  11.19300 0.68500 20.37300
H  12.85900 -1.33500 26.24200
H  11.45200 -2.34000 26.11000
H  12.32600 -2.30800 27.70400
H  12.15000 1.14200 31.62600
H  9.28700 -0.82500 34.27800
H  9.93100 0.40200 35.30600
H  10.85700 -0.99100 34.99300
Mg 41.07400 41.78500 27.50000
C  40.54300 44.14300 30.04000
C  41.92100 39.59700 29.92700
C  42.00900 39.58400 25.10500
C  40.73200 44.17400 25.14300
N  41.11900 41.88300 29.70700
C  40.79500 42.89300 30.57300
C  40.83900 42.46800 32.05300
C  41.48700 41.07400 31.90900
C  41.57400 40.84100 30.36800
C  42.94500 40.84500 32.61600
C  39.38800 42.41600 32.72000
C  39.31400 41.45000 33.95500
H  38.61700 42.03800 35.14900
N  41.71900 39.82200 27.47700
C  41.99200 39.07500 28.55800
C  42.27500 37.70800 28.17800
C  42.30300 37.67000 26.76300
C  42.02600 39.06200 26.39400
C  42.43200 36.65000 29.16800
C  42.52100 36.51600 25.83300
O  42.52300 36.64800 24.63100
C  42.75800 35.08400 26.28600
N  41.51700 41.84000 25.44900
C  41.77700 40.86600 24.65400
C  41.59000 41.15300 23.17800
C  40.98500 42.59500 23.17900
C  41.04600 42.88800 24.66800
C  42.94700 41.06600 22.41800
C  39.58800 42.58600 22.45200
C  38.43400 41.77000 23.09400
N  40.84100 43.73900 27.53900
C  40.72500 44.61600 26.46000
C  40.59800 46.03400 26.96100
C  40.46600 45.87500 28.40200
C  40.61800 44.46800 28.67700
C  40.56800 47.23700 26.07700
C  40.23300 46.59400 29.58900
O  40.03500 47.73400 29.84700
C  40.23600 45.48100 30.73700
C  41.27900 45.82600 31.65700
O  42.48800 45.82800 31.49000
O  40.72200 46.27600 32.78600
C  41.61600 46.84800 33.81900
H  42.19900 38.88700 30.70900
H  42.10800 38.82200 24.33000
H  40.62300 44.85900 24.30000
H  41.46900 43.18100 32.58400
H  40.82700 40.30100 32.30300
H  43.07400 41.74500 33.21700
H  43.66000 40.69400 31.80700
H  42.81600 39.97900 33.26600
H  38.60700 42.35300 31.96300
H  39.41600 43.43200 33.11400
H  40.27700 41.01500 34.22200
H  38.69300 40.60600 33.65500
H  41.83700 36.92900 30.03800
H  43.45700 36.48100 29.49900
H  42.20500 35.63800 28.83300
H  41.73900 34.85000 26.59500
H  43.47400 35.13400 27.10700
H  43.08900 34.33300 25.56800
H  40.86200 40.47400 22.73500
H  41.63000 43.34600 22.72300
H  43.48000 40.20900 22.82900
H  43.53200 41.98600 22.44100
H  42.66300 40.87300 21.38300
H  39.79100 42.04100 21.53000
H  39.26000 43.59800 22.21200
H  37.58600 42.45200 23.04000
H  38.73200 41.33600 24.04800
H  38.19400 40.95000 22.41600
H  41.40000 47.91300 26.27400
H  39.72500 47.82400 26.44000
H  40.51700 47.05900 25.00300
H  39.32600 45.30200 31.31000
H  42.39100 47.39500 33.28200
H  41.99400 46.07100 34.48400
H  41.14700 47.69800 34.31500

