158

Mg 0.21400 7.97200 26.27800
C  0.98100 9.73300 29.22100
C  0.20500 5.05300 28.19300
C  -0.20000 6.31500 23.48300
C  0.58900 10.94000 24.49700
N  0.46800 7.49100 28.33800
C  0.69400 8.37900 29.41800
C  0.57800 7.73700 30.77700
C  0.51000 6.20700 30.40400
C  0.47500 6.24000 28.87400
C  1.65900 5.36000 31.01400
C  -0.69600 8.28500 31.53000
C  -0.51900 8.42700 33.06600
H  0.71000 7.87200 33.87100
N  0.05800 6.00800 25.86000
C  0.01800 4.94600 26.81500
C  -0.33000 3.69800 26.11300
C  -0.31300 4.03800 24.72100
C  -0.15700 5.53600 24.64000
C  -0.51500 2.34000 26.85800
C  -0.60500 3.13200 23.51500
O  -0.56500 3.50500 22.36200
C  -1.06400 1.83800 23.78900
N  0.38400 8.53100 24.29100
C  -0.01400 7.66500 23.30500
C  -0.20300 8.27900 21.92500
C  -0.03700 9.81000 22.28100
C  0.30500 9.78200 23.77000
C  0.86600 7.75100 20.83500
C  -1.22900 10.69700 21.85000
C  -2.52200 10.61600 22.64000
N  0.80000 9.91700 26.70700
C  0.94600 10.98300 25.83800
C  1.36300 12.13800 26.57900
C  1.36500 11.70900 27.93700
C  1.04500 10.33600 27.95900
C  1.68400 13.50400 25.99100
C  1.55000 12.14000 29.27500
O  1.94700 13.18900 29.70000
C  1.26000 10.92600 30.14000
C  2.32400 10.76300 31.07300
O  3.24200 9.93600 30.99700
O  2.21200 11.70100 32.05900
C  3.19100 11.59600 33.15000
H  0.09900 4.14800 28.79400
H  -0.51600 5.77200 22.59000
H  0.82800 11.84900 23.94100
H  1.42200 8.06200 31.38500
H  -0.44600 5.75400 30.66900
H  1.28700 4.55500 31.64700
H  2.20600 5.89400 31.79100
H  2.39900 4.95400 30.32300
H  -1.34900 7.42900 31.35900
H  -1.08500 9.19700 31.07900
H  -1.38800 7.95000 33.51800
H  -0.56000 9.49400 33.28800
H  -1.26700 1.69900 26.39800
H  -0.84600 2.51600 27.88100
H  0.43800 1.82100 26.74900
H  -1.44000 1.32700 22.90200
H  -1.95400 2.10200 24.35900
H  -0.40400 1.19400 24.37100
H  -1.17900 7.99100 21.53500
H  0.83500 10.23900 21.78800
H  1.58500 7.03000 21.22600
H  1.52300 8.48000 20.36100
H  0.27400 7.13600 20.15700
H  -1.36400 10.54800 20.77900
H  -0.92100 11.73400 21.98200
H  -2.44700 9.80200 23.36000
H  -3.38100 10.44600 21.99100
H  -2.76300 11.52800 23.18700
H  0.67000 13.81800 25.74200
H  2.31200 13.36200 25.11100
H  2.04200 14.20500 26.74500
H  0.36200 11.06800 30.74200
H  4.05000 12.26500 33.09500
H  3.50200 10.57500 33.37300
H  2.59500 11.91600 34.00400
Mg -5.02000 25.46600 26.05400
C  -3.96700 26.98600 29.11100
C  -6.87100 23.19300 27.96200
C  -5.96400 24.07100 23.12700
C  -2.95200 27.58900 24.24300
N  -5.48000 25.24700 28.33500
C  -4.85500 25.94200 29.33400
C  -5.45400 25.43700 30.70100
C  -5.98000 24.03900 30.36100
C  -6.20100 24.15200 28.79900
C  -5.18600 22.73100 30.80500
C  -6.50800 26.47800 31.30700
C  -6.36000 26.92700 32.80400
H  -5.65600 25.83600 33.77500
N  -6.19900 23.90600 25.56900
C  -6.87200 23.09700 26.49300
C  -7.67800 22.22800 25.77700
C  -7.38100 22.32900 24.40400
C  -6.47400 23.43000 24.30000
C  -8.74700 21.31000 26.43700
C  -7.78200 21.52900 23.21900
O  -7.50100 21.74500 22.04400
C  -8.57500 20.27700 23.39300
N  -4.41500 25.67900 24.00200
C  -4.98900 25.03700 22.97700
C  -4.51200 25.51800 21.57000
C  -3.91500 26.84700 21.99500
C  -3.65200 26.63900 23.49300
C  -3.50700 24.45400 21.01100
C  -4.88500 28.03700 21.63400
C  -4.39000 29.11800 20.76000
N  -3.77400 26.91400 26.55300
C  -2.99300 27.71400 25.68900
C  -2.41900 28.75100 26.44200
C  -2.65500 28.46600 27.80100
C  -3.57900 27.41400 27.82300
C  -1.56200 29.86000 25.91200
C  -2.45700 28.79800 29.12600
O  -1.75900 29.69700 29.52800
C  -3.23500 27.89900 30.13900
C  -2.22700 27.18500 31.00800
O  -1.22700 26.61700 30.63300
O  -2.67500 27.28300 32.27700
C  -1.68800 26.72300 33.20900
H  -7.39200 22.36600 28.44900
H  -6.30300 23.67100 22.16900
H  -2.65600 28.43200 23.61500
H  -4.67200 25.24400 31.43600
H  -7.05000 23.96500 30.55700
H  -5.13900 21.98500 30.01200
H  -5.58800 22.27200 31.70700
H  -4.15600 22.91800 31.11000
H  -7.54700 26.26900 31.05200
H  -6.14800 27.41400 30.88000
H  -7.36600 27.08200 33.19300
H  -5.88300 27.89700 32.94200
H  -9.54000 21.13600 25.71000
H  -9.12600 21.78600 27.34100
H  -8.20500 20.39200 26.66400
H  -9.62400 20.40900 23.65500
H  -8.11000 19.76300 24.23400
H  -8.32100 19.54900 22.62200
H  -5.38000 25.65400 20.92600
H  -2.96700 27.07800 21.50900
H  -3.66500 24.45400 19.93300
H  -3.69200 23.47800 21.46100
H  -2.47900 24.77400 21.18200
H  -5.19400 28.45900 22.59100
H  -5.84600 27.68100 21.26400
H  -3.30500 29.13000 20.65900
H  -4.53500 30.04400 21.31600
H  -4.76900 29.23200 19.74500
H  -1.57600 29.90400 24.82300
H  -0.58100 29.84600 26.38700
H  -1.93800 30.85300 26.16000
H  -3.93700 28.45300 30.76200
H  -1.47400 25.72500 32.82500
H  -2.25400 26.59800 34.13200
H  -0.84900 27.39600 33.38400

