158

Mg 8.85900 3.37300 27.73800
C  9.74700 1.74900 30.69900
C  7.21800 5.70800 29.65200
C  7.48800 4.58100 24.87000
C  10.15200 0.62100 25.86800
N  8.67900 3.79000 29.99200
C  9.13900 2.95400 31.02000
C  8.75300 3.50300 32.36800
C  7.92700 4.81500 31.97000
C  7.94400 4.81700 30.46100
C  6.45800 4.86400 32.57000
C  9.92000 3.66500 33.44600
C  9.62600 4.75900 34.49000
H  10.03400 4.52700 35.98300
N  7.65900 4.96200 27.30500
C  7.02600 5.83200 28.22900
C  6.25600 6.79300 27.58700
C  6.40000 6.52600 26.16900
C  7.28100 5.33000 26.04500
C  5.55400 7.84600 28.36300
C  5.88900 7.38200 25.01300
O  6.11600 7.08800 23.84200
C  5.26500 8.74500 25.30000
N  8.76300 2.64800 25.71900
C  8.17300 3.41400 24.69800
C  8.39100 2.70800 23.33900
C  9.19000 1.42500 23.68800
C  9.42100 1.58500 25.18000
C  7.08200 2.43300 22.57100
C  10.47100 1.27300 22.82400
C  10.41000 0.35000 21.59100
N  9.78300 1.61100 28.15700
C  10.25800 0.59600 27.31200
C  10.99900 -0.33900 28.06000
C  10.82600 0.12400 29.36600
C  9.97700 1.23900 29.36900
C  11.79900 -1.41000 27.59100
C  11.15300 -0.17800 30.71300
O  11.89500 -0.99100 31.19400
C  10.51700 0.86600 31.58100
C  9.69800 0.27900 32.60000
O  8.67100 -0.36700 32.38700
O  10.33700 0.44200 33.81800
C  9.76100 -0.32700 34.96700
H  6.78600 6.52600 30.23200
H  6.96000 4.89600 23.96800
H  10.57500 -0.20900 25.29800
H  8.01700 2.80700 32.77000
H  8.41500 5.72900 32.31000
H  5.89900 5.28900 31.73700
H  6.34300 5.62100 33.34600
H  6.05100 3.87300 32.77500
H  10.79500 4.06100 32.93000
H  10.18700 2.77900 34.02200
H  8.56300 4.97300 34.38500
H  10.16100 5.69900 34.35500
H  4.53400 7.81500 27.98000
H  5.94900 8.83600 28.13600
H  5.51700 7.80400 29.45200
H  4.41100 8.59400 25.96100
H  4.81500 9.10400 24.37500
H  5.97000 9.50500 25.63600
H  8.88800 3.37100 22.63000
H  8.68200 0.47700 23.51300
H  7.08100 2.97400 21.62400
H  6.25900 2.55300 23.27500
H  7.14200 1.37900 22.30100
H  11.31000 1.00800 23.46600
H  10.84200 2.18400 22.35500
H  10.20800 0.81900 20.62800
H  9.76400 -0.52600 21.64700
H  11.43200 -0.02900 21.58600
H  12.30400 -1.11500 26.67100
H  11.05200 -2.18800 27.43100
H  12.61200 -1.61600 28.28800
H  11.28300 1.52300 31.99500
H  8.89600 0.19800 35.37400
H  10.57600 -0.41800 35.68500
H  9.48700 -1.32900 34.63700
Mg 25.00700 -6.38500 47.73800
C  26.23600 -3.56500 46.08000
C  22.13700 -6.20000 45.55600
C  24.15800 -9.38600 48.59200
C  28.00600 -6.65800 49.34700
N  24.34600 -5.15300 45.99700
C  25.00100 -3.99500 45.58000
C  24.28300 -3.29900 44.36700
C  22.87300 -3.95300 44.51200
C  23.10800 -5.15200 45.39100
C  21.68500 -3.07800 44.95300
C  25.04000 -3.66200 43.05000
C  25.48500 -2.44800 42.18100
H  24.72100 -2.35800 40.83000
N  23.31300 -7.59600 47.19000
C  22.25600 -7.35800 46.39400
C  21.27400 -8.42500 46.51100
C  21.81700 -9.39900 47.43100
C  23.21100 -8.86800 47.74300
C  19.98100 -8.45800 45.68500
C  21.11200 -10.63100 47.93600
O  20.00200 -10.80600 47.51700
C  21.66000 -11.61500 49.01800
N  25.95600 -7.84600 48.86400
C  25.37800 -8.99900 49.12900
C  26.26600 -9.97200 50.01500
C  27.54700 -9.02900 50.22400
C  27.21200 -7.78900 49.39700
C  25.56300 -10.35600 51.29900
C  28.87400 -9.78100 49.85900
C  29.34400 -9.85800 48.39300
N  26.80300 -5.34700 47.83900
C  27.82800 -5.50600 48.63800
C  28.66500 -4.34000 48.53200
C  28.11100 -3.54600 47.48700
C  26.94900 -4.23200 47.08400
C  29.98000 -4.17400 49.22300
C  28.20300 -2.38200 46.59800
O  29.11700 -1.54000 46.52300
C  26.90900 -2.32200 45.81200
C  26.00500 -1.24700 46.44700
O  26.27000 -0.01600 46.27600
O  24.92700 -1.70600 47.21500
C  24.05500 -0.75500 47.81900
H  21.27200 -6.09900 44.89800
H  23.86700 -10.41900 48.79500
H  28.93300 -6.66400 49.92500
H  24.16100 -2.22300 44.49100
H  22.60000 -4.25200 43.50000
H  21.74900 -1.99300 44.87600
H  21.52500 -3.28400 46.01100
H  20.78800 -3.38700 44.41600
H  24.39700 -4.24900 42.39400
H  25.88800 -4.29900 43.30000
H  26.55600 -2.42800 41.97700
H  25.27000 -1.49600 42.66500
H  19.74500 -9.43500 45.26200
H  20.17000 -7.85100 44.79900
H  19.14800 -8.06900 46.27000
H  22.50400 -12.14300 48.57500
H  20.92500 -12.37900 49.27100
H  21.88100 -11.02300 49.90600
H  26.50500 -10.81900 49.37200
H  27.55000 -8.72700 51.27100
H  24.72000 -9.75700 51.64600
H  26.23700 -10.42200 52.15400
H  25.29700 -11.40100 51.14200
H  28.67700 -10.79500 50.20800
H  29.69600 -9.35600 50.43600
H  30.35900 -9.49400 48.24000
H  28.66600 -9.27300 47.77200
H  29.27300 -10.89900 48.07600
H  29.79000 -4.32900 50.28500
H  30.44900 -3.19500 49.12800
H  30.66200 -4.98300 48.95700
H  27.14600 -2.12400 44.76700
H  23.56300 -1.19400 48.68700
H  23.22800 -0.50700 47.15200
H  24.51700 0.16700 48.17100

