158

Mg 26.08200 0.93600 28.92200
C  27.95500 0.02400 31.76800
C  23.27100 0.97500 31.04400
C  24.27900 1.35900 26.28500
C  28.85600 0.23700 26.96800
N  25.73100 0.47100 31.16200
C  26.62000 0.21300 32.12400
C  26.10300 0.53700 33.59900
C  24.56100 0.65500 33.26000
C  24.50600 0.76900 31.74500
C  23.74400 -0.55600 33.65800
C  26.90500 1.67700 34.36900
C  27.72200 1.17500 35.53800
H  27.41400 1.91700 36.84200
N  24.08600 1.18100 28.70300
C  23.09300 1.10400 29.66900
C  21.82200 1.33700 29.05500
C  22.04500 1.48900 27.66600
C  23.52300 1.33800 27.46400
C  20.46200 1.27600 29.83500
C  21.09400 1.51600 26.53200
O  21.40200 1.68400 25.34600
C  19.58000 1.46900 26.80100
N  26.49000 0.52500 26.85900
C  25.53800 0.93600 25.98300
C  26.08400 0.93300 24.54400
C  27.61000 0.55000 24.73900
C  27.69600 0.51500 26.30100
C  25.42600 -0.11600 23.51900
C  28.63000 1.64100 24.17700
C  29.90300 1.07300 23.48400
N  28.07700 0.34900 29.26600
C  29.07900 0.11000 28.38300
C  30.32500 -0.13900 29.06300
C  29.95800 -0.21200 30.40500
C  28.58500 0.09600 30.52200
C  31.66600 -0.47100 28.51000
C  30.39100 -0.45800 31.77200
O  31.51800 -0.76300 32.13800
C  29.13900 -0.35500 32.68900
C  29.05900 -1.63000 33.40900
O  28.54500 -2.64200 32.98600
O  29.60000 -1.41900 34.63800
C  29.34900 -2.37100 35.71400
H  22.41500 0.96900 31.72300
H  23.78900 1.59600 25.33800
H  29.77300 0.17500 26.37900
H  26.28300 -0.39600 34.13400
H  24.09600 1.57200 33.62100
H  23.06800 -0.85000 32.85600
H  23.15500 -0.29400 34.53800
H  24.46300 -1.33600 33.90900
H  26.10400 2.26100 34.82200
H  27.54900 2.23900 33.69200
H  28.76500 1.43600 35.35700
H  27.61900 0.10100 35.69200
H  20.14500 0.23600 29.76100
H  19.82000 2.01200 29.34900
H  20.54300 1.60800 30.87000
H  18.95200 1.55200 25.91400
H  19.17000 2.26400 27.42400
H  19.36300 0.52000 27.29100
H  25.84000 1.89700 24.09800
H  27.96500 -0.42500 24.40600
H  24.91500 -0.81200 24.18500
H  26.11900 -0.74400 22.96000
H  24.74400 0.33100 22.79600
H  28.88400 2.37500 24.94200
H  28.03600 2.15300 23.42000
H  30.71700 1.79100 23.38400
H  29.54600 0.70500 22.52200
H  30.18100 0.20900 24.08700
H  31.38500 -1.37300 27.96600
H  32.44700 -0.55000 29.26600
H  31.91600 0.33300 27.81800
H  29.41400 0.52500 33.27100
H  28.57200 -1.89300 36.31000
H  30.20900 -2.62700 36.33300
H  28.84700 -3.27500 35.37000
Mg 55.38600 23.49300 45.35000
C  52.94500 25.71800 44.49200
C  53.39300 20.94200 44.04200
C  58.04900 21.43000 45.14200
C  57.40400 26.10200 46.39700
N  53.29400 23.39700 44.49300
C  52.49800 24.42500 44.14200
C  51.26600 23.88600 43.37000
C  51.33000 22.33900 43.57500
C  52.81400 22.22700 44.08000
C  50.26700 21.67800 44.57100
C  51.22700 24.38300 41.88000
C  49.86000 24.84000 41.34600
H  49.30200 24.33600 39.99100
N  55.65200 21.45900 44.77300
C  54.69300 20.52900 44.29300
C  55.24500 19.26600 44.13600
C  56.59000 19.32400 44.42700
C  56.84300 20.76600 44.79900
C  54.35700 18.11600 43.74500
C  57.64600 18.20500 44.37100
O  57.32400 17.05100 44.14600
C  59.16100 18.37000 44.55000
N  57.48500 23.73600 45.57200
C  58.36300 22.71400 45.57000
C  59.68600 23.09600 46.09600
C  59.48100 24.53000 46.54800
C  58.02000 24.85300 46.19700
C  60.22300 22.09400 47.15500
C  60.37700 25.65700 45.89700
C  61.61700 26.10900 46.66300
N  55.14600 25.45000 45.61200
C  56.07600 26.42900 46.01100
C  55.45000 27.73600 46.01000
C  54.23100 27.48100 45.41600
C  54.10200 26.12700 45.16400
C  56.13500 29.04700 46.39500
C  52.98700 28.09300 45.00100
O  52.66700 29.23900 45.05100
C  52.13500 26.99500 44.41600
C  51.67100 27.55800 43.10300
O  52.34300 27.66300 42.08200
O  50.44000 28.12800 43.24200
C  49.90900 29.03300 42.24300
H  52.73800 20.13100 43.71600
H  58.96600 20.83800 45.09600
H  57.96200 26.90500 46.88300
H  50.46200 24.39000 43.90600
H  51.27700 21.91300 42.57300
H  50.83300 21.13400 45.32600
H  49.65800 21.03200 43.93900
H  49.60300 22.38200 45.07300
H  51.63400 23.52300 41.34800
H  52.05400 25.08300 41.76500
H  49.94900 25.92600 41.32000
H  49.22100 24.50600 42.16400
H  54.07800 18.29900 42.70700
H  53.41300 18.04100 44.28600
H  54.91600 17.18000 43.73500
H  59.39100 19.11800 43.79200
H  59.54400 17.37000 44.34600
H  59.31900 18.76700 45.55300
H  60.38600 22.96000 45.27200
H  59.53400 24.56400 47.63700
H  61.17300 21.68600 46.80900
H  59.51900 21.27700 47.31100
H  60.41200 22.65600 48.07000
H  59.84300 26.56100 45.60500
H  60.74100 25.14000 45.00800
H  61.59300 27.16500 46.93000
H  62.58500 25.78500 46.28200
H  61.60200 25.71100 47.67800
H  57.07000 29.14100 45.84400
H  56.37500 28.98500 47.45700
H  55.49900 29.91300 46.20900
H  51.15300 26.91700 44.88100
H  48.87600 29.29500 42.47400
H  49.94300 28.62100 41.23500
H  50.42100 29.99400 42.27200

