158

Mg 17.67500 -1.72800 27.59000
C  16.53100 0.08100 30.45000
C  19.71800 -3.43600 29.69500
C  19.37700 -2.71300 24.80400
C  15.79400 0.46300 25.65700
N  18.13300 -1.53500 29.87500
C  17.42400 -0.86100 30.81700
C  17.91600 -1.20100 32.30400
C  19.01500 -2.29100 31.98600
C  18.94900 -2.45700 30.39200
C  20.36200 -2.01100 32.56600
C  16.70400 -1.60700 33.21800
C  16.60200 -0.92200 34.59900
H  17.80500 -0.26000 35.20400
N  19.12100 -3.03000 27.29000
C  19.81600 -3.70700 28.30900
C  20.67600 -4.73900 27.66900
C  20.61700 -4.45700 26.28100
C  19.64000 -3.33000 26.02600
C  21.28900 -5.90300 28.46900
C  21.62100 -5.12000 25.16900
O  21.42900 -4.80100 23.96300
C  22.63700 -6.04800 25.65400
N  17.62300 -1.15900 25.52900
C  18.43200 -1.71600 24.57900
C  18.13000 -1.16200 23.21400
C  16.83300 -0.36200 23.40600
C  16.70700 -0.30200 24.93300
C  19.34900 -0.40900 22.53900
C  15.52700 -1.00600 22.81600
C  14.49800 -0.03000 22.20700
N  16.29500 -0.17700 27.88700
C  15.65400 0.62000 27.01700
C  14.74500 1.53600 27.65700
C  15.12300 1.43400 29.03200
C  16.06500 0.32500 29.09700
C  13.87000 2.47500 26.97200
C  14.84300 1.89700 30.44600
O  13.98000 2.69700 30.87100
C  15.82300 1.09600 31.38000
C  16.71900 2.09600 31.94500
O  17.84600 2.41600 31.54200
O  15.98800 2.66600 32.93600
C  16.77700 3.67400 33.62300
H  20.35300 -4.03300 30.35200
H  20.06100 -2.93700 23.98300
H  15.27300 1.14900 24.98500
H  18.38600 -0.29300 32.68100
H  18.70900 -3.13500 32.60400
H  20.52800 -2.67800 33.41200
H  20.50800 -0.98000 32.88600
H  21.15500 -2.18000 31.83700
H  16.68000 -2.69600 33.23500
H  15.78900 -1.35200 32.68200
H  16.21000 -1.66000 35.29900
H  15.77000 -0.21800 34.61100
H  21.01100 -6.82600 27.96000
H  20.84500 -5.94400 29.46400
H  22.37300 -5.80000 28.51100
H  23.46600 -5.69700 26.26800
H  23.01900 -6.44600 24.71400
H  22.00800 -6.76900 26.17800
H  17.79100 -2.01900 22.63200
H  16.88300 0.63500 22.96800
H  20.28300 -0.54000 23.08600
H  19.14200 0.66000 22.58300
H  19.40200 -0.66600 21.48100
H  15.07100 -1.51400 23.66600
H  15.68800 -1.77100 22.05600
H  14.40900 -0.08500 21.12200
H  14.64100 1.02200 22.45200
H  13.53800 -0.28300 22.65600
H  13.18900 1.91900 26.32800
H  14.48400 3.14200 26.36600
H  13.26100 3.04700 27.67300
H  15.22100 0.69500 32.19600
H  16.91500 4.47200 32.89400
H  17.63400 3.19500 34.09700
H  16.20100 4.02900 34.47700
Mg -10.14600 17.24500 41.28400
C  -6.61600 16.65700 41.48600
C  -9.38300 20.56800 40.22400
C  -13.41500 17.73200 40.66500
C  -10.54400 13.79400 41.52100
N  -8.22400 18.50000 40.89400
C  -6.91400 18.00600 41.05600
C  -6.02400 19.06800 40.46700
C  -6.84700 20.33000 40.72700
C  -8.22100 19.76400 40.46500
C  -6.68700 20.96500 42.07900
C  -5.58700 18.91900 39.06200
C  -4.13400 18.52100 38.88200
H  -3.83200 17.24400 38.04500
N  -11.21400 18.91200 40.57600
C  -10.75500 20.16500 40.25600
C  -11.85800 21.01600 39.92200
C  -13.08400 20.21200 40.09100
C  -12.62100 18.91000 40.51500
C  -11.81300 22.47700 39.41900
C  -14.55700 20.79500 39.84500
O  -14.79100 21.95100 39.42800
C  -15.76100 19.97600 40.18200
N  -11.68300 15.95400 40.85900
C  -12.96300 16.42300 40.88000
C  -14.01000 15.30400 40.98300
C  -13.06700 14.06100 41.17400
C  -11.66000 14.65200 41.04900
C  -15.06000 15.41100 42.11900
C  -13.31000 12.95400 40.14600
C  -12.88300 13.20700 38.67500
N  -8.91000 15.57500 41.59300
C  -9.21700 14.27000 41.73800
C  -7.98000 13.47600 41.88800
C  -6.94200 14.42200 41.91300
C  -7.55800 15.67700 41.68800
C  -7.92800 11.97300 42.01100
C  -5.44200 14.53000 41.86100
O  -4.58300 13.64800 41.80900
C  -5.14900 16.02100 41.66500
C  -4.36900 16.60900 42.74900
O  -3.72600 17.65500 42.66300
O  -4.52100 15.93000 43.93700
C  -3.75600 16.45700 45.06900
H  -9.02700 21.58600 40.05200
H  -14.50000 17.76200 40.54500
H  -10.71500 12.71700 41.57700
H  -5.16700 19.22100 41.12300
H  -6.77400 21.19800 40.07100
H  -6.35200 22.00100 42.03600
H  -5.92500 20.52900 42.72400
H  -7.60800 21.07200 42.65200
H  -5.78300 19.84100 38.51300
H  -6.17100 18.17300 38.52400
H  -3.66800 18.31000 39.84400
H  -3.42200 19.21100 38.42800
H  -11.01300 23.06200 39.87200
H  -12.73700 23.04600 39.51500
H  -11.46200 22.34300 38.39600
H  -15.62400 19.49400 41.15100
H  -15.95900 19.20200 39.44000
H  -16.65000 20.59900 40.27700
H  -14.47800 15.22000 40.00200
H  -13.24200 13.59000 42.14100
H  -14.88300 16.38000 42.58700
H  -15.04800 14.58000 42.82400
H  -16.00500 15.55600 41.59400
H  -14.37100 12.70400 40.13700
H  -12.78400 12.08300 40.53900
H  -13.75900 13.38200 38.05000
H  -12.28500 12.39600 38.25900
H  -12.27900 14.11200 38.72900
H  -8.58200 11.73200 42.84800
H  -6.95900 11.51700 42.21400
H  -8.31700 11.69900 41.03000
H  -4.63500 15.95800 40.70500
H  -3.11100 17.31800 44.89400
H  -3.06900 15.64000 45.29500
H  -4.29700 16.56200 46.01000

