158

Mg 49.30900 35.61600 27.13900
C  47.14000 34.01300 29.43300
C  49.46400 38.25000 29.43000
C  50.60700 37.59600 24.69600
C  48.87000 33.01600 24.82000
N  48.56100 35.90000 29.24200
C  47.79200 35.11300 30.01200
C  47.70900 35.59400 31.45000
C  48.17800 37.10700 31.33100
C  48.80100 37.06900 29.92400
C  47.06400 38.20300 31.67200
C  48.64000 34.74100 32.36100
C  48.35700 34.76900 33.90800
H  47.35400 35.68500 34.43800
N  50.01200 37.55400 27.09600
C  49.95300 38.49500 28.11800
C  50.57500 39.81400 27.66300
C  50.93900 39.61200 26.28900
C  50.53100 38.19700 25.98800
C  50.61900 40.99200 28.52800
C  51.62300 40.55800 25.29100
O  52.14500 40.15200 24.22300
C  51.90200 42.04500 25.61300
N  49.67700 35.25000 24.98500
C  50.28900 36.28300 24.26300
C  50.74100 35.67300 22.90100
C  50.35800 34.13300 23.04700
C  49.63800 34.08600 24.33500
C  50.18200 36.51000 21.67700
C  51.62700 33.16000 23.08000
C  51.31900 31.76000 22.59800
N  48.18300 33.91400 27.07500
C  48.09200 32.95200 26.03900
C  47.19800 31.90600 26.55400
C  46.78800 32.27700 27.78900
C  47.45000 33.47500 28.14600
C  46.87500 30.59100 25.88000
C  45.90000 31.89400 28.81200
O  45.17700 30.93900 29.03600
C  46.01900 33.12700 29.89800
C  46.16500 32.60000 31.30700
O  46.92500 31.69800 31.60000
O  45.25800 33.16300 32.16900
C  45.19800 32.58600 33.55600
H  49.28100 39.10200 30.08700
H  51.12600 38.26100 24.00200
H  48.83900 32.12600 24.18800
H  46.67200 35.46000 31.75800
H  49.00100 37.27300 32.02600
H  46.93800 38.89300 30.83800
H  47.45000 38.71500 32.55300
H  46.08100 37.78000 31.87900
H  49.64200 35.14100 32.21000
H  48.67300 33.69500 32.05500
H  49.32400 34.87500 34.39900
H  48.01200 33.75700 34.11700
H  50.16100 40.94100 29.51600
H  50.03500 41.67700 27.91300
H  51.68100 41.23100 28.57200
H  52.40300 42.47900 24.74800
H  52.45300 42.16800 26.54600
H  50.89600 42.46200 25.60000
H  51.82800 35.62600 22.85000
H  49.65700 33.84300 22.26400
H  49.36500 35.88800 21.31200
H  50.96300 36.65800 20.93200
H  49.82400 37.48800 22.00000
H  51.98200 33.02700 24.10200
H  52.52600 33.58400 22.63300
H  52.12700 31.68000 21.87100
H  50.30800 31.75000 22.19000
H  51.57600 30.95100 23.28200
H  46.02600 30.74600 25.21300
H  46.86500 29.78100 26.60900
H  47.63500 30.32000 25.14600
H  45.06300 33.64900 29.85700
H  44.18500 32.91600 33.78400
H  45.94900 33.15100 34.10900
H  45.42700 31.52500 33.45600
Mg 1.15600 41.02500 26.20900
C  2.32800 41.85800 29.44000
C  -1.60800 39.84900 27.74900
C  0.04200 40.58400 23.10900
C  4.19400 42.47400 24.94300
N  0.37300 41.09300 28.36000
C  0.99500 41.52000 29.46700
C  0.14400 41.36700 30.67400
C  -1.16200 40.58100 30.15000
C  -0.81500 40.43000 28.66000
C  -1.50600 39.30600 30.97600
C  -0.10900 42.74400 31.29500
C  0.58700 42.92300 32.65300
H  -0.38100 43.06100 33.87400
N  -0.40000 40.12000 25.51300
C  -1.48600 39.61800 26.28900
C  -2.33700 38.91200 25.40500
C  -1.96000 39.19800 24.07200
C  -0.72500 39.95300 24.16600
C  -3.62000 38.29700 25.98300
C  -2.71800 38.92500 22.75200
O  -2.29600 39.30400 21.65600
C  -4.07100 38.24900 22.73700
N  2.12500 41.36300 24.31600
C  1.29600 41.17800 23.17800
C  2.09200 41.59900 21.91000
C  3.21300 42.47800 22.60600
C  3.23300 42.09500 24.01000
C  2.68900 40.50600 21.00200
C  2.99300 44.10100 22.38400
C  4.13400 44.94100 21.83100
N  2.96700 41.90700 27.03300
C  4.09300 42.36800 26.38600
C  5.05600 42.70400 27.40400
C  4.38600 42.53900 28.60500
C  3.11400 42.08700 28.32600
C  6.39800 43.16900 27.15900
C  4.58800 42.53700 30.01900
O  5.55600 42.89400 30.71100
C  3.23700 42.08300 30.64600
C  3.51300 40.77100 31.53100
O  3.34300 39.60400 31.18600
O  3.77300 41.20800 32.81900
C  3.40000 40.35700 33.92200
H  -2.56800 39.57200 28.18900
H  -0.36500 40.48400 22.10000
H  5.11900 42.96500 24.63400
H  0.75400 40.73600 31.32000
H  -1.99100 41.28700 30.18200
H  -2.00700 38.53600 30.38800
H  -2.21100 39.55300 31.77000
H  -0.68200 38.75300 31.42700
H  -1.17800 42.91300 31.42300
H  0.23400 43.45900 30.54700
H  1.07800 43.89600 32.61200
H  1.31900 42.15200 32.89400
H  -4.44500 38.96600 25.73900
H  -3.63500 38.26600 27.07200
H  -3.90800 37.27900 25.71900
H  -4.78500 38.99100 23.09200
H  -3.94300 37.42900 23.44400
H  -4.38900 37.95400 21.73700
H  1.47800 42.22900 21.26600
H  4.15500 42.09500 22.21500
H  2.80700 39.56200 21.53400
H  3.68300 40.74100 20.62000
H  2.04200 40.33900 20.14200
H  2.79500 44.44500 23.39900
H  2.13600 44.36200 21.76300
H  4.65200 45.55700 22.56700
H  3.68000 45.51900 21.02600
H  4.88400 44.29200 21.37800
H  7.01700 42.27200 27.15200
H  6.68300 43.92100 27.89500
H  6.46200 43.72500 26.22400
H  3.07400 42.85800 31.39500
H  3.49500 40.95200 34.83000
H  4.24000 39.67800 34.06300
H  2.43300 39.89000 33.73500

