158

Mg 35.83600 0.83900 29.88900
C  33.79400 2.08900 32.50700
C  38.45400 0.79900 32.14600
C  37.88300 -0.24000 27.38400
C  33.30100 1.45500 27.63700
N  35.99000 1.33500 32.09200
C  35.05200 1.74200 32.99200
C  35.64000 2.01400 34.35200
C  37.15300 1.76200 34.19500
C  37.23800 1.17800 32.73700
C  38.08700 3.04300 34.42500
C  34.87300 1.18800 35.47200
C  34.35000 1.95000 36.78500
H  35.08300 3.08300 37.39400
N  37.88700 0.19600 29.76800
C  38.81300 0.36300 30.78700
C  40.17200 0.11500 30.32100
C  39.96500 -0.36100 28.94600
C  38.54400 -0.18500 28.61400
C  41.45600 0.30400 31.12200
C  41.08200 -0.86600 27.95500
O  40.79300 -1.21200 26.79900
C  42.49200 -0.92500 28.48800
N  35.62800 0.64500 27.81400
C  36.56800 0.09700 26.99100
C  36.12600 0.01000 25.53700
C  34.62500 0.56500 25.65300
C  34.52100 0.91400 27.12900
C  37.05800 0.60200 24.46500
C  33.56300 -0.37900 25.17500
C  33.30300 -1.64800 25.94100
N  34.03300 1.72800 29.97500
C  33.06300 1.81800 28.97000
C  31.82700 2.19500 29.51400
C  32.09300 2.46100 30.90000
C  33.42100 2.02500 31.15000
C  30.53000 2.43600 28.77000
C  31.52400 2.85500 32.15100
O  30.31600 3.11300 32.34400
C  32.59200 2.70900 33.23800
C  32.92600 4.05400 33.78200
O  33.70700 4.86200 33.24600
O  32.12000 4.35000 34.81800
C  32.32500 5.63300 35.55800
H  39.27800 0.92300 32.85200
H  38.53800 -0.58900 26.58300
H  32.45300 1.53700 26.95400
H  35.44600 3.06500 34.56400
H  37.56900 1.02900 34.88600
H  37.49100 3.93800 34.24800
H  38.94300 3.00900 33.75100
H  38.62300 2.99200 35.37300
H  35.58200 0.41400 35.76500
H  33.97000 0.72300 35.07600
H  34.19300 1.17800 37.53800
H  33.37300 2.38400 36.57000
H  41.32500 0.98200 31.96600
H  42.20900 0.85500 30.55700
H  41.95100 -0.62200 31.41400
H  42.91100 0.07900 28.42100
H  43.02900 -1.62600 27.84900
H  42.64500 -1.35500 29.47800
H  36.05000 -1.03200 25.22400
H  34.60200 1.57200 25.23500
H  37.58500 -0.11400 23.83400
H  37.91300 1.20400 24.77300
H  36.47000 1.27700 23.84200
H  33.95300 -0.67300 24.20100
H  32.65600 0.19700 24.99000
H  34.00500 -1.76500 26.76700
H  33.35500 -2.50700 25.27300
H  32.33600 -1.57600 26.43700
H  29.72400 1.90200 29.27400
H  30.65000 2.01400 27.77200
H  30.21900 3.47400 28.65900
H  32.19600 2.10300 34.05200
H  33.32000 6.05700 35.42200
H  32.21200 5.49600 36.63300
H  31.54800 6.33200 35.24800
Mg -6.30300 24.52500 26.53800
C  -4.55200 26.41700 28.89900
C  -7.07500 22.28600 29.06600
C  -7.88200 22.65700 24.26900
C  -4.98600 26.57200 23.99900
N  -5.95000 24.40000 28.79400
C  -5.37100 25.41000 29.50500
C  -5.54000 25.05800 31.01400
C  -5.96200 23.52800 30.99700
C  -6.41200 23.35600 29.49700
C  -4.80000 22.44700 31.39500
C  -6.64200 26.03400 31.67700
C  -6.36400 26.32900 33.08800
H  -6.94500 25.79400 34.38100
N  -7.30200 22.74600 26.65000
C  -7.52200 21.99900 27.75700
C  -8.25000 20.84000 27.44900
C  -8.61400 20.92600 26.08300
C  -7.98100 22.14800 25.56300
C  -8.68800 19.75100 28.46200
C  -9.52500 19.93700 25.27300
O  -9.73500 20.20100 24.07100
C  -10.27900 18.78300 25.90900
N  -6.52200 24.64800 24.53900
C  -7.23100 23.82000 23.79300
C  -7.48700 24.31200 22.29600
C  -6.42000 25.46700 22.27600
C  -5.86600 25.57900 23.66900
C  -7.39700 23.22500 21.12000
C  -6.88800 26.85300 21.67000
C  -5.96800 27.48100 20.54000
N  -4.98700 26.13400 26.37900
C  -4.61400 26.85600 25.30400
C  -3.86000 27.97800 25.73300
C  -3.77500 27.90500 27.12400
C  -4.51500 26.72100 27.49700
C  -3.33600 28.97300 24.78800
C  -3.23900 28.56500 28.38600
O  -2.60300 29.58100 28.63500
C  -3.73800 27.56500 29.53600
C  -2.53700 27.17600 30.33500
O  -1.67800 26.38600 29.95200
O  -2.63800 27.71200 31.53900
C  -1.67900 27.32900 32.59600
H  -7.32900 21.70400 29.95400
H  -8.37000 22.08700 23.47500
H  -4.71800 27.23800 23.17600
H  -4.61800 25.33200 31.52700
H  -6.88300 23.33100 31.54600
H  -4.71300 21.68600 30.62000
H  -5.06600 21.86100 32.27500
H  -3.82600 22.87200 31.63900
H  -7.57200 25.47300 31.58100
H  -6.79500 26.93100 31.07800
H  -6.38200 27.41800 33.14000
H  -5.30600 26.19500 33.31300
H  -9.57300 19.99700 29.04900
H  -7.85400 19.47300 29.10500
H  -8.96700 18.89300 27.85000
H  -10.71100 19.07000 26.86700
H  -9.59000 17.95900 26.09400
H  -11.17100 18.50400 25.34600
H  -8.40600 24.87500 22.13100
H  -5.62100 25.09200 21.63600
H  -7.59300 22.18200 21.36800
H  -6.44000 23.26700 20.59900
H  -8.21600 23.48300 20.44900
H  -7.00600 27.62400 22.43100
H  -7.85300 26.85600 21.16100
H  -5.66200 28.51100 20.72500
H  -6.55500 27.44000 19.62300
H  -5.10100 26.83900 20.38800
H  -4.13200 29.30900 24.12300
H  -2.56400 28.60000 24.11400
H  -2.88000 29.85900 25.23000
H  -4.44400 28.15100 30.12500
H  -0.69000 27.19200 32.16000
H  -2.06500 26.43100 33.07800
H  -1.54900 28.20600 33.23000

