158

Mg 6.32200 54.12400 40.83100
C  6.12300 50.49800 40.72900
C  9.65700 53.83500 40.00800
C  6.30500 57.42600 40.54600
C  2.75700 54.03300 40.83500
N  7.64600 52.35100 40.29200
C  7.42600 50.97800 40.33800
C  8.65700 50.20200 39.97800
C  9.74900 51.23400 40.20100
C  9.01400 52.54900 40.21600
C  10.61200 51.01200 41.48600
C  8.70100 49.41300 38.64700
C  8.80300 50.27800 37.25800
H  7.55000 50.29200 36.38300
N  7.78000 55.39400 40.32100
C  9.13900 55.08600 40.05600
C  9.86000 56.31300 39.84800
C  8.89300 57.37500 40.18300
C  7.60100 56.75500 40.37800
C  11.38800 56.44100 39.56400
C  9.17200 58.84600 40.13700
O  10.32500 59.18100 39.90800
C  8.07600 59.98100 40.31800
N  4.75900 55.50200 40.64400
C  5.03900 56.86700 40.67100
C  3.83000 57.66700 41.07100
C  2.66200 56.53000 40.76900
C  3.46300 55.26900 40.66100
C  3.83600 58.07900 42.60200
C  2.02700 56.82300 39.32100
C  0.55500 57.35200 39.38900
N  4.68100 52.63000 40.97700
C  3.33300 52.77000 40.97800
C  2.69200 51.47500 41.21700
C  3.85600 50.59400 41.14000
C  5.01600 51.34000 40.99800
C  1.22600 51.24000 41.27200
C  4.24100 49.19000 41.23600
O  3.56400 48.19400 41.49300
C  5.70600 49.06600 40.90500
C  5.65300 48.26100 39.69200
O  5.25600 48.70300 38.59700
O  6.06600 47.03900 39.97900
C  5.85900 46.01900 38.93700
H  10.73300 53.65300 39.95600
H  6.17800 58.49600 40.72300
H  1.68500 54.12700 41.02100
H  8.66500 49.51700 40.82600
H  10.47800 51.19300 39.39200
H  11.64600 51.18800 41.19300
H  10.68500 49.99000 41.86000
H  10.30100 51.61300 42.34100
H  7.74800 48.89900 38.52000
H  9.55400 48.73600 38.60900
H  9.65300 49.89900 36.69000
H  8.98300 51.28900 37.62300
H  11.63500 56.90200 38.60800
H  11.87500 55.47500 39.69900
H  11.62900 57.08900 40.40700
H  7.24000 59.90300 39.62300
H  8.70400 60.85100 40.12500
H  7.83100 59.99400 41.38000
H  3.74600 58.55700 40.44800
H  1.90600 56.48300 41.55300
H  3.18900 57.46300 43.22600
H  3.63800 59.15100 42.57700
H  4.88300 57.95400 42.87700
H  2.06200 55.86600 38.80000
H  2.61100 57.50600 38.70500
H  0.38500 58.33100 39.83700
H  -0.11400 56.67400 39.92000
H  0.16800 57.41300 38.37200
H  1.08200 50.60400 40.39900
H  0.70500 52.19600 41.33200
H  0.98900 50.73800 42.20900
H  6.30700 48.59300 41.68200
H  6.60400 45.26600 39.19400
H  6.20400 46.46100 38.00200
H  4.80400 45.75000 38.98600
Mg -11.64700 39.33500 42.69500
C  -10.06500 36.36500 41.59100
C  -9.12900 40.96700 41.19900
C  -13.39200 42.13100 43.13500
C  -14.38000 37.39800 43.65200
N  -9.84800 38.62600 41.44400
C  -9.30800 37.43900 41.20100
C  -8.01600 37.49000 40.40800
C  -7.57800 39.03100 40.59100
C  -8.92600 39.58000 41.10800
C  -6.47000 39.26800 41.68200
C  -8.18800 37.05500 38.90100
C  -7.09500 36.09300 38.34000
H  -6.03900 36.73300 37.48700
N  -11.23000 41.35100 42.37700
C  -10.17100 41.78100 41.64800
C  -10.25000 43.21700 41.56900
C  -11.51700 43.59800 42.14800
C  -12.09500 42.32900 42.62100
C  -9.07400 44.07300 41.13000
C  -11.97800 45.00000 42.34700
O  -11.40000 45.98100 41.94100
C  -13.20000 45.37500 43.28400
N  -13.52200 39.70200 43.39000
C  -14.04500 40.95500 43.47900
C  -15.37400 40.95600 44.31200
C  -15.74300 39.42600 44.10800
C  -14.47100 38.76700 43.66600
C  -15.06300 41.39000 45.74700
C  -17.04900 38.96200 43.26200
C  -18.27200 38.32200 44.03200
N  -12.23100 37.24300 42.59800
C  -13.32100 36.67900 43.08600
C  -13.15700 35.25500 42.99100
C  -11.95000 35.09700 42.38600
C  -11.38900 36.35300 42.23300
C  -14.07900 34.25200 43.53900
C  -11.03100 34.11600 41.92400
O  -10.99900 32.90400 41.93300
C  -9.76600 34.90600 41.41200
C  -8.55100 34.39600 42.13800
O  -8.26100 34.55400 43.30200
O  -7.78800 33.74400 41.25000
C  -6.58500 33.07400 41.80200
H  -8.47700 41.64000 40.63900
H  -14.02200 43.01900 43.22700
H  -15.20700 36.91100 44.17300
H  -7.26500 36.85700 40.88100
H  -7.27400 39.50700 39.66000
H  -5.56100 39.72900 41.29400
H  -6.19400 38.26400 42.00600
H  -6.82200 39.85400 42.53100
H  -8.10000 37.96100 38.30000
H  -9.13800 36.55500 38.71100
H  -7.77400 35.41800 37.82000
H  -6.57200 35.45900 39.05600
H  -8.09600 43.60000 41.21500
H  -9.09000 44.92400 41.81100
H  -9.17700 44.38600 40.09200
H  -14.14500 45.28000 42.74900
H  -13.14500 46.39900 43.65400
H  -13.14900 44.72400 44.15700
H  -16.14100 41.55400 43.82100
H  -15.76400 39.06900 45.13800
H  -14.12500 41.94200 45.80300
H  -15.03300 40.63900 46.53600
H  -15.72100 42.17000 46.13100
H  -16.72000 38.25300 42.50300
H  -17.39000 39.80600 42.66300
H  -18.26500 38.43500 45.11600
H  -18.38500 37.25700 43.82800
H  -19.19900 38.84400 43.79700
H  -13.56600 33.29400 43.62300
H  -14.91800 34.21600 42.84400
H  -14.48200 34.56600 44.50200
H  -9.65500 34.70500 40.34600
H  -5.76600 33.79400 41.78900
H  -6.33800 32.25000 41.13300
H  -6.72500 32.73100 42.82700

