158

Mg 46.86800 24.34300 27.97400
C  47.45700 26.88600 30.33000
C  46.27900 22.17100 30.36500
C  46.67600 22.15300 25.55800
C  47.91000 26.80300 25.51800
N  46.99200 24.51500 30.11000
C  47.09400 25.63400 30.88700
C  46.70700 25.33700 32.35500
C  46.62200 23.75900 32.26500
C  46.63500 23.44900 30.82200
C  47.71400 23.02700 33.13000
C  45.42300 25.98000 32.89300
C  45.03500 25.51500 34.31100
H  44.80900 26.60500 35.40000
N  46.51600 22.36300 27.97100
C  46.12100 21.62400 29.02800
C  45.96200 20.25100 28.60800
C  46.04000 20.24200 27.15700
C  46.49000 21.60500 26.84900
C  45.54800 19.12900 29.55600
C  45.73800 19.06600 26.22800
O  45.71500 19.18400 24.97400
C  45.37900 17.65600 26.78000
N  47.26100 24.45400 25.86900
C  47.08400 23.34500 25.09100
C  47.34700 23.66100 23.62700
C  47.61900 25.16100 23.57700
C  47.52100 25.51000 25.08100
C  48.69500 22.95200 23.15000
C  46.59000 25.99800 22.68400
C  45.35800 26.56200 23.39200
N  47.47900 26.42300 27.86400
C  47.89400 27.23200 26.79100
C  48.28500 28.53100 27.25100
C  48.15800 28.48500 28.63500
C  47.66700 27.21500 28.94200
C  48.84500 29.52900 26.34600
C  48.39300 29.12100 29.94300
O  48.92300 30.19100 30.10200
C  47.69200 28.21800 31.05600
C  48.47200 28.10200 32.32600
O  49.53400 27.45600 32.51200
O  47.75400 28.70900 33.36000
C  48.45200 28.57800 34.63500
H  45.99000 21.40100 31.08400
H  46.47300 21.48800 24.71600
H  48.18800 27.37300 24.62900
H  47.60300 25.67800 32.87400
H  45.61600 23.47100 32.57100
H  47.43900 22.88500 34.17400
H  48.56300 23.70700 33.20400
H  48.10800 22.10300 32.70700
H  44.51500 25.77800 32.32600
H  45.53400 27.06000 32.80100
H  45.78700 24.85300 34.74200
H  44.12200 24.92500 34.23400
H  44.62300 18.70300 29.16600
H  45.49000 19.48300 30.58500
H  46.38400 18.42900 29.54600
H  46.04100 17.39200 27.60500
H  45.51800 16.93700 25.97200
H  44.31400 17.72300 27.00100
H  46.57100 23.21400 23.00600
H  48.60400 25.47800 23.23600
H  48.95900 22.10300 23.78200
H  49.51600 23.66500 23.08300
H  48.51500 22.48200 22.18400
H  46.16700 25.29800 21.96400
H  47.16200 26.80600 22.22800
H  45.42600 26.30500 24.44900
H  44.40500 26.12400 23.09400
H  45.40800 27.64800 23.31100
H  48.69600 30.50400 26.81000
H  48.25500 29.51800 25.43000
H  49.90800 29.37200 26.16100
H  46.69200 28.55100 31.33500
H  48.23700 29.46300 35.23300
H  49.54100 28.61000 34.66800
H  48.11300 27.70600 35.19400
Mg 30.75900 58.71700 38.91000
C  27.62400 57.12300 38.33300
C  32.40000 55.90800 37.78400
C  33.59200 60.61600 38.55700
C  28.98500 61.72600 39.41300
N  30.05100 56.81200 38.02300
C  28.72500 56.32000 38.00400
C  28.73000 54.90800 37.47100
C  30.19700 54.46800 37.58000
C  31.00500 55.81600 37.81500
C  30.42400 53.44700 38.71100
C  28.26200 54.89600 35.99800
C  26.83300 54.35600 35.58900
H  25.95700 55.30200 34.75300
N  32.72600 58.30000 38.45000
C  33.19200 57.07700 38.12800
C  34.64200 57.15400 38.16200
C  35.08200 58.43200 38.34300
C  33.81700 59.25200 38.44800
C  35.57700 55.99000 37.98900
C  36.49300 58.96800 38.42600
O  37.41900 58.25400 38.04600
C  36.74400 60.27800 38.98300
N  31.14000 60.95500 38.84200
C  32.41000 61.44300 38.78500
C  32.40200 62.98800 38.93300
C  30.86600 63.33100 39.22900
C  30.31100 61.93800 39.18200
C  33.38000 63.68400 39.92600
C  30.20500 64.26700 38.21700
C  29.47100 65.53200 38.66600
N  28.67100 59.29200 38.89100
C  28.14200 60.58100 39.15900
C  26.67200 60.42800 39.20500
C  26.41200 59.07300 38.88800
C  27.65800 58.46700 38.77700
C  25.77400 61.54100 39.55200
C  25.39600 58.05200 38.75600
O  24.20900 58.19200 38.80500
C  26.15500 56.74600 38.26900
C  25.76800 55.59800 39.11800
O  26.06700 55.53300 40.28900
O  24.93400 54.72800 38.45400
C  24.30700 53.67800 39.27900
H  33.00000 55.01800 37.58200
H  34.41400 61.33200 38.49100
H  28.40700 62.57700 39.78100
H  28.03200 54.23700 37.97200
H  30.61100 54.07400 36.65100
H  31.13700 52.66800 38.44300
H  29.51000 53.04000 39.14200
H  30.83200 53.94200 39.59300
H  28.94100 54.27100 35.41700
H  28.32000 55.92600 35.64700
H  26.32600 54.05700 36.50600
H  26.76700 53.43300 35.01400
H  35.12600 55.05700 37.65200
H  36.06100 55.76700 38.94000
H  36.38600 56.20700 37.29100
H  37.77200 60.50600 39.26500
H  36.10800 60.40600 39.85900
H  36.52600 61.05400 38.24900
H  32.59600 63.36100 37.92700
H  30.72700 63.56600 40.28400
H  34.06500 62.99100 40.41300
H  32.81400 64.25500 40.66100
H  33.99200 64.37900 39.35000
H  29.59100 63.62800 37.58200
H  31.03200 64.61900 37.60000
H  29.79700 66.41800 38.12000
H  29.64600 65.59400 39.74000
H  28.38500 65.47900 38.59100
H  26.37300 62.19400 40.18800
H  24.84000 61.23300 40.02300
H  25.44500 62.04300 38.64300
H  25.80300 56.64400 37.24300
H  23.91100 54.10700 40.19900
H  25.19500 53.19400 39.68700
H  23.73600 53.02200 38.62200

