158

Mg 35.51300 48.90400 25.00500
C  35.73100 47.41100 28.31000
C  34.78100 51.82800 26.57000
C  35.64900 50.23600 22.09400
C  36.70500 45.81900 23.75600
N  35.24400 49.54000 27.21900
C  35.45200 48.78300 28.35600
C  35.37100 49.64700 29.59400
C  35.11100 51.05600 29.02500
C  34.95100 50.79700 27.52900
C  33.96600 51.85400 29.77800
C  36.70300 49.65900 30.51400
C  36.56600 49.13400 31.97900
H  35.18000 49.23500 32.64400
N  35.32800 50.83400 24.37600
C  34.91400 51.87300 25.14200
C  34.68400 52.99900 24.29000
C  34.96300 52.58900 22.98700
C  35.27200 51.18000 23.06300
C  34.33100 54.38500 24.84400
C  34.83400 53.40800 21.75700
O  35.20400 52.93600 20.62800
C  34.14200 54.72600 21.76100
N  36.25400 48.17500 23.24300
C  36.12100 48.90300 22.10800
C  36.66500 48.20500 20.84600
C  37.26000 46.94900 21.50700
C  36.64900 46.93500 22.91300
C  35.52000 47.81800 19.73600
C  38.78900 46.96300 21.59700
C  39.53400 45.60900 21.50400
N  35.83300 46.91500 25.78300
C  36.36900 45.79700 25.15200
C  36.59700 44.71600 26.09600
C  36.40800 45.32400 27.35000
C  35.94500 46.65400 27.10900
C  37.01600 43.27000 25.71000
C  36.44200 45.08900 28.76900
O  36.81200 44.16700 29.42300
C  35.90100 46.41700 29.46800
C  34.66000 46.12400 30.25700
O  33.50500 46.24500 29.88800
O  35.01500 45.58100 31.48700
C  33.91300 45.04000 32.33600
H  34.42400 52.69700 27.12600
H  35.67300 50.65200 21.08500
H  37.10400 44.96700 23.20100
H  34.48300 49.41600 30.18400
H  36.01200 51.66600 29.08200
H  34.48200 52.66100 30.29700
H  33.23100 51.35100 30.40700
H  33.37300 52.24700 28.95200
H  37.16400 50.64200 30.60200
H  37.37000 48.89200 30.11900
H  37.31800 49.64100 32.58300
H  36.85900 48.08700 32.05900
H  34.90300 55.15000 24.31900
H  34.68200 54.47600 25.87200
H  33.26700 54.60900 24.76900
H  33.12800 54.56700 22.12800
H  33.94200 55.06400 20.74400
H  34.69900 55.56800 22.17100
H  37.47700 48.70000 20.31300
H  36.97300 46.02100 21.01200
H  36.10500 47.59600 18.84400
H  34.91300 48.70700 19.56600
H  34.83100 47.04000 20.06400
H  39.08500 47.47000 22.51500
H  39.23900 47.55300 20.79900
H  40.24900 45.65400 22.32500
H  40.08100 45.47000 20.57100
H  38.95200 44.69800 21.64500
H  36.27600 42.76900 25.08700
H  37.07000 42.65700 26.61000
H  37.97800 43.37800 25.20900
H  36.66600 46.69500 30.19300
H  33.10800 44.65700 31.70900
H  33.51300 45.91800 32.84200
H  34.18500 44.30300 33.09100
Mg -11.25800 18.45500 43.08500
C  -7.75600 18.69300 43.93700
C  -11.50800 21.81100 42.86700
C  -14.28000 18.02500 41.83000
C  -10.72100 14.91700 43.09200
N  -9.75600 19.95900 43.36600
C  -8.43700 19.87100 43.65600
C  -7.76300 21.21800 43.37000
C  -9.01800 22.22900 43.48900
C  -10.20000 21.32000 43.16100
C  -9.17900 23.08000 44.78700
C  -7.20600 21.14100 41.89600
C  -5.72100 21.32800 41.83600
H  -5.14600 21.99200 40.62900
N  -12.73600 19.74900 42.42100
C  -12.70100 21.11200 42.40500
C  -13.82000 21.68500 41.80100
C  -14.71500 20.54000 41.44800
C  -13.97600 19.38100 41.97500
C  -13.95600 23.14900 41.58600
C  -16.10700 20.70200 40.90300
O  -16.50700 21.78700 40.55200
C  -16.96500 19.55800 40.58900
N  -12.32300 16.75800 42.50200
C  -13.59600 16.83400 41.98300
C  -14.20400 15.47500 41.75300
C  -13.13700 14.43600 42.26800
C  -11.96800 15.38500 42.61000
C  -15.68000 15.32500 42.24400
C  -12.74700 13.32600 41.17400
C  -12.58000 11.84500 41.69900
N  -9.63800 16.95100 43.57700
C  -9.60500 15.61600 43.52300
C  -8.27000 15.14800 43.83700
C  -7.49400 16.27000 44.08600
C  -8.41100 17.38100 43.93800
C  -7.83200 13.69600 43.83200
C  -6.17900 16.83100 44.41400
O  -5.13500 16.26000 44.79000
C  -6.32800 18.35700 44.35500
C  -5.91400 18.87000 45.71900
O  -6.55700 18.76800 46.71500
O  -4.57200 19.27300 45.73000
C  -4.07600 20.03200 46.86100
H  -11.48200 22.90200 42.91100
H  -15.26300 17.74400 41.44600
H  -10.51000 13.87800 42.83000
H  -7.10700 21.36000 44.22900
H  -8.83100 22.94300 42.68700
H  -9.49400 24.06900 44.45300
H  -8.19800 23.15900 45.25700
H  -9.90400 22.62000 45.45800
H  -7.66100 21.85800 41.21200
H  -7.42900 20.19300 41.40700
H  -5.25400 20.37300 42.07700
H  -5.44700 21.91500 42.71300
H  -14.36900 23.40600 40.61000
H  -12.95400 23.56900 41.50100
H  -14.55600 23.59300 42.38000
H  -16.60000 18.96300 39.75100
H  -17.92600 19.89800 40.20300
H  -17.16900 18.91400 41.44400
H  -14.16600 15.36900 40.66900
H  -13.46600 13.92600 43.17400
H  -15.96100 16.16900 42.87400
H  -15.75800 14.36300 42.74900
H  -16.33400 15.23900 41.37700
H  -11.83200 13.66800 40.69000
H  -13.48900 13.33900 40.37500
H  -12.46700 11.09000 40.92100
H  -13.53900 11.48500 42.07200
H  -11.84900 11.87400 42.50600
H  -8.05600 13.27600 42.85100
H  -8.27600 13.12700 44.64900
H  -6.74600 13.61700 43.88600
H  -5.55000 18.56500 43.62000
H  -4.28700 21.09400 46.73200
H  -3.01000 20.06500 47.08800
H  -4.67300 19.79100 47.74000

