158

Mg 29.51000 59.21600 40.79600
C  26.38100 57.87000 39.90600
C  31.04800 56.56700 39.37000
C  32.39500 60.74800 41.38300
C  27.80600 62.14600 41.86800
N  28.77700 57.51700 39.67800
C  27.48800 57.13200 39.51600
C  27.43000 55.83100 38.68400
C  28.87000 55.28400 38.82900
C  29.62200 56.54600 39.35300
C  29.04900 54.08700 39.75400
C  27.04000 56.20100 37.21800
C  25.93100 55.41100 36.45800
H  26.30700 55.00400 34.96400
N  31.51200 58.78700 40.38800
C  31.93800 57.60600 39.78500
C  33.37900 57.52100 39.81000
C  33.81000 58.77500 40.36100
C  32.57800 59.56500 40.70900
C  34.23300 56.43400 39.30600
C  35.27100 59.15100 40.60600
O  36.16100 58.32900 40.36600
C  35.72900 60.43900 41.23600
N  30.03900 61.17100 41.40600
C  31.27500 61.53500 41.69900
C  31.39800 63.02000 42.16800
C  29.88400 63.52800 42.20200
C  29.22400 62.20200 41.82800
C  32.10400 63.17300 43.58800
C  29.54300 64.59100 41.09200
C  28.38000 65.53600 41.48000
N  27.52100 59.92000 40.92800
C  26.99700 61.07400 41.45800
C  25.52800 60.97600 41.45600
C  25.28500 59.82000 40.76400
C  26.53400 59.12100 40.54600
C  24.55000 62.03600 41.93000
C  24.26000 58.91600 40.31100
O  23.09000 59.00100 40.44800
C  24.86700 57.67200 39.64700
C  24.46400 56.39200 40.28600
O  24.65500 56.10200 41.45700
O  23.80500 55.59600 39.43300
C  23.31000 54.25600 39.83300
H  31.50700 55.61400 39.09700
H  33.35000 61.23100 41.60100
H  27.27300 63.00900 42.27300
H  26.62500 55.20100 39.06400
H  29.29100 55.19500 37.82800
H  29.38900 54.19100 40.78400
H  29.68300 53.36100 39.24500
H  28.09300 53.56400 39.70300
H  27.93500 56.25800 36.60000
H  26.66700 57.22300 37.27900
H  25.11100 56.12400 36.37600
H  25.68000 54.55400 37.08300
H  34.53700 55.82100 40.15500
H  35.03700 56.87600 38.71900
H  33.63500 55.84100 38.61400
H  36.81500 60.45400 41.14800
H  35.40700 60.56300 42.27000
H  35.33100 61.26800 40.65100
H  31.92400 63.60300 41.41100
H  29.46900 63.86400 43.15200
H  33.18300 63.01500 43.59200
H  31.60100 62.43900 44.21700
H  32.02600 64.16900 44.02400
H  29.45500 63.99700 40.18200
H  30.37600 65.22400 40.78500
H  28.02400 65.28500 42.47900
H  27.47100 65.51300 40.87900
H  28.77000 66.55200 41.54100
H  24.68600 62.96900 41.38500
H  24.45800 62.23500 42.99800
H  23.57700 61.61200 41.68400
H  24.60300 57.61800 38.59000
H  22.60800 54.51400 40.62500
H  24.10000 53.56800 40.13300
H  22.72800 53.85900 39.00100
Mg -1.50800 34.35000 26.62900
C  -2.89300 32.66600 29.31600
C  0.12000 36.35900 28.69900
C  -0.67500 36.26300 23.87300
C  -3.54800 32.37500 24.35600
N  -1.46200 34.55900 28.77500
C  -2.07500 33.72600 29.69100
C  -1.66900 34.00100 31.12200
C  -0.75500 35.26900 30.93500
C  -0.65400 35.44300 29.40100
C  -1.24200 36.64000 31.60600
C  -1.02200 32.83900 31.97200
C  -1.51200 32.69400 33.42500
H  -0.46200 32.56500 34.51100
N  -0.33100 36.03900 26.32700
C  0.22700 36.70700 27.35800
C  1.20300 37.66000 26.75000
C  1.05600 37.63700 25.32200
C  -0.06600 36.64100 25.12300
C  2.04900 38.58900 27.55000
C  1.79900 38.30000 24.21100
O  1.48400 38.14900 23.05800
C  3.01200 39.21500 24.57500
N  -1.98200 34.31200 24.40200
C  -1.58700 35.24500 23.50100
C  -2.23300 35.04000 22.14600
C  -3.03600 33.70900 22.35300
C  -2.82700 33.44800 23.82100
C  -3.08200 36.29000 21.73200
C  -2.68500 32.48600 21.45900
C  -1.44900 31.68500 21.85700
N  -2.91800 32.80600 26.73300
C  -3.51100 32.02200 25.75700
C  -4.29700 30.97400 26.37200
C  -4.05300 31.19100 27.71400
C  -3.22000 32.32000 27.91600
C  -5.14800 29.90100 25.73100
C  -4.38700 30.74900 28.96600
O  -5.15300 29.87300 29.30100
C  -3.58800 31.57200 30.11200
C  -4.54300 32.11000 31.07500
O  -4.99000 33.20900 30.99600
O  -4.77300 31.23100 32.09000
C  -5.51700 31.68000 33.24600
H  0.76000 36.89500 29.40300
H  -0.63500 36.98300 23.05300
H  -4.18200 31.83700 23.64800
H  -2.52100 34.39700 31.67400
H  0.21600 35.01300 31.35900
H  -2.09000 36.45300 32.26400
H  -1.51400 37.33600 30.81200
H  -0.40700 36.93300 32.24300
H  0.05400 32.93600 32.11600
H  -1.25700 32.01600 31.29700
H  -2.23800 31.88800 33.53500
H  -2.00100 33.65600 33.57900
H  3.04500 38.14700 27.58500
H  1.63200 38.75100 28.54300
H  1.99500 39.53900 27.01900
H  3.66100 38.50700 25.09100
H  2.75500 40.11200 25.13900
H  3.42800 39.44900 23.59600
H  -1.45200 34.83700 21.41400
H  -4.10200 33.83600 22.16300
H  -2.91300 37.03200 22.51200
H  -4.16000 36.13300 21.70000
H  -2.63300 36.74800 20.85100
H  -2.44300 33.05200 20.55900
H  -3.64100 31.99100 21.28700
H  -1.70900 30.64100 22.03200
H  -1.06300 32.04200 22.81200
H  -0.74400 31.74200 21.02700
H  -4.56800 29.58500 24.86400
H  -6.19200 30.21000 25.67600
H  -5.13400 29.13900 26.51000
H  -2.94200 30.89200 30.66600
H  -4.95700 32.41200 33.82800
H  -5.77300 30.86500 33.92300
H  -6.40800 32.28100 33.06400

