158

Mg 25.99400 0.68300 29.85700
C  28.12500 0.37900 32.59700
C  23.33100 0.94800 32.01700
C  23.97000 0.34500 27.20300
C  28.76800 0.27300 27.79500
N  25.77700 0.42300 32.12200
C  26.81200 0.60200 32.97700
C  26.27800 0.86300 34.42800
C  24.74800 0.93600 34.16900
C  24.59100 0.83700 32.68800
C  23.90900 -0.11500 34.94300
C  26.86900 2.17700 35.08400
C  27.48100 1.96200 36.50100
H  26.94200 2.82600 37.63200
N  23.94800 0.68200 29.67200
C  22.99400 0.89600 30.67100
C  21.67300 0.90900 30.19700
C  21.83600 0.63200 28.75400
C  23.28800 0.52900 28.45900
C  20.43900 1.19600 30.92000
C  20.80900 0.48200 27.68600
O  21.11400 0.23200 26.56500
C  19.37700 0.76600 28.00300
N  26.37400 0.44700 27.83900
C  25.35100 0.33300 26.93900
C  25.84800 0.32100 25.48000
C  27.39700 0.27000 25.65300
C  27.54900 0.36800 27.16800
C  25.36200 -0.71100 24.48800
C  28.16200 1.37000 24.85200
C  29.29400 0.90400 23.96300
N  28.03500 0.24000 30.06700
C  29.05900 0.24600 29.11200
C  30.27800 -0.08700 29.73700
C  29.99800 0.04600 31.09200
C  28.61000 0.15900 31.29600
C  31.60500 -0.47500 29.05400
C  30.60700 0.08000 32.46200
O  31.74900 -0.13000 32.84600
C  29.35500 0.37300 33.49900
C  29.38100 -0.70000 34.57300
O  29.03600 -1.85100 34.36300
O  29.72400 -0.11800 35.77300
C  29.69200 -1.04700 36.91000
H  22.49100 1.14000 32.68800
H  23.34100 0.21500 26.32000
H  29.63000 0.00500 27.18100
H  26.57600 0.08100 35.12600
H  24.32000 1.83600 34.61200
H  24.43100 -1.01800 35.25900
H  23.05600 -0.45800 34.35600
H  23.56000 0.24700 35.91000
H  26.08000 2.91900 35.20500
H  27.66100 2.52200 34.42000
H  28.49700 2.34700 36.40400
H  27.43900 0.89400 36.71600
H  19.87200 2.07400 30.61200
H  20.66800 1.29700 31.98100
H  19.79100 0.32400 30.83400
H  18.98700 -0.03400 28.63300
H  18.78600 0.80100 27.08800
H  19.21000 1.68900 28.55800
H  25.47700 1.28300 25.12700
H  27.77300 -0.71000 25.35900
H  24.68700 -1.48100 24.86000
H  26.20900 -1.22300 24.03000
H  24.79700 -0.23100 23.68900
H  28.57100 2.09800 25.55300
H  27.57600 1.91900 24.11600
H  29.43200 -0.17700 23.91600
H  30.21300 1.41700 24.24700
H  29.23200 1.13400 22.89900
H  31.67200 -0.14000 28.01900
H  31.52100 -1.54800 28.88100
H  32.50000 -0.31800 29.65600
H  29.48000 1.27600 34.09600
H  29.72600 -2.12300 36.73800
H  28.82000 -0.79300 37.51200
H  30.60900 -0.96300 37.49200
Mg 40.43600 8.87600 28.90200
C  42.33100 10.01700 31.70100
C  38.62600 7.12100 31.22600
C  38.91700 7.44200 26.43400
C  42.97800 9.97100 26.81900
N  40.51500 8.58500 31.17100
C  41.29700 9.23600 32.13000
C  40.90100 8.93000 33.56800
C  39.85100 7.75300 33.31000
C  39.68400 7.77800 31.82800
C  40.36600 6.39500 33.82600
C  40.29900 10.14000 34.22600
C  39.58600 9.90600 35.55600
H  39.97900 10.70700 36.71300
N  38.84200 7.55900 28.77900
C  38.22600 6.95700 29.85900
C  37.07500 6.22400 29.38700
C  37.08100 6.44000 27.92400
C  38.28700 7.21400 27.68300
C  36.05800 5.49400 30.21200
C  36.07000 6.02600 26.91300
O  36.08700 6.44800 25.76500
C  35.05100 5.07000 27.34000
N  40.90500 8.65200 26.92700
C  40.16200 8.00500 26.11200
C  40.62300 8.11300 24.59600
C  41.82500 9.01700 24.69800
C  41.92600 9.25600 26.24400
C  40.87600 6.68400 23.93900
C  41.70100 10.38600 23.88100
C  41.03600 11.70300 24.54000
N  42.26100 9.77100 29.13800
C  43.15100 10.16300 28.19000
C  44.27400 10.87900 28.82700
C  43.95600 10.92900 30.20900
C  42.81100 10.13700 30.35800
C  45.43000 11.56000 28.17300
C  44.30600 11.42800 31.54800
O  45.28400 12.05400 31.85700
C  43.29000 10.81400 32.58300
C  44.01400 10.09900 33.53000
O  44.66100 9.08000 33.31600
O  43.92500 10.70400 34.74700
C  44.34600 9.88900 35.89000
H  38.05700 6.56800 31.97500
H  38.44600 6.94600 25.58300
H  43.71600 10.41900 26.15100
H  41.74200 8.63000 34.19300
H  38.92200 7.89700 33.86200
H  40.80100 5.73400 33.07600
H  39.59500 5.88000 34.39900
H  41.13800 6.51800 34.58500
H  39.65700 10.68100 33.53100
H  41.13700 10.81600 34.39400
H  39.71600 8.85800 35.82900
H  38.53300 10.14200 35.40400
H  35.04900 5.75600 29.89300
H  36.10300 5.87000 31.23500
H  36.20100 4.41400 30.18500
H  34.31500 5.42700 28.06000
H  35.52800 4.19600 27.78400
H  34.67900 4.74200 26.36900
H  39.84500 8.54900 23.96900
H  42.76600 8.63500 24.30300
H  40.89900 5.85200 24.64300
H  41.75300 6.78500 23.30100
H  40.02200 6.46600 23.29700
H  41.18000 10.12100 22.96200
H  42.71900 10.65800 23.60100
H  40.52400 11.47400 25.47400
H  40.29000 12.05200 23.82600
H  41.73700 12.53800 24.58000
H  46.33600 11.06600 28.52500
H  45.53400 12.63100 28.35000
H  45.31900 11.46600 27.09300
H  42.61100 11.55700 33.00200
H  43.57500 9.73300 36.64400
H  45.12500 10.48600 36.36400
H  44.82700 8.92600 35.72100

