158

Mg 55.03200 24.32900 45.29200
C  52.55700 26.50800 44.20300
C  53.02800 21.64200 44.32100
C  57.79500 22.33600 45.21600
C  57.10800 27.20100 45.81300
N  53.02700 24.14700 44.37000
C  52.16500 25.19000 44.10500
C  50.87300 24.61700 43.61600
C  50.93600 23.13700 44.17500
C  52.43900 22.95000 44.24900
C  50.16200 22.88200 45.54400
C  50.83500 24.70600 42.06100
C  49.46100 24.96900 41.53200
H  48.88900 24.22700 40.25300
N  55.39000 22.29100 44.86400
C  54.40600 21.32600 44.51700
C  55.01900 20.04800 44.40600
C  56.34700 20.20000 44.78900
C  56.55500 21.66600 44.98200
C  54.22600 18.86900 43.91400
C  57.35200 18.93600 44.88400
O  56.96800 17.78000 44.65500
C  58.80000 19.23400 45.26800
N  57.15300 24.70700 45.40300
C  58.07200 23.69500 45.41800
C  59.51100 24.29900 45.65000
C  59.19900 25.72700 46.00100
C  57.73100 25.94500 45.68800
C  60.36000 23.51600 46.69000
C  60.22700 26.77700 45.51900
C  60.69900 27.87500 46.57600
N  54.85800 26.38400 45.24500
C  55.76100 27.41700 45.52300
C  55.12500 28.66300 45.44800
C  53.80000 28.33000 44.97900
C  53.72000 26.93400 44.78700
C  55.67000 30.02200 45.64600
C  52.53900 28.88400 44.59000
O  52.18100 30.04000 44.75300
C  51.67600 27.71200 43.97300
C  51.56900 28.05000 42.53800
O  52.47500 27.99200 41.71100
O  50.28100 28.51300 42.29400
C  50.25500 29.22400 41.00700
H  52.33000 20.81400 44.17800
H  58.67800 21.70300 45.32000
H  57.71200 28.09600 45.97200
H  50.09400 25.21700 44.08600
H  50.52600 22.42200 43.46200
H  49.54200 21.99100 45.44500
H  49.61200 23.77200 45.84700
H  50.87500 22.70200 46.35000
H  51.23200 23.79000 41.62300
H  51.61300 25.41700 41.78400
H  49.46800 26.03000 41.28400
H  48.67000 24.83600 42.27000
H  54.17100 19.03600 42.83900
H  53.27900 18.75600 44.44200
H  54.69800 17.92500 44.18700
H  59.40400 19.63800 44.45600
H  59.20400 18.25200 45.51300
H  58.76000 19.84200 46.17200
H  59.89900 24.02700 44.66800
H  59.24200 25.86600 47.08100
H  59.66900 22.86200 47.22300
H  60.98100 24.10900 47.36000
H  61.05800 22.96800 46.05700
H  59.75000 27.32700 44.70800
H  61.05600 26.26400 45.03100
H  60.75700 28.80400 46.00800
H  61.59300 27.53900 47.10200
H  60.01000 27.98800 47.41300
H  56.16400 30.00900 46.61800
H  54.74600 30.59900 45.62800
H  56.37800 30.45300 44.93800
H  50.76000 27.57500 44.54700
H  51.17500 29.80900 40.99600
H  49.39100 29.88800 41.00800
H  50.18200 28.49800 40.19700
Mg -1.45000 35.11100 26.48800
C  -3.16500 33.32700 28.98800
C  -0.21700 37.31100 28.82600
C  0.19400 36.57100 23.95100
C  -2.65400 32.70100 24.22400
N  -1.81100 35.37300 28.67900
C  -2.46000 34.47300 29.49600
C  -2.38300 34.91600 30.96300
C  -1.66000 36.31000 30.80100
C  -1.18500 36.39300 29.36500
C  -2.45400 37.50300 31.22400
C  -1.68200 33.86900 31.87100
C  -2.53800 33.35600 33.06800
H  -1.85100 33.20800 34.41300
N  -0.31300 36.78700 26.36200
C  0.15900 37.50700 27.41900
C  0.92800 38.61800 26.86300
C  1.07500 38.46400 25.43600
C  0.28100 37.24400 25.21700
C  1.46500 39.75000 27.69000
C  1.79500 39.34300 24.43700
O  1.98900 38.96600 23.31200
C  2.37700 40.70400 24.86500
N  -1.33300 34.76400 24.33900
C  -0.56900 35.47000 23.52300
C  -0.43800 34.91900 22.13800
C  -1.23200 33.60600 22.22000
C  -1.83900 33.73400 23.66100
C  -0.93700 35.84900 20.99000
C  -0.55100 32.23500 21.90500
C  0.70400 31.96100 22.80300
N  -2.81000 33.46200 26.45100
C  -3.19000 32.64300 25.51000
C  -4.09100 31.63800 26.00700
C  -4.10600 31.88000 27.39300
C  -3.35300 33.01600 27.61500
C  -4.75100 30.52700 25.17800
C  -4.65400 31.43100 28.67400
O  -5.35000 30.49600 29.01300
C  -3.91000 32.31800 29.77200
C  -5.02100 32.92800 30.57800
O  -5.71000 33.82100 30.21800
O  -5.29700 32.14100 31.70400
C  -6.27100 32.59600 32.70400
H  0.16900 37.97000 29.60700
H  0.77200 37.00000 23.13000
H  -3.16300 32.13000 23.44400
H  -3.43200 35.01400 31.24200
H  -0.79800 36.31300 31.46800
H  -3.51800 37.33100 31.38300
H  -2.44100 38.21900 30.40200
H  -2.03900 37.91200 32.14500
H  -0.78700 34.32700 32.29200
H  -1.44600 32.98200 31.28300
H  -2.95400 32.39800 32.75600
H  -3.36600 33.99800 33.36800
H  2.54500 39.79300 27.55000
H  1.40300 39.48600 28.74500
H  0.98300 40.71800 27.55500
H  2.56500 41.25400 23.94200
H  3.28500 40.48100 25.42400
H  1.52800 41.24400 25.28600
H  0.63700 34.74100 22.10800
H  -2.00100 33.60100 21.44700
H  -1.30100 36.75500 21.47500
H  -1.68500 35.28800 20.43000
H  -0.17700 36.11900 20.25700
H  -0.13100 32.30100 20.90100
H  -1.34000 31.48500 21.86000
H  0.69800 32.46500 23.77000
H  1.65700 32.18100 22.32200
H  0.73600 30.90200 23.05600
H  -5.53100 30.96100 24.55200
H  -5.11000 29.80500 25.91200
H  -3.93300 30.07600 24.61600
H  -3.28400 31.66200 30.37500
H  -6.38800 31.87000 33.50900
H  -7.18400 32.88000 32.18000
H  -5.87000 33.52900 33.10000

