158

Mg 25.70400 -0.12900 29.20000
C  27.50200 -0.15800 32.23100
C  22.87400 0.45900 30.82700
C  24.21900 -0.00600 26.20100
C  28.64700 -1.23900 27.60300
N  25.30700 0.18400 31.25400
C  26.13400 0.27500 32.34400
C  25.39500 0.58100 33.64700
C  24.02400 0.79100 33.12400
C  23.99700 0.40300 31.64300
C  23.03500 0.02300 33.96400
C  26.03500 1.78600 34.43300
C  26.92800 1.70100 35.74800
H  26.48600 2.61800 36.84900
N  23.79200 0.17800 28.53000
C  22.69600 0.37400 29.41300
C  21.49100 0.50000 28.59500
C  21.89300 0.40900 27.22100
C  23.33900 0.15300 27.27400
C  20.12400 0.67900 29.22700
C  21.13100 0.35500 25.92300
O  21.59400 0.15700 24.77300
C  19.73400 0.60500 26.14900
N  26.30500 -0.85400 27.27500
C  25.49400 -0.51400 26.19400
C  26.21900 -0.68600 24.91000
C  27.63500 -1.14000 25.36600
C  27.51300 -1.07900 26.83400
C  25.56900 -1.55900 23.90600
C  28.81200 -0.26700 24.81600
C  29.02000 1.07400 25.37700
N  27.70100 -0.60500 29.73800
C  28.79300 -1.03200 29.02000
C  29.99700 -1.13300 29.82700
C  29.45500 -0.86700 31.14400
C  28.09300 -0.55600 31.01900
C  31.40500 -1.44800 29.28400
C  29.83400 -0.85500 32.53000
O  30.88600 -1.17100 33.08000
C  28.55600 -0.27000 33.26900
C  28.21000 -1.22400 34.30100
O  27.40600 -2.13700 34.18400
O  29.01300 -1.08100 35.44200
C  28.86300 -2.10700 36.44100
H  21.98200 0.70600 31.40600
H  23.79500 0.06500 25.19800
H  29.61400 -1.59400 27.24000
H  25.59400 -0.27000 34.29800
H  23.80800 1.85800 33.18100
H  23.20600 0.13400 35.03500
H  23.04000 -1.05800 33.82800
H  22.01200 0.35900 33.79200
H  25.26100 2.54300 34.56800
H  26.75300 2.20800 33.73000
H  27.93300 2.04700 35.50700
H  26.88600 0.64000 35.99500
H  19.89300 1.74400 29.25700
H  20.06600 0.26100 30.23200
H  19.35700 0.09700 28.71700
H  19.30000 -0.33400 26.49200
H  19.42000 0.86500 25.13800
H  19.57000 1.38700 26.89000
H  26.28700 0.26900 24.38800
H  27.89000 -2.14800 25.03900
H  25.16500 -2.39200 24.48200
H  26.17800 -1.89500 23.06700
H  24.72700 -0.97500 23.53400
H  28.55000 -0.10900 23.76900
H  29.74300 -0.83000 24.76100
H  29.80100 1.06300 26.13800
H  28.05200 1.42800 25.72900
H  29.09300 1.74100 24.51800
H  31.57300 -0.50600 28.76100
H  31.42800 -2.39000 28.73600
H  32.16600 -1.56300 30.05600
H  28.81300 0.65400 33.78900
H  29.78700 -2.24700 37.00200
H  28.58700 -3.04500 35.96100
H  28.09000 -1.79400 37.14300
Mg 46.59900 24.54100 28.30700
C  47.45800 26.82600 30.78500
C  45.64800 22.38000 30.79200
C  45.74700 22.38200 25.96300
C  47.32500 26.85900 25.88800
N  46.46600 24.66700 30.54300
C  46.83400 25.70200 31.33700
C  46.61600 25.45200 32.89000
C  46.17000 23.90300 32.81800
C  46.06900 23.60400 31.26700
C  47.22300 22.97700 33.47500
C  45.47700 26.43600 33.50200
C  45.90900 27.13600 34.77300
H  44.87200 27.40200 35.85100
N  45.78300 22.60400 28.34400
C  45.43400 21.91600 29.43000
C  44.92900 20.69900 29.04400
C  45.17400 20.56100 27.68100
C  45.53900 21.89800 27.22300
C  44.51400 19.61700 30.04100
C  45.05600 19.32300 26.82000
O  45.02100 19.40100 25.57300
C  44.81100 17.98900 27.42900
N  46.70500 24.49800 26.21100
C  46.24700 23.54300 25.42200
C  46.30900 23.81500 23.95700
C  46.55700 25.35800 23.98400
C  46.93700 25.60800 25.45900
C  47.49700 23.15900 23.28100
C  45.35000 26.24500 23.51300
C  44.09300 26.01600 24.24900
N  47.46500 26.43900 28.30100
C  47.61800 27.30400 27.23900
C  48.26800 28.52100 27.74300
C  48.22300 28.40400 29.15700
C  47.65300 27.13500 29.46100
C  48.75500 29.63100 26.85100
C  48.57000 29.05600 30.45600
O  49.05800 30.17400 30.70000
C  47.92000 28.12000 31.53300
C  48.94100 27.87000 32.57600
O  49.91000 27.20500 32.41200
O  48.55900 28.47200 33.70900
C  49.51500 28.54800 34.81500
H  45.47600 21.71000 31.63700
H  45.43000 21.77400 25.11300
H  47.40400 27.63300 25.12100
H  47.52900 25.44800 33.48600
H  45.20700 23.72500 33.29600
H  47.04600 21.93900 33.19300
H  47.11800 23.06400 34.55600
H  48.20500 23.23100 33.07600
H  44.55100 25.89000 33.68000
H  45.18900 27.24900 32.83500
H  46.24500 28.14000 34.51700
H  46.69200 26.56700 35.27600
H  45.32100 18.88400 30.05400
H  43.53500 19.24300 29.74300
H  44.51400 20.04900 31.04100
H  43.93000 17.72000 28.01200
H  45.64400 17.93900 28.13100
H  44.97500 17.21700 26.67800
H  45.38500 23.60800 23.41700
H  47.44900 25.72500 23.47600
H  48.34200 23.84300 23.19500
H  47.08500 22.86200 22.31700
H  47.83500 22.28500 23.83800
H  45.20000 26.12200 22.44000
H  45.60500 27.30200 23.57800
H  43.28100 25.92000 23.52900
H  43.82000 26.82800 24.92300
H  44.16300 25.12500 24.87400
H  48.81800 30.58300 27.37900
H  48.04000 29.74300 26.03600
H  49.68100 29.32600 26.36400
H  47.09900 28.62500 32.04100
H  50.21900 27.72000 34.73200
H  48.93800 28.33500 35.71500
H  49.93800 29.55300 34.82500

