158

Mg 9.35900 48.54600 25.32700
C  7.31700 48.02500 28.09700
C  11.92700 49.35300 27.43200
C  11.23600 48.94300 22.64700
C  6.54000 48.18300 23.27700
N  9.56600 48.63000 27.52400
C  8.61700 48.36100 28.42500
C  9.06200 48.74200 29.87600
C  10.54400 49.21400 29.62800
C  10.72500 49.03900 28.10300
C  10.80100 50.65900 30.14200
C  9.01100 47.66300 30.96400
C  10.07900 47.73200 32.15800
H  9.74900 46.96300 33.48100
N  11.29700 49.03000 25.07500
C  12.22800 49.31300 26.03900
C  13.56600 49.35400 25.47900
C  13.42100 48.91300 24.09600
C  11.95800 48.93100 23.86300
C  14.79900 49.78500 26.25300
C  14.45700 48.84400 23.04000
O  14.17600 48.56100 21.87000
C  15.93000 49.05100 23.34600
N  8.99500 48.53200 23.30900
C  9.91500 48.85100 22.41600
C  9.29900 48.99500 20.99100
C  7.85000 48.43000 21.13100
C  7.75500 48.42100 22.65100
C  9.29400 50.42100 20.51200
C  7.62000 46.99500 20.57600
C  6.70100 46.80300 19.41600
N  7.33900 48.11800 25.60400
C  6.29600 47.89400 24.65000
C  5.05800 47.67500 25.36500
C  5.44500 47.68400 26.71000
C  6.81000 47.94300 26.78100
C  3.78000 47.61800 24.73000
C  4.99300 47.59100 28.07900
O  3.82900 47.46800 28.45000
C  6.17600 47.81000 29.04400
C  6.33900 46.44800 29.72700
O  6.83900 45.44600 29.31400
O  5.88800 46.46100 31.04500
C  6.08500 45.23200 31.89300
H  12.71700 49.62900 28.13400
H  11.86100 49.23300 21.80000
H  5.70400 48.01800 22.59400
H  8.43300 49.57400 30.19000
H  11.33500 48.53500 29.94600
H  10.97600 51.44200 29.40400
H  11.65700 50.62700 30.81700
H  9.90700 51.01500 30.65400
H  9.11600 46.66300 30.54300
H  8.00500 47.83200 31.34700
H  10.39300 48.75200 32.38000
H  10.87300 47.14700 31.69500
H  14.65100 49.88400 27.32800
H  15.16100 50.72000 25.82400
H  15.57400 49.02300 26.16600
H  16.30400 48.22400 23.94900
H  16.10000 50.01800 23.81800
H  16.57100 48.91000 22.47600
H  9.92200 48.29600 20.43400
H  7.03100 49.03200 20.73600
H  9.71200 51.00700 21.33100
H  8.37200 50.87700 20.15400
H  9.99600 50.38300 19.68000
H  7.29600 46.30100 21.35100
H  8.57700 46.60000 20.23800
H  7.22100 46.16300 18.70300
H  6.71700 47.78800 18.94800
H  5.74600 46.35700 19.69400
H  3.67100 46.77200 24.05200
H  3.67900 48.59800 24.26500
H  3.03500 47.58700 25.52500
H  5.95400 48.57600 29.78600
H  7.12800 45.33300 32.19100
H  5.92300 44.34000 31.28700
H  5.34600 45.10200 32.68300
Mg -8.22400 40.25300 42.32700
C  -7.10100 36.78000 41.40300
C  -5.74900 41.46700 40.71500
C  -9.87600 43.06400 42.80800
C  -11.14200 38.59400 43.56300
N  -6.63300 39.18700 41.15800
C  -6.31200 37.85500 40.88300
C  -5.02200 37.80200 40.08300
C  -4.58800 39.31900 39.93400
C  -5.71500 40.04500 40.63300
C  -3.24700 39.62400 40.55200
C  -5.32000 37.05000 38.74100
C  -4.30000 35.88100 38.44500
H  -3.31700 35.99800 37.28900
N  -7.82500 42.05900 41.93100
C  -6.73500 42.35500 41.19800
C  -6.70500 43.79800 41.05800
C  -7.88900 44.30500 41.71700
C  -8.58600 43.09400 42.14500
C  -5.60600 44.58000 40.32700
C  -8.21300 45.84200 41.90800
O  -7.51600 46.70600 41.37800
C  -9.36000 46.36900 42.76400
N  -10.30100 40.76600 43.05400
C  -10.62200 42.03600 43.27500
C  -12.08900 42.13200 43.80800
C  -12.47400 40.67700 44.11400
C  -11.26600 39.94800 43.53900
C  -12.49200 43.15100 44.88400
C  -13.84200 40.14400 43.37800
C  -14.67400 39.05700 44.10700
N  -9.01200 38.11800 42.55400
C  -10.22400 37.68300 43.05600
C  -10.33900 36.25400 43.07300
C  -9.11500 35.86600 42.50700
C  -8.34900 37.04700 42.10000
C  -11.33900 35.34100 43.76300
C  -8.32500 34.66700 42.09100
O  -8.53900 33.48600 42.26900
C  -6.97800 35.20900 41.41700
C  -5.82000 34.71000 42.17100
O  -5.69800 34.72000 43.37500
O  -4.87800 34.33500 41.32500
C  -3.55100 33.92900 41.92100
H  -4.93300 42.08400 40.33200
H  -10.30300 44.06000 42.94400
H  -12.02200 38.04500 43.90400
H  -4.35000 37.21500 40.70900
H  -4.52200 39.57300 38.87600
H  -2.51300 40.12100 39.91800
H  -2.89400 38.61200 40.75200
H  -3.53300 40.27000 41.38200
H  -5.18200 37.72000 37.89300
H  -6.33400 36.65000 38.75900
H  -4.88400 35.07700 37.99800
H  -3.78300 35.59200 39.36000
H  -5.85200 45.64000 40.26500
H  -5.62400 44.16100 39.32000
H  -4.65700 44.37300 40.82100
H  -9.34700 47.45200 42.88900
H  -9.15600 45.95700 43.75200
H  -10.29300 45.96500 42.37100
H  -12.62600 42.56600 42.96400
H  -12.44000 40.41000 45.17000
H  -12.55500 42.63800 45.84400
H  -13.48200 43.53000 44.63200
H  -11.65900 43.84700 44.98800
H  -13.50200 39.55900 42.52400
H  -14.44600 41.00200 43.08400
H  -14.63800 39.30500 45.16700
H  -14.14600 38.11500 43.95700
H  -15.69100 38.94400 43.73300
H  -10.86100 34.38700 43.98500
H  -12.27100 35.14400 43.23200
H  -11.70300 35.85200 44.65400
H  -6.99900 34.76900 40.41900
H  -2.89100 34.77100 42.12900
H  -3.09200 33.28300 41.17300
H  -3.63800 33.38800 42.86300

