158

Mg 17.13000 51.69800 26.36100
C  18.68200 50.02300 28.94900
C  14.73700 52.85200 28.60900
C  15.39100 52.91700 23.70700
C  19.55200 50.44300 24.08800
N  16.74800 51.40500 28.57100
C  17.51100 50.69200 29.37600
C  17.09100 50.76900 30.87700
C  15.58600 51.34100 30.55400
C  15.74800 52.04600 29.18900
C  14.37100 50.35600 30.63200
C  18.00500 51.67600 31.74100
C  18.08600 51.28700 33.19700
H  16.97200 51.88400 34.03700
N  15.35300 52.75500 26.17200
C  14.55200 53.17300 27.22600
C  13.42600 53.91600 26.67700
C  13.51500 53.92900 25.26600
C  14.71800 53.07700 24.93900
C  12.48900 54.57300 27.55300
C  12.57400 54.51100 24.27700
O  12.71600 54.41400 23.03500
C  11.34700 55.12800 24.70700
N  17.32400 51.61100 24.21700
C  16.47600 52.13300 23.37200
C  17.04400 52.02700 21.96500
C  18.44700 51.43100 22.09000
C  18.48500 51.22900 23.56000
C  16.03300 51.40000 20.98700
C  19.64000 52.26300 21.53200
C  20.83400 51.53100 20.93800
N  18.69500 50.44600 26.42400
C  19.66500 50.08400 25.46300
C  20.72000 49.30100 26.08700
C  20.37500 49.30100 27.42000
C  19.18200 50.04000 27.60900
C  21.92900 48.68000 25.39400
C  20.75300 48.77600 28.77600
O  21.71100 48.06300 29.10000
C  19.73700 49.30400 29.78600
C  19.24300 48.10700 30.64500
O  18.46300 47.25500 30.25800
O  19.91300 48.11100 31.85900
C  19.59100 47.16000 32.89500
H  14.08600 53.29800 29.36300
H  14.96700 53.48500 22.87600
H  20.35500 50.14800 23.40900
H  16.97500 49.79400 31.34900
H  15.33400 52.07700 31.31800
H  14.14000 50.17800 31.68200
H  14.56200 49.34900 30.26100
H  13.46400 50.81200 30.23500
H  17.51800 52.64700 31.83800
H  19.00400 51.79500 31.32300
H  19.07400 51.46800 33.62200
H  18.04400 50.20300 33.30300
H  11.49100 54.21800 27.29500
H  12.60100 55.60300 27.21200
H  12.73100 54.52500 28.61500
H  10.83700 54.46200 25.40400
H  10.65200 55.24400 23.87500
H  11.65100 56.05200 25.20000
H  17.15400 53.06200 21.64200
H  18.45100 50.45100 21.61200
H  15.76200 52.16900 20.26300
H  15.10000 51.18400 21.50800
H  16.35000 50.43500 20.59200
H  20.09300 52.97000 22.22600
H  19.24600 52.83200 20.69000
H  20.93700 51.85100 19.90100
H  20.69900 50.45100 20.87400
H  21.76900 51.66300 21.48200
H  21.63500 48.77000 24.34800
H  22.03300 47.61200 25.58000
H  22.90900 49.12300 25.57400
H  20.22500 49.98200 30.48600
H  19.10400 46.25900 32.52400
H  18.90800 47.74100 33.51500
H  20.54500 46.94700 33.37800
Mg -11.97400 16.21700 42.20900
C  -8.97300 14.66700 41.65600
C  -10.75200 19.08400 40.72500
C  -15.18600 17.36700 41.76000
C  -13.32500 13.19300 43.20500
N  -10.12800 16.77500 41.17300
C  -9.00400 15.98400 41.10500
C  -7.82700 16.67100 40.32500
C  -8.36800 18.13000 40.25900
C  -9.83600 17.99000 40.74700
C  -7.63100 19.22900 41.15200
C  -7.60900 15.92300 38.97200
C  -6.15400 15.73800 38.66800
H  -5.60300 16.36600 37.35200
N  -12.79900 18.03100 41.56900
C  -12.04200 19.08500 41.11100
C  -12.87100 20.22400 40.98800
C  -14.26500 19.83700 41.19400
C  -14.16700 18.35300 41.54000
C  -12.34200 21.61600 40.76000
C  -15.50400 20.68300 41.12400
O  -15.42400 21.86300 40.91100
C  -16.86200 20.08700 41.28400
N  -13.92500 15.33300 42.19900
C  -15.08300 16.00700 42.07000
C  -16.35000 15.19400 42.44200
C  -15.78600 13.96100 43.12100
C  -14.25000 14.14900 42.85400
C  -17.44900 15.92600 43.28900
C  -16.50900 12.64700 42.69200
C  -17.29500 11.79700 43.73200
N  -11.27800 14.26300 42.49000
C  -11.92500 13.12700 42.88100
C  -10.92700 12.11700 43.10400
C  -9.76400 12.65600 42.61400
C  -10.01100 13.97300 42.23400
C  -11.05600 10.75200 43.76200
C  -8.41600 12.34800 42.30400
O  -7.82800 11.28200 42.34900
C  -7.84900 13.61500 41.66600
C  -6.77800 14.15400 42.44200
O  -6.85600 14.45500 43.62700
O  -5.65100 14.33300 41.73500
C  -4.53700 14.98900 42.48600
H  -10.25900 19.96500 40.30900
H  -16.19200 17.75000 41.94400
H  -13.76900 12.37500 43.77800
H  -7.01500 16.71500 41.05100
H  -8.37900 18.36000 39.19300
H  -8.37300 19.66500 41.82100
H  -7.10700 19.89200 40.46300
H  -6.91200 18.83400 41.87000
H  -8.07000 16.44300 38.13200
H  -8.09500 14.95200 39.07500
H  -5.85800 14.68900 38.66900
H  -5.48900 16.06200 39.47000
H  -13.18000 22.27800 40.54000
H  -11.62400 21.61500 39.94000
H  -11.94900 22.11700 41.64500
H  -17.63800 20.71000 40.84000
H  -16.92200 19.93500 42.36200
H  -16.98300 19.18800 40.68000
H  -16.79400 15.00300 41.46500
H  -15.86600 14.11300 44.19700
H  -18.15800 16.36300 42.58700
H  -16.96400 16.63900 43.95700
H  -17.96700 15.20700 43.92400
H  -15.86100 11.94100 42.17400
H  -17.23400 12.91400 41.92400
H  -17.56300 12.36900 44.62100
H  -16.70600 10.97700 44.14300
H  -18.25900 11.40000 43.41400
H  -11.39100 10.00800 43.04000
H  -11.86800 10.73500 44.48900
H  -10.12800 10.41700 44.22500
H  -7.48500 13.27900 40.69500
H  -4.49300 14.68700 43.53300
H  -4.80100 16.04600 42.46500
H  -3.61700 14.68400 41.98600

