158

Mg -1.84400 17.41700 26.71400
C  -2.26700 15.16300 29.53900
C  -2.51200 19.92500 29.01200
C  -1.65900 19.38700 24.32000
C  -1.77600 14.59600 24.69100
N  -2.56400 17.48400 28.99500
C  -2.54500 16.46500 29.93700
C  -2.75900 17.01500 31.36800
C  -2.96200 18.57000 31.13200
C  -2.68700 18.69900 29.60400
C  -4.37100 19.00400 31.60500
C  -1.54300 16.67200 32.31300
C  -1.52900 17.43800 33.64200
H  -1.44100 16.67800 34.98300
N  -1.94300 19.38100 26.67800
C  -2.19600 20.26500 27.67900
C  -2.06800 21.65100 27.15800
C  -1.85300 21.52400 25.76500
C  -1.82800 20.04700 25.48300
C  -2.22000 22.86900 28.05400
C  -1.63200 22.58700 24.67600
O  -1.57900 22.32400 23.49400
C  -1.48900 23.98600 25.05200
N  -1.54900 17.04800 24.71200
C  -1.56200 18.07900 23.89000
C  -1.20500 17.67300 22.41700
C  -1.01000 16.11700 22.60500
C  -1.43100 15.86100 24.07700
C  -2.31300 18.00900 21.31700
C  0.39500 15.56000 22.27900
C  1.47000 15.38100 23.40900
N  -1.88900 15.37700 26.97600
C  -1.87600 14.33600 26.04500
C  -2.05600 13.04200 26.62300
C  -2.17600 13.34300 27.99100
C  -2.02600 14.75400 28.19100
C  -2.15200 11.68400 26.04600
C  -2.25500 12.73600 29.29500
O  -2.34800 11.54600 29.59400
C  -2.29000 13.83200 30.29700
C  -1.00600 13.64100 31.15200
O  -0.05100 14.31300 30.86900
O  -1.09900 12.73500 32.15900
C  -0.11400 12.81700 33.24100
H  -2.34900 20.74400 29.71500
H  -1.54500 19.98900 23.41600
H  -1.89700 13.71400 24.05800
H  -3.61300 16.54400 31.85500
H  -2.24300 19.17800 31.68100
H  -4.99600 18.12200 31.74000
H  -4.83100 19.69300 30.89700
H  -4.36800 19.63100 32.49700
H  -0.62000 16.98200 31.82100
H  -1.53700 15.60600 32.53900
H  -2.50200 17.92500 33.56700
H  -0.81800 18.26300 33.62800
H  -1.20300 23.14200 28.33500
H  -2.93500 22.63700 28.84300
H  -2.79300 23.60200 27.48600
H  -2.43000 24.40300 25.41200
H  -1.12700 24.48500 24.15400
H  -0.71500 24.13800 25.80500
H  -0.32900 18.11700 21.94500
H  -1.66500 15.59100 21.91100
H  -3.10300 17.26800 21.44200
H  -1.93500 17.90500 20.30000
H  -2.81600 18.97100 21.42200
H  0.76200 16.21100 21.48500
H  0.25200 14.63800 21.71500
H  0.98800 15.22500 24.37400
H  2.29800 16.07900 23.53800
H  1.96800 14.45700 23.11700
H  -1.48900 11.63100 25.18300
H  -3.15800 11.58000 25.63800
H  -1.83500 10.96700 26.80400
H  -3.11700 13.64500 30.98200
H  0.86600 13.23600 33.01200
H  0.10400 11.80400 33.57900
H  -0.51600 13.47100 34.01500
Mg -12.79900 37.39900 41.74500
C  -10.19800 35.00900 40.89500
C  -11.27100 39.56000 39.53600
C  -15.62300 39.03700 41.76900
C  -14.23000 34.87000 43.68100
N  -11.02100 37.21900 40.25600
C  -10.06400 36.22100 40.22200
C  -8.82400 36.60100 39.34600
C  -9.05300 38.12700 39.39100
C  -10.61100 38.29900 39.59800
C  -8.20800 38.94100 40.41200
C  -8.84500 35.92800 37.95100
C  -7.53400 35.30700 37.47300
H  -6.63600 36.20300 36.56700
N  -13.34600 39.07200 40.81400
C  -12.54500 39.88800 40.00600
C  -13.21100 41.15700 39.77100
C  -14.57100 41.05200 40.38200
C  -14.57900 39.62500 41.00100
C  -12.63100 42.27300 39.02600
C  -15.60100 42.08500 40.43100
O  -15.35800 43.11500 39.82500
C  -16.89200 41.91200 41.13200
N  -14.79700 36.84500 42.28800
C  -15.69800 37.80400 42.34600
C  -16.88200 37.39300 43.28600
C  -16.44800 36.04100 43.92200
C  -15.07100 35.88400 43.27700
C  -17.30200 38.49600 44.29200
C  -17.39100 34.84500 43.86200
C  -18.07500 34.40100 45.16800
N  -12.24500 35.40500 42.31300
C  -12.96900 34.54100 43.14800
C  -12.19800 33.32800 43.24700
C  -11.07300 33.53500 42.40800
C  -11.21900 34.76300 41.80700
C  -12.63900 32.21800 44.12500
C  -9.87500 32.84100 41.96500
O  -9.44400 31.68300 42.25900
C  -9.19600 33.81900 40.96700
C  -7.86100 34.19000 41.69600
O  -6.78400 33.63100 41.49200
O  -8.00600 35.14200 42.68700
C  -6.88500 35.39200 43.63400
H  -10.72600 40.24300 38.88000
H  -16.50200 39.61300 42.06600
H  -14.57100 34.22200 44.49100
H  -7.92700 36.32900 39.90200
H  -8.86000 38.53600 38.39900
H  -8.90300 39.16000 41.22300
H  -7.80600 39.83900 39.94300
H  -7.46600 38.23000 40.77600
H  -9.00300 36.75000 37.25300
H  -9.70100 35.26000 37.85500
H  -7.65400 34.38100 36.91100
H  -6.95200 35.03300 38.35300
H  -12.92600 43.22100 39.47600
H  -12.85400 42.14800 37.96600
H  -11.55000 42.22800 39.15400
H  -17.35000 40.97100 40.82800
H  -17.51600 42.77000 40.88100
H  -16.67900 41.75800 42.19000
H  -17.70900 37.15600 42.61700
H  -16.29700 36.20900 44.98800
H  -16.54900 39.28300 44.32000
H  -17.43200 37.99800 45.25300
H  -18.29100 38.90900 44.09200
H  -16.80400 34.05000 43.40300
H  -18.13700 35.22000 43.16200
H  -19.14400 34.61200 45.18400
H  -17.65900 34.95200 46.01100
H  -17.96500 33.33800 45.38400
H  -13.50100 32.61100 44.66400
H  -11.91500 32.03100 44.91800
H  -12.80900 31.31700 43.53500
H  -9.00300 33.17100 40.11200
H  -6.50700 36.40300 43.48500
H  -6.07800 34.67500 43.48300
H  -7.25200 35.26700 44.65200

