158

Mg 2.22800 -1.09900 43.26300
C  5.63800 -0.33200 42.82800
C  1.54100 2.03800 41.77500
C  -0.88100 -2.16400 42.95400
C  3.21000 -4.37200 44.24700
N  3.44800 0.63700 42.24600
C  4.78300 0.68600 42.29500
C  5.35100 1.96500 41.67100
C  4.05300 2.81500 41.41800
C  2.97100 1.80700 41.92300
C  3.96900 4.20800 42.14300
C  6.07400 1.81400 40.33900
C  5.34700 0.98600 39.25300
H  5.21300 1.55400 37.85200
N  0.58800 -0.12900 42.68100
C  0.47200 1.13600 42.00700
C  -0.86800 1.42600 41.81200
C  -1.64600 0.29300 42.21000
C  -0.67100 -0.75800 42.58100
C  -1.41700 2.69000 41.19100
C  -3.19300 0.05600 42.22500
O  -3.93200 0.98000 41.92100
C  -3.94400 -1.20600 42.62900
N  1.32200 -3.00800 43.46200
C  0.01300 -3.11700 43.35900
C  -0.42000 -4.57100 43.54800
C  0.88900 -5.27400 44.18800
C  1.86600 -4.14400 44.09300
C  -1.76200 -4.79000 44.32100
C  1.36400 -6.46500 43.31300
C  0.37400 -7.57700 43.21900
N  4.03700 -2.23300 43.54100
C  4.34000 -3.52900 43.91600
C  5.76200 -3.73700 44.09600
C  6.29800 -2.47100 43.68100
C  5.23600 -1.62000 43.31700
C  6.43600 -4.93500 44.72400
C  7.50600 -1.68600 43.55600
O  8.70100 -1.96200 43.79300
C  7.14800 -0.41900 42.78200
C  7.70200 0.76700 43.38900
O  8.55300 1.49200 42.83800
O  7.21800 0.90400 44.64100
C  7.89900 1.88500 45.44000
H  1.26700 3.01800 41.37900
H  -1.92200 -2.46400 43.09400
H  3.42800 -5.35300 44.67200
H  6.09200 2.37000 42.36100
H  3.70700 3.00200 40.40100
H  4.60600 4.30300 43.02200
H  2.93100 4.32500 42.45700
H  4.25400 4.93300 41.38100
H  7.03900 1.33100 40.49100
H  6.25700 2.80600 39.92500
H  4.34200 0.70800 39.57100
H  5.83800 0.01400 39.19300
H  -2.15100 2.38300 40.44700
H  -0.76900 3.43400 40.72800
H  -1.95100 3.28200 41.93500
H  -3.58700 -1.50700 43.61400
H  -3.64900 -1.91000 41.85100
H  -5.01300 -1.01300 42.72800
H  -0.53200 -4.98600 42.54600
H  0.79300 -5.70400 45.18500
H  -2.15100 -3.89500 44.80800
H  -1.73000 -5.64900 44.99100
H  -2.45400 -4.94500 43.49300
H  2.30000 -6.83800 43.72800
H  1.58300 -6.06900 42.32100
H  -0.01800 -7.63100 42.20400
H  -0.38500 -7.51900 43.99900
H  1.02400 -8.45100 43.26200
H  6.50900 -5.73800 43.99000
H  5.87100 -5.30800 45.57900
H  7.41400 -4.74000 45.16300
H  7.60100 -0.44500 41.79100
H  8.90900 1.54100 45.66200
H  7.50200 1.92300 46.45500
H  7.75700 2.82900 44.91500
Mg 46.65500 46.39800 44.12500
C  43.46900 45.16700 43.34600
C  47.96500 43.39900 43.09000
C  49.68300 47.79400 44.21700
C  45.27000 49.56100 44.66700
N  45.76100 44.56300 43.24200
C  44.41400 44.23200 43.05600
C  44.22400 42.77000 42.50900
C  45.67900 42.18300 42.79800
C  46.57700 43.42600 43.02200
C  45.61200 41.25500 44.07300
C  43.87100 42.79100 40.95500
C  42.69800 41.89900 40.54900
H  42.63400 41.48000 39.05800
N  48.60400 45.74000 43.67500
C  48.92100 44.42500 43.31400
C  50.30100 44.23900 43.26100
C  50.87400 45.50000 43.60300
C  49.68900 46.47300 43.85100
C  51.02500 42.90700 42.92500
C  52.29300 45.74000 43.68500
O  53.14900 44.86000 43.45700
C  52.77700 47.06700 44.20700
N  47.31100 48.42500 44.25900
C  48.61500 48.70100 44.40400
C  48.85700 50.21800 44.52900
C  47.42300 50.76600 44.61000
C  46.62100 49.45700 44.62500
C  49.67500 50.58300 45.79800
C  47.07300 51.67600 43.35700
C  46.03600 52.79100 43.68200
N  44.73400 47.26200 44.07100
C  44.28600 48.54900 44.43200
C  42.82700 48.50200 44.37500
C  42.46800 47.19200 43.92200
C  43.69900 46.47400 43.79000
C  41.85800 49.61300 44.70300
C  41.42200 46.28100 43.50100
O  40.18100 46.41800 43.40000
C  42.02100 45.01900 43.15800
C  41.49200 44.00000 44.05600
O  41.07900 42.88300 43.62200
O  41.44900 44.39500 45.40600
C  40.54400 43.50400 46.16500
H  48.34800 42.39300 42.90200
H  50.64400 48.31200 44.26800
H  44.80900 50.51900 44.91700
H  43.48300 42.33900 43.18200
H  46.04800 41.61600 41.94400
H  44.68600 41.26100 44.64900
H  46.44700 41.58700 44.69000
H  45.72000 40.20800 43.78900
H  44.70800 42.63600 40.27400
H  43.54900 43.80100 40.70100
H  41.78200 42.46800 40.71400
H  42.61900 41.11900 41.30600
H  51.77100 42.91800 42.13000
H  50.39900 42.07400 42.60700
H  51.57800 42.49200 43.76700
H  53.86400 47.14200 44.23800
H  52.22400 47.23300 45.13200
H  52.49700 47.65000 43.32900
H  49.41000 50.61500 43.67800
H  47.27000 51.43300 45.45800
H  49.48200 49.98400 46.68800
H  49.50100 51.61400 46.10800
H  50.75500 50.55900 45.65100
H  46.69100 50.97100 42.61900
H  47.99500 52.15400 43.02500
H  46.36800 53.72400 43.22700
H  45.78700 52.89000 44.73900
H  45.09800 52.45400 43.24300
H  41.09900 49.34100 45.43700
H  41.25200 49.83500 43.82500
H  42.43200 50.43800 45.12700
H  41.75500 44.70200 42.15000
H  40.94900 42.49200 46.18400
H  39.48500 43.48000 45.90600
H  40.60000 43.78300 47.21700

