158

Mg 35.66700 2.76100 30.20900
C  33.28400 3.87500 32.74400
C  37.88400 2.61300 32.79300
C  37.97800 2.40700 27.95600
C  33.16700 3.17500 27.85600
N  35.58400 3.35900 32.58500
C  34.53400 3.68800 33.34600
C  34.91400 3.57800 34.84600
C  36.52800 3.57300 34.78200
C  36.65900 3.07500 33.30800
C  37.22400 4.90900 35.18700
C  34.20500 2.31900 35.47000
C  33.62500 2.56500 36.91700
H  34.21800 3.71200 37.88300
N  37.67100 2.40300 30.32300
C  38.40200 2.43100 31.46400
C  39.76400 2.08500 31.04800
C  39.89500 2.12100 29.69800
C  38.48900 2.32800 29.23700
C  40.90000 1.83500 32.08900
C  41.03000 1.85300 28.76800
O  40.87600 1.83100 27.60900
C  42.46400 1.55800 29.32000
N  35.55100 2.90300 28.11900
C  36.66900 2.66000 27.42100
C  36.30800 2.33700 25.94000
C  34.80900 2.73400 25.86300
C  34.43600 2.93100 27.36600
C  37.10300 3.14800 24.80900
C  33.95100 1.73300 25.02100
C  33.21500 2.49000 23.98500
N  33.62000 3.29200 30.23800
C  32.76700 3.43800 29.20300
C  31.48000 3.77400 29.76000
C  31.61400 3.82900 31.10800
C  32.96400 3.69400 31.38400
C  30.16400 3.89300 29.04800
C  30.86900 4.12900 32.34400
O  29.71300 4.37500 32.56400
C  31.96800 4.07100 33.40700
C  31.93900 5.29600 34.23900
O  32.44100 6.39700 33.90900
O  31.23000 5.02200 35.37500
C  31.10800 6.09700 36.35900
H  38.70000 2.54100 33.51500
H  38.72600 2.21400 27.18400
H  32.39000 3.19800 27.08900
H  34.61400 4.49400 35.35500
H  37.01400 2.83400 35.41900
H  38.00700 5.09000 34.45100
H  37.66400 4.90700 36.18400
H  36.53800 5.75600 35.18500
H  34.83400 1.42900 35.49100
H  33.32800 1.99700 34.90800
H  33.73800 1.60200 37.41400
H  32.58100 2.79100 36.69900
H  41.17900 0.78100 32.09700
H  40.63100 1.95000 33.13900
H  41.82000 2.41300 32.00000
H  42.51000 0.60200 29.84300
H  42.84400 2.41200 29.87900
H  43.02300 1.60400 28.38500
H  36.34900 1.24900 25.88800
H  34.70000 3.77800 25.57100
H  37.57700 4.03900 25.22000
H  36.43200 3.57400 24.06200
H  37.69200 2.34200 24.37200
H  33.23100 1.10000 25.53900
H  34.67000 1.08700 24.51600
H  32.38900 1.86000 23.65600
H  33.92300 2.64100 23.17000
H  32.84300 3.41500 24.42500
H  30.30300 4.87700 28.60000
H  29.28000 3.99200 29.67800
H  30.02100 3.20300 28.21600
H  31.68300 3.24600 34.05900
H  30.79000 5.60900 37.28100
H  30.41100 6.88000 36.06100
H  32.09300 6.47700 36.63100
Mg 47.80800 16.03600 28.44300
C  45.84600 15.90200 31.33900
C  50.14000 17.74000 30.12300
C  49.49700 16.58300 25.45500
C  45.14800 14.76800 26.60700
N  47.93200 16.74900 30.54100
C  47.03300 16.59600 31.58000
C  47.59800 17.24400 32.85000
C  48.81400 18.08700 32.25000
C  48.97400 17.47600 30.88700
C  48.58200 19.55300 32.27300
C  47.91200 16.14200 33.96800
C  48.58700 16.52800 35.26800
H  48.59900 17.95800 35.86900
N  49.59000 16.89400 27.88000
C  50.42500 17.49900 28.81600
C  51.63800 17.88800 28.13900
C  51.50900 17.45700 26.72400
C  50.14400 16.96600 26.63300
C  52.90200 18.46300 28.97800
C  52.61300 17.56700 25.61500
O  52.34500 17.24400 24.48100
C  54.01900 18.10900 25.91700
N  47.35400 15.75900 26.38000
C  48.19900 16.02300 25.33800
C  47.58700 15.84900 23.99100
C  46.32600 15.04100 24.34200
C  46.26100 15.17800 25.88100
C  47.22800 17.23600 23.30600
C  46.49900 13.53000 23.97400
C  45.84900 13.09900 22.58700
N  45.84700 15.41800 28.78400
C  44.91400 14.84100 28.01300
C  43.71700 14.52600 28.79800
C  44.10800 14.86400 30.10200
C  45.37200 15.45700 30.07600
C  42.45800 13.86700 28.25400
C  43.64400 14.83600 31.47200
O  42.64200 14.36200 31.93800
C  44.78400 15.56400 32.36900
C  44.19200 16.77900 32.99600
O  44.25000 17.91400 32.63200
O  43.53400 16.41800 34.16400
C  42.87100 17.44000 34.91400
H  50.75300 18.50600 30.60300
H  50.08300 16.62600 24.53500
H  44.32500 14.46600 25.95600
H  46.87700 17.79900 33.44900
H  49.73600 17.87800 32.79200
H  48.10900 19.81800 31.32800
H  49.53500 20.08100 32.28500
H  47.91900 19.93300 33.05000
H  48.55900 15.39000 33.51700
H  46.95500 15.71300 34.26600
H  49.63700 16.24100 35.22100
H  48.18000 15.83400 36.00300
H  53.19900 19.30300 28.34900
H  53.68300 17.76300 29.27200
H  52.53100 18.88400 29.91200
H  54.01600 19.19100 25.78700
H  54.64200 17.70400 25.12000
H  54.32500 17.74000 26.89600
H  48.34500 15.17800 23.58900
H  45.43900 15.44800 23.85700
H  47.39900 18.06900 23.98800
H  46.23800 17.18100 22.85300
H  47.79900 17.57700 22.44300
H  46.08800 12.85700 24.72600
H  47.56400 13.30000 23.93900
H  44.87900 12.62200 22.72700
H  46.54900 12.35000 22.21800
H  45.78800 13.91000 21.86100
H  41.59500 14.08600 28.88300
H  42.69700 12.80500 28.20700
H  42.21000 14.20900 27.24900
H  45.22900 14.89400 33.10400
H  41.92000 17.50600 34.38600
H  43.24800 18.46000 34.99400
H  42.56800 17.08800 35.90000

