158

Mg 25.47100 1.35700 29.38400
C  27.59700 0.82900 32.24000
C  22.77300 1.53700 31.60100
C  23.46000 1.34400 26.70900
C  28.21800 0.62500 27.37100
N  25.30100 1.20800 31.68400
C  26.23700 1.14200 32.63900
C  25.66000 1.24800 33.98500
C  24.10300 1.26900 33.76400
C  24.04200 1.35900 32.26800
C  23.37700 0.07100 34.39600
C  26.10500 2.43600 34.81900
C  26.66100 2.19000 36.18600
H  26.21900 3.10500 37.35400
N  23.37900 1.55700 29.15400
C  22.48500 1.57400 30.19700
C  21.16900 1.72700 29.57700
C  21.23700 1.70900 28.15900
C  22.75800 1.55500 27.93800
C  19.89000 1.65300 30.43400
C  20.14600 1.79200 27.04200
O  20.48100 1.74300 25.85400
C  18.74900 1.84100 27.44800
N  25.81400 0.94900 27.36900
C  24.82900 1.06300 26.44600
C  25.38000 0.59900 25.07800
C  26.98200 0.72400 25.20100
C  26.99000 0.76100 26.74700
C  24.84700 -0.70300 24.67200
C  27.60700 1.92900 24.55300
C  28.58000 1.68500 23.40800
N  27.54800 0.83800 29.68700
C  28.47100 0.56700 28.74700
C  29.78100 0.40600 29.42700
C  29.49600 0.42200 30.76100
C  28.10400 0.65900 30.91100
C  31.03700 0.14800 28.79500
C  30.06000 0.33000 32.12700
O  31.18300 0.09300 32.48200
C  28.83400 0.59200 33.07900
C  28.79100 -0.54400 34.03400
O  28.74800 -1.75800 33.76800
O  28.88200 -0.08000 35.36600
C  28.98700 -1.00800 36.48500
H  21.98300 1.78700 32.31200
H  22.83300 1.34900 25.81600
H  28.95700 0.48500 26.57900
H  25.97500 0.32800 34.47800
H  23.57800 2.16200 34.10300
H  23.90200 -0.53600 35.13300
H  23.02800 -0.57100 33.58700
H  22.39500 0.35600 34.77600
H  25.26400 3.11600 34.95500
H  26.81300 2.96100 34.17800
H  27.71000 2.48600 36.16100
H  26.54700 1.13900 36.45400
H  20.04700 1.38900 31.48000
H  19.16900 0.95700 30.00500
H  19.36700 2.60400 30.53400
H  18.04000 1.86500 26.62000
H  18.56700 2.62700 28.18100
H  18.59100 0.91900 28.00800
H  25.11000 1.27600 24.26700
H  27.47400 -0.19400 24.87800
H  25.64300 -1.41700 24.46100
H  24.32600 -0.73800 23.71500
H  24.19800 -1.11100 25.44700
H  28.17600 2.39200 25.35900
H  26.86700 2.68100 24.28200
H  29.61400 1.86900 23.69800
H  28.43700 2.28200 22.50800
H  28.46300 0.68300 22.99500
H  31.19900 0.89900 28.02300
H  30.91700 -0.82300 28.31400
H  31.80300 0.19600 29.56900
H  29.04400 1.49700 33.64800
H  28.03500 -1.53800 36.52000
H  28.96200 -0.55900 37.47800
H  29.81900 -1.71000 36.42200
Mg 26.19800 50.96100 26.63000
C  23.91800 52.01600 29.08000
C  28.26600 50.03900 29.05000
C  28.40300 50.11000 24.27100
C  23.98400 52.20300 24.15100
N  26.19700 51.14200 28.78100
C  25.11000 51.46400 29.60300
C  25.38300 51.41300 31.02400
C  26.89200 51.05700 31.04400
C  27.21100 50.72000 29.53800
C  27.85300 52.14200 31.71000
C  24.37800 50.58300 31.83500
C  24.83000 49.89600 33.17500
H  25.49300 50.79900 34.24500
N  28.11300 50.12300 26.63100
C  28.80900 49.81100 27.78000
C  30.13700 49.32200 27.40500
C  30.24000 49.23900 25.98600
C  28.84000 49.80200 25.55400
C  31.24100 48.87400 28.38600
C  31.33300 48.78400 25.06500
O  31.14300 48.65600 23.83800
C  32.62900 48.50100 25.53800
N  26.30600 51.37400 24.52500
C  27.31200 50.75900 23.76500
C  27.00800 50.85900 22.25800
C  25.49400 51.28500 22.20800
C  25.22600 51.63000 23.71200
C  28.06700 51.63300 21.40900
C  24.60800 50.24200 21.63900
C  23.17200 50.74000 21.21700
N  24.37600 52.01500 26.57300
C  23.58000 52.37000 25.48900
C  22.37700 53.02600 26.04600
C  22.52800 52.95700 27.46000
C  23.63000 52.20900 27.69800
C  21.33000 53.83500 25.31100
C  21.92900 53.37500 28.71000
O  20.92900 54.06200 28.94500
C  22.78500 52.77300 29.73600
C  23.33700 53.91300 30.53500
O  24.32200 54.54000 30.23700
O  22.75900 54.07800 31.73100
C  23.17900 55.21700 32.54900
H  28.91600 49.55700 29.78300
H  29.04800 49.79500 23.44800
H  23.24900 52.53100 23.41200
H  25.25500 52.47700 31.22100
H  27.09400 50.21700 31.70800
H  27.23200 52.96700 32.06100
H  28.64100 52.47700 31.03500
H  28.34100 51.80900 32.62700
H  23.93100 49.83900 31.17500
H  23.66300 51.26800 32.29000
H  25.51800 49.12300 32.83200
H  23.92700 49.48600 33.62700
H  30.79700 48.36100 29.23900
H  31.74700 49.81300 28.61300
H  32.01800 48.24700 27.95000
H  33.35400 48.45400 24.72500
H  32.56100 47.49000 25.94100
H  32.98800 49.18900 26.30300
H  27.23800 49.86500 21.87400
H  25.41000 52.23100 21.67400
H  27.62600 52.57000 21.06800
H  28.47100 50.91200 20.69800
H  28.92500 51.80600 22.06000
H  24.44600 49.41100 22.32600
H  25.15900 49.71700 20.85900
H  23.09300 50.72200 20.13000
H  23.02300 51.81900 21.24600
H  22.47000 50.17900 21.83400
H  20.41500 53.24800 25.38800
H  21.62200 54.06000 24.28500
H  21.05200 54.75200 25.83100
H  22.30700 52.17500 30.51300
H  23.93500 54.96400 33.29200
H  22.41100 55.42700 33.29300
H  23.48000 56.14800 32.06800

