158

Mg 25.66200 0.96500 29.82500
C  27.72500 0.96700 32.63300
C  22.91900 1.49100 31.95900
C  23.64600 1.02500 27.12200
C  28.36300 0.38400 27.69500
N  25.41600 1.24100 32.15000
C  26.40300 1.24100 33.04300
C  25.87700 1.48400 34.42600
C  24.32600 1.59100 34.15100
C  24.19900 1.38300 32.66000
C  23.49700 0.51300 34.92800
C  26.46300 2.73100 35.13400
C  26.61900 2.47900 36.62600
H  26.16700 3.66800 37.53600
N  23.58900 1.05600 29.61400
C  22.62500 1.21100 30.57900
C  21.35900 1.28300 29.96100
C  21.55300 1.19200 28.54200
C  23.02300 1.06900 28.37200
C  20.02600 1.49800 30.65900
C  20.45300 1.14900 27.40200
O  20.76200 1.13200 26.18900
C  18.99500 1.19700 27.64800
N  25.91400 0.69000 27.68000
C  24.97000 1.01400 26.78300
C  25.55900 1.08700 25.40700
C  27.08200 0.86300 25.60400
C  27.08900 0.60800 27.06700
C  24.91600 0.21100 24.23200
C  27.99000 2.01100 25.10200
C  29.38400 1.61200 24.59500
N  27.58500 0.61400 30.01100
C  28.57600 0.33100 29.10800
C  29.79400 0.24100 29.80300
C  29.50300 0.40300 31.17600
C  28.14600 0.64500 31.29600
C  31.09400 0.00900 29.09200
C  30.03200 0.39600 32.44900
O  31.18500 0.31000 32.78100
C  28.93500 0.80000 33.50000
C  28.88100 -0.23800 34.43700
O  28.52500 -1.38300 34.23300
O  29.37700 0.19000 35.66500
C  29.32700 -0.59500 36.84800
H  22.03800 1.66400 32.58100
H  23.13100 1.33000 26.20900
H  29.14500 0.23800 26.94700
H  26.05600 0.61100 35.05400
H  23.97400 2.59700 34.38200
H  23.77200 0.51600 35.98300
H  23.68000 -0.46700 34.48700
H  22.41900 0.67200 34.95400
H  25.75500 3.54100 34.95800
H  27.36900 3.10200 34.65600
H  27.65400 2.24800 36.87600
H  26.01600 1.61900 36.91900
H  19.48800 2.35800 30.25900
H  20.13800 1.68300 31.72700
H  19.33400 0.66300 30.55500
H  18.62200 0.42800 28.32300
H  18.35200 1.10000 26.77300
H  18.78400 2.15400 28.12400
H  25.46400 2.15500 25.20900
H  27.25800 -0.12400 25.17700
H  25.71500 -0.36200 23.76100
H  24.53200 0.89800 23.47900
H  24.22900 -0.54400 24.61600
H  28.25300 2.80000 25.80600
H  27.42600 2.56000 24.34800
H  30.07300 2.22800 25.17300
H  29.35400 1.91200 23.54800
H  29.58200 0.54200 24.66200
H  31.15900 -0.93600 28.55300
H  31.89900 0.15600 29.81200
H  31.19500 0.76800 28.31500
H  29.29200 1.71800 33.96500
H  28.62100 -0.19700 37.57700
H  30.25400 -0.44800 37.40200
H  29.23300 -1.65700 36.61900
Mg 53.85500 23.77700 45.21700
C  51.16200 25.76700 43.94000
C  52.08100 21.02400 43.80600
C  56.66000 21.97700 45.74400
C  55.50500 26.73200 46.01300
N  51.81100 23.42400 44.12400
C  50.98700 24.43200 43.55900
C  49.91900 23.87700 42.51800
C  50.02000 22.35000 42.97700
C  51.35500 22.22000 43.67000
C  48.90300 21.85700 43.93300
C  50.42300 24.08000 41.01300
C  51.96300 24.34600 40.77100
H  52.91400 23.14000 40.79100
N  54.31400 21.71200 44.88100
C  53.43900 20.77500 44.32400
C  54.16700 19.50800 44.45400
C  55.45100 19.72000 45.07500
C  55.52300 21.17000 45.27000
C  53.56000 18.20000 43.91400
C  56.42700 18.70000 45.53600
O  56.22700 17.43800 45.43800
C  57.70100 19.01900 46.27400
N  55.83100 24.29800 45.70600
C  56.80200 23.36000 45.86700
C  58.13200 23.99600 46.02900
C  57.74900 25.51600 46.32400
C  56.24700 25.55500 46.01500
C  59.07900 23.37100 47.04200
C  58.63800 26.56200 45.67000
C  58.26800 27.05800 44.22400
N  53.38800 25.80800 45.15500
C  54.15700 26.90000 45.61800
C  53.36000 28.08200 45.60400
C  52.17900 27.73300 44.86500
C  52.25400 26.33600 44.64500
C  53.72400 29.43100 45.93000
C  50.92100 28.16400 44.35900
O  50.51100 29.29300 44.38900
C  50.26100 26.93900 43.70100
C  50.01300 27.32800 42.28000
O  50.86900 27.46100 41.44100
O  48.63100 27.39300 42.08300
C  48.13500 27.77200 40.75200
H  51.65400 20.12000 43.36700
H  57.65800 21.54600 45.84500
H  56.05200 27.65300 46.22600
H  48.97400 24.37700 42.72900
H  49.92700 21.70500 42.10300
H  48.23800 22.69300 44.14900
H  49.32500 21.46000 44.85700
H  48.25600 21.13800 43.43000
H  49.81000 24.87100 40.58000
H  50.15600 23.20000 40.42900
H  52.34000 25.24000 41.26800
H  52.08900 24.66900 39.73800
H  54.23300 17.89100 43.11400
H  52.54000 18.31400 43.54700
H  53.56400 17.43600 44.69200
H  58.08000 18.17800 46.85400
H  57.64500 19.83300 46.99700
H  58.55600 19.31500 45.66500
H  58.68800 24.01100 45.09200
H  57.82600 25.64800 47.40300
H  59.99500 23.11400 46.51100
H  58.75700 22.52100 47.64300
H  59.39500 24.20300 47.67200
H  59.67100 26.21300 45.67400
H  58.62200 27.48500 46.25100
H  59.10100 26.76500 43.58500
H  58.12100 28.13600 44.28900
H  57.31900 26.64600 43.88200
H  53.59200 30.03400 45.03100
H  54.75400 29.35400 46.27800
H  53.19200 29.90400 46.75500
H  49.31100 26.84600 44.22700
H  48.96600 27.82900 40.04900
H  47.55000 28.69100 40.80300
H  47.46200 26.98700 40.40600

