158

Mg -2.20900 18.09300 26.90200
C  -2.47200 16.02100 29.68200
C  -2.90300 20.90300 28.91800
C  -1.84200 19.97600 24.28000
C  -1.68700 15.15100 24.91600
N  -2.55400 18.39400 29.06900
C  -2.61100 17.35000 29.99700
C  -2.88200 17.91800 31.44400
C  -3.08900 19.49100 31.13400
C  -2.83500 19.62900 29.58400
C  -4.56000 20.03600 31.58900
C  -1.79200 17.82100 32.52100
C  -2.07400 17.08000 33.83000
H  -1.10200 17.29700 34.97300
N  -2.36800 20.15700 26.57400
C  -2.64200 21.16300 27.52600
C  -2.59900 22.42600 26.90500
C  -2.30100 22.16100 25.56000
C  -2.19400 20.73300 25.42700
C  -2.71600 23.80000 27.53900
C  -2.13700 23.11700 24.38600
O  -2.14700 22.81100 23.22300
C  -2.10200 24.64100 24.68800
N  -1.63800 17.57500 24.93900
C  -1.64600 18.62800 24.06700
C  -1.40300 17.97500 22.61700
C  -0.86500 16.53600 22.90400
C  -1.42500 16.39800 24.32800
C  -2.68200 18.05100 21.66800
C  0.65400 16.29000 22.71900
C  1.73800 16.79300 23.73900
N  -2.28900 15.97900 27.18100
C  -2.04700 14.92600 26.25600
C  -2.23800 13.63700 26.94200
C  -2.45700 14.01500 28.27900
C  -2.41000 15.47000 28.36700
C  -2.27200 12.24100 26.32800
C  -2.79900 13.52400 29.58000
O  -2.98000 12.38300 29.98100
C  -2.77300 14.77800 30.57200
C  -1.68100 14.46400 31.59300
O  -0.50300 14.74300 31.55700
O  -2.24000 13.73900 32.60600
C  -1.40700 13.19200 33.75200
H  -2.96600 21.79400 29.54600
H  -1.85200 20.47800 23.31000
H  -1.53600 14.23800 24.33600
H  -3.81200 17.40600 31.69100
H  -2.32200 20.15500 31.53300
H  -4.50300 20.75900 32.40300
H  -5.05800 19.12500 31.92000
H  -5.11200 20.48100 30.76100
H  -1.42700 18.80000 32.83100
H  -1.02100 17.19700 32.06900
H  -2.15900 15.99700 33.74000
H  -3.08800 17.39900 34.07400
H  -3.49100 24.38500 27.04500
H  -1.75900 24.32000 27.48300
H  -2.84100 23.68600 28.61600
H  -3.08100 24.96900 25.03800
H  -1.90200 25.10000 23.72100
H  -1.23000 24.89100 25.29300
H  -0.53800 18.50500 22.21900
H  -1.24200 15.81000 22.18400
H  -3.60300 18.12000 22.24600
H  -2.63300 17.17500 21.02100
H  -2.53900 18.91800 21.02300
H  1.04800 16.90600 21.91000
H  1.00100 15.31200 22.38500
H  2.14700 15.85800 24.12100
H  1.30200 17.31600 24.59000
H  2.55000 17.32700 23.24500
H  -1.84000 11.53400 27.03700
H  -1.63000 12.11000 25.45600
H  -3.27600 11.85300 26.15700
H  -3.73600 14.73700 31.08100
H  -0.41800 12.88100 33.41600
H  -1.82800 12.26200 34.13400
H  -1.26300 13.95100 34.52000
Mg 9.27400 48.37800 25.25300
C  7.05900 49.12400 27.96600
C  11.98400 48.98700 27.28000
C  11.13300 47.97100 22.62000
C  6.29700 48.16200 23.11000
N  9.44700 49.03000 27.31200
C  8.44800 49.13500 28.28400
C  9.06800 49.37500 29.63400
C  10.58200 49.37600 29.39300
C  10.70500 49.08500 27.87400
C  11.30500 50.75200 29.72700
C  8.61500 48.32400 30.77800
C  9.42800 48.14200 32.05800
H  8.63600 47.79500 33.30100
N  11.23300 48.49300 25.00100
C  12.23200 48.76200 25.91700
C  13.51800 48.71000 25.32900
C  13.31800 48.31100 23.94800
C  11.82800 48.26200 23.78200
C  14.75200 49.00000 26.10300
C  14.38800 48.17200 22.77900
O  14.05700 47.95200 21.63000
C  15.86200 48.23000 23.01000
N  8.80100 48.13900 23.09400
C  9.78500 47.89900 22.26700
C  9.24100 47.51500 20.89800
C  7.72000 47.47500 21.09200
C  7.55000 47.94700 22.48900
C  9.67600 48.33600 19.66800
C  6.83000 46.23200 20.79400
C  5.39900 46.45300 20.31000
N  7.03900 48.56000 25.46200
C  5.99600 48.45600 24.52600
C  4.78400 48.67800 25.19200
C  5.14000 49.01300 26.51300
C  6.52800 48.91000 26.64300
C  3.39600 48.58100 24.58300
C  4.58700 49.34500 27.73800
O  3.40300 49.58500 27.96900
C  5.82700 49.50400 28.81300
C  5.49800 48.34100 29.74500
O  5.68400 47.16200 29.45600
O  4.98800 48.89100 30.87100
C  4.74100 47.90500 31.93200
H  12.79400 49.18500 27.98600
H  11.68400 47.87400 21.68300
H  5.37700 48.09300 22.52500
H  8.69500 50.34300 29.96700
H  11.18000 48.69300 29.99600
H  12.16400 50.63600 30.38800
H  10.53200 51.36300 30.19200
H  11.74600 51.23700 28.85600
H  8.52000 47.37100 30.25800
H  7.60900 48.62200 31.07300
H  10.00400 49.06100 32.16500
H  10.16800 47.37300 31.83600
H  15.12400 48.18300 26.72100
H  14.69800 49.87500 26.75100
H  15.57300 49.33300 25.46900
H  16.20900 49.20800 23.34400
H  16.35300 47.97700 22.07000
H  16.17600 47.45700 23.71100
H  9.59700 46.51100 20.67000
H  7.28000 48.31200 20.55000
H  8.98200 49.12800 19.38500
H  9.72300 47.55800 18.90500
H  10.59300 48.84900 19.95600
H  6.70300 45.75400 21.76600
H  7.39500 45.48000 20.24300
H  5.23400 47.49500 20.03700
H  4.71600 46.16800 21.11000
H  5.21200 45.85100 19.42100
H  3.28200 49.49000 23.99200
H  2.66500 48.48100 25.38600
H  3.42100 47.73100 23.90100
H  5.72400 50.49100 29.26500
H  5.38100 47.02500 31.86400
H  3.70300 47.57200 31.94600
H  5.07500 48.46800 32.80400

