158

Mg 24.48900 -4.62400 45.70600
C  26.62700 -2.24100 44.46200
C  22.00900 -3.43100 43.67800
C  22.73100 -7.31200 46.55100
C  27.20300 -5.88400 47.67100
N  24.31000 -2.94200 44.33800
C  25.34000 -2.15300 43.87600
C  24.88100 -1.31100 42.65400
C  23.29600 -1.43700 42.76800
C  23.15600 -2.69500 43.65200
C  22.62400 -0.19600 43.41100
C  25.39900 -1.81700 41.31100
C  26.15500 -0.85500 40.34300
H  25.67500 -0.82900 38.84600
N  22.56800 -5.26100 45.21400
C  21.74100 -4.65700 44.35100
C  20.60800 -5.50000 44.10300
C  20.70300 -6.59200 44.97200
C  21.98500 -6.39200 45.66700
C  19.49900 -5.11700 43.06200
C  19.64900 -7.67800 45.15000
O  18.61000 -7.71100 44.49800
C  19.80000 -8.70800 46.26000
N  24.99400 -6.53800 46.82400
C  24.00600 -7.39000 47.10000
C  24.53500 -8.49200 48.01500
C  25.73200 -7.78200 48.72000
C  26.07400 -6.68800 47.68200
C  23.61500 -9.14500 49.04800
C  26.92600 -8.69500 49.05300
C  27.21700 -8.82900 50.55400
N  26.46500 -4.13800 46.13300
C  27.45600 -4.71400 46.89600
C  28.61000 -3.80800 46.84900
C  28.35300 -2.83300 45.90900
C  27.04500 -3.18900 45.48500
C  29.93700 -3.91800 47.63400
C  28.90300 -1.62800 45.22300
O  29.93700 -0.95400 45.35400
C  27.84200 -1.40000 44.06100
C  27.58300 -0.00400 44.00500
O  26.99100 0.66600 44.86000
O  28.17300 0.50700 42.87100
C  28.15600 1.99100 42.75900
H  21.28600 -2.94700 43.01800
H  22.22000 -8.23900 46.81600
H  28.04800 -6.16100 48.30400
H  25.29600 -0.30800 42.75300
H  22.73400 -1.51400 41.83700
H  23.28900 0.66800 43.40800
H  22.31700 -0.44800 44.42600
H  21.71900 0.12000 42.89300
H  24.56800 -2.21000 40.72500
H  26.04900 -2.63900 41.61300
H  27.20000 -1.16800 40.34300
H  26.00700 0.13900 40.76400
H  19.05800 -5.99100 42.58300
H  20.01700 -4.78000 42.16400
H  18.82400 -4.28500 43.26500
H  20.15800 -8.22300 47.16800
H  20.58200 -9.44500 46.07500
H  18.88900 -9.29600 46.37300
H  24.88100 -9.31700 47.39200
H  25.50200 -7.24800 49.64200
H  23.93900 -9.03500 50.08300
H  23.44700 -10.21000 48.89300
H  22.64400 -8.66100 48.94000
H  27.81400 -8.62000 48.42500
H  26.57500 -9.68100 48.74900
H  28.26700 -9.10800 50.64500
H  26.48100 -9.50900 50.98200
H  27.25300 -7.87700 51.08300
H  29.82700 -4.24800 48.66700
H  30.40600 -2.93600 47.69400
H  30.58500 -4.54600 47.02200
H  28.26700 -1.81200 43.14500
H  28.57800 2.60900 43.55200
H  27.10500 2.25900 42.64500
H  28.62900 2.33400 41.84000
Mg 48.15000 15.95100 28.49100
C  46.06300 15.72800 31.32100
C  50.40800 17.61700 30.38300
C  49.71800 16.65100 25.67800
C  45.30500 15.02500 26.58400
N  48.19500 16.70600 30.55100
C  47.29200 16.39900 31.58700
C  47.85700 16.93500 32.91700
C  49.05400 17.84500 32.49300
C  49.23100 17.44600 31.06400
C  48.94100 19.37300 32.84300
C  48.25000 15.79600 33.80300
C  47.83100 15.96400 35.31600
H  47.46300 17.41200 35.80300
N  49.93400 16.87600 28.06200
C  50.79600 17.43700 29.02600
C  52.00500 17.88700 28.28100
C  51.87300 17.44900 26.92100
C  50.44900 16.97700 26.86200
C  53.13000 18.72200 28.92100
C  52.76900 17.39600 25.76200
O  52.48100 16.95100 24.69500
C  54.26200 17.68600 26.01400
N  47.61500 15.70300 26.44700
C  48.48300 16.01600 25.49100
C  47.91000 15.80000 24.08700
C  46.57200 15.10000 24.34500
C  46.48400 15.32200 25.87000
C  47.77300 17.01700 23.03700
C  46.57900 13.56700 24.00600
C  47.43400 12.61000 24.89200
N  46.12300 15.30100 28.81100
C  45.12700 14.98100 28.01100
C  43.98100 14.42900 28.76400
C  44.31700 14.68800 30.07000
C  45.59400 15.29300 30.02300
C  42.86700 13.64700 28.19500
C  43.88700 14.60800 31.43400
O  42.86600 14.11300 31.93100
C  44.94200 15.40900 32.25400
C  44.21300 16.53400 32.94700
O  43.80100 17.55400 32.45700
O  44.08000 16.26400 34.30100
C  43.18700 17.16900 35.01200
H  51.14700 18.10300 31.02400
H  50.09800 16.91300 24.68800
H  44.54800 14.68200 25.87500
H  47.00500 17.49400 33.30400
H  49.99900 17.69900 33.01600
H  49.10700 20.00600 31.97100
H  49.57200 19.59400 33.70400
H  47.90900 19.53600 33.15300
H  49.33900 15.78300 33.77600
H  47.98000 14.86600 33.30300
H  48.69600 15.61800 35.88200
H  47.04700 15.23200 35.51200
H  53.33900 19.53200 28.22200
H  53.95400 18.07000 29.21200
H  52.65000 19.04500 29.84500
H  54.68800 17.44600 26.98800
H  54.33500 18.76200 25.85400
H  54.90900 17.30500 25.22400
H  48.57300 15.10600 23.57000
H  45.74200 15.54300 23.79500
H  48.20100 17.95900 23.38100
H  46.73600 17.19600 22.75200
H  48.26700 16.66400 22.13200
H  47.01500 13.57000 23.00700
H  45.55800 13.20300 23.89100
H  47.86400 11.97700 24.11600
H  46.89200 11.92100 25.54000
H  48.32400 12.94800 25.42300
H  43.35500 12.69700 27.97800
H  42.63600 14.07300 27.21800
H  41.97900 13.44000 28.79300
H  45.48600 14.83500 33.00400
H  42.43700 17.52600 34.30700
H  43.86500 17.90400 35.44600
H  42.66500 16.64200 35.81100

