158

Mg 43.35900 41.99500 26.71000
C  42.52300 44.41400 29.17400
C  44.03000 39.83200 29.26800
C  44.41200 39.99700 24.37200
C  43.00000 44.63900 24.37400
N  43.33100 42.12500 28.93700
C  42.88000 43.17300 29.72500
C  42.74300 42.71300 31.19400
C  43.50600 41.35500 31.17400
C  43.56000 41.06800 29.66900
C  44.90500 41.50800 31.89600
C  41.18900 42.64500 31.66800
C  40.85400 43.53800 32.84200
H  39.95800 43.12800 33.97500
N  44.06700 40.08300 26.79400
C  44.31200 39.33600 27.88900
C  44.66100 38.02200 27.50400
C  44.82700 38.04500 26.09900
C  44.41500 39.39700 25.67700
C  44.94500 36.91500 28.50600
C  45.30000 36.91700 25.17600
O  45.35900 37.06200 24.00400
C  45.83400 35.60700 25.80600
N  43.59100 42.29700 24.65100
C  44.01300 41.21400 23.84400
C  43.98600 41.58500 22.32400
C  43.71000 43.16600 22.44100
C  43.34800 43.37800 23.92700
C  45.18900 41.22300 21.41600
C  42.59400 43.53600 21.49100
C  42.85800 44.75800 20.62700
N  42.88500 44.13500 26.73600
C  42.81100 45.03500 25.67100
C  42.41500 46.33300 26.27100
C  42.22600 46.09800 27.65500
C  42.60300 44.79000 27.88500
C  42.15000 47.57300 25.61200
C  41.80400 46.69400 28.91000
O  41.35900 47.81800 29.23500
C  42.01500 45.62000 29.98800
C  43.00000 46.14300 30.91700
O  44.13100 46.45700 30.57400
O  42.47900 46.32700 32.13800
C  43.32900 47.05500 33.11800
H  44.24100 39.16400 30.10600
H  44.84000 39.37200 23.58500
H  42.84500 45.37900 23.58600
H  43.24700 43.44500 31.82500
H  42.93500 40.59200 31.70200
H  44.93300 40.80000 32.72500
H  44.96300 42.54600 32.22400
H  45.79300 41.38500 31.27600
H  40.97700 41.61000 31.93900
H  40.52000 42.73300 30.81300
H  40.54400 44.46100 32.35200
H  41.78500 43.79800 33.34500
H  46.00600 36.68800 28.40500
H  44.33600 36.02600 28.34300
H  44.85000 37.17000 29.56200
H  46.09700 34.94400 24.98200
H  44.99500 35.07800 26.25900
H  46.71500 35.80200 26.41700
H  43.12800 41.02100 21.95800
H  44.67400 43.66600 22.34200
H  46.13400 41.08800 21.94300
H  45.31800 42.13300 20.83100
H  44.85500 40.43500 20.74100
H  41.67800 43.65400 22.06900
H  42.24300 42.69300 20.89600
H  43.87000 45.16100 20.65500
H  42.30800 45.56600 21.11100
H  42.67000 44.62100 19.56200
H  41.10100 47.58000 25.31600
H  42.74800 47.48700 24.70500
H  42.38100 48.44600 26.22300
H  41.10000 45.28300 30.47500
H  43.33100 46.54200 34.07900
H  42.91500 48.06100 33.18900
H  44.38700 47.20600 32.90300
Mg 6.52500 54.43300 41.16900
C  3.91800 52.22800 41.06000
C  8.59000 52.16200 39.79400
C  8.93400 56.83800 40.91700
C  4.27000 56.94100 42.33600
N  6.13200 52.54300 40.17000
C  5.02400 51.76000 40.30100
C  5.18200 50.39000 39.60900
C  6.74600 50.23800 39.48000
C  7.20600 51.72300 39.79300
C  7.53100 49.33200 40.45500
C  4.52600 50.32800 38.17300
C  3.96400 49.01100 37.83300
H  4.50000 48.20800 36.66500
N  8.50300 54.44300 40.45200
C  9.19000 53.37000 40.01700
C  10.54000 53.72800 39.69300
C  10.55300 55.15900 39.64900
C  9.30100 55.57300 40.31500
C  11.53500 52.77700 39.13200
C  11.67000 55.99800 39.15400
O  12.72800 55.45600 38.77900
C  11.48100 57.49200 39.00700
N  6.58700 56.59700 41.47600
C  7.74600 57.32900 41.46900
C  7.57600 58.71400 42.21200
C  5.99700 58.73100 42.32800
C  5.60400 57.33900 42.10800
C  8.38700 58.92200 43.55800
C  5.31000 59.63100 41.30600
C  4.37900 60.75800 41.84400
N  4.52900 54.61700 41.56000
C  3.67500 55.64500 41.98000
C  2.38100 55.18900 42.28800
C  2.43800 53.84000 42.00900
C  3.76300 53.51500 41.58000
C  1.13900 55.91200 42.73200
C  1.68900 52.65600 41.95200
O  0.47800 52.50600 42.16900
C  2.64400 51.49900 41.61600
C  2.02200 50.63500 40.66400
O  1.50000 51.09700 39.65300
O  1.94800 49.31800 41.20500
C  0.92700 48.53200 40.45000
H  9.20300 51.33800 39.42100
H  9.82000 57.44800 41.10700
H  3.53900 57.56900 42.85000
H  4.77100 49.63400 40.27700
H  6.99400 49.98000 38.45100
H  7.41700 48.27100 40.23400
H  7.28200 49.41400 41.51300
H  8.59900 49.52400 40.35900
H  5.21500 50.70800 37.41800
H  3.70300 51.04200 38.13000
H  2.91100 49.19600 37.61700
H  4.04900 48.47300 38.77700
H  11.42000 52.57600 38.06700
H  11.38900 51.79100 39.57400
H  12.50400 53.08500 39.52600
H  10.42700 57.76300 38.93700
H  11.99300 57.84000 38.11100
H  11.93000 57.83700 39.93900
H  7.75100 59.59300 41.59200
H  5.71800 59.12300 43.30600
H  7.70600 58.82900 44.40400
H  9.07700 59.76600 43.56800
H  8.98000 58.03000 43.76000
H  4.56900 59.04500 40.76300
H  5.95200 60.17400 40.61200
H  4.38700 60.69700 42.93200
H  3.34600 60.59600 41.53800
H  4.83500 61.65500 41.42300
H  0.83500 56.72300 42.06900
H  1.40700 56.39500 43.67200
H  0.37300 55.28000 43.18200
H  2.85100 50.91400 42.51200
H  1.36200 47.56900 40.18000
H  0.65000 48.89800 39.46100
H  0.03300 48.32100 41.03600

