158

Mg 9.06400 4.03000 27.70900
C  10.19400 2.52500 30.66800
C  6.80800 5.80800 29.55600
C  7.81400 5.27700 24.80400
C  10.81800 1.55900 25.89000
N  8.45800 3.99200 29.82900
C  9.10500 3.31500 30.87100
C  8.62800 3.83600 32.26200
C  7.29100 4.60300 31.82700
C  7.44400 4.79800 30.29700
C  5.94000 3.96200 32.24900
C  9.73800 4.70400 32.98900
C  9.91600 4.51400 34.52100
H  11.23300 4.82300 35.22300
N  7.60100 5.46300 27.27600
C  6.81100 6.16400 28.16700
C  6.06100 7.17200 27.46300
C  6.36600 7.03800 26.06500
C  7.31200 5.90900 26.02900
C  5.06800 8.04000 28.14000
C  5.74200 7.79100 24.79700
O  6.04700 7.48200 23.65100
C  4.83900 8.97500 25.09800
N  9.12500 3.46000 25.68600
C  8.60000 4.18100 24.66900
C  9.14600 3.73100 23.26000
C  9.90600 2.38300 23.61200
C  10.03100 2.52900 25.18700
C  7.96400 3.41400 22.31000
C  11.21900 2.22400 22.87700
C  11.42500 0.94600 22.04000
N  10.32800 2.44000 28.13000
C  10.96900 1.52000 27.31400
C  11.76800 0.55100 28.18200
C  11.56200 1.01100 29.44500
C  10.68600 2.14500 29.44100
C  12.58700 -0.60200 27.68900
C  11.91800 0.69400 30.75700
O  12.68700 -0.10800 31.22200
C  11.05600 1.69500 31.67400
C  10.42900 1.00400 32.79500
O  9.40700 0.34400 32.71400
O  11.25700 1.09600 33.88600
C  10.79400 0.39900 35.06400
H  6.09500 6.38300 30.15000
H  7.57200 5.63500 23.80100
H  11.36200 0.85000 25.26300
H  8.42500 2.92000 32.81700
H  7.25700 5.61800 32.22100
H  5.49500 4.61700 32.99700
H  6.15300 3.03500 32.78200
H  5.25600 3.86200 31.40600
H  9.47000 5.72800 32.73000
H  10.69600 4.49200 32.51500
H  9.52000 3.55300 34.84900
H  9.18900 5.27200 34.81200
H  4.07000 7.78000 27.78900
H  5.08900 9.10300 27.89600
H  5.07300 7.99500 29.22900
H  4.53300 9.53000 24.21100
H  5.40600 9.66600 25.72300
H  4.02900 8.65600 25.75300
H  9.77800 4.56900 22.96500
H  9.18300 1.56800 23.60800
H  6.98600 3.64600 22.73100
H  7.86100 2.43800 21.83500
H  8.06000 4.02100 21.41000
H  12.06800 2.20500 23.56000
H  11.24100 3.06200 22.18100
H  11.86200 1.23100 21.08300
H  10.42900 0.51200 21.95500
H  12.17900 0.30500 22.49700
H  13.59300 -0.20700 27.54600
H  12.18600 -0.86500 26.71000
H  12.71100 -1.36000 28.46200
H  11.86300 2.24800 32.15400
H  11.58500 -0.25900 35.42600
H  9.92800 -0.26100 35.01600
H  10.55200 1.10100 35.86100
Mg -10.39000 39.77300 38.92000
C  -9.07200 36.63600 38.29700
C  -7.05200 40.99100 38.33300
C  -11.56100 42.93500 38.57000
C  -13.54200 38.50300 39.17300
N  -8.40400 38.87100 38.40400
C  -8.08600 37.56900 38.22200
C  -6.58000 37.31900 37.80500
C  -6.03100 38.56500 38.53600
C  -7.18100 39.55800 38.40200
C  -5.69700 38.23600 40.06800
C  -6.34000 37.41800 36.28300
C  -6.17800 36.07800 35.54900
H  -7.29000 35.78300 34.49500
N  -9.44700 41.69000 38.51100
C  -8.06600 41.95500 38.25300
C  -7.89500 43.33200 38.09200
C  -9.16300 43.98400 38.10500
C  -10.13900 42.86800 38.47000
C  -6.55800 43.93500 37.75900
C  -9.45600 45.40800 37.86600
O  -8.54100 46.21700 37.63400
C  -10.83800 46.02400 37.94800
N  -12.26800 40.56600 38.85900
C  -12.49400 41.91300 38.90700
C  -13.99000 42.21700 39.15100
C  -14.66500 40.80500 39.27300
C  -13.41800 39.87500 39.10100
C  -14.21300 43.10000 40.39100
C  -15.82300 40.56400 38.22900
C  -17.17500 40.14400 38.90300
N  -11.16100 37.90900 38.89000
C  -12.49500 37.55800 39.06100
C  -12.56700 36.11900 39.01800
C  -11.30100 35.69500 38.63800
C  -10.46600 36.79700 38.64200
C  -13.83600 35.35900 39.18700
C  -10.41000 34.57200 38.27200
O  -10.65300 33.44200 38.11700
C  -8.96600 35.09200 38.04100
C  -8.10400 34.38800 38.99600
O  -8.41800 34.11800 40.16100
O  -6.93900 33.86600 38.46200
C  -6.16700 32.92500 39.23800
H  -6.01700 41.32900 38.25100
H  -11.89000 43.96300 38.73400
H  -14.49000 38.01500 39.40500
H  -6.05500 36.46300 38.22900
H  -5.08900 38.88100 38.09000
H  -6.49100 38.63300 40.70100
H  -4.71300 38.65500 40.28000
H  -5.47700 37.18700 40.26600
H  -5.42700 38.00100 36.16100
H  -7.17000 37.97500 35.84800
H  -6.04100 35.23400 36.22400
H  -5.20700 36.24400 35.08300
H  -6.54400 44.29500 36.73000
H  -5.71300 43.25300 37.85800
H  -6.45400 44.86700 38.31500
H  -11.54200 45.44800 37.34800
H  -10.94000 47.03300 37.54700
H  -11.26100 45.95700 38.95100
H  -14.33800 42.76100 38.27400
H  -15.04200 40.58000 40.27000
H  -15.06600 42.90300 41.04000
H  -14.33200 44.15600 40.15000
H  -13.23600 42.97800 40.85900
H  -15.55800 39.82900 37.46800
H  -16.16700 41.47600 37.74100
H  -17.32700 40.81500 39.74900
H  -17.05300 39.07100 39.05200
H  -17.88800 40.31900 38.09800
H  -14.76100 35.89700 38.98200
H  -13.91000 35.06900 40.23500
H  -13.75600 34.51400 38.50300
H  -8.65200 34.93500 37.00900
H  -5.84300 33.39200 40.16800
H  -5.32400 32.54800 38.65900
H  -6.75400 32.07300 39.57900

