158

Mg 0.75600 7.09000 25.22500
C  1.55400 9.17500 28.02500
C  0.89100 4.41300 27.19800
C  0.19800 5.30600 22.48500
C  1.28500 9.90600 23.17900
N  1.20300 6.85500 27.36000
C  1.36200 7.80300 28.36700
C  1.33700 7.19600 29.69000
C  1.11800 5.66600 29.40900
C  1.15200 5.60500 27.88200
C  2.18800 4.71400 30.07500
C  0.17000 7.74700 30.54200
C  0.41400 7.97300 32.08100
H  1.64000 7.47900 32.81000
N  0.58500 5.11200 24.89200
C  0.68500 4.15200 25.83400
C  0.45200 2.89100 25.24300
C  0.21400 3.05400 23.85400
C  0.27500 4.54300 23.65700
C  0.51700 1.56900 26.05800
C  -0.01700 2.07400 22.73800
O  -0.37000 2.44900 21.61400
C  -0.00600 0.59500 22.94300
N  0.83100 7.52200 23.17100
C  0.32600 6.62400 22.30200
C  0.13600 7.23900 20.83600
C  0.33000 8.69700 21.15800
C  0.82600 8.75700 22.62900
C  1.29600 6.64100 19.90200
C  -0.94800 9.58500 21.10300
C  -1.18600 10.38600 19.81200
N  1.35700 9.06400 25.47500
C  1.56600 10.08400 24.53400
C  1.93900 11.35500 25.16400
C  1.87500 10.97200 26.58000
C  1.55600 9.63200 26.66000
C  2.13000 12.64300 24.53700
C  2.06300 11.58500 27.91400
O  2.30900 12.70200 28.28000
C  1.64300 10.42200 28.95100
C  2.65900 10.36200 29.98700
O  3.72900 9.74000 29.78700
O  2.35000 11.24900 30.98800
C  3.37200 11.37900 32.06000
H  0.81900 3.55700 27.87200
H  -0.28000 4.84000 21.62000
H  1.29100 10.79400 22.54300
H  2.26100 7.44600 30.21100
H  0.08000 5.40600 29.61700
H  3.03000 4.38500 29.46600
H  1.61600 3.87800 30.47700
H  2.66200 5.21800 30.91700
H  -0.75500 7.17300 30.49400
H  -0.18900 8.68200 30.11300
H  -0.45500 7.46000 32.49200
H  0.42600 9.03200 32.33900
H  -0.23900 0.87000 25.69900
H  0.18700 1.73100 27.08400
H  1.54000 1.21700 26.19000
H  -0.85400 0.22500 23.51900
H  0.89300 0.37200 23.51700
H  0.02600 -0.01300 22.03800
H  -0.86000 6.94100 20.50700
H  1.08500 9.16500 20.52700
H  1.88800 5.87000 20.39500
H  1.82400 7.35600 19.27100
H  0.73400 5.98200 19.23900
H  -0.97400 10.25800 21.96000
H  -1.77900 8.90900 21.30300
H  -2.04800 10.13600 19.19300
H  -0.34700 10.28300 19.12400
H  -1.18800 11.43900 20.09100
H  3.02100 12.70800 23.91300
H  2.35200 13.32100 25.36100
H  1.22900 12.88100 23.97000
H  0.70000 10.65000 29.44800
H  4.03700 12.22700 31.89100
H  4.06500 10.53800 32.04200
H  2.91900 11.33000 33.05000
Mg 29.81900 58.65000 39.04000
C  27.02900 56.70100 38.14800
C  31.85600 56.01500 38.50900
C  32.38300 60.81100 39.13500
C  27.61700 61.35000 39.30200
N  29.46200 56.66000 38.02300
C  28.18700 56.03800 37.92000
C  28.40800 54.57500 37.51500
C  29.83100 54.25500 38.20400
C  30.46300 55.72700 38.25000
C  29.77300 53.57800 39.59100
C  28.41700 54.44700 35.96000
C  27.23300 53.67100 35.30200
H  26.21700 54.48700 34.43700
N  31.97000 58.40600 39.01700
C  32.59600 57.25900 38.73100
C  34.01500 57.46200 38.75700
C  34.26200 58.82400 39.05700
C  32.86800 59.42000 39.01900
C  34.96500 56.34700 38.67700
C  35.51000 59.52600 39.17500
O  36.59500 59.01800 38.99900
C  35.56000 60.92000 39.51100
N  30.02300 60.76300 39.45200
C  31.18200 61.43700 39.29300
C  30.95700 62.96400 39.45200
C  29.48000 63.11600 39.61400
C  29.01400 61.64300 39.45600
C  31.83700 63.58900 40.61200
C  28.75100 64.08000 38.64600
C  28.15300 65.29000 39.18800
N  27.73900 59.05700 38.82400
C  26.98800 60.15100 38.98600
C  25.64700 59.86200 38.85200
C  25.55000 58.56700 38.51900
C  26.87900 58.07300 38.51800
C  24.50900 60.74700 39.22100
C  24.69300 57.47200 38.28000
O  23.47200 57.41900 38.19300
C  25.58300 56.21300 38.01500
C  25.17400 55.10900 38.94400
O  25.32000 55.10700 40.15400
O  24.57700 54.12200 38.19100
C  23.89100 52.95100 38.78400
H  32.44600 55.09700 38.46400
H  33.17100 61.55100 39.28900
H  26.93600 62.16000 39.57400
H  27.57500 53.93100 37.79900
H  30.45000 53.53600 37.66800
H  30.47200 52.74500 39.66800
H  28.78500 53.11900 39.57100
H  29.90000 54.23200 40.45400
H  29.28500 53.84300 35.69700
H  28.55300 55.45500 35.56800
H  26.66300 53.11200 36.04500
H  27.66700 52.88100 34.68800
H  35.92100 56.65500 39.10000
H  35.16300 56.16400 37.62100
H  34.53800 55.47800 39.17800
H  36.57500 61.22700 39.76500
H  34.85800 61.27200 40.26700
H  35.38700 61.48000 38.59200
H  31.26400 63.40200 38.50300
H  29.18900 63.32200 40.64400
H  31.94100 64.66900 40.50300
H  32.82100 63.14000 40.48200
H  31.27300 63.34100 41.51100
H  27.94800 63.61900 38.07100
H  29.51400 64.40800 37.94000
H  28.64200 66.09000 38.63300
H  28.51800 65.42500 40.20700
H  27.07200 65.31900 39.05300
H  24.88700 61.44300 39.97000
H  23.61300 60.17900 39.47200
H  24.24400 61.45900 38.43900
H  25.47900 55.90900 36.97400
H  23.15500 52.46500 38.14300
H  23.31900 53.12500 39.69500
H  24.66500 52.23400 39.06100

