158

Mg 25.86300 0.76200 29.22100
C  27.77400 0.36800 31.98800
C  23.18700 1.43700 31.22400
C  24.08200 1.23500 26.49000
C  28.63300 -0.19700 27.10900
N  25.59900 0.84500 31.39300
C  26.49300 0.72800 32.40200
C  25.98200 1.00100 33.84300
C  24.47000 1.15000 33.51300
C  24.40800 1.27500 31.93700
C  23.52900 -0.07800 33.94700
C  26.68500 2.15300 34.73200
C  27.30000 1.65600 36.08300
H  27.29500 2.59300 37.28200
N  23.85400 1.19300 28.91400
C  22.91700 1.43800 29.85700
C  21.71100 1.74100 29.18800
C  21.98500 1.76500 27.83200
C  23.35300 1.44200 27.71000
C  20.39500 1.89200 29.93600
C  20.98900 1.97600 26.66800
O  21.26800 1.95400 25.49200
C  19.52100 2.29100 26.99400
N  26.37500 0.64800 27.14100
C  25.41000 0.89800 26.24600
C  25.93800 0.66700 24.75400
C  27.31400 0.08400 25.02000
C  27.53600 0.23700 26.53500
C  24.97700 -0.15400 23.80400
C  28.44400 0.78500 24.14400
C  29.07100 2.16900 24.49700
N  27.80500 0.22800 29.43800
C  28.80300 -0.22000 28.47900
C  29.97500 -0.60200 29.24600
C  29.63400 -0.46700 30.59800
C  28.34500 0.12600 30.68000
C  31.24500 -1.06900 28.64400
C  30.16600 -0.55400 31.89000
O  31.22900 -0.86400 32.33600
C  29.03200 0.09500 32.85600
C  28.68700 -0.99900 33.84200
O  27.96600 -1.95400 33.58100
O  29.24300 -0.76200 35.07700
C  29.03800 -1.83400 36.03100
H  22.34700 1.78400 31.82900
H  23.54100 1.43400 25.56200
H  29.49600 -0.50000 26.51200
H  26.20900 0.04300 34.31000
H  24.16400 2.13900 33.85300
H  24.04800 -0.52100 34.79700
H  23.49100 -0.81200 33.14200
H  22.51800 0.25300 34.18500
H  26.02100 2.99100 34.93900
H  27.58700 2.37700 34.16200
H  28.33400 1.36200 35.90100
H  26.62000 0.85000 36.35700
H  19.82100 1.05500 29.54000
H  19.83800 2.78100 29.63900
H  20.33100 1.83200 31.02300
H  19.01500 2.49200 26.04900
H  19.31100 3.15200 27.62700
H  19.08400 1.33800 27.29300
H  26.05300 1.64000 24.27600
H  27.28300 -0.99500 24.86900
H  25.63500 -0.51600 23.01300
H  24.13300 0.44600 23.46400
H  24.58100 -1.04600 24.29000
H  27.98800 0.84500 23.15600
H  29.17100 -0.02600 24.17200
H  29.99500 1.88900 25.00300
H  28.59400 2.74100 25.29300
H  29.19900 2.82500 23.63600
H  32.02400 -0.30800 28.60300
H  31.03800 -1.30000 27.59900
H  31.58000 -1.99400 29.11300
H  29.35500 0.91000 33.50400
H  29.81600 -1.76300 36.79100
H  29.16000 -2.84300 35.63600
H  28.11600 -1.68000 36.59100
Mg -10.41100 17.12900 41.20800
C  -6.97200 17.21300 41.30600
C  -10.37300 20.50100 40.40400
C  -13.68200 16.83400 40.19500
C  -10.23400 13.60700 41.52500
N  -8.81700 18.64700 40.82100
C  -7.49400 18.46800 40.85700
C  -6.69600 19.85000 40.66500
C  -7.88100 20.89600 40.88700
C  -9.10800 19.96600 40.78000
C  -7.77500 21.69700 42.26700
C  -5.94600 20.03600 39.32200
C  -4.54400 19.51400 39.20200
H  -4.24600 18.32100 38.34800
N  -11.87000 18.46500 40.59700
C  -11.65100 19.83200 40.34400
C  -12.92200 20.42100 40.11000
C  -13.94800 19.35700 40.06000
C  -13.17400 18.12800 40.26400
C  -13.14600 21.89800 39.76300
C  -15.38500 19.53800 39.75400
O  -15.78600 20.67400 39.59000
C  -16.36100 18.43100 39.63200
N  -11.73500 15.37800 40.77700
C  -13.03000 15.55600 40.47500
C  -13.80900 14.22700 40.38000
C  -12.64700 13.17900 40.75500
C  -11.43700 14.05100 41.03500
C  -15.08600 14.13600 41.28100
C  -12.27200 12.22600 39.65900
C  -11.56300 12.72200 38.37500
N  -8.96800 15.69700 41.47100
C  -9.04100 14.31800 41.68600
C  -7.66400 13.77100 41.95600
C  -6.85900 14.95700 41.86600
C  -7.70900 16.02000 41.51700
C  -7.29700 12.37300 42.34200
C  -5.46300 15.39700 41.93700
O  -4.45500 14.76200 42.12200
C  -5.52900 16.94300 41.57400
C  -4.92500 17.72400 42.74800
O  -3.72800 17.89300 42.96700
O  -5.90000 18.23800 43.50700
C  -5.51100 19.02200 44.67600
H  -10.38100 21.59200 40.36200
H  -14.68600 16.67500 39.79500
H  -10.16800 12.56300 41.83900
H  -5.88900 20.01500 41.37900
H  -8.04900 21.50600 40.00000
H  -8.62800 21.55200 42.93000
H  -7.49600 22.74700 42.18300
H  -6.97800 21.22900 42.84600
H  -6.03000 21.06100 38.96200
H  -6.48400 19.47200 38.56000
H  -4.14400 19.22600 40.17500
H  -4.06900 20.35400 38.69500
H  -13.70300 21.97900 38.83000
H  -12.16500 22.31200 39.52900
H  -13.62200 22.49300 40.54300
H  -16.21600 17.92700 38.67700
H  -17.37300 18.83100 39.56900
H  -16.19100 17.75500 40.47000
H  -13.99000 14.10600 39.31200
H  -12.92300 12.63400 41.65700
H  -15.16100 13.23000 41.88300
H  -15.99000 14.21600 40.67700
H  -15.14400 15.03000 41.90100
H  -13.16500 11.70600 39.31300
H  -11.66700 11.42400 40.08300
H  -10.48500 12.56500 38.37000
H  -11.87100 13.74200 38.14600
H  -11.87400 12.05000 37.57500
H  -8.00300 11.73300 42.87100
H  -6.33900 12.31500 42.86000
H  -7.18300 11.88300 41.37500
H  -4.84700 16.94800 40.72400
H  -6.42200 19.47100 45.07200
H  -4.77600 19.79900 44.46900
H  -5.12900 18.28400 45.38100

