158

Mg 4.89400 54.71200 39.69600
C  5.32700 51.27900 39.00200
C  7.92100 55.27600 38.26000
C  4.06700 57.92600 39.69400
C  1.76700 53.86600 41.02700
N  6.28400 53.45900 38.62800
C  6.26600 52.06800 38.42200
C  7.47000 51.71300 37.54800
C  8.53000 52.71900 38.07100
C  7.56900 53.90800 38.31000
C  9.21300 52.36100 39.43400
C  7.17000 51.93100 36.03700
C  7.40400 50.69200 35.13100
H  6.37200 50.48300 34.01400
N  5.86200 56.45200 39.05100
C  7.09800 56.41400 38.44500
C  7.41800 57.74900 38.08500
C  6.32800 58.58100 38.52300
C  5.32900 57.70400 39.11200
C  8.61000 58.17200 37.26900
C  6.18600 60.14000 38.22000
O  7.10200 60.75500 37.62300
C  4.84600 60.89000 38.37800
N  3.09500 55.67300 40.12600
C  3.03200 57.04700 40.07700
C  1.71600 57.57800 40.74600
C  0.83200 56.27100 40.99000
C  1.94900 55.15300 40.72800
C  1.88500 58.46500 41.95500
C  -0.41500 56.14900 40.11500
C  -1.74900 55.97300 40.80800
N  3.66800 52.90100 40.06100
C  2.49100 52.71900 40.71000
C  2.30900 51.27600 40.95600
C  3.40400 50.63300 40.25800
C  4.15800 51.65300 39.70900
C  1.23000 50.58900 41.82700
C  4.12200 49.40200 39.95800
O  3.79500 48.23200 40.26500
C  5.42400 49.72200 39.15400
C  5.38500 48.98200 37.85800
O  4.51900 49.08700 36.98000
O  6.48000 48.12700 37.84000
C  6.44800 47.16700 36.65300
H  8.95900 55.52600 38.02800
H  3.69500 58.95200 39.64600
H  0.95900 53.62900 41.72200
H  7.79800 50.71700 37.84500
H  9.29700 53.02900 37.36100
H  9.19700 51.29900 39.67800
H  8.72200 53.02000 40.15100
H  10.22900 52.75100 39.37700
H  7.88800 52.64500 35.63400
H  6.11200 52.17500 35.94300
H  7.43200 49.78100 35.72800
H  8.40400 50.83300 34.72100
H  8.19200 58.81900 36.49700
H  9.02200 57.32000 36.72900
H  9.42800 58.50000 37.91100
H  4.93900 61.77600 37.75000
H  4.74700 61.14100 39.43400
H  3.93100 60.36700 38.10000
H  1.20200 58.13600 39.96300
H  0.58600 56.25300 42.05200
H  1.56400 59.44000 41.58900
H  2.92700 58.49500 42.27400
H  1.25200 58.18700 42.79800
H  -0.11600 55.25800 39.56200
H  -0.52800 56.93100 39.36400
H  -2.60600 56.33100 40.23800
H  -1.81500 56.40800 41.80500
H  -1.80300 54.89200 40.93900
H  1.28900 50.48100 42.91000
H  1.09000 49.54900 41.53100
H  0.26500 51.05200 41.61900
H  6.33600 49.41500 39.66600
H  6.79600 46.31100 37.23100
H  7.17300 47.38000 35.86900
H  5.46700 46.89500 36.26300
Mg -12.14800 37.71600 42.35600
C  -10.05500 35.01400 41.50000
C  -9.93200 39.79900 40.63300
C  -14.58700 39.91800 42.31300
C  -14.49800 35.18100 43.45300
N  -10.29800 37.40400 40.94600
C  -9.61200 36.19800 40.89000
C  -8.33100 36.40400 40.08100
C  -8.13900 37.95900 40.07100
C  -9.51500 38.44300 40.59500
C  -7.05400 38.39300 41.01000
C  -8.40400 35.72900 38.69400
C  -7.16700 34.89000 38.40400
H  -6.11800 35.41300 37.50900
N  -12.18300 39.64000 41.71000
C  -11.11600 40.38300 41.11800
C  -11.61900 41.78800 41.07800
C  -12.94400 41.82000 41.56700
C  -13.34100 40.45300 41.84500
C  -10.73300 42.85200 40.60200
C  -13.84600 43.05000 41.65200
O  -13.43800 44.12800 41.19800
C  -15.18600 43.12900 42.29000
N  -14.32100 37.56900 42.40400
C  -15.01000 38.68500 42.61500
C  -16.43900 38.39800 43.11900
C  -16.39900 36.90100 43.45200
C  -15.02400 36.46600 43.06300
C  -16.94100 39.38000 44.25500
C  -17.50000 35.96700 42.78500
C  -18.26000 34.98300 43.78900
N  -12.25200 35.57400 42.61600
C  -13.16200 34.72700 43.17200
C  -12.60400 33.42700 43.35100
C  -11.36200 33.42100 42.69400
C  -11.24400 34.79200 42.18700
C  -13.27600 32.33300 44.13000
C  -10.25000 32.64500 42.21400
O  -9.96300 31.44300 42.31400
C  -9.33900 33.64500 41.44600
C  -7.95300 33.60700 41.93500
O  -7.15200 32.72200 41.60000
O  -7.65300 34.60800 42.76800
C  -6.28600 34.60800 43.40300
H  -9.17200 40.49600 40.27400
H  -15.33800 40.68600 42.50400
H  -15.15300 34.55900 44.06700
H  -7.56400 35.91500 40.68200
H  -7.97600 38.31700 39.05400
H  -7.48800 38.93000 41.85400
H  -6.34500 38.99800 40.44500
H  -6.51900 37.62200 41.56400
H  -8.49400 36.47200 37.90200
H  -9.24900 35.07900 38.46600
H  -7.55800 33.96400 37.98300
H  -6.70600 34.50700 39.31500
H  -9.66600 42.63100 40.62900
H  -10.81100 43.69700 41.28600
H  -10.98600 43.17900 39.59300
H  -16.04800 42.91400 41.65700
H  -15.28700 44.15100 42.65500
H  -15.31000 42.46500 43.14600
H  -17.14400 38.54700 42.30100
H  -16.51200 36.93900 44.53600
H  -16.46800 40.35200 44.11300
H  -16.70200 38.96200 45.23200
H  -17.98500 39.66900 44.13200
H  -16.98600 35.31200 42.08200
H  -18.21400 36.55300 42.20700
H  -18.37100 34.01000 43.31000
H  -19.16400 35.54100 44.03200
H  -17.62400 34.96800 44.67400
H  -12.68800 31.45100 44.38400
H  -14.13000 31.98400 43.54800
H  -13.62900 32.76900 45.06500
H  -9.37000 33.26700 40.42400
H  -5.62200 35.31400 42.90400
H  -5.76100 33.65300 43.39000
H  -6.50200 35.02400 44.38700

