158

Mg 55.52700 23.42800 44.34500
C  53.10400 25.51100 43.24000
C  53.60400 20.74600 43.36100
C  58.20500 21.38700 44.65300
C  57.58300 26.15800 45.07500
N  53.57300 23.15400 43.35400
C  52.71300 24.19600 43.07400
C  51.39300 23.63100 42.47200
C  51.48500 22.17500 42.93500
C  52.92900 21.95600 43.21700
C  50.62700 21.83100 44.23400
C  51.20600 23.81800 40.94700
C  49.81700 24.52200 40.60000
H  49.17100 24.34000 39.26800
N  55.90800 21.39100 44.06200
C  54.95100 20.47000 43.73700
C  55.44800 19.18400 43.83200
C  56.84400 19.25700 44.14900
C  57.08000 20.70200 44.29800
C  54.61300 17.93200 43.54700
C  57.79500 18.13000 44.41100
O  57.43400 16.97200 44.36600
C  59.22800 18.37200 44.89400
N  57.66900 23.72500 44.71300
C  58.52200 22.71500 44.91900
C  59.78300 23.15700 45.59400
C  59.68400 24.76600 45.42300
C  58.25200 24.95300 45.06300
C  60.08400 22.71500 46.94500
C  60.56800 25.41600 44.38700
C  61.99100 25.73700 44.79800
N  55.44000 25.44600 44.29700
C  56.31300 26.44600 44.65400
C  55.57100 27.68700 44.71700
C  54.34300 27.34700 44.16300
C  54.35300 26.00700 43.84000
C  56.10900 29.00200 45.17100
C  53.07900 27.95800 43.82000
O  52.73300 29.10300 43.89300
C  52.28000 26.80800 43.11300
C  52.17600 27.27600 41.70900
O  53.10100 27.11800 40.94300
O  50.98500 27.90200 41.36300
C  50.95500 28.37300 39.95300
H  52.90600 19.90900 43.29600
H  59.12600 20.84400 44.87500
H  58.17500 26.99700 45.44700
H  50.56700 24.19400 42.90600
H  51.16800 21.60900 42.05900
H  51.13400 21.22400 44.98500
H  49.71900 21.25700 44.05100
H  50.41900 22.79600 44.69700
H  51.15900 22.88600 40.38300
H  52.13500 24.32800 40.69400
H  49.85100 25.61200 40.62300
H  49.01700 24.18600 41.25900
H  55.05800 16.95700 43.35100
H  54.01200 18.10300 42.65500
H  53.82400 17.74600 44.27600
H  59.83500 18.88100 44.14600
H  59.75300 17.43100 45.06200
H  59.31200 18.79000 45.89700
H  60.61700 22.79400 44.99300
H  59.77200 25.18900 46.42400
H  60.95800 23.30100 47.22800
H  60.14200 21.63100 47.04700
H  59.23100 23.11000 47.49600
H  60.15500 26.35900 44.02900
H  60.64800 24.79700 43.49400
H  62.32700 26.76600 44.67100
H  62.71800 25.02400 44.41100
H  62.06400 25.64900 45.88200
H  57.02200 29.33500 44.67700
H  56.36600 28.83400 46.21700
H  55.40500 29.79700 44.92300
H  51.26700 26.67300 43.49300
H  50.08100 29.02400 39.93800
H  50.78700 27.57900 39.22400
H  51.81500 28.94600 39.60600
Mg 34.56300 48.70200 26.39000
C  35.01900 46.51700 29.11100
C  33.16000 50.97800 28.51100
C  33.75700 50.52800 23.74900
C  35.62200 45.99800 24.25200
N  34.04100 48.67000 28.57900
C  34.45100 47.73100 29.48800
C  34.00200 48.17700 30.88800
C  33.33400 49.58200 30.64600
C  33.49000 49.76300 29.14500
C  31.87500 49.72100 31.25500
C  35.22900 48.29300 31.85000
C  35.20800 47.66500 33.27600
H  35.29000 48.58100 34.44500
N  33.87500 50.59500 26.20100
C  33.31100 51.39300 27.16200
C  32.90300 52.65600 26.65100
C  33.15400 52.53300 25.21800
C  33.52600 51.20400 25.03100
C  32.24400 53.83000 27.49900
C  33.06800 53.54400 24.20100
O  33.21800 53.39100 22.97900
C  32.85400 54.91100 24.52200
N  34.54800 48.24800 24.23600
C  34.17000 49.25500 23.38000
C  34.52600 48.82900 21.89000
C  35.34300 47.47600 22.08900
C  35.13400 47.17800 23.61000
C  33.18300 48.74800 20.99300
C  36.86900 47.52200 21.62600
C  37.55800 46.29900 20.94900
N  35.15900 46.65700 26.60000
C  35.55500 45.69000 25.67500
C  35.86600 44.39700 26.30100
C  35.65700 44.69300 27.67800
C  35.28900 46.09300 27.81300
C  36.38600 43.16300 25.68800
C  35.74200 44.17800 29.05100
O  36.08600 43.07400 29.44900
C  35.20900 45.36600 29.99200
C  34.02900 44.81600 30.69700
O  33.07000 44.33800 30.13500
O  34.23700 44.96100 31.99500
C  33.15500 44.55700 32.90900
H  32.78800 51.63400 29.30200
H  33.46800 51.12800 22.88400
H  36.01600 45.20100 23.61700
H  33.33600 47.39300 31.24900
H  33.90200 50.39600 31.09600
H  31.13100 49.93700 30.48800
H  31.82600 50.52500 31.98900
H  31.71600 48.85800 31.90100
H  35.65400 49.29100 31.96400
H  36.03800 47.77200 31.33800
H  35.82800 46.76900 33.24500
H  34.23800 47.16700 33.28100
H  31.84100 53.44300 28.43500
H  31.45400 54.32900 26.93700
H  33.02400 54.55000 27.74300
H  33.66700 55.19200 25.19100
H  31.90900 55.09700 25.03200
H  32.80200 55.62200 23.69700
H  35.14600 49.61300 21.45500
H  34.87500 46.62100 21.60000
H  33.10600 47.82100 20.42500
H  33.35600 49.58800 20.32000
H  32.30900 49.05500 21.56800
H  37.39900 47.68000 22.56500
H  37.05000 48.50600 21.19300
H  36.84000 45.49600 20.78300
H  38.30800 45.78800 21.55300
H  37.99400 46.68400 20.02800
H  36.84300 43.36500 24.72000
H  35.60800 42.43000 25.47400
H  37.08400 42.63800 26.34000
H  35.98900 45.60600 30.71400
H  33.15700 43.46700 32.90800
H  32.26000 44.99800 32.47100
H  33.24700 44.93700 33.92600

