158

Mg 9.01800 4.81200 27.17100
C  10.43200 3.11600 29.90200
C  6.93800 6.45200 29.28000
C  7.50900 5.95400 24.45200
C  10.60200 2.33800 25.12400
N  8.70200 4.80300 29.31600
C  9.55200 4.19700 30.23800
C  9.20900 4.57600 31.65100
C  8.03500 5.67600 31.37900
C  7.81000 5.54200 29.89000
C  6.79900 5.35700 32.25500
C  10.42700 5.09400 32.52200
C  10.10300 5.83200 33.83600
H  10.82500 5.48100 35.14100
N  7.55800 6.19200 26.88700
C  6.76800 6.74800 27.90800
C  5.75600 7.52200 27.29100
C  6.01400 7.53700 25.82500
C  7.09100 6.53000 25.69000
C  4.58300 8.17600 28.09100
C  5.26300 8.26800 24.69300
O  5.49700 8.05500 23.50300
C  4.09000 9.21200 25.05000
N  9.09000 4.25700 25.05300
C  8.43600 5.04400 24.15600
C  8.88000 4.70300 22.71200
C  9.88000 3.50900 22.93400
C  9.79300 3.27400 24.46000
C  7.57700 4.38100 21.84600
C  11.45100 3.75200 22.43400
C  12.16300 2.76100 21.47000
N  10.18700 3.08400 27.45000
C  10.77300 2.26200 26.46400
C  11.68900 1.30900 27.14100
C  11.54000 1.60600 28.48300
C  10.63700 2.62000 28.62000
C  12.60400 0.30100 26.55600
C  11.82600 1.21300 29.87300
O  12.46200 0.28300 30.29700
C  11.24200 2.33300 30.79600
C  10.39800 1.73700 31.87500
O  9.31300 1.21400 31.59400
O  11.06000 1.72200 33.07600
C  10.36100 0.94500 34.08900
H  6.34100 6.95400 30.04400
H  7.09100 6.38600 23.54000
H  11.03800 1.59700 24.45000
H  8.79500 3.76900 32.25500
H  8.55100 6.60600 31.61800
H  5.90200 5.45100 31.64200
H  6.60400 6.12600 33.00200
H  6.80100 4.35700 32.68700
H  10.96200 5.77100 31.85600
H  11.00000 4.22300 32.84000
H  9.03400 5.63600 33.92800
H  10.40500 6.86500 33.66500
H  4.48600 7.78100 29.10300
H  3.66400 7.95500 27.54900
H  4.76500 9.24200 28.22200
H  3.22800 8.70700 25.48500
H  3.93200 9.83300 24.16900
H  4.44000 9.94500 25.77600
H  9.48700 5.47900 22.24700
H  9.53300 2.59900 22.44500
H  7.81800 3.64800 21.07500
H  7.27400 5.28600 21.32000
H  6.75500 4.12600 22.51500
H  12.08100 3.80900 23.32200
H  11.41900 4.70800 21.91100
H  11.47400 2.27800 20.77800
H  12.56000 1.93000 22.05200
H  12.92000 3.27500 20.87800
H  12.67200 0.25600 25.46900
H  12.20000 -0.67200 26.83600
H  13.61700 0.59500 26.82900
H  12.01800 2.93400 31.27100
H  10.01800 -0.04400 33.78700
H  9.67600 1.49600 34.73300
H  11.18000 0.61500 34.72800
Mg -12.28700 15.50200 42.14200
C  -9.04700 14.35900 41.49600
C  -11.50600 18.51800 40.44600
C  -15.61600 16.28500 41.93700
C  -13.19300 12.26800 43.11000
N  -10.60900 16.22700 40.96700
C  -9.33100 15.63100 40.97500
C  -8.26500 16.49600 40.27200
C  -9.00100 17.90500 40.32400
C  -10.49300 17.53600 40.58200
C  -8.37100 19.00300 41.29200
C  -7.77700 16.01400 38.86800
C  -6.24400 15.92500 38.73200
H  -5.58100 16.58700 37.55300
N  -13.42500 17.23600 41.36300
C  -12.92800 18.36200 40.71900
C  -13.97600 19.29900 40.44400
C  -15.23500 18.69600 40.92300
C  -14.78600 17.39100 41.48900
C  -13.72900 20.64600 39.82700
C  -16.58000 19.33600 40.86900
O  -16.75300 20.34900 40.15800
C  -17.71100 18.89500 41.66400
N  -14.11900 14.48500 42.63000
C  -15.31600 15.03100 42.39800
C  -16.46500 14.06000 42.68000
C  -15.71500 12.70100 43.14000
C  -14.22100 13.13400 42.94500
C  -17.61200 14.48500 43.67900
C  -16.12500 11.42900 42.42100
C  -16.72800 10.31900 43.26400
N  -11.42300 13.69100 42.27800
C  -11.85700 12.51100 42.86200
C  -10.75100 11.56800 43.01600
C  -9.63900 12.28300 42.42400
C  -10.07000 13.52600 42.01100
C  -10.76600 10.10400 43.55300
C  -8.20000 12.20900 42.12200
O  -7.42700 11.38600 42.50800
C  -7.77100 13.58900 41.47400
C  -6.62400 14.15300 42.22500
O  -6.70700 14.54800 43.36700
O  -5.43700 14.13800 41.51900
C  -4.25500 14.41200 42.36000
H  -11.13300 19.48300 40.09600
H  -16.66300 16.56900 41.81100
H  -13.34700 11.30400 43.60000
H  -7.42500 16.55500 40.96400
H  -8.85500 18.40200 39.36500
H  -8.30300 19.94700 40.75200
H  -7.35300 18.70700 41.54300
H  -8.97000 19.08400 42.19900
H  -8.23100 16.76800 38.22400
H  -8.22300 15.04100 38.65800
H  -6.13200 14.84000 38.72600
H  -5.82300 16.37300 39.63200
H  -12.72100 21.06100 39.85300
H  -14.34700 21.37300 40.35400
H  -14.07800 20.66100 38.79400
H  -18.30400 18.31500 40.95700
H  -18.30000 19.77700 41.91500
H  -17.45200 18.29900 42.54000
H  -17.03300 14.00000 41.75100
H  -15.74900 12.59700 44.22400
H  -17.62900 13.82100 44.54200
H  -18.51900 14.32600 43.09500
H  -17.55600 15.53300 43.97600
H  -15.23200 11.09700 41.89200
H  -16.80200 11.71800 41.61700
H  -16.29500 9.39500 42.88200
H  -17.81400 10.22800 43.24900
H  -16.41400 10.37400 44.30700
H  -9.80300 9.59400 43.58600
H  -11.36200 9.45900 42.90700
H  -11.21500 9.95500 44.53500
H  -7.42300 13.53200 40.44300
H  -4.14500 15.43200 42.72800
H  -3.43900 14.12600 41.69600
H  -4.21200 13.70700 43.19000

