158

Mg 47.15100 24.99200 28.98600
C  48.26500 27.38400 31.45100
C  46.20500 23.00200 31.63200
C  46.89700 22.49400 26.69600
C  48.67700 26.98600 26.61800
N  47.15700 25.25400 31.32500
C  47.49100 26.34500 32.05200
C  47.00400 26.14900 33.49300
C  46.54500 24.65900 33.52700
C  46.60500 24.26600 32.08700
C  47.33800 23.73900 34.47600
C  45.81400 27.21800 33.91000
C  45.86000 27.78000 35.37600
H  46.65000 26.95500 36.39800
N  46.51400 23.12200 29.13400
C  46.19700 22.48300 30.29700
C  45.75400 21.20400 29.92200
C  45.90000 20.96400 28.52500
C  46.44200 22.24900 28.02900
C  45.26400 20.20100 30.98400
C  45.55500 19.82200 27.66900
O  45.71900 19.82600 26.45200
C  44.83700 18.67000 28.24700
N  47.82100 24.78800 27.08100
C  47.44600 23.72300 26.28900
C  47.91100 23.85800 24.84900
C  48.21700 25.33700 24.79500
C  48.22200 25.75600 26.22100
C  49.06400 22.89300 24.60700
C  47.24500 26.19700 23.92800
C  47.89600 27.00400 22.75200
N  48.26200 26.85600 28.90300
C  48.75500 27.57100 27.88300
C  49.57300 28.61400 28.37400
C  49.37300 28.58700 29.74400
C  48.58800 27.49400 30.04500
C  50.35000 29.60600 27.46700
C  49.72500 29.29900 30.96000
O  50.43300 30.25900 31.13200
C  49.00200 28.54500 32.05700
C  50.04000 28.04700 32.92900
O  50.75700 27.05200 32.76600
O  49.97100 28.81700 34.04300
C  50.90200 28.34100 35.09100
H  45.81200 22.24900 32.31900
H  46.75300 21.78200 25.88100
H  49.09800 27.48800 25.74400
H  47.80100 26.26500 34.22800
H  45.48500 24.60000 33.77600
H  47.82400 24.34500 35.24000
H  48.23600 23.24500 34.10300
H  46.68000 22.98600 34.91100
H  44.86800 26.75500 33.62800
H  46.04000 28.11200 33.32800
H  44.81700 27.99300 35.60900
H  46.39300 28.72100 35.24300
H  45.84800 19.32000 30.71700
H  44.18700 20.04000 30.95600
H  45.54000 20.36300 32.02600
H  45.49100 18.08100 28.88900
H  44.50300 18.06900 27.40100
H  43.94600 18.99400 28.78500
H  47.12600 23.52400 24.17000
H  49.20100 25.61000 24.41500
H  48.81400 22.40600 23.66400
H  49.22400 22.20900 25.44000
H  49.98500 23.47200 24.53700
H  46.87400 26.92200 24.65300
H  46.38800 25.67000 23.50800
H  47.44800 26.91700 21.76200
H  48.93100 26.66500 22.70400
H  47.80100 28.06500 22.98300
H  51.25400 29.04000 27.24200
H  50.62600 30.46100 28.08500
H  49.72700 30.00400 26.66700
H  48.35500 29.33300 32.44200
H  51.96800 28.35900 34.86600
H  50.59200 27.31200 35.27300
H  50.69600 28.87400 36.02000
Mg 30.23500 58.75100 39.15400
C  27.29000 56.96800 38.36500
C  32.03000 56.08300 38.13000
C  33.02200 60.69600 39.26800
C  28.19900 61.62300 39.52700
N  29.69100 56.80500 38.18200
C  28.44100 56.23500 38.17800
C  28.57900 54.71500 37.99500
C  30.11000 54.45600 38.26100
C  30.67900 55.86700 38.08000
C  30.50500 53.74800 39.64100
C  28.04400 54.27300 36.58900
C  28.73900 55.03300 35.40700
H  27.76200 55.39000 34.21600
N  32.31600 58.38800 38.77900
C  32.82700 57.19100 38.32000
C  34.31100 57.38500 38.27800
C  34.63800 58.67200 38.65700
C  33.30500 59.35500 38.90000
C  35.11400 56.20200 37.78200
C  36.00400 59.26900 38.74700
O  36.97000 58.60700 38.44400
C  36.25900 60.59800 39.33400
N  30.59200 60.84800 39.28300
C  31.83800 61.33400 39.44300
C  31.74400 62.78100 39.80300
C  30.20900 63.10800 39.87200
C  29.61700 61.76900 39.50300
C  32.39400 63.30600 41.16900
C  29.68900 64.31800 39.01500
C  29.13400 65.54400 39.77800
N  28.11800 59.23100 39.18500
C  27.47900 60.43300 39.28200
C  26.07300 60.23600 39.29900
C  25.93400 58.84700 38.89000
C  27.21200 58.29700 38.79200
C  25.05900 61.41300 39.47500
C  24.91700 57.85300 38.60700
O  23.70700 57.90200 38.60200
C  25.80900 56.53800 38.30500
C  25.37600 55.45200 39.21100
O  25.71600 55.44400 40.41500
O  24.56800 54.53600 38.59600
C  24.22200 53.40200 39.41100
H  32.67900 55.20900 38.03900
H  33.91300 61.30700 39.42200
H  27.65000 62.53600 39.76900
H  27.99100 54.23500 38.77800
H  30.46500 53.80200 37.46500
H  29.59600 53.24900 39.97800
H  30.82200 54.49100 40.37300
H  31.18900 52.95500 39.33800
H  26.97200 54.46100 36.51400
H  28.35500 53.23400 36.48400
H  29.63500 54.45700 35.17800
H  29.27200 55.92900 35.72600
H  34.55400 55.61200 37.05700
H  35.36800 55.60200 38.65600
H  36.09200 56.51200 37.41400
H  35.73100 60.64600 40.28600
H  35.90100 61.37600 38.65900
H  37.34000 60.72300 39.39700
H  32.27800 63.35000 39.04200
H  29.93100 63.43700 40.87300
H  32.48500 64.38700 41.06200
H  33.41200 62.92700 41.08400
H  31.87100 63.06700 42.09400
H  28.80100 64.08100 38.42900
H  30.44500 64.64300 38.30000
H  29.70200 66.45000 39.56300
H  29.24600 65.37400 40.84900
H  28.12600 65.67100 39.38400
H  25.26000 62.20200 38.74900
H  25.14000 61.85400 40.46800
H  24.07700 60.94600 39.54900
H  25.49500 56.20500 37.31600
H  25.15600 52.84700 39.49700
H  23.44100 52.81100 38.93400
H  23.73900 53.76200 40.32000

