158

Mg 0.12600 8.03500 26.90500
C  0.48000 10.18100 29.69000
C  0.57300 5.30200 29.26400
C  -0.25700 5.97900 24.45500
C  0.07200 10.82100 24.81500
N  0.36800 7.77700 29.24400
C  0.33600 8.82700 30.10000
C  0.30600 8.30200 31.54500
C  0.80900 6.83600 31.38000
C  0.56400 6.59500 29.88300
C  2.27500 6.58800 31.81300
C  -1.12900 8.58400 32.14700
C  -1.45800 7.77400 33.41700
H  -0.35900 7.56300 34.40600
N  0.11600 6.03600 26.85900
C  0.23100 5.06800 27.95800
C  0.14500 3.71400 27.33100
C  -0.21300 3.88900 25.96900
C  -0.06700 5.36800 25.64100
C  0.45800 2.40600 28.08100
C  -0.46400 2.82300 24.89200
O  -0.81800 3.10500 23.79200
C  -0.51100 1.35100 25.19000
N  0.15600 8.33900 24.92500
C  -0.10100 7.31400 24.06200
C  -0.42400 7.79800 22.60100
C  -0.46200 9.37100 22.75900
C  -0.05100 9.52000 24.25000
C  0.45200 7.16100 21.53800
C  -1.96200 9.95500 22.59700
C  -2.05500 11.41900 22.07600
N  0.39200 10.00900 27.04600
C  0.30400 11.10000 26.15500
C  0.62100 12.32100 26.82800
C  0.73400 11.95100 28.15700
C  0.46400 10.60200 28.28000
C  0.76600 13.71600 26.24600
C  0.99400 12.50800 29.43100
O  1.20100 13.68600 29.72700
C  0.75400 11.43500 30.46000
C  1.93000 11.40500 31.36600
O  2.97100 10.80700 31.20000
O  1.52200 12.04600 32.50200
C  2.37900 11.92300 33.67600
H  0.91300 4.51900 29.94600
H  -0.41300 5.32700 23.59300
H  0.06500 11.70300 24.17100
H  0.98900 8.98800 32.04600
H  0.11300 6.15200 31.86600
H  2.80600 7.48900 32.12000
H  2.88200 6.03000 31.10000
H  2.29900 5.96100 32.70400
H  -1.87200 8.12700 31.49400
H  -1.34900 9.64500 32.27200
H  -1.85300 6.80600 33.10700
H  -2.28000 8.18700 34.00200
H  -0.47500 1.90500 28.33700
H  0.99500 2.55700 29.01800
H  1.09100 1.85200 27.38800
H  0.42000 0.96000 25.60000
H  -0.72200 0.79300 24.27800
H  -1.29200 1.12600 25.91700
H  -1.36700 7.27600 22.43500
H  0.13600 10.03300 22.13300
H  1.31100 6.72500 22.04800
H  0.78300 7.90300 20.81000
H  -0.11700 6.39000 21.01800
H  -2.39500 9.87000 23.59300
H  -2.71900 9.37400 22.07000
H  -2.59600 11.33100 21.13400
H  -1.08800 11.89600 21.91900
H  -2.59600 12.06200 22.77000
H  0.64500 13.63500 25.16600
H  1.71800 14.17400 26.51300
H  -0.05500 14.32300 26.62900
H  -0.21900 11.55800 30.93500
H  3.43600 11.73700 33.48500
H  1.94900 11.30500 34.46300
H  2.35700 12.92800 34.09800
Mg 29.30900 57.40500 41.68800
C  26.82800 55.08500 40.61400
C  31.52900 55.61100 40.03100
C  31.47900 59.85800 42.31100
C  26.75200 59.33900 43.16700
N  29.12000 55.58700 40.28200
C  28.08700 54.74400 40.15700
C  28.40200 53.64700 39.17700
C  29.93800 53.64400 39.22400
C  30.24100 55.05700 39.75400
C  30.59300 52.46900 39.97200
C  27.78100 54.12300 37.74100
C  27.31600 52.96100 36.90900
H  27.94100 52.84800 35.49900
N  31.35000 57.73500 41.19200
C  32.09000 56.80100 40.57200
C  33.44100 57.18200 40.65100
C  33.54000 58.43800 41.38000
C  32.08800 58.72500 41.68800
C  34.65400 56.44100 40.00200
C  34.68300 59.20300 41.59300
O  35.81400 58.75300 41.41300
C  34.60100 60.51000 42.40800
N  29.13000 59.34400 42.55900
C  30.21300 60.21600 42.64800
C  29.76700 61.58600 43.12200
C  28.34800 61.27600 43.77200
C  28.03700 59.90600 43.07100
C  30.83500 62.38000 43.99400
C  27.22600 62.41000 43.66600
C  27.40000 63.62400 42.66500
N  27.21600 57.25300 41.94500
C  26.33200 58.09200 42.59300
C  25.00900 57.48600 42.58800
C  25.10100 56.30100 41.79100
C  26.52400 56.25800 41.42600
C  23.78800 58.02500 43.22100
C  24.39800 55.17000 41.23600
O  23.28900 54.74700 41.40000
C  25.50000 54.38700 40.36500
C  25.60100 52.99400 40.90000
O  26.27400 52.54400 41.84600
O  24.70600 52.17700 40.19500
C  25.02200 50.79700 40.04700
H  32.28500 54.93400 39.62700
H  32.16900 60.69800 42.42300
H  26.08000 59.94000 43.78400
H  27.97500 52.70100 39.51000
H  30.27500 53.61400 38.18800
H  29.87100 51.74800 40.35600
H  31.15700 52.86900 40.81500
H  31.18900 51.82600 39.32500
H  28.63100 54.45300 37.14300
H  27.07800 54.94400 37.88000
H  26.24300 52.85200 36.75200
H  27.56600 52.03900 37.43400
H  35.36900 57.05400 39.45300
H  34.35900 55.79900 39.17200
H  35.07800 55.72800 40.70900
H  34.12100 61.24800 41.76600
H  35.61400 60.87800 42.57000
H  34.08000 60.39400 43.35800
H  29.57000 62.14100 42.20500
H  28.56700 61.05000 44.81600
H  30.76600 63.37800 43.56300
H  31.89600 62.13600 44.04500
H  30.49900 62.51000 45.02300
H  26.91300 62.83300 44.62100
H  26.33500 61.87900 43.33200
H  28.44900 63.85300 42.47300
H  26.93800 64.47100 43.17200
H  26.88700 63.37600 41.73600
H  23.67500 57.28000 44.00800
H  22.96000 58.04500 42.51300
H  23.98900 59.03400 43.58200
H  25.16600 54.40900 39.32700
H  26.07900 50.57700 39.90100
H  24.36400 50.27300 39.35300
H  24.77600 50.33900 41.00400

