158

Mg 23.98500 -6.85600 46.10500
C  26.35000 -4.83200 44.61800
C  21.67300 -5.53900 43.96400
C  22.14000 -9.73600 46.47600
C  26.68200 -8.54900 47.66800
N  24.08100 -5.47700 44.31700
C  25.12200 -4.71900 43.94700
C  24.81100 -3.67300 42.87200
C  23.23700 -3.67200 42.94700
C  22.94300 -5.03600 43.76200
C  22.61800 -2.41500 43.62900
C  25.36700 -4.09700 41.46000
C  25.83700 -2.92700 40.47500
H  25.37200 -2.82800 38.98100
N  22.15400 -7.45200 45.44200
C  21.27500 -6.65400 44.63300
C  19.99900 -7.29500 44.60100
C  20.09600 -8.54100 45.28900
C  21.50100 -8.62800 45.76800
C  18.83800 -6.78600 43.84300
C  18.94800 -9.52700 45.41400
O  17.85000 -9.17100 45.01600
C  19.16800 -10.80800 46.09700
N  24.38600 -8.92400 47.03500
C  23.44100 -9.87400 47.04300
C  24.01400 -11.14000 47.72800
C  25.44000 -10.69700 48.32800
C  25.54500 -9.34300 47.59300
C  23.01800 -11.91300 48.68100
C  26.54200 -11.73900 47.97800
C  26.86000 -12.86300 48.94400
N  26.07000 -6.62200 46.29600
C  26.97800 -7.35600 46.96600
C  28.31900 -6.71000 46.87200
C  28.07200 -5.62400 46.02900
C  26.71300 -5.72600 45.62300
C  29.60000 -7.11400 47.41900
C  28.64300 -4.47900 45.39600
O  29.74900 -3.97900 45.59800
C  27.60200 -3.96100 44.33600
C  27.53900 -2.47600 44.31000
O  27.94800 -1.77400 43.38300
O  27.01700 -2.04100 45.43800
C  26.99300 -0.60200 45.75800
H  20.85900 -4.99700 43.47900
H  21.60700 -10.66900 46.66900
H  27.58700 -8.94200 48.13600
H  25.18600 -2.70400 43.20000
H  22.75500 -3.74700 41.97200
H  21.97600 -1.81100 42.98800
H  23.42300 -1.78500 44.00800
H  21.92500 -2.58200 44.45300
H  24.62600 -4.63300 40.86700
H  26.13000 -4.86800 41.56500
H  26.92200 -3.03400 40.49700
H  25.55200 -2.00700 40.98600
H  18.05100 -6.65400 44.58700
H  18.55300 -7.40100 42.99000
H  19.00700 -5.75500 43.53100
H  19.45000 -10.69200 47.14300
H  19.71100 -11.50600 45.46000
H  18.15000 -11.19300 46.14100
H  24.21000 -11.76300 46.85600
H  25.23400 -10.46800 49.37400
H  22.03500 -11.44400 48.63700
H  23.38900 -11.97800 49.70400
H  22.91400 -12.92400 48.29000
H  27.49500 -11.21800 47.89300
H  26.35100 -12.19400 47.00600
H  27.04700 -13.75700 48.35000
H  25.95600 -12.87900 49.55300
H  27.66100 -12.60000 49.63600
H  29.92800 -8.13400 47.21700
H  29.59100 -7.04500 48.50700
H  30.31200 -6.33600 47.14600
H  27.99300 -4.17700 43.34200
H  27.55300 0.07200 45.11000
H  27.17300 -0.51800 46.83000
H  25.96800 -0.29200 45.55400
Mg -10.57900 40.21100 42.18200
C  -9.02400 37.33300 40.99200
C  -8.13000 41.97800 40.42800
C  -12.29000 43.02200 42.64900
C  -13.31600 38.30700 43.12200
N  -8.74600 39.61900 40.84200
C  -8.33400 38.42800 40.51500
C  -7.05000 38.44200 39.66300
C  -6.70300 40.06000 39.57500
C  -7.98500 40.56300 40.29900
C  -5.40600 40.47600 40.23600
C  -7.30500 37.90600 38.19400
C  -6.61600 36.52900 37.84200
H  -5.62900 36.49200 36.75000
N  -10.13400 42.28600 41.83800
C  -9.09700 42.76300 41.05700
C  -9.03100 44.19400 41.36200
C  -10.34500 44.56600 41.81800
C  -10.99200 43.28100 42.11700
C  -7.92900 45.11900 40.95100
C  -10.90100 45.97700 42.12100
O  -10.24200 46.94100 41.88200
C  -12.27500 46.22200 42.86100
N  -12.53500 40.59800 42.79800
C  -13.02200 41.84400 42.94600
C  -14.54400 41.95000 43.29600
C  -14.86200 40.39700 43.47700
C  -13.51600 39.65700 43.06400
C  -14.83300 42.83600 44.59000
C  -16.17100 39.98900 42.63100
C  -17.10800 39.00200 43.32500
N  -11.05600 38.18600 42.22900
C  -12.18300 37.55900 42.64400
C  -11.89800 36.15700 42.68400
C  -10.68400 36.01600 41.99900
C  -10.25300 37.34100 41.77000
C  -12.83100 35.04900 43.16100
C  -9.69100 35.03600 41.56700
O  -9.62700 33.83900 41.63100
C  -8.62200 35.87200 40.82700
C  -7.39300 35.61600 41.54600
O  -6.97400 36.17300 42.55100
O  -6.68500 34.61500 40.86300
C  -5.77300 33.77700 41.67200
H  -7.33000 42.59900 40.01900
H  -12.86000 43.88800 42.99200
H  -14.14400 37.67800 43.45600
H  -6.30900 37.87300 40.22300
H  -6.62900 40.48400 38.57400
H  -4.98400 39.74600 40.92700
H  -5.48200 41.40100 40.80700
H  -4.64400 40.77900 39.51700
H  -7.01600 38.61000 37.41400
H  -8.38800 37.81800 38.11500
H  -7.45300 35.86700 37.62100
H  -6.06500 36.17200 38.71200
H  -6.88000 44.83100 40.89000
H  -7.95400 45.96100 41.64200
H  -8.22700 45.53500 39.98800
H  -13.04900 46.12100 42.10000
H  -12.21600 47.25300 43.21000
H  -12.47800 45.65600 43.77100
H  -14.92900 42.48800 42.42900
H  -15.01500 40.08500 44.51100
H  -15.25100 42.29300 45.43800
H  -15.43400 43.72600 44.40700
H  -13.93900 43.26600 45.04100
H  -15.76600 39.61600 41.69000
H  -16.73100 40.91000 42.47300
H  -16.53700 38.57900 44.15100
H  -17.32400 38.28100 42.53600
H  -17.97100 39.54000 43.71900
H  -12.31700 34.62500 44.02400
H  -13.00300 34.35200 42.34100
H  -13.73600 35.54800 43.50900
H  -8.52800 35.71600 39.75200
H  -6.29700 33.47100 42.57800
H  -4.95300 34.42900 41.97500
H  -5.42000 32.92200 41.09500

