158

Mg 35.06700 48.33000 25.01400
C  35.69400 46.69200 27.97600
C  33.69800 51.01000 26.89400
C  34.08200 49.79000 22.12100
C  35.96800 45.53300 23.27300
N  34.58600 48.73200 27.20500
C  35.04600 47.92600 28.24300
C  34.79700 48.61300 29.71500
C  33.97600 49.90400 29.23600
C  33.99600 49.87800 27.65600
C  32.49400 50.15600 29.76800
C  36.11500 49.03200 30.38300
C  36.05800 48.85400 31.82700
H  34.75800 49.03000 32.58700
N  34.16600 50.19900 24.48800
C  33.71200 51.14200 25.42400
C  33.44600 52.33000 24.68400
C  33.42200 52.02200 23.29100
C  33.89500 50.60100 23.25300
C  33.25200 53.66400 25.25400
C  32.99600 52.85700 22.09800
O  33.16800 52.50400 20.97500
C  32.39000 54.27400 22.27300
N  35.10100 47.77700 22.93300
C  34.66200 48.55400 21.94400
C  34.77300 47.80900 20.55600
C  35.40500 46.43400 20.95800
C  35.57100 46.57500 22.47800
C  33.39600 47.70900 19.71500
C  36.81800 46.23500 20.31100
C  37.95600 47.23700 20.65300
N  35.59100 46.44200 25.47500
C  36.08300 45.43600 24.64900
C  36.53900 44.34800 25.46200
C  36.41100 44.80300 26.84200
C  35.91500 46.11700 26.74100
C  36.90300 43.02800 25.03000
C  36.56500 44.42200 28.32400
O  37.04800 43.43700 28.83700
C  36.09700 45.68300 29.07100
C  35.01000 45.31700 29.94800
O  33.90000 44.96100 29.49900
O  35.39600 45.35700 31.27900
C  34.25000 45.12400 32.17500
H  33.31400 51.89900 27.39800
H  33.73800 50.24600 21.19100
H  36.46100 44.74900 22.69300
H  34.15800 48.05200 30.39700
H  34.54100 50.76800 29.58900
H  31.84100 50.07400 28.89900
H  32.38600 51.13100 30.24400
H  32.19400 49.44800 30.54100
H  36.27000 50.09800 30.21600
H  36.94600 48.48500 29.93700
H  36.76800 49.46500 32.38400
H  36.34800 47.81300 31.97000
H  32.21200 53.97500 25.16500
H  33.85500 54.38500 24.70300
H  33.61300 53.68300 26.28200
H  31.87100 54.55000 21.35600
H  33.24500 54.91100 22.50200
H  31.59600 54.27900 23.02000
H  35.51300 48.40700 20.02400
H  34.84100 45.56900 20.60800
H  33.67500 47.67300 18.66200
H  32.75900 48.57400 19.90000
H  32.83200 46.85300 20.08500
H  36.67200 46.28200 19.23200
H  37.20800 45.25600 20.59100
H  38.00300 48.10900 19.99900
H  38.92300 46.74400 20.75100
H  37.79600 47.62200 21.66000
H  37.95100 43.11700 24.74200
H  36.33300 42.57500 24.21900
H  36.84000 42.37100 25.89700
H  36.92600 45.97500 29.71600
H  33.49900 45.91000 32.08500
H  34.63700 45.21500 33.19000
H  33.86300 44.11400 32.04400
Mg 0.26800 43.57300 25.26400
C  2.37100 43.15400 28.20700
C  -2.44400 42.79900 27.29500
C  -1.52200 43.56100 22.51900
C  3.22300 43.96600 23.41700
N  0.04200 42.84100 27.55600
C  0.99400 42.96300 28.50000
C  0.37600 42.79700 29.89100
C  -1.13800 42.51500 29.52200
C  -1.18200 42.70900 28.01700
C  -1.74200 41.09600 29.73100
C  0.58500 43.98300 30.82400
C  0.83900 43.72000 32.29400
H  0.60100 42.34700 32.99200
N  -1.70800 43.22500 24.95200
C  -2.70700 43.00000 25.90400
C  -4.01700 43.06000 25.20000
C  -3.73100 43.27100 23.78200
C  -2.25800 43.36500 23.68900
C  -5.33500 43.01900 25.90100
C  -4.67400 43.32700 22.67700
O  -4.27500 43.27400 21.55700
C  -6.17600 43.27800 22.91100
N  0.75200 43.74700 23.29500
C  -0.15900 43.78700 22.31600
C  0.48700 43.88500 20.96800
C  1.89500 44.32700 21.28200
C  1.97500 43.93400 22.77800
C  0.36100 42.51000 20.14400
C  2.11300 45.79300 21.05100
C  3.36600 46.29000 20.21200
N  2.38600 43.46100 25.64300
C  3.40800 43.76800 24.81200
C  4.66200 43.92200 25.57800
C  4.27800 43.64100 26.88200
C  2.90100 43.38900 26.89400
C  5.97800 44.19100 24.99100
C  4.84300 43.54300 28.17200
O  5.95200 43.81800 28.65500
C  3.56100 43.31100 29.14400
C  3.81200 42.04900 29.94200
O  3.59600 40.91200 29.61300
O  4.35600 42.34700 31.12500
C  4.65300 41.20700 31.97500
H  -3.29100 42.83200 27.98400
H  -2.05100 43.66000 21.56900
H  4.08300 44.36600 22.87600
H  0.77300 41.89500 30.35600
H  -1.81100 43.22300 30.00400
H  -2.77800 41.17500 30.06200
H  -1.20100 40.52200 30.48300
H  -1.85100 40.58300 28.77600
H  -0.25000 44.68200 30.85500
H  1.36200 44.63300 30.42100
H  0.41200 44.46000 32.97100
H  1.89600 43.81000 32.54300
H  -5.27100 42.82800 26.97200
H  -5.95400 42.21200 25.50800
H  -5.90800 43.94600 25.88500
H  -6.56000 42.28400 23.14100
H  -6.53900 43.64200 21.95100
H  -6.48900 44.06200 23.60100
H  -0.08100 44.55000 20.31600
H  2.64100 43.73600 20.75200
H  -0.18700 41.85700 20.82300
H  1.27700 42.02400 19.80900
H  -0.33800 42.49000 19.30700
H  2.12500 46.32200 22.00400
H  1.27000 46.22500 20.51300
H  2.96600 46.95100 19.44300
H  3.90800 45.46400 19.75200
H  4.09300 46.80800 20.83800
H  6.58000 44.67100 25.76200
H  5.94300 44.67300 24.01400
H  6.50400 43.26700 24.74900
H  3.61600 44.21600 29.74900
H  5.48200 40.59000 31.63000
H  3.82100 40.53600 32.18900
H  5.04100 41.69600 32.86800

