158

Mg 25.36100 -6.13700 47.33800
C  26.80800 -3.04400 46.27800
C  22.90300 -5.79300 45.07400
C  24.52700 -9.25000 48.21200
C  28.46100 -6.63800 49.17200
N  24.98200 -4.63100 45.86700
C  25.71000 -3.46600 45.56100
C  25.09200 -2.74700 44.43800
C  23.68900 -3.50300 44.17200
C  23.82800 -4.72000 45.14900
C  22.46000 -2.60300 44.48000
C  26.10300 -2.90200 43.25400
C  26.26200 -1.66800 42.39000
H  25.38300 -1.63100 41.15300
N  23.88800 -7.38400 46.73500
C  22.93500 -7.03900 45.84500
C  21.99400 -8.07100 45.69000
C  22.52500 -9.09700 46.51800
C  23.68400 -8.60200 47.25100
C  20.82800 -8.06300 44.68900
C  21.93800 -10.45600 46.60800
O  20.88300 -10.81400 46.05700
C  22.54100 -11.50600 47.39400
N  26.50200 -7.82100 48.37400
C  25.80500 -8.91600 48.68500
C  26.56600 -9.82200 49.69100
C  27.79800 -8.99300 50.05100
C  27.59500 -7.77000 49.12400
C  25.84600 -10.11400 51.02900
C  29.11400 -9.82100 49.71000
C  30.10000 -10.13700 50.80100
N  27.21700 -5.10500 47.71600
C  28.34500 -5.42000 48.50100
C  29.18700 -4.27200 48.56700
C  28.60400 -3.33400 47.68800
C  27.45900 -3.87500 47.20100
C  30.50400 -4.15300 49.43100
C  28.78000 -1.93700 47.19100
O  29.60600 -1.10000 47.42100
C  27.63800 -1.72000 46.26800
C  26.80600 -0.49900 46.60200
O  26.77400 0.54900 45.98800
O  26.16500 -0.76300 47.81800
C  25.31400 0.26500 48.29100
H  22.12000 -5.60900 44.33500
H  24.27000 -10.17200 48.73600
H  29.32600 -6.76100 49.82700
H  24.85200 -1.70300 44.64400
H  23.67300 -3.83300 43.13300
H  22.60600 -1.64100 44.97200
H  21.74100 -3.16400 45.07700
H  21.94200 -2.42600 43.53800
H  25.90700 -3.63800 42.47500
H  27.07300 -3.21500 43.63900
H  27.33500 -1.69100 42.19700
H  26.23100 -0.66600 42.81800
H  20.75500 -7.03900 44.32200
H  19.84900 -8.34900 45.07600
H  21.09100 -8.79400 43.92500
H  23.53900 -11.63000 46.97400
H  22.06900 -12.44400 47.09900
H  22.60300 -11.22000 48.44400
H  26.77300 -10.71000 49.09400
H  27.95100 -8.64600 51.07300
H  25.31800 -11.06500 50.94900
H  25.22800 -9.32300 51.45500
H  26.60000 -10.36200 51.77600
H  29.68800 -9.12700 49.09600
H  28.93600 -10.74600 49.16200
H  30.13400 -11.22400 50.73900
H  29.78500 -9.89400 51.81600
H  31.07000 -9.71400 50.54100
H  31.38100 -4.27500 48.79400
H  30.68100 -4.91400 50.19100
H  30.43400 -3.16300 49.88100
H  28.06200 -1.63200 45.26800
H  24.40600 0.20700 47.69100
H  25.77100 1.25000 48.38700
H  25.12000 -0.02900 49.32200
Mg 26.11400 0.45300 29.31900
C  27.67500 0.11900 32.46500
C  23.26000 1.16500 30.92000
C  24.70900 0.85700 26.31600
C  29.13300 -0.26800 27.81900
N  25.48200 0.46600 31.42100
C  26.34400 0.46500 32.48600
C  25.61000 0.84000 33.75300
C  24.15700 1.10200 33.31200
C  24.27400 0.88500 31.78400
C  22.99100 0.27300 33.92800
C  26.17600 2.14200 34.49000
C  25.26800 2.70400 35.62800
H  25.79800 2.95800 36.99600
N  24.20000 0.88300 28.68400
C  23.11800 1.06100 29.50800
C  21.93700 1.25800 28.63400
C  22.37400 1.15000 27.33700
C  23.76200 0.90500 27.41400
C  20.57700 1.44200 29.23800
C  21.66100 1.26400 25.99200
O  22.18400 0.94700 24.95700
C  20.18200 1.64700 25.96900
N  26.90800 0.54200 27.33900
C  26.03100 0.63700 26.24100
C  26.77000 0.65400 24.92700
C  28.28700 0.39900 25.36900
C  28.13900 0.22800 26.95500
C  26.24900 -0.47100 23.86200
C  29.26900 1.54400 25.09500
C  29.39900 1.89400 23.65300
N  28.03400 -0.15300 29.98700
C  29.13900 -0.34800 29.24100
C  30.18500 -0.61900 30.14700
C  29.71700 -0.41500 31.42100
C  28.38800 -0.20500 31.32000
C  31.51700 -0.92100 29.69200
C  30.10700 -0.34100 32.78600
O  31.21100 -0.46300 33.26400
C  28.72500 0.10200 33.51000
C  28.45300 -0.84000 34.72200
O  27.90200 -1.91800 34.73300
O  28.94500 -0.28000 35.87700
C  28.85600 -1.01000 37.11400
H  22.45600 1.51800 31.56900
H  24.37400 0.97600 25.28400
H  30.08500 -0.38200 27.29600
H  25.68400 -0.00700 34.43400
H  24.00200 2.17700 33.39400
H  22.73900 -0.46100 33.16300
H  22.14100 0.91300 34.16800
H  23.31500 -0.20800 34.85100
H  26.41100 2.85900 33.70400
H  27.13600 1.84300 34.90900
H  24.40600 2.04200 35.70700
H  24.93500 3.66100 35.22500
H  20.46300 1.50300 30.32000
H  19.82200 0.68100 29.03900
H  20.23500 2.36500 28.76900
H  19.83800 1.68100 24.93500
H  20.07700 2.66600 26.34100
H  19.61400 0.90100 26.52400
H  26.66800 1.57500 24.35200
H  28.64800 -0.55400 24.98200
H  25.58500 -1.18700 24.34800
H  27.16100 -0.94900 23.50500
H  25.76600 -0.01000 23.00000
H  30.27100 1.19300 25.34300
H  29.03500 2.44900 25.65600
H  28.72100 1.36000 22.98700
H  30.40700 1.66000 23.30900
H  29.13300 2.92000 23.40100
H  32.14700 -0.45400 30.44900
H  31.72000 -0.46700 28.72200
H  31.71200 -1.97900 29.51900
H  29.00900 1.09400 33.86300
H  28.70000 -0.23200 37.86100
H  29.82000 -1.41000 37.43100
H  28.03700 -1.72900 37.07200

