158

Mg 46.26500 25.76500 28.26300
C  47.37800 27.90600 30.88000
C  44.89200 23.72700 30.59900
C  45.38500 23.88900 25.79400
C  47.62500 28.12400 26.03800
N  46.17600 25.82200 30.51800
C  46.70500 26.79300 31.34600
C  46.20400 26.53600 32.76200
C  45.76600 25.02500 32.78700
C  45.52900 24.84500 31.17900
C  47.05600 24.17400 33.17400
C  45.12200 27.59000 33.18300
C  45.54100 28.29000 34.49700
H  44.60400 28.44300 35.71900
N  45.41300 23.93900 28.19900
C  44.88500 23.26800 29.24200
C  44.25200 22.02900 28.79600
C  44.41900 21.99200 27.34400
C  45.05400 23.33500 27.03800
C  43.70300 20.92600 29.74200
C  43.97500 20.96000 26.33400
O  44.16400 21.14300 25.15600
C  43.22800 19.84800 26.73700
N  46.39800 26.08100 26.20200
C  45.97900 25.11800 25.39700
C  46.68400 25.28800 23.98900
C  47.15600 26.75700 23.94800
C  47.02000 27.03000 25.46200
C  47.75300 24.15800 23.63200
C  46.27400 27.77600 23.11400
C  47.13000 28.48500 22.02700
N  47.30900 27.53800 28.35200
C  47.79200 28.40200 27.37700
C  48.63600 29.45700 27.89300
C  48.39700 29.31900 29.24700
C  47.56300 28.15200 29.50900
C  49.32200 30.59900 27.15400
C  48.57100 30.05500 30.52900
O  49.13100 31.11500 30.78300
C  47.92400 29.13300 31.66100
C  49.04900 28.77700 32.55000
O  50.05100 28.23200 32.24400
O  48.65700 28.95500 33.86200
C  49.57900 28.48400 34.91900
H  44.54400 23.03100 31.36500
H  45.28300 23.15000 24.99600
H  48.00200 28.88400 25.35000
H  46.98800 26.58900 33.51800
H  44.86700 24.85100 33.38000
H  46.76700 23.40400 33.89000
H  47.91100 24.62800 33.67600
H  47.38800 23.66100 32.27200
H  44.10900 27.23200 33.37100
H  45.16300 28.38000 32.43300
H  45.63800 29.33100 34.19100
H  46.52900 27.96200 34.82100
H  42.80000 20.43200 29.38600
H  43.38800 21.23000 30.74100
H  44.45500 20.15500 29.91100
H  43.75400 19.22800 27.46300
H  42.84300 19.22700 25.92800
H  42.30600 20.27300 27.13400
H  45.85400 25.22400 23.28600
H  48.22600 26.83200 23.75400
H  47.80800 23.50100 24.50000
H  48.72000 24.55500 23.32400
H  47.34900 23.63900 22.76200
H  45.85800 28.51400 23.79900
H  45.50500 27.26000 22.53900
H  46.75200 29.50700 22.04100
H  46.87300 28.08800 21.04500
H  48.21500 28.43900 22.12200
H  48.99800 30.60000 26.11400
H  50.38400 30.36300 27.22400
H  49.28000 31.53800 27.70600
H  47.18700 29.86400 31.99500
H  50.29000 29.26800 35.18000
H  50.06700 27.52300 34.75100
H  48.95100 28.32900 35.79600
Mg 10.67900 47.86800 25.37800
C  8.78500 47.91100 28.37600
C  13.16400 49.61500 27.03900
C  12.46100 47.56700 22.75000
C  7.68900 46.59000 23.75400
N  10.93300 48.58400 27.54000
C  10.08500 48.46900 28.59200
C  10.67900 49.05300 29.85700
C  11.85000 49.98900 29.26100
C  12.01100 49.34300 27.86300
C  11.35700 51.45500 29.09400
C  11.38200 47.97400 30.76200
C  11.16500 48.26200 32.27600
H  10.96700 47.07500 33.26500
N  12.58800 48.47100 24.93600
C  13.46300 49.19200 25.76700
C  14.76800 49.34300 25.12800
C  14.58100 48.78900 23.82100
C  13.16100 48.22400 23.79300
C  16.00500 49.84200 25.81100
C  15.70400 48.65500 22.68100
O  15.35100 48.39500 21.49400
C  17.13300 48.98900 22.91100
N  10.00000 47.39800 23.49800
C  11.08400 47.21800 22.60900
C  10.65500 46.62900 21.27500
C  9.14400 46.24900 21.57000
C  8.88500 46.71200 23.04200
C  10.72300 47.59100 20.00000
C  8.93600 44.68000 21.33700
C  9.82600 43.69900 22.15500
N  8.61100 47.43300 25.89100
C  7.59200 46.93100 25.10900
C  6.44300 46.74100 25.97400
C  6.83800 47.14800 27.31500
C  8.16000 47.57500 27.12600
C  5.06000 46.29000 25.50400
C  6.47800 47.32100 28.72800
O  5.38700 47.03400 29.25000
C  7.75300 47.72300 29.49100
C  8.06600 46.59200 30.38700
O  8.80000 45.63300 30.12500
O  7.42600 46.75000 31.59700
C  7.62200 45.81900 32.69700
H  13.75500 50.36500 27.56900
H  13.14300 47.41700 21.91100
H  6.94500 46.12500 23.10500
H  9.96500 49.68100 30.38900
H  12.83200 49.85800 29.71500
H  11.96200 52.09400 29.73700
H  10.28500 51.51400 29.27900
H  11.43000 51.81700 28.06800
H  12.46900 47.96500 30.69400
H  11.01600 46.96200 30.59000
H  10.27000 48.87200 32.40100
H  12.11600 48.63500 32.65600
H  16.84700 49.15900 25.69500
H  15.84900 50.04400 26.87100
H  16.19900 50.80600 25.34100
H  17.15400 49.83000 23.60500
H  17.56800 49.15400 21.92500
H  17.58500 48.13900 23.42200
H  11.31500 45.79000 21.05300
H  8.45300 46.89100 21.02400
H  11.10900 48.56700 20.29400
H  9.75600 47.86300 19.57900
H  11.36200 47.05300 19.30000
H  9.18000 44.48600 20.29200
H  7.92000 44.35500 21.55900
H  10.09400 44.24100 23.06200
H  10.64800 43.23400 21.61000
H  9.11800 42.91800 22.43200
H  5.11200 45.82200 24.52000
H  4.48400 47.21600 25.52300
H  4.59800 45.61900 26.22700
H  7.73200 48.63400 30.08900
H  7.24800 44.84800 32.37200
H  7.17300 46.19100 33.61800
H  8.68800 45.68900 32.88200

