158

Mg 8.48100 2.36800 27.50800
C  10.16300 1.20100 30.19500
C  6.64700 4.44200 29.68400
C  6.84400 3.64700 24.90200
C  10.12600 0.00100 25.48600
N  8.35700 2.69000 29.74000
C  9.24300 2.22200 30.59800
C  8.96500 2.70700 31.97400
C  7.79500 3.78200 31.69000
C  7.50600 3.58100 30.23400
C  6.61700 3.67600 32.67200
C  10.18300 3.36400 32.76300
C  10.46900 2.77100 34.11900
H  10.58800 3.85600 35.24200
N  6.82300 3.83200 27.34300
C  6.40400 4.69500 28.32600
C  5.56500 5.75400 27.73300
C  5.49500 5.44800 26.34000
C  6.39600 4.22900 26.10600
C  4.74100 6.75300 28.54200
C  4.65500 6.16500 25.29400
O  4.56700 5.78500 24.11500
C  3.91700 7.41600 25.60600
N  8.24400 1.74100 25.57100
C  7.60000 2.49200 24.58400
C  7.84400 1.94500 23.18100
C  8.99900 0.94700 23.43200
C  9.15800 0.88700 24.94100
C  6.48300 1.35300 22.48400
C  10.35200 1.38200 22.69800
C  11.11700 0.13000 22.12300
N  9.94100 0.89500 27.75400
C  10.51700 0.03800 26.81000
C  11.47900 -0.78200 27.50500
C  11.35700 -0.41700 28.86100
C  10.36700 0.58000 28.95900
C  12.35200 -1.84300 26.93100
C  11.81600 -0.65900 30.26700
O  12.48200 -1.52500 30.75800
C  11.12100 0.46600 31.15400
C  10.32800 -0.28100 32.15900
O  9.30300 -0.88900 31.85000
O  10.86900 -0.25000 33.39600
C  10.05900 -0.77500 34.49000
H  6.15200 5.07600 30.42200
H  6.60500 4.28400 24.04700
H  10.68500 -0.64600 24.80700
H  8.64400 1.79200 32.47100
H  8.21600 4.78400 31.77900
H  5.78600 3.09500 32.27200
H  6.34200 4.62600 33.13100
H  7.03300 3.18100 33.54900
H  10.10200 4.44500 32.87600
H  11.07200 3.24100 32.14500
H  11.51400 2.46600 34.06900
H  9.70400 2.03000 34.34900
H  5.02400 6.89500 29.58500
H  3.67400 6.52600 28.53300
H  4.93000 7.72900 28.09600
H  3.18700 7.34500 26.41200
H  3.22100 7.62900 24.79600
H  4.57600 8.26300 25.79500
H  8.19600 2.74300 22.52800
H  8.87000 -0.07500 23.07500
H  5.71300 1.23700 23.24700
H  6.65700 0.42500 21.94000
H  6.17700 2.12400 21.77700
H  10.95700 1.82800 23.48600
H  10.16800 2.06300 21.86700
H  11.12500 0.24000 21.03800
H  10.55400 -0.72500 22.49800
H  12.14800 0.16000 22.47400
H  11.58000 -2.59100 26.74900
H  13.13400 -2.06400 27.65800
H  12.75100 -1.51800 25.97000
H  11.80900 1.10600 31.70600
H  10.19800 -1.83800 34.68700
H  9.00900 -0.52600 34.33600
H  10.28200 -0.31700 35.45300
Mg 37.05200 49.57300 24.96200
C  37.39800 47.66800 27.89600
C  35.61300 52.05700 26.85700
C  36.18400 51.02600 22.06000
C  38.16100 46.79600 23.16400
N  36.62400 49.89500 27.17100
C  36.86800 48.95800 28.17800
C  36.58000 49.59300 29.53600
C  36.00000 51.04000 29.18100
C  36.07300 51.02300 27.64100
C  34.52500 51.39900 29.65700
C  37.83600 49.59200 30.47900
C  37.69800 48.88000 31.86300
H  36.48700 49.24500 32.74400
N  36.15600 51.36500 24.51000
C  35.65900 52.24200 25.42700
C  35.02100 53.37100 24.72800
C  35.25300 53.14700 23.31200
C  35.86400 51.81800 23.22500
C  34.40300 54.46400 25.44100
C  34.81300 53.96800 22.14900
O  35.12200 53.66400 20.97100
C  34.03600 55.24000 22.38200
N  37.20000 49.04500 22.89600
C  36.94200 49.89300 21.88000
C  37.14000 49.14200 20.48600
C  38.02800 47.96000 20.89700
C  37.80400 47.92700 22.41000
C  35.90900 48.81400 19.67200
C  39.50100 48.04800 20.51000
C  40.02500 46.75200 19.81900
N  37.55300 47.59900 25.36600
C  38.04500 46.60800 24.59400
C  38.48300 45.46800 25.36100
C  38.16900 45.83000 26.69600
C  37.73400 47.17300 26.64100
C  39.04800 44.26200 24.77500
C  38.23000 45.36700 28.05100
O  38.44500 44.30000 28.58200
C  37.81200 46.60700 28.88200
C  36.73700 46.21900 29.78800
O  35.55400 46.47800 29.62800
O  37.11900 45.47500 30.87500
C  36.06700 45.19900 31.90200
H  35.09200 52.80200 27.46200
H  35.91400 51.46500 21.09800
H  38.66100 46.09900 22.48900
H  35.77300 49.08800 30.06600
H  36.61100 51.81500 29.64400
H  34.45700 52.41400 30.05000
H  34.33000 50.80900 30.55300
H  33.78900 51.21000 28.87600
H  38.08200 50.65200 30.53100
H  38.58200 49.02800 29.92000
H  38.63400 49.04300 32.39800
H  37.65300 47.80900 31.66000
H  34.12700 54.30500 26.48300
H  33.48400 54.80100 24.96100
H  35.13900 55.26600 25.39100
H  34.30800 55.86200 23.23500
H  32.97800 55.14000 22.62700
H  34.10600 55.79300 21.44600
H  37.69800 49.84700 19.87000
H  37.55000 47.05400 20.52400
H  35.04000 49.41900 19.93200
H  35.55200 47.78600 19.60900
H  36.20800 48.97400 18.63600
H  40.07900 48.27300 21.40600
H  39.60900 48.72800 19.66500
H  39.33300 45.91200 19.88200
H  40.87100 46.48600 20.45300
H  40.23700 46.92400 18.76400
H  38.19600 43.61000 24.58800
H  39.57400 43.85900 25.64100
H  39.59300 44.39700 23.84100
H  38.75600 46.81000 29.38600
H  35.13000 44.72500 31.61100
H  35.70600 46.17900 32.21200
H  36.44000 44.58000 32.71900

