158

Mg 46.77900 16.62600 28.10300
C  45.07800 16.07200 31.17700
C  49.14400 18.33300 30.02300
C  48.25400 17.55200 25.27300
C  44.15000 15.23300 26.36200
N  47.06900 17.16400 30.38100
C  46.34200 16.64600 31.39300
C  46.97800 17.00000 32.75800
C  48.11100 18.10200 32.34700
C  48.18200 17.85900 30.81900
C  47.85700 19.56900 32.88100
C  47.32700 15.80800 33.65100
C  47.38800 15.99900 35.14200
H  47.19800 17.31200 35.76200
N  48.54900 17.65300 27.70000
C  49.37000 18.23200 28.63100
C  50.58100 18.77600 27.95400
C  50.23500 18.66600 26.51900
C  48.98800 17.95200 26.42900
C  51.75400 19.35900 28.65600
C  51.05600 19.16500 25.40700
O  50.68400 19.23300 24.25000
C  52.38300 19.73100 25.64100
N  46.33500 16.21800 26.06300
C  47.11700 16.71900 25.11200
C  46.53300 16.41200 23.67800
C  45.27400 15.62100 24.01100
C  45.21700 15.64300 25.57500
C  46.31900 17.68300 22.84500
C  45.29000 14.12200 23.31700
C  44.09400 13.69200 22.43300
N  44.93500 15.84900 28.55600
C  43.99900 15.23800 27.76100
C  42.92800 14.78800 28.58400
C  43.29300 15.07000 29.89300
C  44.56900 15.68800 29.87000
C  41.60900 14.18800 27.99500
C  42.89300 14.91000 31.23600
O  41.87300 14.43300 31.70200
C  43.98400 15.63200 32.14800
C  43.43200 16.88600 32.90900
O  42.91500 17.89400 32.44700
O  43.57200 16.58300 34.20500
C  42.99100 17.49700 35.21100
H  49.86500 18.92900 30.58600
H  48.72000 17.89200 24.34500
H  43.28100 14.97600 25.75300
H  46.15400 17.45100 33.31000
H  49.10000 17.84200 32.72300
H  48.60800 19.93800 33.57900
H  46.88400 19.56900 33.37100
H  47.70500 20.27800 32.06800
H  48.33700 15.56400 33.32300
H  46.56500 15.06400 33.41800
H  48.26300 15.44300 35.47800
H  46.48400 15.50500 35.49800
H  52.69300 19.12200 28.15700
H  51.82200 18.88000 29.63300
H  51.69200 20.42900 28.85600
H  52.25700 20.58200 26.31000
H  52.90200 20.19000 24.80000
H  52.88400 18.88100 26.10400
H  47.25800 15.76500 23.18500
H  44.39600 16.14000 23.62800
H  46.28900 18.64200 23.36100
H  45.36000 17.50400 22.35800
H  47.12000 17.83100 22.12200
H  45.32000 13.38800 24.12200
H  46.16400 14.14800 22.66500
H  43.72000 12.75200 22.83700
H  44.44100 13.62200 21.40200
H  43.33000 14.45200 22.60100
H  41.12300 14.97700 27.42200
H  40.95700 13.67800 28.70500
H  41.86400 13.37500 27.31500
H  44.33100 14.87900 32.85400
H  43.38700 17.25700 36.19800
H  41.90300 17.43100 35.23000
H  43.23600 18.53700 34.99800
Mg -5.62300 25.30600 26.22300
C  -4.14200 26.88200 29.04100
C  -7.45400 23.48700 28.32300
C  -6.48600 23.55600 23.52100
C  -3.33700 27.20500 24.27300
N  -5.60500 25.11700 28.49700
C  -5.06200 25.97400 29.39200
C  -5.53600 25.53000 30.82700
C  -6.31700 24.23500 30.55300
C  -6.61300 24.35200 29.01900
C  -5.68200 23.01600 31.05300
C  -6.34400 26.61500 31.50800
C  -5.88200 26.99000 32.92600
H  -5.19100 26.05900 33.90400
N  -6.86200 23.77000 25.90400
C  -7.67100 23.20100 26.97500
C  -8.69500 22.47100 26.27600
C  -8.38200 22.36000 24.86000
C  -7.20600 23.26100 24.69800
C  -9.81000 21.83100 27.00700
C  -8.95500 21.52000 23.66200
O  -8.54400 21.57900 22.52500
C  -10.11500 20.60000 23.91100
N  -4.88600 25.30600 24.29700
C  -5.51900 24.56500 23.33700
C  -4.88000 24.66800 21.95900
C  -4.03100 25.98900 22.14200
C  -4.08000 26.25900 23.63700
C  -4.09700 23.44000 21.54200
C  -4.56800 27.13900 21.30600
C  -3.61900 27.59900 20.09700
N  -4.06800 26.72300 26.45600
C  -3.26900 27.45300 25.62900
C  -2.41500 28.41200 26.32700
C  -2.74200 28.19300 27.67700
C  -3.78000 27.20600 27.70000
C  -1.40600 29.31600 25.70700
C  -2.45400 28.65100 29.07100
O  -1.65400 29.47000 29.56100
C  -3.34400 27.72800 30.06900
C  -2.37100 26.83200 30.72100
O  -1.89600 25.72900 30.33900
O  -1.99000 27.43700 31.93500
C  -1.05400 26.74500 32.78000
H  -8.07700 22.97800 29.06200
H  -6.81500 23.04400 22.61300
H  -2.65700 27.78500 23.64600
H  -4.65500 25.37400 31.45100
H  -7.32100 24.21300 30.97500
H  -6.28300 22.58000 31.85100
H  -4.68500 23.18200 31.45900
H  -5.62900 22.20500 30.32700
H  -7.38000 26.29900 31.63800
H  -6.31200 27.44100 30.79700
H  -6.81500 27.34500 33.36400
H  -5.29500 27.90900 32.92100
H  -10.05600 22.46900 27.85600
H  -9.58000 20.77800 27.17000
H  -10.70900 21.89300 26.39500
H  -10.35400 20.15700 22.94400
H  -10.94900 21.23800 24.20300
H  -9.84000 19.89600 24.69600
H  -5.65500 24.80800 21.20600
H  -2.98000 25.80400 21.92500
H  -3.06400 23.52800 21.20500
H  -4.53600 22.99300 20.65000
H  -4.08600 22.64000 22.28200
H  -4.61800 27.99400 21.98000
H  -5.58900 26.88800 21.01900
H  -3.15600 28.53700 20.40300
H  -4.23600 27.65500 19.20000
H  -2.88000 26.80800 19.97100
H  -1.86000 30.20400 25.26800
H  -0.81700 28.71400 25.01500
H  -0.69700 29.63300 26.47300
H  -3.97000 28.31100 30.74500
H  -0.16500 26.35800 32.28400
H  -1.51300 25.85200 33.20300
H  -0.64400 27.39600 33.55200

