158

Mg 48.54400 35.20500 26.80000
C  46.44700 33.91100 29.27700
C  49.42800 37.90700 28.83600
C  50.12100 36.56600 24.10200
C  47.60400 32.56300 24.77300
N  48.01400 35.83200 28.74800
C  47.20200 35.07200 29.63400
C  47.46600 35.52300 31.06900
C  48.00600 37.03100 30.82700
C  48.55900 36.91400 29.38000
C  46.97000 38.11200 30.89200
C  48.65000 34.64800 31.80600
C  48.60600 34.44000 33.35200
H  47.73600 35.24500 34.34100
N  49.65700 36.99400 26.47900
C  49.98400 37.89200 27.46100
C  50.68400 38.97100 26.86900
C  50.80500 38.67800 25.51300
C  50.22300 37.29100 25.30400
C  51.16800 40.11600 27.76200
C  51.51900 39.54400 24.40900
O  51.56700 39.21200 23.21600
C  52.20800 40.84000 24.75600
N  48.70800 34.67500 24.69000
C  49.45700 35.32900 23.83000
C  49.55900 34.64900 22.41900
C  48.84500 33.25900 22.72000
C  48.37800 33.50500 24.14400
C  49.04500 35.45300 21.22800
C  49.71400 32.06500 22.46700
C  49.78300 31.56200 21.08500
N  47.38700 33.52400 26.95400
C  47.12300 32.51900 26.05400
C  46.20200 31.47500 26.63800
C  45.88600 32.05500 27.85100
C  46.62600 33.26100 28.01500
C  45.90600 30.09400 25.99700
C  45.10600 31.80200 29.02600
O  44.35800 30.89100 29.30100
C  45.40200 33.05600 29.96000
C  45.83800 32.58500 31.37200
O  46.72500 31.71700 31.56100
O  44.86100 33.04800 32.34300
C  44.96400 32.40300 33.67400
H  49.62700 38.70700 29.55200
H  50.71000 36.96300 23.27300
H  47.39400 31.70200 24.13500
H  46.59700 35.68300 31.70700
H  48.79000 37.40400 31.48500
H  45.98200 37.66900 30.77000
H  47.15200 38.77000 30.04100
H  46.92600 38.77500 31.75600
H  49.65400 34.98900 31.55700
H  48.63100 33.62900 31.42000
H  49.66600 34.57500 33.56700
H  48.60800 33.36800 33.55100
H  50.60300 41.00300 27.47500
H  52.22600 40.31800 27.59400
H  51.21500 39.97500 28.84200
H  52.67500 41.28700 23.87700
H  53.08500 40.48500 25.29800
H  51.63000 41.50900 25.39300
H  50.64500 34.65300 22.32900
H  47.91900 33.21100 22.14700
H  48.32900 36.17800 21.61500
H  48.43400 34.80300 20.60200
H  49.76900 36.05200 20.67400
H  49.36100 31.38900 23.24600
H  50.75700 32.27000 22.70700
H  50.76600 31.13900 20.87900
H  49.49700 32.32400 20.36000
H  49.10800 30.71000 21.00400
H  46.62400 29.88100 25.20600
H  44.91200 30.18600 25.55800
H  45.98000 29.27200 26.70900
H  44.59800 33.76500 30.16000
H  44.80300 31.32800 33.59100
H  44.25200 32.92100 34.31700
H  45.97300 32.53000 34.06400
Mg 35.31100 48.39700 24.59500
C  35.45900 46.74600 27.73000
C  33.93300 51.15700 26.09600
C  34.73200 49.71200 21.52900
C  36.13600 45.23500 23.15700
N  34.61900 48.73400 26.76000
C  35.00100 48.04400 27.87000
C  34.70000 48.93300 29.15700
C  34.11300 50.27800 28.52900
C  34.21000 50.04600 26.99000
C  32.67200 50.59100 28.96500
C  35.85200 49.14400 30.21400
C  35.54900 48.66500 31.60000
H  34.10900 48.57500 32.10800
N  34.58100 50.16100 23.92900
C  34.13700 51.19000 24.64600
C  33.90500 52.33800 23.89000
C  33.98700 51.87400 22.49900
C  34.41600 50.52800 22.58800
C  33.49600 53.62100 24.39500
C  33.61900 52.64000 21.21400
O  33.70000 52.09200 20.10200
C  33.24900 53.99000 21.20300
N  35.33800 47.53600 22.69800
C  35.23900 48.33100 21.58900
C  35.53400 47.56400 20.34800
C  36.02700 46.13700 20.80100
C  35.81000 46.27600 22.32300
C  34.48000 47.56700 19.27100
C  37.49600 45.78500 20.51300
C  38.46800 46.80200 21.21900
N  35.73600 46.40300 25.22700
C  36.08600 45.32300 24.54000
C  36.43500 44.24500 25.44300
C  36.19100 44.76200 26.71400
C  35.80300 46.09000 26.53300
C  36.85600 42.93800 25.01600
C  36.28400 44.41300 28.07200
O  36.50400 43.37800 28.65500
C  35.81200 45.80900 28.80500
C  34.64400 45.42900 29.71100
O  33.45700 45.18300 29.41700
O  35.14800 45.18800 30.94000
C  34.34700 44.58100 31.98300
H  33.67300 52.07400 26.62800
H  34.56100 50.13300 20.53600
H  36.35900 44.34000 22.57300
H  33.95500 48.29400 29.63000
H  34.71800 51.16600 28.71500
H  32.19700 49.78000 29.51600
H  32.11500 50.77800 28.04700
H  32.64500 51.46200 29.62000
H  36.14300 50.19300 30.27300
H  36.71200 48.65400 29.75700
H  36.10700 49.27600 32.31000
H  36.10600 47.73600 31.71700
H  33.64600 54.48000 23.74100
H  34.04000 53.85300 25.31000
H  32.43700 53.66000 24.65100
H  34.12800 54.59100 21.43800
H  32.48900 54.26200 21.93600
H  32.85000 54.33200 20.24800
H  36.38100 48.15600 20.00100
H  35.29300 45.43100 20.41400
H  34.58600 46.61400 18.75300
H  34.60100 48.45400 18.64900
H  33.52100 47.58400 19.78800
H  37.69300 45.86200 19.44300
H  37.77200 44.75300 20.72700
H  39.12900 47.33500 20.53500
H  39.28300 46.44400 21.84900
H  37.93100 47.54800 21.80600
H  37.91600 42.68500 25.00400
H  36.31200 42.58500 24.13900
H  36.51600 42.41600 25.91000
H  36.65300 46.21900 29.36400
H  34.15300 43.54100 31.72100
H  33.40900 45.09600 32.18600
H  34.89400 44.55900 32.92600

