158

Mg 2.45800 -1.39000 45.13200
C  6.01200 -0.85800 44.79100
C  2.02900 1.63400 43.54200
C  -0.80000 -2.23100 44.60000
C  3.25000 -4.54000 46.16400
N  3.83000 0.08400 44.25300
C  5.19100 0.11500 44.21300
C  5.73500 1.23100 43.41400
C  4.50200 2.24600 43.22700
C  3.36400 1.28500 43.72800
C  4.45100 3.52200 44.07900
C  6.46400 0.74400 42.15000
C  7.88300 1.26500 41.86300
H  8.08500 1.56700 40.40000
N  0.79300 -0.43700 44.26800
C  0.86700 0.81200 43.73400
C  -0.49100 1.25000 43.30400
C  -1.33400 0.15500 43.68500
C  -0.50400 -0.90000 44.23000
C  -0.77600 2.62900 42.54700
C  -2.85800 0.10100 43.53400
O  -3.44000 1.01800 42.92100
C  -3.63300 -0.93000 44.27400
N  1.36700 -3.21300 45.25600
C  0.00900 -3.26200 45.13200
C  -0.51100 -4.66200 45.72600
C  0.78000 -5.51900 46.14300
C  1.89900 -4.40700 45.75700
C  -1.54100 -4.59500 46.83700
C  0.89900 -6.85700 45.28400
C  1.60400 -8.03000 45.99200
N  4.23000 -2.51200 45.57000
C  4.38000 -3.71900 46.09300
C  5.76700 -4.01900 46.44300
C  6.45300 -2.92300 46.01800
C  5.50200 -2.02000 45.45400
C  6.30100 -5.25700 47.04900
C  7.69500 -2.25000 45.88700
O  8.80000 -2.61400 46.32600
C  7.52800 -0.93700 45.01200
C  8.12900 0.28900 45.57100
O  7.96800 0.61900 46.77200
O  8.95800 0.97300 44.71200
C  9.36000 2.31300 45.22400
H  1.99900 2.58900 43.01300
H  -1.80600 -2.63800 44.47600
H  3.45400 -5.46600 46.70500
H  6.53000 1.66700 44.01800
H  4.23000 2.45700 42.19300
H  5.50200 3.72500 44.28500
H  3.84100 3.44400 44.97900
H  4.00500 4.32600 43.49300
H  5.79800 0.81400 41.29000
H  6.64600 -0.33000 42.18700
H  8.57000 0.62500 42.41700
H  8.10600 2.20900 42.36000
H  -1.84300 2.82200 42.65400
H  -0.53200 2.43200 41.50300
H  -0.21300 3.46600 42.96000
H  -4.64800 -0.62100 44.52400
H  -3.01700 -1.02200 45.16900
H  -3.61700 -1.86800 43.72000
H  -1.03300 -5.17600 44.91900
H  0.77600 -5.80300 47.19600
H  -1.76800 -3.56600 47.11500
H  -1.16200 -5.05800 47.74800
H  -2.45600 -5.15000 46.63100
H  1.51000 -6.71600 44.39200
H  -0.05900 -7.25300 44.94800
H  1.44100 -8.03300 47.07000
H  2.67800 -7.96500 45.81800
H  1.14900 -8.96700 45.67000
H  5.97300 -6.18300 46.57700
H  5.96200 -5.35700 48.08000
H  7.38700 -5.16700 47.08800
H  8.03900 -1.15700 44.07500
H  8.57400 2.91100 45.68500
H  9.66400 2.84900 44.32500
H  10.16600 2.22900 45.95400
Mg 26.78400 50.92600 26.43300
C  25.19500 52.22200 29.35000
C  29.31300 49.75900 28.48500
C  28.18200 49.54700 23.76100
C  24.84800 52.98000 24.51200
N  27.16900 51.05100 28.71500
C  26.33600 51.50700 29.71900
C  26.86300 51.22100 31.13200
C  28.26400 50.52300 30.81400
C  28.24800 50.42400 29.21600
C  29.50500 51.34900 31.32900
C  25.84200 50.49800 32.02900
C  26.27400 49.76400 33.36400
H  25.73400 50.48500 34.70200
N  28.46500 49.74000 26.19200
C  29.46500 49.40400 27.13000
C  30.45500 48.64800 26.49300
C  30.06200 48.48300 25.16900
C  28.93400 49.32000 24.98700
C  31.56600 47.89300 27.12800
C  30.54300 47.61100 24.11700
O  30.16800 47.61100 22.94200
C  31.34000 46.46100 24.45600
N  26.57000 51.36400 24.38900
C  27.11400 50.46100 23.53000
C  26.53500 50.69900 22.11200
C  25.58300 51.93300 22.36800
C  25.60500 52.08000 23.82800
C  27.54600 50.89700 20.92700
C  24.15900 51.60000 21.89100
C  23.73600 52.42900 20.66800
N  25.33200 52.22700 26.75400
C  24.58400 52.99100 25.85700
C  23.64100 53.79400 26.57400
C  23.84400 53.47600 27.86500
C  24.83100 52.50300 27.96500
C  22.66800 54.74700 25.88400
C  23.28000 53.77400 29.10500
O  22.32100 54.47100 29.35900
C  24.17300 52.91100 30.17500
C  24.70000 53.75300 31.33700
O  25.78100 54.17200 31.39900
O  23.83700 53.85300 32.33600
C  24.07000 54.84400 33.45900
H  30.05900 49.29700 29.13600
H  28.35100 48.93100 22.87600
H  24.16400 53.47700 23.82100
H  27.11600 52.24200 31.41900
H  28.23600 49.52900 31.26000
H  30.06600 51.54100 30.41500
H  30.04400 50.60300 31.91300
H  29.23100 52.27400 31.83700
H  25.27500 49.92200 31.29800
H  25.16800 51.29000 32.35800
H  27.36000 49.79300 33.46300
H  25.90600 48.73800 33.37100
H  31.66200 48.32800 28.12300
H  32.49800 48.08100 26.59500
H  31.25800 46.84900 27.18900
H  30.88100 45.83800 25.22400
H  32.24400 46.90100 24.87800
H  31.72100 45.81900 23.66100
H  25.98700 49.80900 21.80200
H  25.86400 52.88700 21.92000
H  28.53400 51.18100 21.29000
H  27.12200 51.76100 20.41500
H  27.56700 50.03900 20.25500
H  23.39000 51.82300 22.63000
H  24.09900 50.54300 21.63000
H  24.61200 52.94700 20.27900
H  22.95100 53.18000 20.75300
H  23.47800 51.77000 19.83900
H  23.22100 55.54700 25.39200
H  22.06900 55.25500 26.64000
H  22.05700 54.30000 25.10000
H  23.57800 52.10700 30.60800
H  24.44900 55.76900 33.02500
H  24.61900 54.41600 34.29800
H  23.05200 55.00700 33.81500

