158

Mg 36.57200 49.18400 25.10600
C  36.65200 47.25800 28.08900
C  35.17600 51.87700 27.01900
C  35.84300 50.87000 22.35400
C  37.67500 46.46700 23.32300
N  36.01000 49.48600 27.30300
C  36.22200 48.54200 28.32800
C  35.96700 49.19600 29.67300
C  35.31100 50.57400 29.33000
C  35.48100 50.67100 27.78900
C  33.80700 50.79400 29.83000
C  37.34300 49.44800 30.44000
C  37.32800 49.10800 31.91100
H  36.00500 49.32700 32.68200
N  35.67100 51.11000 24.68600
C  35.19300 52.01200 25.62200
C  34.73500 53.13900 24.91200
C  34.99500 52.92800 23.56700
C  35.47600 51.54500 23.51800
C  34.17400 54.38000 25.53000
C  34.88200 53.85900 22.32900
O  35.02000 53.44100 21.18300
C  34.55700 55.22800 22.50200
N  36.71500 48.76900 23.05100
C  36.37200 49.63300 22.09600
C  36.92800 49.11200 20.73000
C  37.59000 47.79700 21.06300
C  37.37000 47.68100 22.54300
C  35.79400 49.11500 19.61500
C  39.05400 47.59800 20.60000
C  40.13300 48.45900 21.31600
N  36.93700 47.29800 25.57400
C  37.47000 46.31100 24.70500
C  37.92700 45.14100 25.55500
C  37.37800 45.39600 26.81100
C  36.90200 46.77900 26.79100
C  38.44400 43.83200 25.07500
C  37.27700 44.86500 28.14200
O  37.53600 43.72900 28.51200
C  36.84800 46.06500 29.00600
C  35.52900 45.78600 29.76500
O  34.44800 45.83400 29.23200
O  35.82200 45.36300 31.06600
C  34.64900 45.12100 31.88500
H  34.73200 52.70400 27.57600
H  35.69400 51.26500 21.34700
H  38.21200 45.71300 22.74500
H  35.26400 48.64500 30.29700
H  35.86600 51.36500 29.83400
H  33.26000 49.89400 30.11000
H  33.29900 51.09500 28.91400
H  33.63800 51.64000 30.49600
H  37.71800 50.47100 30.46800
H  38.05500 48.72400 30.04400
H  37.93200 49.73300 32.57000
H  37.57500 48.06000 32.07600
H  33.69100 54.19000 26.48800
H  33.34500 54.63300 24.87000
H  34.86600 55.22100 25.58600
H  33.50600 55.25900 22.79200
H  34.57100 55.68200 21.51200
H  35.26300 55.75300 23.14600
H  37.76900 49.78500 20.56700
H  36.98900 47.04200 20.55600
H  35.80800 50.01200 18.99600
H  34.85100 49.16000 20.15900
H  35.86200 48.24000 18.96800
H  39.06600 48.00100 19.58800
H  39.43300 46.57800 20.65000
H  40.85400 48.94000 20.65400
H  40.78800 47.83400 21.92300
H  39.67500 49.23700 21.92700
H  39.48600 43.98100 24.79400
H  37.88200 43.58900 24.17300
H  38.39200 43.11100 25.89100
H  37.56300 46.30200 29.79400
H  33.93000 45.93900 31.84500
H  34.95500 45.07700 32.93000
H  34.13100 44.21800 31.56200
Mg -10.95500 38.57100 41.67600
C  -9.48000 35.38900 41.10800
C  -8.24300 39.89400 40.15600
C  -12.52600 41.53400 41.67000
C  -13.91300 36.96700 42.67400
N  -9.07100 37.72100 40.75400
C  -8.63100 36.44100 40.69400
C  -7.20000 36.27900 40.25800
C  -6.80100 37.76200 39.99700
C  -8.08200 38.53000 40.38600
C  -5.51700 38.18500 40.73500
C  -7.23200 35.46000 38.92600
C  -6.08600 34.41800 38.81200
H  -5.11300 34.80100 37.73000
N  -10.39800 40.44700 41.08900
C  -9.16800 40.77700 40.63000
C  -9.09100 42.20200 40.41900
C  -10.34500 42.74100 40.77800
C  -11.16800 41.61300 41.23300
C  -7.88300 42.90700 39.83100
C  -10.73500 44.16500 40.87300
O  -9.94600 45.10200 40.65300
C  -12.14700 44.60900 41.21000
N  -13.01000 39.11400 41.83900
C  -13.32700 40.40400 41.86800
C  -14.75100 40.63900 42.38900
C  -15.19600 39.18100 42.79000
C  -13.94900 38.30800 42.41300
C  -14.84700 41.73700 43.52500
C  -16.38800 38.60700 41.96200
C  -17.56600 38.13800 42.85600
N  -11.64900 36.61700 41.86400
C  -12.85400 36.08100 42.32900
C  -12.68200 34.66100 42.56900
C  -11.40400 34.34300 42.06700
C  -10.79500 35.58700 41.70100
C  -13.73100 33.76300 43.04900
C  -10.42200 33.24900 41.75900
O  -10.53000 32.06100 42.03400
C  -9.22000 33.86300 41.08400
C  -8.01500 33.28500 41.69200
O  -7.40700 32.32900 41.24900
O  -7.66100 33.96700 42.86700
C  -6.37100 33.57900 43.55400
H  -7.46400 40.46100 39.64100
H  -13.09300 42.46200 41.77100
H  -14.79400 36.54600 43.16300
H  -6.54900 35.84400 41.01700
H  -6.64300 37.95000 38.93500
H  -4.79700 37.37000 40.66400
H  -5.63400 38.38100 41.80000
H  -4.96500 39.03800 40.34100
H  -7.01400 36.08500 38.06000
H  -8.23000 35.05300 38.76500
H  -6.46600 33.43900 38.51900
H  -5.44200 34.45800 39.69000
H  -7.85200 43.90700 40.26500
H  -7.85700 43.08900 38.75700
H  -6.96200 42.43700 40.17800
H  -12.58900 44.43200 42.19000
H  -12.78100 44.14800 40.45400
H  -12.22500 45.66600 40.95400
H  -15.31000 41.03900 41.54300
H  -15.45300 39.19800 43.84900
H  -14.00000 42.04000 44.14100
H  -15.62300 41.34800 44.18300
H  -15.13200 42.68100 43.05900
H  -16.01300 37.77800 41.36200
H  -16.73600 39.35900 41.25400
H  -17.55800 38.36100 43.92300
H  -17.75300 37.06400 42.85900
H  -18.51700 38.56200 42.53200
H  -14.00100 33.94500 44.08900
H  -13.35600 32.74100 42.98600
H  -14.63900 33.81700 42.44900
H  -9.13500 33.49900 40.06000
H  -6.39200 33.84800 44.61000
H  -5.53000 34.12900 43.13100
H  -6.27800 32.49400 43.52500

