158

Mg 25.18900 -5.52100 45.54100
C  27.24600 -3.08100 44.02400
C  22.57500 -4.45900 43.41400
C  23.52100 -8.37000 46.09700
C  27.96700 -6.71400 47.26400
N  24.92400 -3.88600 44.00900
C  25.95800 -3.07600 43.49100
C  25.44900 -1.97600 42.55400
C  23.90500 -2.44900 42.35000
C  23.72500 -3.64200 43.38100
C  22.77500 -1.31900 42.44500
C  26.34300 -1.73100 41.32600
C  26.61700 -2.97900 40.43400
H  26.29800 -2.77900 38.89200
N  23.26100 -6.31900 44.91500
C  22.34300 -5.64400 44.13500
C  21.11300 -6.49500 44.03700
C  21.40900 -7.65900 44.84000
C  22.76900 -7.45200 45.31300
C  19.82600 -6.14200 43.26600
C  20.41500 -8.76400 45.15700
O  19.23400 -8.74000 44.72000
C  20.73300 -9.89900 46.09700
N  25.72000 -7.28000 46.55500
C  24.83500 -8.27400 46.72200
C  25.48700 -9.47000 47.53200
C  26.89900 -8.89000 47.84100
C  26.86500 -7.54900 47.12700
C  24.53800 -10.05500 48.63700
C  28.08000 -9.85400 47.57900
C  28.97500 -10.16200 48.76100
N  27.19200 -4.91100 45.75000
C  28.18100 -5.54600 46.48000
C  29.40800 -4.79700 46.36600
C  29.07400 -3.79400 45.38100
C  27.74000 -3.91800 45.04700
C  30.72400 -4.98600 47.06200
C  29.69600 -2.80600 44.52800
O  30.77800 -2.36800 44.49800
C  28.50900 -2.25800 43.64800
C  28.47400 -0.87900 44.06700
O  28.05200 -0.49300 45.14500
O  28.84500 -0.01300 43.08000
C  29.08100 1.42000 43.34400
H  21.80600 -4.04800 42.75700
H  23.09800 -9.34200 46.36100
H  28.75200 -6.92500 47.99300
H  25.36100 -1.06100 43.14000
H  23.64500 -2.84600 41.36900
H  21.80500 -1.59600 42.85700
H  22.53900 -0.99300 41.43200
H  23.07900 -0.45100 43.03100
H  27.31700 -1.42500 41.70800
H  25.90300 -0.87600 40.81400
H  25.79400 -3.64800 40.68400
H  27.58300 -3.43300 40.65700
H  19.30400 -7.06400 43.01200
H  20.07600 -5.61400 42.34600
H  19.35400 -5.45300 43.96700
H  19.88400 -10.55900 46.27600
H  21.10100 -9.54900 47.06200
H  21.43200 -10.53000 45.54900
H  25.44600 -10.22900 46.75100
H  27.03100 -8.59100 48.88100
H  23.62400 -9.47100 48.73700
H  25.11100 -9.87800 49.54800
H  24.48200 -11.14300 48.58400
H  28.66300 -9.46800 46.74300
H  27.56200 -10.74500 47.22200
H  28.73600 -9.78400 49.75500
H  30.02500 -9.90000 48.62900
H  28.99100 -11.24700 48.86600
H  30.70700 -4.63800 48.09500
H  31.55800 -4.53500 46.52600
H  31.00000 -6.03900 47.00800
H  28.90800 -2.36100 42.63900
H  29.07000 1.65500 44.40900
H  28.33200 2.07700 42.90300
H  30.08000 1.72800 43.03500
Mg 27.20700 50.24200 26.61500
C  25.17400 51.18900 29.30300
C  29.70400 49.35800 28.94300
C  29.15700 49.37700 23.95700
C  24.55600 51.21000 24.42800
N  27.35900 50.20000 28.90200
C  26.39700 50.56300 29.78800
C  26.84200 50.31900 31.25600
C  28.35100 50.03200 31.08800
C  28.47000 49.89000 29.54500
C  29.31100 50.99800 31.75200
C  25.90400 49.21300 31.97700
C  24.94800 49.71300 33.13800
H  25.00900 48.95100 34.39900
N  29.20200 49.44400 26.48500
C  29.99100 49.14200 27.54000
C  31.18600 48.70200 26.96000
C  31.16800 48.79700 25.54800
C  29.81500 49.22100 25.26100
C  32.31800 48.18100 27.85100
C  32.27200 48.44300 24.52300
O  32.09700 48.59000 23.32300
C  33.57500 47.67200 24.96600
N  26.87300 50.24800 24.45500
C  27.87800 49.89600 23.58500
C  27.30900 49.98000 22.15800
C  25.80900 50.46800 22.31300
C  25.74300 50.64600 23.82700
C  28.15900 50.87500 21.19600
C  24.65500 49.48400 21.87400
C  24.55000 48.16200 22.58500
N  25.28300 51.10500 26.77300
C  24.33800 51.44200 25.81600
C  23.26200 52.05100 26.47900
C  23.49300 51.94200 27.81000
C  24.78600 51.33300 27.96900
C  21.97100 52.57200 25.82100
C  22.99000 52.19900 29.18600
O  21.98600 52.67700 29.62500
C  24.02200 51.65600 30.15500
C  24.29900 52.85400 30.98300
O  25.21800 53.62500 30.83500
O  23.45400 52.77600 32.11100
C  23.48700 53.92000 33.04900
H  30.49500 49.12000 29.65800
H  29.73200 49.20400 23.04500
H  23.86500 51.66200 23.71400
H  26.62900 51.24100 31.79700
H  28.62100 49.07200 31.52800
H  30.12900 50.41000 32.16900
H  28.75800 51.60000 32.47300
H  29.79700 51.56200 30.95500
H  26.49400 48.41600 32.43000
H  25.23700 48.73200 31.26200
H  23.93200 49.68400 32.74500
H  25.14900 50.76700 33.32800
H  32.73100 47.28100 27.39400
H  32.01500 47.83600 28.84000
H  32.97200 49.05200 27.88400
H  34.21200 48.22400 25.65700
H  34.13100 47.35700 24.08300
H  33.24000 46.77400 25.48500
H  27.19600 48.99400 21.70800
H  25.71000 51.30900 21.62800
H  28.78600 50.23300 20.57700
H  28.80700 51.50600 21.80500
H  27.60700 51.52200 20.51400
H  24.82700 49.35200 20.80600
H  23.70600 50.01900 21.89500
H  25.32200 48.03000 23.34400
H  24.52400 47.39100 21.81500
H  23.55800 48.11700 23.03600
H  21.10800 52.16300 26.34500
H  21.85200 52.31100 24.76900
H  21.99200 53.66200 25.83300
H  23.59900 50.87100 30.78100
H  23.66500 54.85400 32.51600
H  24.18600 53.88400 33.88400
H  22.54700 54.09200 33.57300

