158

Mg 45.34200 4.15700 47.36000
C  43.44600 6.96100 46.85400
C  42.59900 2.21100 46.58100
C  47.34900 1.29000 47.26000
C  48.22600 6.13000 47.20200
N  43.28700 4.57300 46.73000
C  42.71600 5.81500 46.65900
C  41.25200 5.74000 46.37900
C  40.95000 4.24200 46.58700
C  42.34400 3.63000 46.59800
C  40.13100 3.93100 47.81000
C  40.97600 6.21700 44.89900
C  40.19000 7.48200 44.76200
H  40.42300 8.28800 43.53800
N  44.94600 2.05800 47.07800
C  43.76000 1.47700 46.77200
C  43.90000 0.03400 46.70500
C  45.25700 -0.22100 46.91100
C  45.97300 1.08100 47.04100
C  42.77200 -0.93900 46.52000
C  45.86000 -1.63700 46.92400
O  45.11600 -2.60300 46.82200
C  47.36700 -1.86100 46.90900
N  47.48500 3.78200 47.21600
C  48.03400 2.55700 47.36000
C  49.52900 2.61600 47.36200
C  49.82400 4.16000 47.35600
C  48.43300 4.74800 47.22900
C  50.14000 1.81800 48.58000
C  50.83800 4.69700 46.17200
C  52.35700 4.88600 46.61900
N  45.77900 6.23800 47.05200
C  47.01100 6.86800 47.12800
C  46.77000 8.27000 47.21400
C  45.35700 8.35800 47.14100
C  44.84200 7.08500 47.07100
C  47.72600 9.37000 47.19400
C  44.21900 9.26500 47.08900
O  44.26200 10.50700 47.13400
C  42.97300 8.44800 46.82200
C  41.98200 8.69400 47.88600
O  41.75800 7.93600 48.80500
O  41.24400 9.78200 47.55700
C  39.98400 9.99600 48.28900
H  41.74300 1.58400 46.32300
H  47.95500 0.39600 47.41700
H  49.15700 6.69800 47.25200
H  40.72700 6.38000 47.08700
H  40.48000 3.73500 45.74500
H  39.33100 4.65700 47.95300
H  40.72000 3.80700 48.71900
H  39.47400 3.07800 47.63800
H  40.55700 5.44100 44.25900
H  41.94500 6.43400 44.44900
H  40.31000 8.14300 45.62000
H  39.16900 7.11300 44.66400
H  43.01200 -1.75300 45.83600
H  41.94400 -0.55700 45.92100
H  42.33800 -1.23200 47.47500
H  47.64900 -2.89000 46.68600
H  47.71100 -1.90400 47.94300
H  48.06900 -1.23900 46.35300
H  49.81000 2.23500 46.38100
H  50.26300 4.44400 48.31300
H  49.37000 1.72400 49.34500
H  50.95600 2.39100 49.02100
H  50.54600 0.87700 48.20800
H  50.33900 5.53900 45.69100
H  50.75600 3.94300 45.38800
H  52.76800 5.81700 46.22900
H  52.89500 4.09000 46.10500
H  52.53300 4.77200 47.68900
H  48.29200 9.35200 46.26300
H  48.47700 9.15200 47.95400
H  47.17700 10.27400 47.45600
H  42.53400 8.64800 45.84500
H  40.14200 10.74300 49.06600
H  39.45600 9.16100 48.75100
H  39.39500 10.51000 47.53000
Mg 48.58800 15.58700 28.79800
C  46.66500 15.34800 31.63600
C  50.96300 17.47800 30.55500
C  50.40100 15.87700 26.00100
C  46.06300 14.03700 27.03700
N  48.75600 16.28600 30.92900
C  47.84400 16.08900 31.90300
C  48.47900 16.37400 33.22600
C  49.64500 17.36800 32.87100
C  49.86400 17.00800 31.40100
C  49.49100 18.94800 33.05200
C  48.91400 15.13000 34.05500
C  48.52800 15.14600 35.57500
H  48.33100 16.52700 36.23200
N  50.37300 16.63200 28.31400
C  51.23500 17.22400 29.20000
C  52.35100 17.77500 28.51100
C  52.29200 17.19000 27.19900
C  50.95800 16.53700 27.14900
C  53.43200 18.65700 29.10900
C  53.31300 17.24400 26.06300
O  53.23600 16.46000 25.10700
C  54.49100 18.12300 26.13600
N  48.26500 15.05000 26.74200
C  49.19500 15.22800 25.81000
C  48.71900 14.68600 24.43400
C  47.32200 14.08100 24.77800
C  47.18200 14.34500 26.30600
C  48.70700 15.87100 23.41700
C  47.24100 12.56200 24.26500
C  45.86200 11.92000 23.92100
N  46.78700 14.86500 29.20200
C  45.85700 14.25300 28.37800
C  44.70800 13.92000 29.14600
C  45.05900 14.20100 30.45200
C  46.22700 14.90200 30.43800
C  43.48300 13.19200 28.67000
C  44.54100 14.17900 31.74800
O  43.36800 13.93900 32.10000
C  45.58400 14.85400 32.64200
C  44.87200 15.94100 33.30100
O  44.46500 17.00400 32.82500
O  44.59500 15.58500 34.56000
C  43.88800 16.54000 35.41600
H  51.71700 18.08100 31.06500
H  50.92000 15.91700 25.04100
H  45.39300 13.46000 26.39700
H  47.69000 16.82600 33.82700
H  50.58400 17.13900 33.37600
H  48.45100 19.26700 33.11900
H  49.99900 19.58500 32.32900
H  50.04700 19.24700 33.94100
H  50.00400 15.11600 34.04700
H  48.64200 14.16300 33.63300
H  49.35300 14.67800 36.11100
H  47.64300 14.56400 35.83100
H  52.93100 19.21000 29.90300
H  53.66500 19.43400 28.38000
H  54.29500 18.09000 29.45800
H  54.05900 19.09900 26.35700
H  54.92700 18.31100 25.15400
H  55.23100 17.84100 26.88500
H  49.51700 13.95900 24.28500
H  46.57600 14.67000 24.24500
H  48.67800 16.86300 23.86900
H  47.87700 15.78800 22.71500
H  49.69300 15.77600 22.96400
H  47.55200 11.99200 25.14000
H  47.96800 12.41800 23.46600
H  45.61900 11.16700 24.67100
H  45.99600 11.43200 22.95600
H  45.03800 12.61600 23.76100
H  42.81300 12.98300 29.50400
H  43.86300 12.25900 28.25400
H  42.95400 13.68100 27.85200
H  46.02300 14.15200 33.35100
H  42.93400 16.66500 34.90400
H  44.38400 17.49300 35.60000
H  43.66300 15.99400 36.33200

