158

Mg 23.58400 -5.67400 46.02700
C  25.69900 -3.04500 44.85400
C  21.39600 -4.65500 43.70000
C  22.08000 -8.52000 46.56400
C  26.50500 -6.85800 47.79000
N  23.65000 -4.08600 44.35100
C  24.52100 -3.01200 44.20600
C  24.07900 -2.11900 43.14000
C  22.49400 -2.46700 43.00000
C  22.42700 -3.80800 43.75000
C  21.54500 -1.39700 43.31600
C  24.82100 -2.30300 41.80700
C  25.39000 -1.03900 41.06600
H  24.99900 -0.91300 39.52700
N  21.88600 -6.40800 45.35500
C  21.16400 -5.88800 44.38100
C  20.03300 -6.71800 44.19600
C  20.19100 -7.84300 44.96900
C  21.47600 -7.66800 45.64600
C  18.83000 -6.34900 43.24100
C  19.17100 -8.90200 45.25400
O  18.05100 -8.82900 44.81700
C  19.34700 -10.15400 46.13400
N  24.27700 -7.52600 46.85700
C  23.35500 -8.44000 47.16700
C  23.90600 -9.59400 48.02900
C  25.33600 -9.03500 48.40200
C  25.40800 -7.70400 47.57900
C  23.08300 -10.08400 49.27400
C  26.48800 -10.13300 48.23000
C  27.21100 -10.22400 46.81600
N  25.67500 -4.94800 46.50100
C  26.77600 -5.60500 47.11000
C  27.91000 -4.79300 46.94200
C  27.54400 -3.74600 46.10100
C  26.18100 -3.92400 45.80500
C  29.26000 -5.15500 47.46300
C  27.96700 -2.60300 45.32300
O  29.13400 -2.15300 45.19000
C  26.76300 -1.97300 44.55700
C  26.31000 -0.72800 45.18200
O  25.25300 -0.59800 45.82200
O  27.20300 0.29000 44.86900
C  26.97100 1.56000 45.55100
H  20.74400 -4.45700 42.84600
H  21.55700 -9.44000 46.83800
H  27.31800 -7.27300 48.39000
H  24.13500 -1.05100 43.35200
H  22.24800 -2.69500 41.96300
H  21.27200 -1.56300 44.35800
H  20.71200 -1.57400 42.63600
H  21.92300 -0.37500 43.31800
H  24.19000 -2.82500 41.08800
H  25.66900 -2.98700 41.81800
H  26.48000 -1.04300 41.05900
H  25.12700 -0.14900 41.63600
H  19.03300 -6.34700 42.17000
H  18.45200 -5.38100 43.56800
H  17.97200 -7.02000 43.26800
H  18.56400 -10.91300 46.11600
H  19.54700 -9.92400 47.18000
H  20.23800 -10.58600 45.68000
H  23.96500 -10.48500 47.40400
H  25.28500 -8.62600 49.41100
H  23.73200 -10.66100 49.93300
H  22.31300 -10.79100 48.96500
H  22.58600 -9.28000 49.81800
H  25.94700 -11.06600 48.39200
H  27.24900 -10.00500 48.99900
H  27.01300 -9.28400 46.30200
H  26.76400 -11.05500 46.27100
H  28.29600 -10.32600 46.79300
H  29.70600 -5.75800 46.67200
H  29.11700 -5.74900 48.36500
H  29.83900 -4.25500 47.67200
H  27.01900 -1.75800 43.51900
H  26.14800 1.58200 46.26500
H  26.82600 2.38500 44.85300
H  27.80500 1.89500 46.16800
Mg 35.02100 2.24800 30.19800
C  32.64400 3.30200 32.45500
C  37.44800 2.60500 32.55800
C  37.17400 1.63900 27.72600
C  32.41300 2.24900 27.81700
N  35.02500 2.87700 32.22700
C  33.94200 3.10200 32.99900
C  34.26400 3.36700 34.40900
C  35.83600 3.31900 34.47600
C  36.16000 3.00300 32.93000
C  36.49100 4.62100 35.03900
C  33.54200 2.47300 35.50800
C  33.02200 3.22100 36.75500
H  33.83800 4.33000 37.43100
N  37.00200 2.04500 30.13500
C  37.86400 2.12900 31.26600
C  39.22900 1.87800 30.85400
C  39.19900 1.59700 29.47400
C  37.75400 1.76800 29.01800
C  40.37600 1.76900 31.81800
C  40.37100 1.32600 28.48800
O  40.22800 1.26900 27.29400
C  41.71500 1.42200 28.98800
N  34.85300 2.15500 27.99200
C  35.89200 1.73800 27.25900
C  35.41500 1.36500 25.72400
C  33.88800 1.43700 25.91700
C  33.73200 1.96500 27.34600
C  35.83700 2.21800 24.45700
C  33.16700 0.07200 25.67400
C  33.07200 -0.23200 24.15500
N  32.92300 2.57700 30.08300
C  32.00700 2.58200 28.99500
C  30.74200 2.99200 29.49900
C  30.95800 3.34200 30.84500
C  32.26900 3.00200 31.17600
C  29.57300 3.17900 28.69500
C  30.36700 4.00100 31.95800
O  29.25900 4.52300 32.11800
C  31.45000 3.80900 33.15900
C  31.52100 5.09800 33.92900
O  32.28500 6.03900 33.64100
O  30.62200 5.13900 34.97400
C  30.57400 6.36000 35.81500
H  38.15500 2.67200 33.38800
H  37.82300 1.21300 26.95800
H  31.57700 2.14900 27.12200
H  34.06800 4.42300 34.59400
H  36.10800 2.46100 35.09000
H  36.09700 5.57200 34.68000
H  37.53500 4.64600 34.72800
H  36.48700 4.58600 36.12800
H  34.23600 1.74600 35.93100
H  32.70700 2.02500 34.96900
H  32.69200 2.42700 37.42500
H  32.14100 3.66400 36.29000
H  39.91300 1.82200 32.80400
H  41.12800 2.52800 31.60000
H  40.79100 0.78500 31.59800
H  41.85100 2.46300 29.28200
H  42.54300 1.17200 28.32500
H  41.80400 0.76500 29.85300
H  35.70700 0.32400 25.58500
H  33.35000 2.17100 25.31700
H  36.61400 1.67000 23.92300
H  36.17100 3.08400 25.02800
H  34.99200 2.59300 23.88000
H  32.13500 0.19000 26.00600
H  33.68600 -0.72600 26.20500
H  33.42000 0.60000 23.54300
H  32.12600 -0.67800 23.84600
H  33.82500 -1.00200 23.98900
H  29.04600 4.05200 29.07900
H  28.93400 2.31900 28.89400
H  29.79300 3.29600 27.63400
H  31.08800 3.00600 33.80200
H  29.60500 6.79500 35.56800
H  31.31300 7.12900 35.59000
H  30.72500 6.04800 36.84900

