158

Mg 9.12800 47.35600 28.17300
C  7.25800 46.98500 31.15300
C  11.96400 47.99700 30.19400
C  10.87300 48.19200 25.45000
C  6.03600 47.92400 26.36000
N  9.51000 47.49300 30.35700
C  8.64200 47.13100 31.40600
C  9.31300 47.29800 32.78000
C  10.69400 47.88800 32.38600
C  10.73200 47.74400 30.85600
C  10.75900 49.42600 32.72300
C  9.49800 46.01400 33.65800
C  9.23400 46.19300 35.11400
H  9.63300 45.13300 36.11100
N  11.21400 47.78200 27.85000
C  12.20400 47.93000 28.78400
C  13.41900 48.06200 28.06000
C  13.14200 48.10000 26.67900
C  11.67100 48.02200 26.56600
C  14.73600 48.19600 28.71400
C  14.12000 48.05000 25.42600
O  13.69700 47.78500 24.29300
C  15.66900 48.24800 25.61200
N  8.54500 48.01500 26.29700
C  9.46900 48.32400 25.38700
C  8.87600 48.56500 24.00800
C  7.30000 48.22800 24.20000
C  7.25800 48.09300 25.71400
C  9.18700 49.90500 23.28900
C  6.70700 47.01500 23.35700
C  6.10400 47.32800 21.96600
N  7.09000 47.37700 28.60400
C  5.96100 47.57700 27.76000
C  4.73900 47.36600 28.54300
C  5.21700 47.10200 29.86700
C  6.59200 47.13200 29.85400
C  3.42600 47.38500 28.01300
C  4.81300 46.79200 31.25800
O  3.65000 46.55700 31.66900
C  6.13100 46.63100 32.13400
C  6.08000 45.29700 32.63200
O  6.56600 44.31800 32.06600
O  5.49500 45.19000 33.88700
C  5.78100 43.94000 34.54700
H  12.88100 48.04200 30.78500
H  11.31900 48.40900 24.47700
H  5.14200 48.05500 25.74600
H  8.71600 48.03100 33.32200
H  11.54100 47.36600 32.83200
H  9.90900 49.95300 33.15700
H  10.99800 49.96800 31.80900
H  11.61000 49.73200 33.33200
H  10.52400 45.66800 33.53500
H  8.96900 45.23800 33.10400
H  8.14800 46.28300 35.10700
H  9.59600 47.21500 35.22400
H  15.22600 49.01700 28.19100
H  15.42800 47.37200 28.54000
H  14.61000 48.34600 29.78600
H  15.87800 49.22500 26.04700
H  16.05400 48.35300 24.59700
H  16.09200 47.41100 26.16700
H  9.27500 47.85300 23.28600
H  6.74500 49.11000 23.88100
H  10.19300 50.19400 23.59500
H  8.48700 50.70500 23.52900
H  9.17400 49.96000 22.20100
H  6.01600 46.40600 23.94000
H  7.54500 46.39500 23.04100
H  6.31400 48.30100 21.52400
H  5.02200 47.26400 21.85100
H  6.56600 46.58700 21.31300
H  2.97800 46.51300 28.49000
H  3.36900 47.19800 26.94100
H  2.96900 48.32400 28.32600
H  6.19200 47.30500 32.98800
H  6.75300 43.89600 35.03900
H  5.72300 43.08500 33.87300
H  4.93100 43.77500 35.20900
Mg -5.11500 25.51400 25.25400
C  -3.43600 27.20000 27.82800
C  -6.49100 23.42700 27.45700
C  -6.28300 23.65400 22.70400
C  -2.77900 27.06800 23.08600
N  -4.79300 25.25100 27.41400
C  -4.26200 26.15900 28.31600
C  -4.74400 25.85000 29.71100
C  -5.44200 24.48900 29.58300
C  -5.63000 24.39800 28.02100
C  -4.71400 23.23200 30.10500
C  -5.66600 26.97200 30.43400
C  -5.09700 27.34200 31.79000
H  -4.74200 26.08500 32.65700
N  -6.26800 23.78400 25.07300
C  -6.81800 23.12000 26.12500
C  -7.76000 22.12900 25.65300
C  -7.68000 22.10200 24.26200
C  -6.78000 23.26500 23.95900
C  -8.56500 21.34700 26.71000
C  -8.42000 21.19200 23.24900
O  -8.21100 21.25200 22.07500
C  -9.45000 20.10900 23.68000
N  -4.60300 25.35600 23.29100
C  -5.25800 24.56500 22.37800
C  -4.68100 24.69200 20.96800
C  -3.58700 25.77000 21.06300
C  -3.60500 26.01200 22.57300
C  -4.09800 23.32000 20.36300
C  -3.82700 27.05200 20.21600
C  -3.58400 27.03500 18.72900
N  -3.57100 27.00400 25.35000
C  -2.74800 27.60300 24.40600
C  -1.91700 28.63300 24.98100
C  -2.11400 28.46700 26.37500
C  -3.11800 27.49500 26.49800
C  -1.01400 29.53200 24.28700
C  -1.73200 28.91400 27.68400
O  -0.84100 29.72000 27.98400
C  -2.54500 28.08700 28.71700
C  -1.48000 27.39200 29.48300
O  -0.71900 26.51700 29.03800
O  -1.49500 27.81900 30.77500
C  -0.71200 27.17300 31.79700
H  -7.02000 23.00900 28.31600
H  -6.85000 23.20100 21.88800
H  -2.10600 27.63800 22.44300
H  -3.85200 25.61300 30.29100
H  -6.45300 24.39000 29.97700
H  -3.87600 23.35900 30.79000
H  -4.33700 22.70600 29.22800
H  -5.52700 22.65700 30.54800
H  -6.71300 26.70500 30.58100
H  -5.69500 27.86900 29.81600
H  -5.83900 27.99400 32.25200
H  -4.26800 28.02100 31.58700
H  -9.48600 21.91600 26.83300
H  -8.10400 21.37600 27.69700
H  -8.75900 20.33000 26.36800
H  -9.97100 19.94000 22.73700
H  -10.08800 20.52000 24.46300
H  -8.97700 19.21100 24.07700
H  -5.49400 25.03200 20.32700
H  -2.59100 25.39300 20.83200
H  -4.46800 23.27100 19.33900
H  -4.52000 22.47400 20.90600
H  -3.01100 23.35300 20.30000
H  -3.28100 27.91700 20.59300
H  -4.84800 27.33900 20.46900
H  -2.85000 27.78700 18.44100
H  -4.52300 27.30200 18.24400
H  -3.20300 26.07200 18.38900
H  -1.06200 30.57600 24.59600
H  -1.25200 29.40700 23.23000
H  -0.01100 29.19000 24.53900
H  -3.02100 28.83900 29.34600
H  -1.43100 27.27000 32.61000
H  0.24500 27.66900 31.96200
H  -0.64700 26.12100 31.51800

