158

Mg 40.42500 41.25200 27.27600
C  39.81900 43.64500 30.00100
C  41.45100 39.05800 29.79200
C  41.16100 39.30200 24.91500
C  39.49400 43.87300 25.01500
N  40.53400 41.34700 29.58100
C  40.22700 42.37100 30.42400
C  40.28800 41.96100 31.92900
C  41.04900 40.64700 31.76700
C  41.06200 40.31100 30.26600
C  42.47200 40.61000 32.45000
C  38.91100 41.88600 32.61300
C  38.80500 41.37900 34.09500
H  38.15900 42.28700 35.09700
N  41.10700 39.37400 27.34000
C  41.52800 38.61800 28.40800
C  42.03600 37.34700 27.91800
C  42.02100 37.39400 26.50600
C  41.42700 38.71100 26.13200
C  42.57600 36.29900 28.91400
C  42.52100 36.31600 25.46100
O  42.55200 36.40700 24.25500
C  43.03000 35.07800 26.07100
N  40.48100 41.61500 25.24400
C  40.81000 40.58500 24.40400
C  40.57300 40.93200 22.91500
C  39.95400 42.32300 22.97500
C  39.83300 42.64000 24.50700
C  41.88700 40.92200 22.01800
C  38.55500 42.36300 22.39700
C  37.44800 41.55500 23.11600
N  39.73800 43.31700 27.42800
C  39.52500 44.23900 26.42400
C  39.24800 45.53400 27.02100
C  39.33500 45.30200 28.39100
C  39.69000 44.00600 28.61500
C  38.93500 46.78300 26.29100
C  39.17200 46.02900 29.60000
O  38.90700 47.17700 29.80300
C  39.44900 44.92300 30.73800
C  40.46100 45.37400 31.71100
O  41.62700 45.72700 31.39000
O  39.89200 45.55300 32.99700
C  40.89400 45.97100 34.00100
H  41.70800 38.38400 30.61100
H  41.38500 38.53100 24.17500
H  39.27000 44.67600 24.30900
H  40.73400 42.75900 32.52300
H  40.53400 39.83900 32.28600
H  42.85100 41.62500 32.56400
H  43.28700 40.16500 31.87800
H  42.43700 40.06300 33.39300
H  38.16900 41.28700 32.08500
H  38.40200 42.84800 32.56900
H  39.77300 41.01000 34.43500
H  38.16400 40.49800 34.11600
H  43.52400 35.86500 28.59600
H  41.81800 35.52500 29.03600
H  42.76800 36.79500 29.86500
H  43.97100 35.38300 26.53000
H  43.31000 34.38400 25.27900
H  42.25700 34.59700 26.67000
H  39.79100 40.25200 22.57500
H  40.63200 43.07500 22.57000
H  41.57500 40.59300 21.02700
H  42.63000 40.26100 22.46600
H  42.36100 41.89800 21.91700
H  38.66500 42.03600 21.36300
H  38.24900 43.40700 22.33200
H  37.80200 41.04100 24.00900
H  37.01100 40.87800 22.38200
H  36.58100 42.14900 23.40500
H  38.71300 46.57300 25.24500
H  39.77700 47.47100 26.37100
H  38.14100 47.27600 26.85300
H  38.54000 44.66300 31.28200
H  41.76600 46.48000 33.59100
H  41.27900 45.10100 34.53200
H  40.36500 46.65300 34.66700
Mg -2.73500 34.50800 26.79500
C  -3.45700 32.63900 29.64700
C  -1.03000 36.77600 28.77500
C  -2.31000 36.52700 24.03400
C  -4.41000 32.27000 24.85100
N  -2.43700 34.70800 28.95900
C  -2.75700 33.82700 29.96800
C  -2.24100 34.29300 31.36400
C  -1.60400 35.69000 31.05500
C  -1.69500 35.76200 29.52800
C  -2.15200 36.88800 31.80100
C  -1.25700 33.20500 32.00000
C  -1.73600 32.59500 33.34500
H  -0.85100 32.67300 34.59200
N  -1.75400 36.38800 26.52600
C  -1.03800 37.11700 27.41300
C  -0.35900 38.19600 26.75100
C  -0.74800 38.17800 25.41300
C  -1.63300 36.99400 25.25700
C  0.65900 39.04200 27.47200
C  -0.43900 39.18500 24.29900
O  -0.82000 38.99200 23.16200
C  0.22700 40.49700 24.57700
N  -3.34200 34.47100 24.75200
C  -3.04000 35.37100 23.89800
C  -3.47600 34.87900 22.47600
C  -3.83700 33.39500 22.63900
C  -3.79300 33.29300 24.14000
C  -4.62600 35.79700 21.95900
C  -2.98500 32.35700 21.91100
C  -3.36500 30.87100 21.82300
N  -3.81000 32.83800 27.15100
C  -4.44100 31.97200 26.24600
C  -5.04200 30.86200 26.99200
C  -4.64000 31.01800 28.31100
C  -3.88600 32.24800 28.37300
C  -5.86700 29.83200 26.41500
C  -4.70900 30.45700 29.60400
O  -5.27700 29.47000 30.01500
C  -4.04300 31.53400 30.54800
C  -5.10500 32.10800 31.47000
O  -5.95000 32.93600 31.13200
O  -4.98900 31.53100 32.69600
C  -5.91600 32.02000 33.75300
H  -0.52700 37.46000 29.46300
H  -2.13400 37.12000 23.13400
H  -4.89100 31.54700 24.18800
H  -3.06900 34.49500 32.04400
H  -0.54900 35.50600 31.26100
H  -2.80900 36.53800 32.59800
H  -2.52900 37.68400 31.15900
H  -1.30800 37.39500 32.26800
H  -0.27400 33.64500 32.16700
H  -1.09900 32.41700 31.26300
H  -1.89200 31.52700 33.19200
H  -2.68300 33.09200 33.55300
H  0.71000 38.67400 28.49700
H  0.47500 40.11500 27.42600
H  1.54500 38.84700 26.86800
H  1.31200 40.46800 24.67200
H  -0.27000 40.79300 25.50100
H  -0.07900 41.24500 23.84600
H  -2.70100 35.12300 21.74900
H  -4.88100 33.21600 22.38300
H  -5.31100 36.21400 22.69700
H  -5.31200 35.08100 21.50600
H  -4.34400 36.48500 21.16200
H  -1.98300 32.34900 22.34100
H  -2.80400 32.53700 20.85200
H  -4.33700 30.73900 22.29800
H  -2.57800 30.32900 22.34700
H  -3.36500 30.50800 20.79600
H  -6.02800 30.16800 25.39100
H  -6.77900 29.82900 27.01200
H  -5.42900 28.83700 26.49200
H  -3.22800 31.06400 31.09800
H  -6.66700 32.75100 33.45400
H  -5.39500 32.65400 34.47100
H  -6.46900 31.16800 34.14900

