158

Mg 24.20700 -4.70600 45.63700
C  26.00800 -2.04500 44.43500
C  21.37000 -3.71400 43.82500
C  22.76600 -7.56300 46.45200
C  27.14100 -5.73400 47.37700
N  23.89900 -3.28200 44.01500
C  24.77500 -2.25200 43.79400
C  24.16500 -1.33600 42.72100
C  22.65200 -1.64700 42.88900
C  22.61500 -2.94000 43.63800
C  21.99200 -0.54300 43.70200
C  24.62400 -1.77100 41.32300
C  25.60100 -0.91500 40.46200
H  26.66300 -1.61900 39.59400
N  22.30800 -5.46900 45.24200
C  21.24000 -4.87200 44.57700
C  20.10300 -5.76700 44.74700
C  20.47400 -6.95100 45.45000
C  21.91200 -6.69000 45.71900
C  18.79000 -5.43100 44.10200
C  19.61700 -8.20900 45.68900
O  18.39100 -8.24000 45.40400
C  20.05800 -9.46800 46.41500
N  24.82600 -6.33400 46.73000
C  24.01800 -7.38200 46.95800
C  24.62600 -8.54200 47.84600
C  25.92600 -7.84000 48.32900
C  26.01200 -6.55100 47.40900
C  23.74900 -9.09800 48.99700
C  27.17900 -8.72900 48.19600
C  27.99300 -8.88800 49.48900
N  26.19800 -4.07400 45.92500
C  27.25600 -4.52600 46.70300
C  28.42600 -3.65700 46.52300
C  27.96700 -2.68400 45.61300
C  26.62300 -2.93800 45.36500
C  29.78500 -3.88100 47.22000
C  28.35800 -1.46300 44.96400
O  29.39800 -0.81400 44.98900
C  27.09900 -1.00200 44.07400
C  26.66900 0.33400 44.55600
O  26.28500 0.59900 45.67400
O  26.93100 1.25800 43.62200
C  26.88100 2.66900 43.97900
H  20.44800 -3.31400 43.39900
H  22.43400 -8.56800 46.71900
H  27.98700 -6.16900 47.91200
H  24.36600 -0.29100 42.95300
H  22.14600 -1.85300 41.94600
H  22.61700 -0.18400 44.52000
H  20.99600 -0.78300 44.07400
H  21.95200 0.43400 43.22100
H  23.72400 -1.95300 40.73600
H  25.14600 -2.70500 41.52900
H  26.04000 -0.13300 41.08200
H  24.89700 -0.39100 39.81600
H  18.36300 -6.24600 43.51800
H  18.80200 -4.60900 43.38600
H  18.16200 -5.05200 44.90900
H  20.32000 -9.11700 47.41300
H  20.93300 -9.77600 45.84300
H  19.20200 -10.13700 46.32600
H  24.94200 -9.30300 47.13200
H  25.83600 -7.49300 49.35900
H  23.58600 -10.14600 48.74300
H  22.80000 -8.56900 49.07900
H  24.24400 -9.00600 49.96400
H  27.91900 -8.33200 47.50200
H  26.89200 -9.76800 48.03500
H  29.06400 -9.01400 49.32900
H  27.64500 -9.73500 50.08000
H  27.91500 -7.95800 50.05400
H  30.01900 -4.91600 46.97200
H  29.72400 -3.78300 48.30400
H  30.46400 -3.15200 46.77800
H  27.28300 -1.05900 43.00100
H  27.77700 3.00400 44.50200
H  25.99700 2.85500 44.59000
H  26.73500 3.21000 43.04400
Mg 43.18000 42.10400 25.82100
C  41.90800 44.36300 28.36200
C  44.18200 40.00700 28.27000
C  44.44900 40.35300 23.36000
C  42.18200 44.61000 23.39400
N  43.17100 42.28500 28.09600
C  42.59800 43.25500 28.95300
C  42.69200 42.87300 30.44400
C  43.40300 41.47900 30.28200
C  43.67100 41.20000 28.79700
C  44.51100 41.32200 31.26900
C  41.27400 42.86300 31.15900
C  41.04000 42.04400 32.48500
H  40.33000 42.78800 33.58600
N  44.13300 40.38100 25.86200
C  44.45800 39.62600 26.97100
C  45.00800 38.34200 26.48600
C  45.17200 38.42300 25.06400
C  44.64900 39.78000 24.73300
C  45.35500 37.26100 27.39100
C  45.57000 37.36500 23.98100
O  45.58300 37.59600 22.76100
C  45.87600 36.01400 24.55600
N  43.35700 42.47600 23.67600
C  43.91200 41.55600 22.89900
C  43.70800 41.84900 21.43800
C  42.74100 43.06500 21.49100
C  42.67500 43.39300 22.95200
C  45.01900 42.00000 20.56800
C  41.32500 42.63600 21.04200
C  41.03000 42.41500 19.56400
N  42.40000 44.05400 25.82100
C  42.03400 44.96800 24.78100
C  41.41800 46.22900 25.27900
C  41.36800 45.97800 26.66000
C  41.85500 44.64300 26.91500
C  40.98700 47.40900 24.51100
C  40.93600 46.69600 27.85800
O  40.44900 47.75400 28.17800
C  41.18600 45.60800 28.98000
C  42.10600 46.11100 30.07500
O  43.32600 46.06200 30.03700
O  41.38400 46.55500 31.16300
C  42.06100 46.53900 32.47700
H  44.36900 39.37000 29.13700
H  44.76700 39.71900 22.52900
H  41.89500 45.34000 22.63400
H  43.28400 43.59500 31.00700
H  42.72200 40.65600 30.50000
H  44.44400 40.32400 31.70200
H  44.52600 41.92600 32.17700
H  45.54700 41.29900 30.93000
H  40.61000 42.43300 30.41000
H  40.95900 43.90600 31.17700
H  41.98100 41.61100 32.82400
H  40.32200 41.27400 32.20000
H  45.23100 37.51500 28.44400
H  46.36400 36.89500 27.20500
H  44.71200 36.41100 27.16200
H  46.25700 35.32700 23.80100
H  44.99700 35.56300 25.01700
H  46.66400 36.18100 25.29100
H  43.22100 40.97300 21.00900
H  43.12600 43.89600 20.90000
H  45.23500 43.06800 20.53700
H  44.96700 41.65900 19.53400
H  45.79500 41.46800 21.11800
H  40.68000 43.39900 21.47800
H  41.11200 41.69300 21.54600
H  40.79500 41.36300 19.40000
H  41.94200 42.72000 19.05000
H  40.19900 43.10700 19.42600
H  41.81400 47.69000 23.85800
H  40.57300 48.24200 25.07900
H  40.14400 47.31400 23.82700
H  40.33700 45.31500 29.59800
H  42.29300 47.60300 32.51600
H  42.96800 45.93600 32.53000
H  41.37100 46.34900 33.29900

