158

Mg 55.09700 23.10200 44.02600
C  52.59900 25.44500 43.09400
C  53.13400 20.54400 43.07800
C  57.88000 21.18400 44.01600
C  57.16200 25.82800 44.90000
N  53.09900 23.07700 43.16900
C  52.25800 24.09000 42.76500
C  51.09800 23.48900 42.03100
C  51.16000 21.97700 42.37300
C  52.54800 21.81300 42.89300
C  50.13200 21.54100 43.41400
C  51.12400 23.74400 40.46700
C  49.78800 23.30800 39.84600
H  49.60200 22.60100 38.46500
N  55.44000 21.07500 43.57900
C  54.43400 20.17200 43.28500
C  54.99700 18.85900 43.11500
C  56.38300 19.02400 43.45300
C  56.61300 20.48200 43.69600
C  54.22000 17.60200 42.79200
C  57.44500 17.86300 43.62300
O  57.08000 16.69100 43.58900
C  58.88100 18.12900 43.82600
N  57.30700 23.48700 44.26500
C  58.19100 22.51200 44.23800
C  59.59700 23.05100 44.42500
C  59.35900 24.40900 44.99400
C  57.83900 24.63100 44.80500
C  60.51100 22.20100 45.38200
C  60.12200 25.63400 44.41900
C  60.68000 26.61200 45.41900
N  54.94400 25.19700 44.04000
C  55.83900 26.17600 44.47900
C  55.19100 27.49500 44.50500
C  53.90900 27.19500 43.90900
C  53.83900 25.82000 43.69700
C  55.68400 28.71100 45.08800
C  52.68800 27.81600 43.47100
O  52.31200 28.96000 43.51700
C  51.77400 26.65200 42.90600
C  51.58900 26.99800 41.48700
O  52.45600 27.12400 40.62600
O  50.27000 27.34300 41.25700
C  49.84800 27.62000 39.88100
H  52.41400 19.74700 42.87900
H  58.70000 20.47800 44.16500
H  57.69200 26.71100 45.26300
H  50.19500 23.94100 42.44100
H  51.02200 21.38600 41.46800
H  49.68500 22.46900 43.77000
H  50.57800 21.13900 44.32400
H  49.45900 20.84100 42.91900
H  51.84200 23.02800 40.06700
H  51.34600 24.78800 40.24500
H  49.34100 24.30000 39.78300
H  49.24400 22.71900 40.58400
H  54.09400 17.50100 41.71400
H  53.21800 17.65400 43.21900
H  54.61100 16.62000 43.06100
H  59.25500 18.75600 43.01700
H  59.49900 17.23100 43.84000
H  58.95400 18.63800 44.78700
H  59.98900 23.10400 43.41000
H  59.39600 24.37000 46.08300
H  61.44500 22.72100 45.59600
H  60.72700 21.29500 44.81600
H  59.93100 21.91900 46.26200
H  59.59800 26.15700 43.61900
H  60.98200 25.14800 43.95800
H  60.42300 27.62300 45.10200
H  61.76100 26.57400 45.55200
H  60.11100 26.44200 46.33300
H  55.44000 28.90600 46.13200
H  55.14200 29.50200 44.57000
H  56.74800 28.81100 44.87100
H  50.83900 26.77500 43.45400
H  50.43200 28.42200 39.43000
H  48.82200 27.97600 39.78500
H  49.97000 26.68400 39.33500
Mg 48.44900 34.60200 26.65100
C  46.59500 32.94500 29.15500
C  49.09600 37.08700 28.75300
C  49.92000 36.16700 24.04300
C  47.68000 31.85300 24.56100
N  47.84200 34.95500 28.69200
C  47.13000 34.19200 29.52800
C  47.31500 34.62200 30.86600
C  47.79500 36.10100 30.70200
C  48.32200 36.03600 29.28400
C  46.82300 37.27000 30.83600
C  48.41200 33.76700 31.56700
C  48.32500 33.85600 33.15000
H  47.52300 34.92100 33.88600
N  49.48800 36.38100 26.43700
C  49.62200 37.28200 27.45600
C  50.39800 38.39900 26.98600
C  50.61600 38.19800 25.54600
C  50.00300 36.87200 25.25300
C  50.74200 39.59500 27.91500
C  51.11500 39.15400 24.42900
O  50.91200 38.96100 23.23500
C  51.63700 40.61900 24.84200
N  48.71100 34.14500 24.53900
C  49.47900 34.86400 23.74600
C  49.53800 34.22700 22.31000
C  48.87800 32.82500 22.44300
C  48.43200 32.90400 23.96400
C  48.93000 35.09200 21.11700
C  49.85400 31.61500 22.25000
C  49.14700 30.31700 21.79300
N  47.47100 32.78000 26.80500
C  47.24100 31.77800 25.84700
C  46.45400 30.70400 26.41900
C  46.16900 31.16200 27.69900
C  46.78800 32.39800 27.87600
C  45.97100 29.51900 25.70200
C  45.35200 30.81300 28.88500
O  44.58300 29.86100 29.12900
C  45.51000 32.03700 29.81400
C  45.74800 31.60100 31.20300
O  46.58100 30.82100 31.59800
O  44.73600 32.05900 31.92800
C  44.68000 31.64500 33.35900
H  49.26900 37.83800 29.52600
H  50.35100 36.63700 23.15700
H  47.58200 30.93600 23.97600
H  46.34200 34.57300 31.35400
H  48.70200 36.34700 31.25400
H  45.97000 37.00500 31.46000
H  46.48400 37.63000 29.86400
H  47.34000 38.01800 31.43700
H  49.39600 34.21800 31.44000
H  48.32700 32.69000 31.42000
H  49.38200 33.83700 33.41600
H  47.83300 32.93000 33.44600
H  51.80500 39.82300 27.84000
H  50.47500 39.37000 28.94800
H  50.24400 40.47200 27.50100
H  51.38600 41.36200 24.08500
H  52.70000 40.56300 25.07700
H  51.21200 40.96000 25.78500
H  50.60200 34.08900 22.11800
H  48.01800 32.63500 21.80000
H  49.65600 35.27400 20.32400
H  48.47400 35.98500 21.54200
H  48.10600 34.50100 20.71800
H  50.35500 31.41900 23.19800
H  50.54500 31.96200 21.48200
H  49.41100 30.03300 20.77400
H  48.06300 30.42000 21.76300
H  49.33700 29.54100 22.53500
H  46.30900 28.58900 26.15900
H  46.16400 29.56200 24.63000
H  44.88700 29.53500 25.82000
H  44.63700 32.68800 29.79000
H  45.22100 32.46200 33.83700
H  45.20200 30.73200 33.65000
H  43.62400 31.58700 33.62100

