158

Mg 45.69200 5.26600 47.33500
C  43.43300 7.88700 46.47700
C  42.95800 3.05900 46.91200
C  47.73100 2.64900 47.21200
C  48.28300 7.55300 47.45400
N  43.45900 5.45300 46.40900
C  42.82300 6.67500 46.23600
C  41.35100 6.46400 45.88500
C  41.17500 4.91400 46.26800
C  42.57700 4.41600 46.59200
C  40.27800 4.62700 47.41800
C  40.99400 6.78300 44.32800
C  39.97800 7.86000 44.02600
H  40.39000 8.83300 42.90900
N  45.43400 3.14900 47.09200
C  44.19800 2.45900 47.03900
C  44.49100 1.07200 46.92700
C  45.86600 0.81200 46.90600
C  46.43900 2.23900 47.00800
C  43.33700 0.06700 46.89600
C  46.51100 -0.60600 46.71900
O  45.80500 -1.58500 46.54200
C  48.01300 -0.69100 46.64200
N  47.72900 5.17100 47.22200
C  48.30000 3.95900 47.37200
C  49.87200 4.09700 47.52200
C  50.05400 5.65900 47.77300
C  48.59900 6.17100 47.49300
C  50.51200 3.24600 48.67700
C  51.08400 6.33700 46.83400
C  51.93700 7.62100 47.30800
N  45.86500 7.30000 47.14200
C  47.00900 8.12200 47.14400
C  46.56500 9.50200 47.00800
C  45.20300 9.43900 46.82200
C  44.78500 8.08400 46.80900
C  47.52500 10.59900 46.98500
C  44.03800 10.25900 46.62000
O  43.94500 11.47600 46.58000
C  42.86000 9.33400 46.28200
C  41.72500 9.55900 47.24000
O  41.48900 8.97300 48.29500
O  40.88000 10.44800 46.69400
C  39.56000 10.67100 47.45100
H  42.09800 2.39200 46.99300
H  48.45500 1.83300 47.26300
H  49.10900 8.21000 47.73100
H  40.81100 7.10800 46.57900
H  40.83300 4.32100 45.41900
H  40.49300 3.65800 47.87000
H  39.22400 4.78400 47.19000
H  40.42800 5.31100 48.25400
H  40.49500 5.91000 43.90700
H  41.92200 6.99500 43.79800
H  39.99800 8.47000 44.92900
H  39.04200 7.36400 43.77000
H  43.53400 -0.79700 47.53000
H  43.27700 -0.35700 45.89400
H  42.30500 0.38200 47.05300
H  48.54200 -0.39200 47.54700
H  48.32400 0.00100 45.85900
H  48.21900 -1.73900 46.42400
H  50.37700 3.95600 46.56700
H  50.32300 5.87700 48.80700
H  51.34600 2.64100 48.32200
H  49.72100 2.67700 49.16700
H  50.92300 3.71800 49.57000
H  50.60300 6.63700 45.90400
H  51.78300 5.51500 46.68100
H  52.79800 7.23900 47.85600
H  51.41600 8.18500 48.08100
H  52.08500 8.33200 46.49400
H  48.01500 10.77600 47.94300
H  46.90200 11.37600 46.54300
H  48.18900 10.15600 46.24200
H  42.52000 9.46600 45.25500
H  39.68400 11.33700 48.30500
H  39.07800 9.77100 47.83500
H  38.86300 11.08600 46.72300
Mg 27.57600 50.82800 26.11300
C  25.48000 51.72900 28.81700
C  29.68500 49.50400 28.35000
C  29.80900 50.57200 23.65200
C  25.34000 52.53900 24.00400
N  27.53500 50.61800 28.35300
C  26.59900 51.06600 29.28800
C  26.99100 50.63100 30.66000
C  28.46500 50.24900 30.52800
C  28.61800 50.12300 28.97700
C  29.55400 51.22000 31.16300
C  26.07900 49.52000 31.21800
C  25.62000 49.59000 32.64300
H  26.56000 49.97500 33.73700
N  29.48700 50.08600 26.00000
C  30.17900 49.51800 27.03400
C  31.50500 49.10600 26.60400
C  31.59300 49.45900 25.24800
C  30.28800 50.08500 24.91000
C  32.46600 48.32200 27.42400
C  32.76000 49.42700 24.31800
O  32.69700 49.94300 23.20500
C  34.03200 48.87000 24.83400
N  27.61200 51.61600 24.12100
C  28.59800 51.23500 23.24600
C  28.21700 51.41900 21.72600
C  26.84000 52.16700 21.89500
C  26.52500 52.10800 23.43300
C  29.25700 52.22200 20.92000
C  25.70000 51.54900 21.06800
C  25.19500 50.17200 21.49800
N  25.80600 51.97700 26.32500
C  24.97500 52.54000 25.38100
C  23.80600 53.18600 25.96200
C  23.96800 52.88500 27.31800
C  25.19700 52.15600 27.49800
C  22.68400 54.00000 25.26900
C  23.41000 53.04900 28.62700
O  22.34600 53.58800 28.97600
C  24.34700 52.33000 29.60700
C  24.79500 53.38000 30.66200
O  25.59800 54.31800 30.42200
O  24.16700 53.15300 31.86500
C  24.68800 53.91600 33.04000
H  30.48600 49.12000 28.98500
H  30.38300 50.51000 22.72500
H  24.55700 53.04400 23.43500
H  26.93900 51.51300 31.29800
H  28.59000 49.20200 30.80600
H  29.04900 51.96000 31.78500
H  30.09600 51.64600 30.31900
H  30.22800 50.70500 31.84800
H  26.48300 48.51200 31.12100
H  25.18000 49.56200 30.60300
H  25.14400 48.65100 32.92800
H  24.84500 50.35600 32.65600
H  33.45500 48.74700 27.59000
H  32.63400 47.34700 26.96700
H  32.05000 48.03500 28.39000
H  34.70800 48.80600 23.98100
H  33.75900 47.84600 25.09200
H  34.29000 49.51500 25.67500
H  28.31400 50.39600 21.36400
H  26.83500 53.20300 21.55600
H  30.08000 52.63600 21.50200
H  28.68000 53.00300 20.42400
H  29.70700 51.62300 20.12800
H  26.20900 51.50200 20.10600
H  24.86700 52.24200 20.94600
H  25.36200 49.46700 20.68300
H  24.19800 50.10700 21.93300
H  25.87200 49.78300 22.25800
H  21.77700 54.09300 25.86600
H  22.40200 53.37100 24.42400
H  23.03000 55.01400 25.06900
H  23.78000 51.52600 30.07500
H  24.78100 54.97800 32.81300
H  25.65200 53.49700 33.32800
H  23.96100 53.97700 33.85000

