158

Mg 26.16500 0.90500 29.36400
C  27.87600 0.55200 32.31300
C  23.16600 1.29200 31.18600
C  24.39600 0.94300 26.48500
C  29.14200 -0.03500 27.52900
N  25.62100 0.75900 31.57300
C  26.49500 0.73300 32.54300
C  25.78300 1.17100 33.88000
C  24.23900 1.07300 33.48100
C  24.32100 1.06200 31.92700
C  23.38200 -0.14100 34.05700
C  26.15200 2.56400 34.38000
C  27.03000 2.64400 35.64600
H  26.54600 3.63900 36.69300
N  24.06200 1.14300 28.84300
C  22.99600 1.27400 29.77700
C  21.74200 1.41900 29.03100
C  22.12100 1.42700 27.62500
C  23.54900 1.10900 27.58300
C  20.36800 1.50800 29.70500
C  21.21900 1.71700 26.43000
O  21.66000 1.67400 25.26200
C  19.79700 2.11800 26.52500
N  26.63400 0.45000 27.32700
C  25.74600 0.59800 26.31900
C  26.46900 0.23200 24.97800
C  27.88600 -0.25000 25.36300
C  27.90700 0.06700 26.83100
C  25.62000 -0.66400 24.02400
C  28.97900 0.30600 24.52200
C  29.27000 1.78500 24.79200
N  28.14500 0.43300 29.73700
C  29.25200 0.13100 28.97900
C  30.45500 0.14700 29.75700
C  29.93100 0.27900 31.07900
C  28.57000 0.47300 30.98100
C  31.81400 -0.30100 29.35100
C  30.25300 0.36200 32.44500
O  31.31300 0.16700 33.02400
C  28.97500 0.59600 33.30300
C  28.75600 -0.46800 34.39000
O  28.55900 -1.64500 34.21800
O  29.01200 0.13700 35.58400
C  28.85700 -0.73900 36.74500
H  22.21600 1.58100 31.64100
H  23.87600 0.99900 25.52700
H  30.07200 -0.00300 26.95800
H  26.09600 0.56500 34.72900
H  23.71100 2.00500 33.68400
H  22.75000 -0.60600 33.30100
H  22.73600 0.27400 34.83000
H  23.89100 -0.94000 34.59600
H  25.21900 3.06700 34.63700
H  26.70100 3.15000 33.64400
H  28.05900 2.89500 35.38900
H  27.02700 1.67300 36.14000
H  19.92800 2.48800 29.52300
H  20.49400 1.43000 30.78500
H  19.64500 0.77200 29.35200
H  19.82300 3.02400 27.13100
H  19.26700 1.27600 26.97100
H  19.44000 2.46000 25.55400
H  26.62300 1.15400 24.41900
H  27.85800 -1.33900 25.40400
H  26.11900 -1.58200 23.71300
H  25.38700 -0.08000 23.13400
H  24.70900 -1.01400 24.51000
H  28.76200 0.15700 23.46500
H  29.86300 -0.28700 24.75800
H  28.36500 2.29100 25.13000
H  29.70500 2.32900 23.95300
H  30.15200 1.78500 25.43200
H  31.88200 -0.45500 28.27400
H  31.89000 -1.27500 29.83300
H  32.51600 0.45800 29.69500
H  28.99900 1.62400 33.66600
H  27.84900 -1.15300 36.73100
H  29.20000 -0.28600 37.67600
H  29.65800 -1.47600 36.67900
Mg -4.59000 25.49800 26.49200
C  -3.41100 26.82100 29.54100
C  -6.31500 23.09600 28.42000
C  -5.47400 23.86500 23.67900
C  -2.38500 27.44900 24.82700
N  -4.64500 24.90900 28.69800
C  -4.15200 25.67900 29.68600
C  -4.65800 25.13700 31.02800
C  -5.34500 23.77300 30.69700
C  -5.47800 23.92300 29.21800
C  -4.53700 22.52100 31.18600
C  -5.70200 26.15600 31.59200
C  -5.57200 26.47800 33.09100
H  -5.17200 25.40600 34.06100
N  -5.81300 23.81900 26.06800
C  -6.51800 22.99000 26.99800
C  -7.38200 22.06800 26.36700
C  -7.11100 22.22900 24.92200
C  -6.03400 23.29500 24.84000
C  -8.26900 21.09700 26.99300
C  -7.70800 21.42000 23.76900
O  -7.37300 21.61400 22.59800
C  -8.71600 20.36800 23.94600
N  -4.02200 25.64300 24.43000
C  -4.56200 24.89400 23.41200
C  -3.83200 25.24500 22.04900
C  -3.05600 26.52600 22.48000
C  -3.16700 26.60600 24.03200
C  -2.98300 24.01000 21.52400
C  -3.53800 27.85700 21.76800
C  -3.06200 28.22500 20.30400
N  -3.09100 26.86000 27.03800
C  -2.32900 27.71100 26.24200
C  -1.68000 28.74000 26.99400
C  -2.05500 28.45500 28.33500
C  -2.90100 27.32400 28.29300
C  -0.76100 29.74800 26.46200
C  -2.02700 28.88200 29.69700
O  -1.51400 29.86200 30.21400
C  -2.88700 27.87100 30.54400
C  -1.81100 27.29400 31.40700
O  -1.33600 26.21600 31.22400
O  -1.84100 27.88400 32.64600
C  -1.00600 27.15600 33.68200
H  -6.93900 22.45700 29.04800
H  -5.87600 23.37400 22.79000
H  -1.87300 28.22400 24.25200
H  -3.88300 25.04700 31.79000
H  -6.33000 23.81300 31.16100
H  -3.63300 22.95200 31.61600
H  -4.28300 21.97700 30.27600
H  -5.12000 21.99100 31.93900
H  -6.73400 25.88900 31.36700
H  -5.44400 27.12400 31.16100
H  -6.53900 26.85600 33.42200
H  -4.92500 27.33000 33.30200
H  -8.20400 21.23600 28.07200
H  -7.90200 20.09200 26.78400
H  -9.31900 21.17600 26.71300
H  -9.62500 20.76600 24.39800
H  -8.28900 19.59800 24.58900
H  -9.03400 19.97000 22.98200
H  -4.61300 25.51900 21.34000
H  -1.98400 26.40300 22.32300
H  -1.98300 24.34300 21.24600
H  -3.43200 23.57800 20.63000
H  -2.90700 23.17500 22.22100
H  -3.19000 28.59700 22.48900
H  -4.62700 27.85800 21.78400
H  -3.89600 28.39200 19.62300
H  -2.45200 27.42700 19.88000
H  -2.38400 29.07700 20.24700
H  -0.28000 29.33100 25.57700
H  -0.01000 30.11000 27.16400
H  -1.42100 30.60800 26.34900
H  -3.76600 28.30600 31.01900
H  0.02300 27.08900 33.33000
H  -1.39200 26.18000 33.97500
H  -0.94300 27.85700 34.51400

