158

Mg 41.02200 8.95100 29.37600
C  42.81500 10.07000 32.11700
C  38.39400 7.94500 31.44700
C  39.33900 7.69800 26.72000
C  43.82700 9.62700 27.41900
N  40.71900 8.95400 31.56500
C  41.52300 9.61600 32.45600
C  40.77600 9.66300 33.76600
C  39.48300 8.82500 33.58600
C  39.46400 8.55600 32.07200
C  39.52200 7.47000 34.39800
C  40.49100 11.09400 34.27500
C  39.90800 11.11200 35.71500
H  40.77800 11.72900 36.70800
N  39.16500 7.89800 29.12200
C  38.14200 7.69600 30.09000
C  36.93300 7.09000 29.53800
C  37.15900 7.07000 28.09600
C  38.64800 7.54500 27.90900
C  35.70600 6.67400 30.41100
C  36.12700 6.68800 26.95700
O  36.47300 6.54800 25.77900
C  34.74500 6.51600 27.29200
N  41.54500 8.50100 27.41100
C  40.68500 8.08400 26.49100
C  41.31600 7.99000 25.07100
C  42.56800 8.99900 25.28800
C  42.66700 9.04800 26.81500
C  41.62600 6.60700 24.53700
C  42.48800 10.40000 24.70400
C  43.43100 10.78400 23.53500
N  42.90800 9.78000 29.63000
C  43.99700 9.90500 28.74500
C  45.13500 10.49200 29.40900
C  44.61100 10.65200 30.72400
C  43.34300 10.10800 30.79800
C  46.45300 10.96500 28.75100
C  45.01100 11.07500 32.02000
O  45.97600 11.71100 32.36900
C  43.86300 10.74600 32.93900
C  44.28300 9.90900 34.10100
O  44.96800 8.88700 34.12100
O  43.82700 10.40000 35.26300
C  44.23300 9.64900 36.49700
H  37.58400 7.73200 32.14700
H  38.83000 7.35500 25.81700
H  44.59600 9.88300 26.68700
H  41.52000 9.17100 34.39300
H  38.53600 9.32700 33.78800
H  39.96800 6.70500 33.76200
H  38.46600 7.40900 34.66200
H  40.01500 7.59100 35.36300
H  39.67200 11.47400 33.66500
H  41.39500 11.69000 34.15800
H  39.59100 10.09100 35.92600
H  39.03600 11.76300 35.78500
H  34.73200 6.87400 29.96400
H  35.67400 6.99400 31.45300
H  35.71200 5.59200 30.28400
H  34.62100 5.65300 27.94700
H  34.18700 6.31100 26.37900
H  34.41500 7.49800 27.63000
H  40.58900 8.45000 24.40200
H  43.49200 8.52600 24.95600
H  42.69900 6.42200 24.58200
H  41.17900 6.57600 23.54300
H  41.09400 5.82700 25.08200
H  42.50500 11.21800 25.42500
H  41.53000 10.55600 24.20800
H  43.60900 9.81600 23.06600
H  44.36100 11.12300 23.99200
H  43.02200 11.60500 22.94700
H  46.28600 12.03000 28.59400
H  46.72500 10.42400 27.84500
H  47.26800 10.69200 29.42100
H  43.36200 11.60200 33.39200
H  44.36400 8.60500 36.21300
H  43.43800 9.85800 37.21400
H  45.16200 10.01000 36.93800
Mg -4.77900 25.81600 26.10700
C  -3.56900 27.62800 28.84900
C  -6.41400 23.67100 28.24000
C  -5.84100 24.02100 23.35100
C  -2.57500 27.61600 24.00400
N  -4.80500 25.58800 28.22800
C  -4.36700 26.48100 29.19600
C  -4.79100 25.90300 30.64200
C  -5.27200 24.50900 30.34600
C  -5.52700 24.57800 28.85800
C  -4.43200 23.34300 30.89800
C  -5.91600 26.88000 31.10700
C  -6.60400 26.64400 32.48500
H  -5.97100 25.66200 33.53300
N  -6.08600 24.11600 25.80100
C  -6.69700 23.45100 26.82600
C  -7.63700 22.52200 26.24500
C  -7.48900 22.53300 24.79000
C  -6.47300 23.60300 24.51400
C  -8.54300 21.71200 27.12700
C  -8.10800 21.61400 23.76000
O  -7.79400 21.61800 22.54800
C  -9.03500 20.47900 24.13800
N  -4.25500 25.81500 23.94700
C  -4.73600 24.87500 23.09900
C  -4.15200 25.10200 21.71500
C  -2.97000 26.16500 21.94100
C  -3.30400 26.58200 23.39100
C  -3.63300 23.75200 20.98700
C  -3.04800 27.42700 20.98500
C  -2.43000 27.24300 19.58100
N  -3.40500 27.35900 26.30000
C  -2.62600 28.06500 25.40200
C  -1.88000 29.11000 26.11300
C  -2.20500 28.99700 27.47500
C  -3.09900 27.91000 27.50700
C  -1.07000 30.10700 25.48700
C  -2.01700 29.52900 28.80600
O  -1.28600 30.46200 29.18400
C  -2.91300 28.66300 29.72400
C  -2.02200 28.07400 30.77500
O  -1.00500 27.49700 30.61600
O  -2.73900 28.25500 31.98600
C  -2.09500 27.62800 33.22400
H  -6.82500 22.94200 28.94100
H  -6.22500 23.55700 22.43900
H  -1.73800 28.10800 23.50500
H  -3.98100 25.80000 31.36500
H  -6.30200 24.42700 30.69300
H  -4.94200 22.91300 31.76100
H  -3.49100 23.73800 31.28100
H  -4.30000 22.57900 30.13200
H  -6.67900 26.78300 30.33500
H  -5.55300 27.90600 31.05600
H  -7.65400 26.42600 32.29100
H  -6.59100 27.65100 32.90300
H  -9.54400 21.80500 26.70400
H  -8.62300 22.14200 28.12500
H  -8.25600 20.66000 27.11200
H  -10.05600 20.82800 24.29000
H  -8.61600 19.89600 24.95900
H  -9.12900 19.86200 23.24500
H  -4.91800 25.47900 21.03800
H  -2.00700 25.65400 21.95000
H  -2.55200 23.65300 20.88500
H  -4.05300 23.65000 19.98700
H  -3.96500 22.94400 21.63900
H  -2.45700 28.24200 21.40100
H  -4.05200 27.80700 20.79000
H  -1.38500 27.55300 19.61000
H  -3.00000 27.85600 18.88300
H  -2.42700 26.18000 19.34100
H  -1.62500 31.03600 25.36300
H  -0.76800 29.71400 24.51600
H  -0.14100 30.23400 26.04300
H  -3.65300 29.32300 30.17800
H  -2.02600 26.57100 32.96500
H  -2.82600 27.66900 34.03100
H  -1.06600 27.91300 33.44500

