158

Mg 55.32500 22.09500 44.39900
C  53.02500 24.88500 43.70900
C  53.09300 19.97700 43.09700
C  57.81300 19.79200 43.95700
C  57.72700 24.57300 45.18900
N  53.30700 22.47600 43.39400
C  52.50000 23.55700 43.29500
C  51.12100 23.17000 42.75700
C  51.14600 21.61600 42.90900
C  52.59400 21.31900 43.16100
C  50.22100 21.13400 44.06400
C  50.92100 23.65300 41.26200
C  52.10600 23.86400 40.34800
H  51.92400 24.85700 39.20700
N  55.46700 20.15900 43.63300
C  54.35600 19.43200 43.25000
C  54.74100 17.99900 43.14200
C  56.08700 17.94800 43.54100
C  56.57000 19.28100 43.67200
C  53.70800 16.89700 42.88000
C  56.85700 16.64100 43.62500
O  56.21900 15.62400 43.54900
C  58.33400 16.43700 43.84400
N  57.49300 22.20000 44.38500
C  58.24200 21.09000 44.20800
C  59.70700 21.42600 44.57400
C  59.68500 22.95200 44.89700
C  58.19400 23.29500 44.80800
C  60.31800 20.56700 45.70200
C  60.47200 23.91600 43.91400
C  61.82200 24.29400 44.39200
N  55.37900 24.25200 44.59300
C  56.45100 25.06300 45.03300
C  55.94100 26.43300 45.17200
C  54.62200 26.44600 44.55900
C  54.33000 25.08300 44.26600
C  56.81700 27.61600 45.49700
C  53.49900 27.27000 44.20100
O  53.29700 28.46000 44.39000
C  52.40900 26.28000 43.64600
C  51.84900 26.76900 42.28600
O  52.47600 27.03100 41.28700
O  50.51100 27.00900 42.39200
C  49.81900 27.68400 41.24000
H  52.35600 19.20400 42.86900
H  58.61500 19.05200 44.00300
H  58.50200 25.23700 45.57800
H  50.45200 23.71200 43.42600
H  50.69400 21.09300 42.06500
H  49.46200 20.48600 43.62700
H  49.67000 21.95900 44.51500
H  50.87400 20.70500 44.82400
H  50.24900 24.51100 41.29500
H  50.40900 22.80300 40.81100
H  52.36900 22.86300 40.00800
H  52.97200 24.20900 40.91500
H  53.53700 16.78300 41.81000
H  52.74300 17.28500 43.20800
H  53.75400 15.92300 43.36700
H  58.62800 16.85500 44.80700
H  58.82100 16.98700 43.03900
H  58.48900 15.36200 43.74400
H  60.36000 21.32100 43.70800
H  59.96200 23.09600 45.94100
H  61.38600 20.42000 45.54200
H  59.74000 19.66600 45.90900
H  60.37700 21.17900 46.60200
H  59.87600 24.75200 43.55000
H  60.52500 23.32900 42.99700
H  62.58700 23.87100 43.74100
H  62.04300 23.89300 45.38100
H  62.00400 25.36800 44.35300
H  57.51300 27.55300 46.33400
H  56.27800 28.56300 45.53600
H  57.42500 27.68700 44.59500
H  51.55000 26.24100 44.31700
H  49.96100 28.73400 41.49600
H  48.77700 27.36900 41.18800
H  50.30300 27.46800 40.28800
Mg 30.66000 58.61000 41.67000
C  27.80300 56.99000 40.74000
C  32.46700 56.05700 40.17400
C  33.53300 60.50200 42.03400
C  28.81800 61.52400 42.39600
N  30.13500 56.92500 40.38600
C  28.90300 56.38700 40.28400
C  28.96000 54.98200 39.56600
C  30.44600 54.51100 39.87300
C  31.05700 55.90300 40.21600
C  30.44900 53.60800 41.06000
C  28.57000 54.98900 38.13200
C  27.39000 54.14500 37.64100
H  26.61500 54.79200 36.46300
N  32.70000 58.32900 41.09300
C  33.23400 57.15100 40.56500
C  34.66400 57.32500 40.49300
C  34.97100 58.57200 41.03100
C  33.73100 59.22600 41.40500
C  35.56800 56.23400 40.07300
C  36.37200 59.16800 41.16200
O  37.39300 58.46500 41.10200
C  36.62900 60.63900 41.41400
N  31.18000 60.69800 42.20500
C  32.36800 61.20100 42.28200
C  32.43900 62.65600 42.73400
C  30.89800 62.98200 42.79800
C  30.22400 61.66400 42.46600
C  33.43600 63.05700 43.83300
C  30.53500 64.18300 42.00800
C  29.48000 65.12700 42.62500
N  28.75700 59.16000 41.86200
C  28.10800 60.36100 42.11400
C  26.67700 60.20300 42.03000
C  26.49900 58.83600 41.41600
C  27.79700 58.28500 41.32500
C  25.60100 61.25700 42.37500
C  25.50100 57.88200 40.95700
O  24.29500 57.99700 40.95000
C  26.26400 56.57600 40.54400
C  25.99000 55.43400 41.48900
O  26.82800 55.00000 42.31000
O  24.75900 54.83200 41.25500
C  24.53100 53.63700 42.03100
H  33.06700 55.21100 39.83100
H  34.34300 61.21500 42.20200
H  28.16900 62.39500 42.51300
H  28.15700 54.38300 39.99500
H  30.93600 54.07100 39.00400
H  31.31200 53.75100 41.71000
H  30.59100 52.62800 40.60300
H  29.53800 53.50200 41.64800
H  29.38000 54.64900 37.48700
H  28.31300 56.02700 37.92000
H  26.72000 54.01500 38.49000
H  27.70300 53.18300 37.23700
H  35.86300 56.25100 39.02400
H  35.11900 55.27500 40.33200
H  36.54600 56.17200 40.55100
H  36.40200 60.96200 42.43000
H  35.93600 61.22700 40.81300
H  37.70000 60.83600 41.38100
H  32.87100 63.31200 41.97800
H  30.61600 63.15500 43.83700
H  32.91000 63.44800 44.70400
H  34.06500 63.87900 43.49300
H  34.03900 62.18700 44.09500
H  30.20400 63.83700 41.02900
H  31.34400 64.85400 41.72100
H  28.63700 65.10200 41.93400
H  29.78100 66.17200 42.70000
H  29.18200 64.85000 43.63600
H  24.58200 60.91000 42.20500
H  25.67200 62.08900 41.67400
H  25.60700 61.62900 43.40000
H  25.86000 56.20400 39.60200
H  25.31100 52.88000 41.96000
H  23.54700 53.21700 41.82000
H  24.37900 53.89800 43.07800

