158

Mg -0.60000 7.04200 26.52200
C  0.59700 8.97700 29.36600
C  -0.74900 4.38300 28.63300
C  -1.09500 5.29600 23.79400
C  0.06000 9.87000 24.55500
N  0.00300 6.72700 28.78900
C  0.31800 7.66300 29.74900
C  0.13900 7.02500 31.14800
C  -0.17900 5.52700 30.87300
C  -0.36200 5.52100 29.34700
C  0.80100 4.46000 31.52400
C  -1.03200 7.70800 31.91800
C  -0.76400 8.33900 33.25600
H  0.27000 7.74000 34.25100
N  -0.83100 5.05000 26.22900
C  -0.91900 4.13500 27.17000
C  -1.38400 2.84800 26.57400
C  -1.35500 3.06800 25.13500
C  -1.05400 4.54700 24.99900
C  -1.79200 1.62800 27.41200
C  -1.67900 2.09700 24.04000
O  -1.63900 2.32400 22.81800
C  -2.04300 0.60100 24.22400
N  -0.39100 7.45400 24.48000
C  -0.81900 6.57200 23.50200
C  -0.62700 7.11300 22.08500
C  -0.67200 8.67000 22.38600
C  -0.27900 8.72000 23.87900
C  0.75600 6.67400 21.45900
C  -2.15300 9.32000 22.23700
C  -2.31400 10.07600 20.95000
N  0.15600 8.95000 26.82400
C  0.32000 10.01700 25.92800
C  0.70500 11.23200 26.59200
C  0.96500 10.87600 27.90100
C  0.51900 9.52700 28.00300
C  0.89300 12.62400 26.00800
C  1.26300 11.39900 29.22200
O  1.71200 12.46900 29.63700
C  0.96600 10.19800 30.23900
C  2.19000 9.95700 31.05800
O  3.25200 9.47800 30.67300
O  2.09700 10.47100 32.25300
C  3.30200 10.39700 33.07300
H  -0.80900 3.48000 29.24400
H  -1.22600 4.64200 22.92900
H  0.06400 10.79800 23.97900
H  1.05600 7.17000 31.71900
H  -1.15200 5.34500 31.32900
H  0.31300 3.89300 32.31700
H  1.75000 4.88900 31.84500
H  1.15800 3.75900 30.77000
H  -1.96900 7.16800 32.05400
H  -1.21700 8.55300 31.25500
H  -1.68500 8.30500 33.83900
H  -0.46100 9.36800 33.06300
H  -1.35500 1.55200 28.40800
H  -1.28200 0.75500 27.00400
H  -2.86600 1.65900 27.59300
H  -2.72200 0.32900 25.03300
H  -1.15700 0.06100 24.56000
H  -2.35200 0.29300 23.22500
H  -1.57000 6.95000 21.56300
H  -0.00800 9.40700 21.93300
H  0.98300 5.82100 22.09900
H  1.59200 7.37100 21.40300
H  0.60900 6.35400 20.42700
H  -2.41900 10.00400 23.04300
H  -2.86800 8.51300 22.07100
H  -1.56900 9.70000 20.24800
H  -2.15800 11.12300 21.20800
H  -3.36900 10.04200 20.67600
H  -0.07100 12.89000 25.57200
H  1.56000 12.52800 25.15200
H  1.25600 13.38800 26.69500
H  0.21500 10.54000 30.95100
H  2.88300 10.50400 34.07300
H  4.06900 11.11300 32.77700
H  3.79000 9.42200 33.06200
Mg 15.71800 -2.10700 27.34000
C  15.08800 -0.05800 30.05600
C  17.88600 -3.95700 29.34600
C  16.88400 -3.76800 24.63700
C  14.07200 0.12200 25.16100
N  16.57200 -1.93300 29.41200
C  15.93500 -1.11800 30.41900
C  16.41000 -1.55800 31.81400
C  17.50600 -2.66200 31.47600
C  17.40700 -2.85200 29.93200
C  19.04400 -2.34400 31.86400
C  15.23500 -1.92200 32.74900
C  15.29300 -1.19100 34.10300
H  16.52800 -0.37500 34.47300
N  16.97800 -3.68900 27.04900
C  17.78400 -4.32700 27.98700
C  18.21100 -5.61800 27.48600
C  18.02300 -5.58000 26.07700
C  17.26700 -4.31500 25.85000
C  18.87900 -6.69200 28.36400
C  18.35900 -6.52600 25.00300
O  18.04600 -6.40700 23.79500
C  19.17100 -7.76300 25.38000
N  15.58300 -1.71700 25.13200
C  16.20700 -2.58700 24.28300
C  15.83800 -2.20900 22.85600
C  14.63200 -1.25900 22.98100
C  14.77800 -0.88200 24.48700
C  16.96500 -1.60000 22.06000
C  13.22000 -1.84600 22.69700
C  12.62100 -1.71500 21.25000
N  14.75300 -0.36800 27.48700
C  14.03200 0.36900 26.55300
C  13.42500 1.51100 27.20200
C  13.68100 1.29700 28.61700
C  14.56900 0.20300 28.70000
C  12.56900 2.60600 26.55800
C  13.46400 1.82000 29.90500
O  12.76400 2.83400 30.23600
C  14.35700 0.94300 30.93200
C  15.31400 1.78800 31.68000
O  16.54900 1.87500 31.52100
O  14.61800 2.69300 32.41700
C  15.40100 3.66600 33.18700
H  18.52200 -4.56700 29.99100
H  16.99300 -4.43900 23.78300
H  13.40300 0.71000 24.53000
H  16.88200 -0.63800 32.15800
H  17.19800 -3.56100 32.01100
H  19.41400 -3.00200 32.65000
H  19.01300 -1.31600 32.22400
H  19.58600 -2.34900 30.91800
H  15.28800 -2.96500 33.06100
H  14.30300 -1.61500 32.27500
H  15.32500 -1.97200 34.86300
H  14.40600 -0.62900 34.39500
H  18.67400 -7.72100 28.06800
H  18.71700 -6.66200 29.44200
H  19.94700 -6.58900 28.17600
H  19.63700 -8.04300 24.43500
H  18.60900 -8.60700 25.78000
H  19.96500 -7.35200 26.00200
H  15.46100 -3.11800 22.38700
H  14.88600 -0.42000 22.33400
H  16.57500 -1.05400 21.20000
H  17.61000 -2.44700 21.82500
H  17.54700 -0.81900 22.54800
H  12.48700 -1.50100 23.42500
H  13.22600 -2.92200 22.87100
H  11.61600 -1.29500 21.28400
H  12.47200 -2.70400 20.81700
H  13.24300 -1.04800 20.65200
H  12.97800 3.11400 25.68500
H  12.42400 3.42000 27.26900
H  11.68900 2.02600 26.27900
H  13.63900 0.52800 31.63900
H  16.22400 4.12900 32.64200
H  15.78900 3.22400 34.10500
H  14.69600 4.46500 33.41700

