158

Mg 41.38200 9.26700 30.24300
C  42.96000 10.39200 33.10600
C  39.01400 7.66400 32.20900
C  39.64200 8.37500 27.47100
C  43.85200 10.61000 28.42500
N  41.06900 9.01700 32.35300
C  41.82500 9.58100 33.34100
C  41.08900 9.51700 34.67700
C  40.02400 8.35100 34.42500
C  40.04900 8.29200 32.90200
C  40.46400 6.99600 34.98400
C  40.45200 10.89300 35.01200
C  40.17500 11.08900 36.57100
H  40.89100 12.01300 37.51400
N  39.62600 8.20000 29.88400
C  38.77400 7.62600 30.84000
C  37.59600 7.00700 30.10500
C  37.68200 7.31700 28.71900
C  39.03000 7.98300 28.63600
C  36.45600 6.31000 30.81700
C  36.67900 7.10400 27.62100
O  36.84600 7.56300 26.49200
C  35.40400 6.25800 27.89400
N  41.68500 9.44800 28.29400
C  40.89000 8.98200 27.35700
C  41.56100 9.06800 25.95100
C  42.83100 9.96700 26.24400
C  42.80800 10.02100 27.74300
C  41.82900 7.71700 25.27500
C  42.85000 11.37900 25.55300
C  41.62900 12.32200 25.85700
N  43.08300 10.25700 30.63000
C  44.07100 10.73700 29.83600
C  45.07900 11.42700 30.57200
C  44.71200 11.31400 31.89500
C  43.51300 10.64500 31.87200
C  46.38100 12.01900 30.01500
C  45.07300 11.60100 33.28100
O  45.92000 12.27600 33.77000
C  43.87900 11.09500 34.08900
C  44.42500 10.21200 35.12700
O  44.99100 9.11400 34.87900
O  44.25600 10.80100 36.35900
C  44.57000 10.09100 37.59500
H  38.27500 7.13800 32.81700
H  39.15900 8.23700 26.50100
H  44.66500 11.11300 27.89700
H  41.62100 9.25500 35.59100
H  39.04400 8.58900 34.83900
H  39.55100 6.71000 35.50600
H  41.33000 6.85100 35.63000
H  40.74400 6.21100 34.28200
H  39.49200 10.96200 34.50000
H  40.95800 11.77400 34.61400
H  40.25800 10.13400 37.09000
H  39.18500 11.52700 36.69300
H  35.57400 6.88700 30.53700
H  36.59600 6.33400 31.89800
H  36.51600 5.28900 30.44000
H  34.81300 6.18800 26.98000
H  34.77000 6.80400 28.59200
H  35.72200 5.27500 28.24100
H  40.86100 9.75100 25.46900
H  43.66000 9.36200 25.87600
H  41.43400 6.88300 25.85300
H  42.90200 7.52300 25.24400
H  41.46100 7.75400 24.24900
H  42.79100 11.16800 24.48600
H  43.80800 11.86000 25.74800
H  41.96500 13.30500 26.18700
H  41.01900 11.92900 26.67000
H  41.00500 12.36100 24.96400
H  46.99700 11.20400 29.63500
H  46.92300 12.71700 30.65200
H  46.17300 12.62400 29.13300
H  43.48400 11.95300 34.63300
H  45.39700 10.58300 38.10700
H  44.90300 9.11800 37.23400
H  43.71700 9.94200 38.25600
Mg 9.90800 48.20400 26.23700
C  7.93500 48.58200 29.12200
C  12.70600 49.24700 28.14000
C  11.63000 48.14600 23.40900
C  6.89700 47.67500 24.48700
N  10.29900 48.86200 28.30700
C  9.34700 48.65300 29.36900
C  9.92900 49.04000 30.71600
C  11.33200 49.65000 30.28800
C  11.46900 49.31600 28.79500
C  11.42000 51.16000 30.61500
C  10.04600 47.78300 31.70600
C  9.82500 48.01100 33.26900
H  9.49400 46.76800 34.09300
N  11.94300 48.58400 25.87200
C  12.93000 48.90300 26.76000
C  14.18500 48.94600 26.03600
C  13.87300 48.57800 24.71700
C  12.42300 48.45500 24.56700
C  15.48000 49.37000 26.74700
C  14.83200 48.35300 23.60100
O  14.43300 48.03300 22.53000
C  16.33800 48.42800 23.69500
N  9.36700 47.89600 24.27700
C  10.27500 47.93500 23.25400
C  9.60800 47.80300 21.84200
C  8.17300 47.27600 22.24400
C  8.13400 47.64300 23.72700
C  9.41900 49.08400 20.98100
C  7.76300 45.82000 21.86900
C  6.47800 45.66600 21.09200
N  7.82800 48.13700 26.66700
C  6.75200 47.92900 25.83400
C  5.53400 47.96800 26.56600
C  5.97100 48.27300 27.89700
C  7.37600 48.37900 27.88800
C  4.18200 47.67200 25.96200
C  5.49200 48.47800 29.27100
O  4.35700 48.67300 29.70900
C  6.82200 48.60600 30.14200
C  6.95700 47.32700 31.01500
O  7.27200 46.21400 30.63500
O  6.19600 47.60900 32.11000
C  5.81500 46.56000 33.01100
H  13.45600 49.66400 28.81500
H  12.12300 48.10900 22.43500
H  6.00100 47.30400 23.98700
H  9.27300 49.80700 31.12700
H  12.20400 49.15400 30.71600
H  11.04400 51.70500 29.75000
H  12.42100 51.31300 31.01800
H  10.77400 51.37900 31.46600
H  11.02800 47.34600 31.52900
H  9.34200 46.99300 31.44600
H  9.03300 48.73700 33.45300
H  10.78100 48.45700 33.54500
H  15.26500 49.24400 27.80800
H  15.88900 50.38100 26.73900
H  16.24000 48.69600 26.35100
H  16.50300 47.57200 24.34900
H  16.74900 49.30300 24.19800
H  16.67800 48.10500 22.71100
H  10.18100 47.17000 21.16500
H  7.53000 47.95100 21.67900
H  9.59000 49.98000 21.57700
H  8.47100 49.32500 20.50100
H  10.18200 48.95800 20.21200
H  7.62600 45.31200 22.82300
H  8.58400 45.44600 21.25700
H  5.91600 44.86700 21.57600
H  6.63800 45.46100 20.03400
H  5.95500 46.62100 21.03800
H  4.15200 46.62600 25.65600
H  3.98900 48.34200 25.12400
H  3.35600 47.84000 26.65300
H  6.95900 49.47600 30.78400
H  5.85000 47.14400 33.93100
H  6.41400 45.65000 32.96800
H  4.76300 46.31800 32.85700

