158

Mg 41.83700 7.57100 29.23600
C  43.50800 9.17400 31.77900
C  39.64200 6.22500 31.55600
C  40.35500 5.91100 26.72300
C  44.14300 8.82400 26.96300
N  41.72000 7.69300 31.46300
C  42.41700 8.48800 32.27200
C  41.86500 8.42900 33.70800
C  40.81000 7.25200 33.62500
C  40.71300 6.99200 32.14200
C  41.11900 5.99500 34.49800
C  41.34500 9.81500 34.03700
C  40.48200 10.00900 35.28500
H  40.98800 11.01300 36.37300
N  40.19500 6.26500 29.16700
C  39.36700 5.87900 30.23100
C  38.31000 4.98900 29.75700
C  38.48500 4.87700 28.38500
C  39.74700 5.71300 28.05000
C  37.33200 4.32300 30.58200
C  37.57800 4.29600 27.33200
O  37.94100 4.18900 26.12100
C  36.24800 3.66900 27.71300
N  42.24200 7.27600 27.11900
C  41.53000 6.62000 26.31700
C  42.08000 6.54300 24.88000
C  42.97900 7.82900 24.86300
C  43.17000 8.01100 26.38000
C  42.88600 5.18100 24.62800
C  42.41800 9.05300 24.07400
C  41.31200 9.84100 24.69300
N  43.53100 8.78200 29.35100
C  44.36500 9.09400 28.35300
C  45.40400 9.87000 28.93400
C  45.12400 10.02100 30.35000
C  43.95200 9.26000 30.48600
C  46.58400 10.38900 28.19700
C  45.51900 10.58900 31.58500
O  46.45200 11.35000 31.90600
C  44.49700 10.12400 32.59400
C  45.33500 9.42400 33.64200
O  45.98200 8.35000 33.54800
O  45.25400 10.11500 34.83500
C  45.98000 9.41800 36.01600
H  38.86400 5.88500 32.24200
H  39.91000 5.45300 25.83700
H  44.86800 9.31100 26.30800
H  42.59200 8.20000 34.48700
H  39.81000 7.61800 33.86000
H  40.31300 5.73500 35.18500
H  42.04800 6.20000 35.03000
H  41.38300 5.14800 33.86500
H  40.82100 10.11500 33.12900
H  42.17900 10.47900 34.26500
H  40.39100 9.03600 35.76700
H  39.54100 10.34900 34.85200
H  36.29700 4.66200 30.63100
H  37.62500 4.38000 31.63000
H  37.24700 3.25800 30.36500
H  35.76000 3.40500 26.77500
H  35.65300 4.34000 28.33200
H  36.34000 2.75400 28.29700
H  41.30600 6.62700 24.11600
H  43.85600 7.56800 24.27200
H  42.49200 4.80900 23.68300
H  42.70800 4.39400 25.36200
H  43.96700 5.28100 24.52700
H  42.11700 8.69500 23.09000
H  43.23800 9.74300 23.87500
H  40.71400 9.26000 25.39500
H  40.71100 10.31000 23.91400
H  41.72700 10.67800 25.25500
H  46.45700 10.40800 27.11500
H  47.36700 9.63900 28.30800
H  47.08900 11.25100 28.63200
H  44.15500 11.06000 33.03600
H  47.05200 9.57100 35.88700
H  45.79900 8.34500 36.09100
H  45.64000 9.81400 36.97300
Mg 46.70600 24.74500 29.03900
C  47.11300 26.80400 31.70900
C  45.49200 22.32200 31.17500
C  46.59000 22.57700 26.48600
C  47.70800 27.22500 26.76600
N  46.37000 24.59000 31.21500
C  46.55100 25.59200 32.06100
C  46.18700 25.17800 33.45600
C  45.64700 23.71000 33.32700
C  45.87400 23.49300 31.86300
C  46.43200 22.62100 34.14500
C  45.15700 26.10500 34.19600
C  45.66100 26.60300 35.58300
H  44.69700 26.71500 36.86000
N  46.18900 22.70700 28.88800
C  45.74100 21.88900 29.88000
C  45.40000 20.60900 29.40100
C  45.86100 20.57500 28.04400
C  46.21100 21.97600 27.67500
C  44.82400 19.57300 30.20700
C  45.99600 19.44700 27.08400
O  46.28400 19.53500 25.88900
C  45.78100 18.07700 27.66700
N  47.14500 24.86900 27.06200
C  47.07100 23.78400 26.17200
C  47.64900 24.12300 24.77200
C  47.42300 25.67200 24.80300
C  47.39900 25.92600 26.32800
C  49.15800 23.65200 24.61500
C  46.15300 26.11300 24.10800
C  44.77600 26.11500 24.86800
N  47.29700 26.66000 29.11000
C  47.66500 27.52800 28.12200
C  47.98000 28.85900 28.77100
C  47.79900 28.56600 30.17300
C  47.37200 27.26000 30.35300
C  48.51200 30.13300 28.21300
C  48.05600 29.04200 31.45300
O  48.43400 30.11300 31.81100
C  47.64800 27.98800 32.50000
C  48.88500 27.68400 33.18700
O  49.80000 26.99400 32.72000
O  48.74700 28.15400 34.46400
C  49.95000 27.87600 35.31000
H  44.97100 21.74900 31.94500
H  46.66000 21.86200 25.66300
H  47.93000 27.97400 26.00300
H  47.15000 25.08000 33.95700
H  44.57600 23.53800 33.42900
H  47.17900 23.08000 34.79200
H  46.89800 21.89900 33.47500
H  45.69500 22.11700 34.76900
H  44.27100 25.50200 34.39800
H  44.88800 27.00400 33.64000
H  46.04900 27.62100 35.58300
H  46.50800 25.96800 35.84300
H  45.42400 18.66300 30.23000
H  43.88000 19.25900 29.76000
H  44.39800 19.82100 31.17900
H  44.79600 17.99900 28.12700
H  46.53900 17.83400 28.41100
H  45.98200 17.26500 26.96800
H  47.00400 23.72600 23.98900
H  48.19800 26.30200 24.36700
H  49.43000 23.38900 25.63700
H  49.83300 24.46000 24.33400
H  49.31600 22.84700 23.89600
H  46.08600 25.61800 23.13900
H  46.17200 27.14600 23.76000
H  44.57400 27.16200 25.09400
H  44.79200 25.54200 25.79500
H  44.08500 25.72300 24.12200
H  47.90900 30.37500 27.33800
H  49.53400 29.98900 27.86100
H  48.50100 30.97300 28.90700
H  46.84800 28.32900 33.15700
H  50.93300 28.18600 34.95400
H  50.02500 26.83800 35.63200
H  49.73400 28.55400 36.13600

