158

Mg 54.40200 23.58400 44.08000
C  51.67800 25.72200 43.11900
C  52.80400 20.95100 42.51900
C  57.30000 22.08400 43.69200
C  55.86600 26.56600 45.11100
N  52.59900 23.42900 42.71700
C  51.57600 24.37300 42.50300
C  50.32600 23.81200 41.94500
C  50.57700 22.26400 42.22400
C  52.05200 22.15200 42.52100
C  49.86300 21.82100 43.53900
C  50.07900 24.04000 40.38400
C  51.28100 24.17000 39.37800
H  50.97900 25.05800 38.08200
N  54.93700 21.69700 43.43400
C  54.12800 20.76700 42.83900
C  54.83700 19.51100 42.86400
C  56.18500 19.82500 43.01200
C  56.16600 21.28100 43.43200
C  54.22800 18.18400 42.33300
C  57.36700 18.85000 42.86300
O  57.16300 17.64800 42.57800
C  58.74300 19.31500 43.04100
N  56.27800 24.33900 44.08700
C  57.32700 23.46300 44.07200
C  58.61600 24.15500 44.55700
C  58.17700 25.57800 45.06500
C  56.66600 25.49300 44.74800
C  59.49300 23.41900 45.68000
C  58.87700 26.76000 44.33400
C  59.19100 27.94300 45.32000
N  53.78800 25.54600 44.54800
C  54.51200 26.70200 44.95000
C  53.66800 27.90500 44.98500
C  52.53300 27.49300 44.34600
C  52.69500 26.12200 43.99800
C  53.99400 29.32300 45.48500
C  51.29800 28.00800 43.83800
O  50.89700 29.19400 43.87000
C  50.58800 26.85100 43.07000
C  50.18900 27.30100 41.70500
O  50.93000 27.51100 40.73800
O  48.87400 27.45900 41.79700
C  48.18900 28.05900 40.66100
H  52.28200 20.03200 42.24400
H  58.26900 21.60400 43.84800
H  56.36300 27.50100 45.37800
H  49.42100 24.22000 42.39400
H  50.36700 21.65600 41.34300
H  49.63000 22.74500 44.06800
H  50.37000 21.10300 44.18400
H  48.92500 21.36000 43.23000
H  49.45000 24.91700 40.23000
H  49.47600 23.24300 39.94800
H  51.62100 23.17100 39.10500
H  52.19300 24.53200 39.85200
H  53.17300 18.03300 42.56100
H  54.68000 17.26800 42.71300
H  54.17500 18.23100 41.24500
H  58.94800 19.38400 44.10900
H  58.95000 20.21200 42.45800
H  59.39700 18.47600 42.80400
H  59.17200 24.29400 43.63000
H  58.31500 25.63700 46.14500
H  60.46000 23.35000 45.18200
H  59.09500 22.42700 45.89200
H  59.62900 23.96300 46.61500
H  58.26200 27.20000 43.54800
H  59.87700 26.55800 43.95000
H  58.97200 27.69300 46.35800
H  58.60900 28.80100 44.98400
H  60.26600 28.11400 45.27400
H  54.87800 29.30500 46.12400
H  53.23500 29.77900 46.12000
H  54.22200 29.89800 44.58700
H  49.76800 26.50400 43.70000
H  48.64300 29.02600 40.44700
H  47.13300 27.83400 40.81300
H  48.55300 27.47600 39.81500
Mg -11.26500 38.00700 42.69500
C  -9.06800 35.40100 41.46800
C  -9.42100 40.19100 40.98600
C  -13.83000 40.00400 42.96700
C  -13.26300 35.32200 44.16400
N  -9.54800 37.74000 41.26100
C  -8.81100 36.61900 40.96700
C  -7.61900 36.97300 40.09900
C  -7.60700 38.57500 40.24600
C  -8.97400 38.89500 40.85600
C  -6.40700 39.13000 41.08400
C  -7.78900 36.46100 38.65400
C  -6.62600 35.60900 38.24200
H  -5.54000 36.26800 37.38200
N  -11.65300 39.88100 42.06400
C  -10.71100 40.66100 41.45700
C  -11.17000 41.97100 41.38800
C  -12.43100 41.99400 42.06600
C  -12.73900 40.59300 42.40900
C  -10.36800 42.96500 40.69200
C  -13.23300 43.21400 42.30200
O  -12.87000 44.34700 41.87500
C  -14.53600 43.14100 43.04000
N  -13.25500 37.65000 43.43600
C  -14.12700 38.70100 43.38100
C  -15.49000 38.28700 43.98200
C  -15.35800 36.72800 44.15900
C  -13.85300 36.52400 43.91000
C  -16.00600 39.11800 45.18500
C  -16.20700 35.81200 43.18700
C  -17.21300 34.86800 43.82000
N  -11.11600 35.85100 42.98100
C  -11.95500 34.94800 43.68800
C  -11.22200 33.64500 43.67400
C  -10.10800 33.78900 42.82800
C  -10.10200 35.13000 42.40200
C  -11.71700 32.49000 44.33900
C  -9.03700 33.05000 42.21300
O  -8.79400 31.82500 42.29500
C  -8.28200 34.08400 41.27300
C  -6.80400 34.02900 41.64000
O  -6.23200 34.83900 42.38700
O  -6.21000 32.98000 41.01000
C  -4.76100 32.75100 41.36100
H  -8.80100 41.03100 40.66600
H  -14.68900 40.67600 43.01800
H  -13.87300 34.52300 44.59100
H  -6.71000 36.55100 40.52700
H  -7.45000 39.08200 39.29400
H  -5.93300 39.78400 40.35200
H  -5.63700 38.42500 41.39800
H  -6.68400 39.73100 41.95000
H  -7.70200 37.33400 38.00800
H  -8.78600 36.04200 38.51600
H  -7.03800 34.70900 37.78400
H  -6.20900 35.18300 39.15500
H  -9.42700 43.19700 41.19000
H  -10.86600 43.91600 40.50200
H  -10.13200 42.69200 39.66300
H  -15.26200 42.66100 42.38300
H  -14.73100 44.18800 43.27300
H  -14.37800 42.67900 44.01500
H  -16.30000 38.38600 43.26000
H  -15.63200 36.38000 45.15500
H  -16.84600 39.63800 44.72500
H  -15.27100 39.86700 45.47900
H  -16.38600 38.49300 45.99200
H  -15.50300 35.22500 42.59600
H  -16.69600 36.37000 42.38800
H  -17.56500 35.37600 44.71900
H  -16.77100 33.92800 44.14800
H  -18.13200 34.79600 43.23900
H  -12.29900 32.49700 45.26100
H  -10.86700 31.96500 44.77500
H  -12.07700 31.66900 43.72100
H  -8.42800 33.78200 40.23600
H  -4.52600 31.73700 41.03600
H  -4.64400 32.89200 42.43500
H  -4.06200 33.47200 40.93700

