158

Mg 48.49800 14.82900 28.39500
C  46.13800 14.90800 30.94500
C  50.67700 16.38100 30.43300
C  50.77600 14.71500 25.84000
C  46.15200 13.36800 26.29600
N  48.36700 15.61000 30.44900
C  47.33500 15.53800 31.34200
C  47.74900 16.10700 32.72100
C  49.15900 16.71700 32.40000
C  49.47700 16.21000 30.93800
C  49.30100 18.28400 32.52100
C  47.86500 14.84300 33.68800
C  47.18900 15.07400 35.08400
H  47.01700 16.44100 35.77000
N  50.42400 15.49600 28.20200
C  51.19700 16.09200 29.16100
C  52.49800 16.31300 28.63700
C  52.52200 15.72400 27.33000
C  51.24600 15.18100 27.07500
C  53.59300 17.02600 29.48700
C  53.65400 15.78800 26.25100
O  53.64600 15.17300 25.16600
C  54.88600 16.61400 26.57000
N  48.35200 14.37700 26.29800
C  49.50800 14.22000 25.55900
C  49.10300 13.61900 24.19100
C  47.70300 13.02400 24.43800
C  47.38600 13.62500 25.80500
C  49.22600 14.51000 22.91800
C  47.59900 11.49800 24.34600
C  46.38900 10.94700 23.60400
N  46.50700 14.38200 28.47300
C  45.71900 13.70900 27.56400
C  44.48600 13.36800 28.23400
C  44.62300 13.71000 29.61600
C  45.85400 14.40000 29.68400
C  43.34000 12.63100 27.66100
C  43.90500 13.76400 30.87200
O  42.79200 13.29500 31.29200
C  44.93400 14.49900 31.72800
C  44.14800 15.60400 32.40900
O  44.02800 16.78800 32.02200
O  43.55000 15.15100 33.53600
C  42.83600 16.10700 34.35400
H  51.47500 16.87900 30.98600
H  51.43000 14.55300 24.98100
H  45.43500 12.90600 25.61400
H  47.04600 16.86500 33.06700
H  49.90500 16.29900 33.07600
H  50.26800 18.48900 32.98000
H  48.49200 18.67400 33.14000
H  49.10500 18.73100 31.54700
H  48.92400 14.61200 33.80600
H  47.36700 13.99800 33.21300
H  47.83800 14.53500 35.77300
H  46.22600 14.56200 35.07600
H  54.01300 17.84200 28.90000
H  54.25100 16.21400 29.79600
H  53.38000 17.56000 30.41300
H  55.46500 16.51600 25.65100
H  55.45500 15.99800 27.26600
H  54.81900 17.67600 26.80700
H  49.84800 12.84000 24.02800
H  47.06200 13.47200 23.67900
H  49.63200 15.45900 23.26900
H  48.30900 14.65900 22.34900
H  50.01600 14.16300 22.25100
H  47.48600 11.15500 25.37400
H  48.53000 11.11500 23.92800
H  46.69700 10.87800 22.56100
H  45.55300 11.63700 23.72200
H  46.07100 9.98100 23.99600
H  43.37700 12.70000 26.57400
H  42.56000 13.18600 28.18300
H  43.39800 11.57500 27.92500
H  45.22600 13.78800 32.50100
H  41.77300 16.23900 34.15200
H  43.30700 17.08900 34.29800
H  42.97100 15.84100 35.40300
Mg 41.46200 41.61300 26.96200
C  40.56500 43.84500 29.29300
C  42.35400 39.30900 29.24500
C  42.68200 39.66100 24.39000
C  41.20700 44.21500 24.43600
N  41.29100 41.56800 29.05500
C  40.91700 42.63300 29.85400
C  40.72000 42.11000 31.32200
C  41.48900 40.75700 31.28200
C  41.67300 40.45700 29.78500
C  42.98400 40.82100 31.75800
C  39.28100 42.05500 31.94800
C  38.90800 43.26500 32.93700
H  38.42300 43.04400 34.33600
N  42.26000 39.70500 26.79600
C  42.58500 38.91200 27.85600
C  43.16300 37.63600 27.34400
C  43.17800 37.71800 25.96400
C  42.65400 39.05800 25.64900
C  43.40700 36.47100 28.25700
C  43.64400 36.66100 24.91400
O  43.56900 36.79400 23.71300
C  44.22300 35.38100 25.39400
N  41.82100 41.86500 24.77700
C  42.31200 40.90500 23.98100
C  42.37500 41.22000 22.50300
C  41.49500 42.52400 22.49100
C  41.54100 42.94700 24.01100
C  43.79700 41.55300 21.96400
C  40.07300 42.30900 21.93900
C  39.28600 41.21300 22.53100
N  41.01200 43.60100 26.87000
C  40.96000 44.51900 25.78400
C  40.48800 45.77900 26.32500
C  40.25200 45.52000 27.70500
C  40.65000 44.20000 27.96900
C  40.29700 47.05500 25.45800
C  39.80200 46.14300 28.93800
O  39.43600 47.29600 29.10900
C  39.95300 45.07900 30.04400
C  40.95300 45.71400 30.95300
O  42.15300 45.67200 30.75900
O  40.32200 46.31400 32.03700
C  41.15600 47.02900 33.00100
H  42.62000 38.57900 30.01200
H  43.11200 39.00800 23.62700
H  40.99500 44.98900 23.69600
H  41.32800 42.65100 32.04700
H  40.94100 39.90900 31.69400
H  43.65900 40.56600 30.94100
H  43.25400 40.06800 32.49800
H  43.24800 41.76400 32.23600
H  39.06600 41.03100 32.25700
H  38.72000 42.11300 31.01600
H  38.14900 43.82100 32.38600
H  39.68700 44.02600 32.97400
H  43.49500 36.84700 29.27600
H  44.36000 35.97600 28.07200
H  42.63700 35.70400 28.17500
H  45.10300 35.62800 25.98800
H  44.36100 34.81100 24.47600
H  43.61500 34.78900 26.07900
H  41.96200 40.42000 21.88900
H  41.93500 43.23300 21.79000
H  43.82300 42.52900 21.47800
H  43.98600 40.76800 21.23100
H  44.46000 41.47500 22.82500
H  39.95100 42.34400 20.85700
H  39.49000 43.17900 22.24000
H  38.60800 41.70800 23.22600
H  39.91300 40.37300 22.83100
H  38.62600 40.77600 21.78200
H  40.31100 46.74500 24.41400
H  41.10800 47.77200 25.59100
H  39.32100 47.53300 25.54100
H  38.96000 44.98600 30.48600
H  41.00400 46.62900 34.00400
H  40.72800 48.03100 32.99500
H  42.22400 47.02900 32.78400

