158

Mg 2.39000 -1.28100 44.69300
C  5.45600 0.07800 43.81500
C  0.87300 1.03600 42.53900
C  -0.51600 -2.88900 45.24500
C  4.10700 -3.80000 46.39100
N  3.13200 0.34000 43.24300
C  4.47400 0.77700 43.21400
C  4.62000 1.89000 42.11000
C  3.13800 2.27200 41.85800
C  2.25900 1.14500 42.54400
C  2.69500 3.70100 42.31000
C  5.39000 1.37100 40.85100
C  6.62800 2.13200 40.47800
H  6.79900 2.47700 39.02100
N  0.40700 -0.91300 44.11700
C  0.00900 0.03700 43.19200
C  -1.36500 -0.06000 43.16000
C  -1.84400 -1.16800 43.92700
C  -0.61200 -1.76700 44.50000
C  -2.16800 0.94400 42.31400
C  -3.39100 -1.48700 44.19400
O  -4.23700 -0.85700 43.54700
C  -3.85400 -2.63400 45.05500
N  1.88200 -3.07200 45.66900
C  0.64300 -3.55600 45.75100
C  0.55500 -4.98300 46.26700
C  2.03000 -5.34100 46.42600
C  2.79100 -4.02100 46.04200
C  -0.14800 -5.15000 47.63000
C  2.63500 -6.60400 45.73400
C  3.45600 -7.63600 46.63000
N  4.31800 -1.75900 45.11800
C  4.82300 -2.79000 45.79600
C  6.25800 -2.66300 45.90100
C  6.58600 -1.55300 45.12900
C  5.39400 -1.05000 44.63100
C  7.11100 -3.60900 46.68200
C  7.64300 -0.67100 44.65200
O  8.87000 -0.69500 44.76200
C  6.95400 0.42900 43.76600
C  7.19500 1.77800 44.39200
O  6.76400 2.15800 45.47500
O  7.90000 2.62100 43.61300
C  8.40500 3.88900 44.11600
H  0.34700 1.72600 41.87600
H  -1.49400 -3.36700 45.32700
H  4.65300 -4.70400 46.66800
H  5.20900 2.63500 42.64400
H  3.06000 2.14100 40.77900
H  3.61600 4.28300 42.34200
H  2.34000 3.68500 43.34000
H  1.98000 4.07000 41.57400
H  4.80400 1.40700 39.93300
H  5.62800 0.33800 41.10500
H  7.52000 1.61000 40.82500
H  6.70800 3.01300 41.11400
H  -1.98700 0.62300 41.28900
H  -1.79200 1.96600 42.35900
H  -3.25400 0.86400 42.37100
H  -3.49800 -3.62900 44.79000
H  -4.94300 -2.58500 45.06400
H  -3.57500 -2.53000 46.10400
H  0.03100 -5.51900 45.47600
H  2.23300 -5.42300 47.49300
H  -0.50300 -4.17900 47.97600
H  0.36900 -5.66400 48.44100
H  -1.04800 -5.74000 47.45500
H  3.27200 -6.21200 44.94200
H  1.80500 -7.21500 45.37900
H  3.69200 -7.50600 47.68600
H  4.46500 -7.71300 46.22700
H  2.91800 -8.58300 46.58900
H  7.60500 -4.35400 46.05900
H  6.50500 -4.15900 47.40200
H  7.93900 -3.11100 47.18700
H  7.43300 0.42100 42.78700
H  9.48000 3.80200 43.96300
H  8.25500 4.04700 45.18400
H  8.05700 4.81200 43.65000
Mg 0.51000 42.38200 26.88400
C  2.08100 42.41500 29.97400
C  -2.34800 41.23600 28.25500
C  -0.69200 41.72200 23.78600
C  3.64900 43.20500 25.37300
N  -0.02800 41.99000 28.83600
C  0.72700 42.15700 29.98800
C  -0.18100 41.96400 31.20100
C  -1.55500 41.35200 30.71400
C  -1.30400 41.59100 29.14100
C  -1.79000 39.90500 31.18300
C  -0.39400 43.25500 32.03100
C  -0.01200 43.11500 33.56800
H  -0.31200 41.84400 34.39900
N  -1.24600 41.60400 26.11400
C  -2.39600 41.23900 26.84700
C  -3.48500 40.82200 25.94900
C  -2.96000 40.92300 24.65100
C  -1.54500 41.45000 24.79300
C  -4.90300 40.37400 26.39900
C  -3.70500 40.73300 23.35400
O  -3.21500 41.04300 22.27300
C  -5.10400 40.22900 23.23800
N  1.31500 42.41900 24.87100
C  0.64700 42.14300 23.78700
C  1.43500 42.46400 22.53200
C  2.73500 43.12600 23.02000
C  2.52600 43.02700 24.57500
C  1.65500 41.25500 21.61200
C  2.95800 44.60300 22.48600
C  3.78200 44.73800 21.13800
N  2.42600 42.81000 27.51000
C  3.61000 43.04400 26.78800
C  4.75300 43.20000 27.73600
C  4.13100 42.99900 29.04400
C  2.80300 42.69600 28.82400
C  6.15900 43.51800 27.41100
C  4.36600 42.85500 30.51700
O  5.41200 42.93800 31.17700
C  3.02100 42.61500 31.23800
C  3.06800 41.34400 32.01000
O  2.92000 40.24900 31.51600
O  3.54000 41.55700 33.30700
C  3.74500 40.36600 34.23800
H  -3.27600 40.96600 28.76400
H  -1.11700 41.53400 22.79800
H  4.59100 43.62100 25.01100
H  0.42400 41.30600 31.82600
H  -2.41000 41.90700 31.09800
H  -2.77300 39.71100 31.61400
H  -0.95100 39.51700 31.76100
H  -1.93400 39.33100 30.26800
H  -1.37900 43.70800 31.91900
H  0.30800 43.95500 31.57700
H  -0.63200 43.87500 34.04500
H  1.04800 43.30700 33.73400
H  -5.73300 41.04500 26.17700
H  -4.81300 40.35900 27.48500
H  -5.05400 39.35000 26.05600
H  -5.26900 39.25700 23.70300
H  -5.30100 40.08300 22.17600
H  -5.92500 40.93000 23.38900
H  0.87700 43.27900 22.07200
H  3.57800 42.50700 22.71300
H  1.18700 41.51700 20.66400
H  1.06700 40.43200 22.01900
H  2.70900 40.98400 21.53600
H  3.41400 45.17300 23.29600
H  1.98100 45.06100 22.33600
H  3.23300 45.29600 20.37900
H  4.08600 43.78800 20.69900
H  4.68100 45.33200 21.30400
H  6.39200 43.23300 26.38400
H  6.82600 42.97600 28.08100
H  6.31400 44.57800 27.61000
H  2.82700 43.47900 31.87300
H  4.72000 40.38000 34.72400
H  3.62100 39.34100 33.88700
H  2.96300 40.54800 34.97500

