158

Mg -0.86700 17.71500 26.12100
C  -1.04600 15.22900 28.60900
C  -2.00300 19.87900 28.55800
C  -1.49000 20.17900 23.75200
C  -0.54600 15.42700 23.76100
N  -1.43700 17.53800 28.38500
C  -1.20900 16.50000 29.20200
C  -1.33400 16.88800 30.68000
C  -1.90300 18.31700 30.58800
C  -1.77200 18.62900 29.11000
C  -3.38800 18.40900 31.24600
C  -0.01400 16.73400 31.46200
C  0.16400 17.47700 32.78800
H  0.04600 16.76100 34.03900
N  -1.43200 19.83300 26.20200
C  -1.96200 20.48000 27.30000
C  -2.39400 21.76600 26.94800
C  -2.10800 21.90000 25.56600
C  -1.60700 20.58400 25.09400
C  -3.06100 22.73600 27.89200
C  -2.38700 23.06400 24.68400
O  -2.11400 22.99300 23.47300
C  -2.86700 24.46100 25.25800
N  -0.66900 17.85700 24.12300
C  -0.94300 18.95900 23.31400
C  -0.73800 18.61900 21.80800
C  -0.29100 17.12200 21.95300
C  -0.53900 16.76300 23.37800
C  -1.86700 18.89900 20.79800
C  1.17300 16.74400 21.50100
C  1.22900 16.01800 20.08800
N  -0.69700 15.76000 26.12300
C  -0.64000 14.89700 25.03500
C  -0.68600 13.59200 25.44600
C  -0.81700 13.61500 26.82700
C  -0.83100 15.00300 27.21700
C  -0.75800 12.38100 24.53800
C  -0.87100 12.83800 28.04700
O  -1.06800 11.64700 28.31600
C  -1.14800 13.85600 29.22700
C  -0.18900 13.61300 30.29300
O  1.01600 13.56400 30.20800
O  -0.91500 13.45800 31.40900
C  -0.13700 13.04400 32.50900
H  -2.23000 20.48800 29.43600
H  -1.90800 20.77500 22.93800
H  -0.51800 14.73900 22.91300
H  -2.06300 16.23800 31.16300
H  -1.26700 19.06900 31.05500
H  -4.18800 18.22700 30.52800
H  -3.37100 19.45700 31.54800
H  -3.50700 17.69400 32.05900
H  0.85300 17.00100 30.85700
H  0.10900 15.69500 31.76600
H  -0.50200 18.33900 32.82200
H  1.15000 17.94000 32.83500
H  -2.74500 22.59800 28.92500
H  -4.14600 22.64500 27.95100
H  -2.85700 23.78400 27.67100
H  -2.86400 25.22100 24.47600
H  -2.08600 24.87400 25.89800
H  -3.87900 24.46100 25.66300
H  0.14500 19.14100 21.43800
H  -0.89500 16.55500 21.24500
H  -1.88500 19.96400 20.56900
H  -2.86500 18.58000 21.10000
H  -1.67700 18.38000 19.85800
H  1.58300 16.11000 22.28700
H  1.79000 17.64200 21.46600
H  2.25000 15.85800 19.74400
H  0.79800 16.64200 19.30500
H  0.72300 15.05300 20.11300
H  0.14400 12.22700 23.94500
H  -1.70000 12.53200 24.01000
H  -1.01400 11.55700 25.20400
H  -2.16000 13.65900 29.58100
H  0.31100 13.77400 33.18300
H  0.63700 12.31900 32.25600
H  -0.78900 12.46800 33.16500
Mg 2.07600 8.33500 24.85800
C  2.60500 10.06100 27.81800
C  2.14600 5.37600 26.70500
C  1.69300 6.56500 22.03400
C  2.52900 11.28300 22.96100
N  2.42200 7.83400 27.00100
C  2.50200 8.70600 28.05000
C  2.58000 7.97600 29.45000
C  2.55600 6.44100 29.03600
C  2.32200 6.51100 27.49400
C  3.83300 5.59400 29.44300
C  1.32100 8.45300 30.32300
C  1.54300 8.65900 31.88200
H  2.73700 8.00600 32.53900
N  1.78300 6.28000 24.41100
C  1.87600 5.25500 25.34600
C  1.77700 3.97800 24.71200
C  1.71600 4.25200 23.28100
C  1.69700 5.75100 23.18300
C  1.83100 2.65100 25.46200
C  1.74200 3.19700 22.11100
O  1.59500 3.55400 20.95200
C  1.96100 1.73800 22.36700
N  2.24500 8.85000 22.77400
C  1.91800 7.96500 21.78000
C  1.82700 8.57000 20.41100
C  2.31300 10.06500 20.74400
C  2.40500 10.07600 22.23600
C  2.47900 7.83500 19.21400
C  1.33200 11.17900 20.20900
C  -0.12300 11.30300 20.78600
N  2.40700 10.29000 25.25100
C  2.54300 11.41700 24.42400
C  2.87700 12.59800 25.21300
C  2.87000 12.09900 26.55200
C  2.50700 10.73600 26.50300
C  3.04400 14.01400 24.61900
C  3.00100 12.47800 27.93500
O  3.21200 13.61700 28.37600
C  2.73600 11.23400 28.81000
C  3.77100 11.15500 29.80100
O  4.83200 10.81000 29.46500
O  3.42400 11.65500 31.03500
C  4.52400 11.82200 31.93700
H  2.13600 4.43200 27.25400
H  1.46600 6.01500 21.11800
H  2.74900 12.18800 22.39200
H  3.51600 8.19700 29.96300
H  1.69900 5.98400 29.53000
H  3.45200 4.75800 30.02900
H  4.55300 6.10900 30.07900
H  4.28500 5.15900 28.55200
H  0.46000 7.83800 30.06300
H  0.91400 9.34500 29.84600
H  0.63100 8.20300 32.26800
H  1.60000 9.71600 32.14300
H  2.85100 2.46400 25.79600
H  1.52200 1.82700 24.81800
H  1.19700 2.54700 26.34300
H  2.77100 1.58200 23.08000
H  2.02400 1.16700 21.44100
H  0.95800 1.51500 22.73100
H  0.79700 8.54600 20.05400
H  3.27400 10.11800 20.23200
H  1.71300 7.60400 18.47400
H  3.00700 6.97200 19.61900
H  3.19200 8.48600 18.70700
H  1.34100 10.98600 19.13600
H  1.84100 12.12500 20.39500
H  -0.79700 11.07100 19.96100
H  -0.21800 12.31500 21.17900
H  -0.28500 10.61000 21.61100
H  2.79400 13.97400 23.55800
H  4.00100 14.49400 24.82300
H  2.29400 14.70900 24.99600
H  1.75500 11.28900 29.28100
H  4.08300 12.31600 32.80300
H  5.28000 12.47100 31.49500
H  5.03200 10.90200 32.22800

