158

Mg 0.27000 42.23300 25.12300
C  2.00700 42.47300 28.16100
C  -2.55200 41.30700 27.07700
C  -1.50200 41.87300 22.42800
C  3.19100 42.67600 23.43500
N  -0.17600 41.83100 27.34100
C  0.64200 42.21200 28.38200
C  -0.08900 42.11800 29.72700
C  -1.42600 41.51600 29.33300
C  -1.41000 41.58200 27.81200
C  -1.72900 40.05100 29.92300
C  -0.14700 43.60300 30.40100
C  0.42600 43.68500 31.85800
H  -0.68100 44.04500 32.87800
N  -1.76500 41.65000 24.72500
C  -2.69800 41.22000 25.68600
C  -3.91100 40.96100 24.98300
C  -3.65000 41.12400 23.62500
C  -2.27600 41.58200 23.53800
C  -5.13800 40.49200 25.62900
C  -4.50400 40.88400 22.41300
O  -4.16500 40.94500 21.24100
C  -5.99100 40.56200 22.66000
N  0.90700 41.94800 23.16700
C  -0.09700 41.93900 22.23200
C  0.54100 42.11300 20.77200
C  2.04000 42.40300 21.07600
C  2.06400 42.44000 22.65000
C  0.15300 40.93500 19.73300
C  2.57200 43.56700 20.24600
C  2.32800 44.99400 20.74800
N  2.25800 42.42200 25.66200
C  3.33200 42.68100 24.81800
C  4.51100 42.84500 25.69700
C  4.03500 42.70900 27.00600
C  2.61900 42.48200 26.93000
C  5.87600 43.23800 25.24800
C  4.46900 42.75500 28.37000
O  5.59100 42.79500 28.80400
C  3.10800 42.60100 29.19400
C  3.28000 41.49900 30.18700
O  3.18600 40.25800 30.08000
O  3.52300 42.08700 31.39500
C  3.51700 41.21100 32.59000
H  -3.50100 41.10300 27.57600
H  -2.01100 41.91300 21.46300
H  4.17700 42.82600 22.99000
H  0.37700 41.40700 30.40900
H  -2.28600 42.12200 29.61900
H  -0.90000 39.75300 30.56500
H  -1.76800 39.24400 29.19000
H  -2.65200 39.94400 30.49300
H  -1.18400 43.92600 30.49600
H  0.45900 44.34000 29.87500
H  1.24400 44.39100 32.00100
H  0.84000 42.70900 32.11200
H  -5.53800 39.60400 25.13900
H  -5.75300 41.39200 25.63400
H  -4.97200 40.20500 26.66800
H  -6.21000 39.61700 23.15600
H  -6.54400 40.52500 21.72100
H  -6.42500 41.27000 23.36500
H  0.17500 43.03400 20.31900
H  2.67500 41.53700 20.89000
H  -0.79100 40.58800 20.15300
H  0.86600 40.11000 19.71400
H  0.08900 41.33500 18.72100
H  2.17800 43.49200 19.23200
H  3.63900 43.35200 20.20500
H  1.53500 45.07200 21.49100
H  2.12700 45.60600 19.86800
H  3.17000 45.33900 21.34900
H  5.67900 44.16000 24.70100
H  6.25900 42.48200 24.56300
H  6.64500 43.38900 26.00500
H  2.98900 43.56200 29.69600
H  4.54500 40.87200 32.71800
H  2.80200 40.39100 32.51600
H  3.18400 41.76200 33.47000
Mg -5.44100 24.62800 25.82600
C  -4.02000 26.05900 28.66400
C  -7.18600 22.52500 27.75900
C  -6.04000 22.85800 23.05300
C  -3.23900 26.82400 23.85600
N  -5.44600 24.23400 28.01400
C  -4.93300 25.02100 28.98000
C  -5.51500 24.69500 30.38400
C  -6.43400 23.40800 30.05800
C  -6.35500 23.34500 28.52400
C  -6.00900 22.06000 30.59900
C  -6.29700 25.84900 31.02900
C  -6.00200 26.08300 32.54600
H  -5.17800 25.02300 33.35000
N  -6.72600 23.01500 25.45100
C  -7.42400 22.33500 26.41300
C  -8.23000 21.32900 25.71000
C  -7.86000 21.41800 24.26300
C  -6.77500 22.42400 24.17600
C  -9.19200 20.43200 26.43300
C  -8.33400 20.64300 23.13500
O  -7.86500 20.77400 22.01500
C  -9.35100 19.63700 23.33000
N  -4.82300 24.90200 23.67600
C  -5.15900 23.90100 22.80400
C  -4.42100 24.10500 21.45800
C  -3.49300 25.33700 21.76900
C  -3.88200 25.75400 23.15400
C  -3.47900 22.97700 20.98000
C  -3.56400 26.45500 20.62500
C  -2.20300 27.12500 20.35000
N  -3.98700 26.10900 26.15300
C  -3.33000 26.97800 25.23800
C  -2.68600 28.03800 25.98200
C  -2.93900 27.67500 27.27900
C  -3.67300 26.46400 27.35100
C  -1.87400 29.17500 25.51500
C  -2.59700 28.06800 28.59800
O  -1.88000 28.96400 29.06600
C  -3.36600 27.12100 29.63800
C  -2.29600 26.48800 30.51000
O  -1.59000 25.55400 30.25300
O  -2.20100 27.23900 31.61300
C  -1.00600 26.95200 32.48200
H  -7.87200 22.01400 28.43800
H  -6.14000 22.15800 22.22100
H  -2.64700 27.49800 23.23300
H  -4.69200 24.42500 31.04700
H  -7.41300 23.63300 30.48100
H  -5.51500 21.29200 30.00500
H  -6.95300 21.67600 30.98500
H  -5.41800 22.19500 31.50500
H  -7.37400 25.68300 30.99900
H  -6.12800 26.77300 30.47600
H  -6.89600 26.25700 33.14500
H  -5.59600 27.09000 32.64300
H  -10.13100 20.29300 25.89800
H  -9.43800 20.91400 27.38000
H  -8.73900 19.45800 26.61800
H  -9.31000 19.02000 22.43300
H  -10.29700 20.17700 23.28000
H  -9.27300 19.04300 24.24100
H  -5.18100 24.29900 20.70100
H  -2.42300 25.12700 21.79500
H  -3.44800 22.30600 21.83800
H  -2.44200 23.18700 20.71800
H  -3.83200 22.45900 20.08700
H  -4.18700 27.26200 21.01100
H  -4.12200 26.11200 19.75400
H  -1.94100 27.26600 19.30200
H  -1.29900 26.59200 20.64500
H  -2.05700 28.12500 20.75900
H  -0.85000 28.83200 25.37100
H  -1.88400 29.97300 26.25800
H  -2.29800 29.52100 24.57200
H  -4.01700 27.69800 30.29500
H  -0.12000 26.66800 31.91500
H  -1.19200 26.16700 33.21600
H  -0.68200 27.90500 32.90000

