158

Mg 35.37600 1.21300 29.25800
C  33.30500 2.29300 31.85400
C  37.83200 0.87500 31.63700
C  37.73600 0.46500 26.84200
C  32.95300 1.84500 26.96300
N  35.56200 1.76900 31.50800
C  34.55000 1.98200 32.31300
C  34.98600 1.91300 33.76200
C  36.52300 1.75100 33.67100
C  36.68800 1.45800 32.20100
C  37.56100 2.75300 34.32400
C  34.18200 0.88900 34.61600
C  33.97400 1.14300 36.10700
H  34.72000 2.29100 36.74800
N  37.48400 0.83400 29.20700
C  38.25900 0.64400 30.27800
C  39.53500 0.09200 29.85300
C  39.60200 0.17500 28.47200
C  38.23500 0.50300 28.11800
C  40.60200 -0.26800 30.91300
C  40.76900 -0.07400 27.49800
O  40.58100 0.08200 26.29900
C  42.01400 -0.58100 27.94000
N  35.27600 1.15000 27.19900
C  36.41200 0.87400 26.39100
C  36.02100 0.67600 24.92000
C  34.49300 1.10600 24.98700
C  34.21300 1.32600 26.49000
C  36.81000 1.39600 23.79200
C  33.52000 0.15600 24.27800
C  33.12000 -1.14500 25.05600
N  33.50100 2.00700 29.29600
C  32.64400 2.14100 28.27900
C  31.39200 2.54400 28.78900
C  31.56300 2.68200 30.18400
C  32.83700 2.23400 30.49300
C  30.08500 2.66800 28.05800
C  30.90500 2.95300 31.46600
O  29.72200 3.20800 31.77700
C  31.99500 2.63400 32.55600
C  32.00200 3.85500 33.43200
O  32.72100 4.78000 33.34900
O  31.10300 3.66200 34.51100
C  31.06000 4.83100 35.45400
H  38.48000 0.75200 32.50700
H  38.44100 0.09800 26.09400
H  32.16800 2.08600 26.24400
H  34.78000 2.87000 34.24200
H  36.66900 0.79500 34.17400
H  38.20800 2.29000 35.07000
H  36.91600 3.50600 34.77400
H  38.11100 3.36000 33.60500
H  34.71200 -0.06400 34.62300
H  33.21300 0.68800 34.15900
H  34.06800 0.21900 36.67700
H  32.89900 1.31400 36.16500
H  40.20900 -0.37500 31.92400
H  41.50900 0.32700 30.80700
H  41.00600 -1.22900 30.59300
H  42.56100 0.25700 28.37300
H  42.62400 -0.97700 27.12900
H  41.88200 -1.39800 28.64900
H  36.00000 -0.37300 24.62600
H  34.35800 2.06100 24.47800
H  37.07000 0.67800 23.01400
H  37.69900 1.94700 24.10000
H  36.14400 2.14400 23.36300
H  34.01200 -0.21000 23.37700
H  32.66700 0.72300 23.90500
H  33.92600 -1.55300 25.66500
H  32.78500 -1.81100 24.26100
H  32.18800 -1.01200 25.60600
H  29.29800 2.33500 28.73500
H  29.96800 2.08900 27.14200
H  29.90700 3.69600 27.74500
H  31.58600 1.78200 33.09900
H  31.90400 4.73500 36.13600
H  30.12600 4.71700 36.00400
H  31.05400 5.78800 34.93200
Mg 15.70500 51.67300 25.58000
C  17.72200 50.83800 28.27000
C  13.15300 52.41500 28.05800
C  13.60400 52.37600 23.14100
C  18.05200 50.42100 23.32600
N  15.44600 51.64000 27.92200
C  16.45600 51.33100 28.74800
C  16.06400 51.60900 30.20700
C  14.53100 51.71400 30.10500
C  14.34300 51.92700 28.63400
C  13.82100 50.36900 30.59100
C  16.86600 52.82500 30.72900
C  16.23900 53.42200 31.98900
H  15.42800 52.48800 32.92500
N  13.71200 52.27600 25.55000
C  12.86100 52.53800 26.66900
C  11.62300 53.07300 26.10800
C  11.68300 53.10900 24.76700
C  13.01000 52.55900 24.36300
C  10.37000 53.19800 26.98200
C  10.63900 53.60700 23.78500
O  10.81500 53.81200 22.59600
C  9.31600 54.00000 24.32200
N  15.78900 51.32900 23.57900
C  14.79900 51.86200 22.70000
C  15.20900 51.60600 21.21200
C  16.76300 51.40600 21.32300
C  16.80000 50.92500 22.81300
C  14.34000 50.51900 20.50900
C  17.63600 52.72500 21.04600
C  18.78500 52.46800 19.92500
N  17.55000 50.76900 25.69400
C  18.43000 50.33900 24.70300
C  19.67500 49.81500 25.40200
C  19.43900 50.09900 26.76000
C  18.13100 50.58100 26.93100
C  20.92600 49.24800 24.81200
C  20.04300 50.02000 28.09100
O  21.07900 49.54100 28.46600
C  18.96000 50.39300 29.12900
C  18.70900 49.22700 30.06300
O  18.49000 48.03600 29.81900
O  19.00800 49.68100 31.39100
C  18.55900 48.75600 32.43600
H  12.32400 52.55200 28.75600
H  12.98500 52.56900 22.26300
H  18.84300 49.98600 22.71100
H  16.31100 50.75600 30.83800
H  14.11200 52.62300 30.53800
H  13.20700 50.48100 31.48500
H  14.52000 49.53200 30.59800
H  13.23700 50.17800 29.69100
H  16.90000 53.58800 29.95100
H  17.87900 52.56900 31.03900
H  15.67700 54.32800 31.76200
H  17.08300 53.77700 32.58000
H  9.59900 52.43600 26.86300
H  9.98000 54.21500 26.94400
H  10.60900 53.20500 28.04500
H  8.70200 53.19800 24.73300
H  8.72200 54.30300 23.46100
H  9.26900 54.85100 25.00100
H  14.95400 52.51000 20.66000
H  17.02600 50.68300 20.55100
H  15.15300 49.98900 20.01200
H  13.74200 50.96300 19.71300
H  13.70300 49.94800 21.18400
H  18.09500 52.80400 22.03100
H  17.03700 53.60000 20.79100
H  18.60100 51.63400 19.24800
H  19.73100 52.30900 20.44300
H  18.86700 53.33800 19.27300
H  21.50800 48.74600 25.58400
H  21.44900 50.06600 24.31700
H  20.70800 48.51100 24.03800
H  19.48000 51.11700 29.75800
H  19.23400 47.90400 32.51600
H  17.54200 48.40600 32.26100
H  18.54000 49.31900 33.36900

