158

Mg 44.25300 5.06400 48.88400
C  42.41900 8.05700 48.09600
C  41.52500 3.19000 47.83900
C  46.19600 2.42500 48.68500
C  47.15300 7.13200 49.04200
N  42.29200 5.56400 47.94600
C  41.70800 6.83200 47.76900
C  40.27900 6.65300 47.32700
C  39.99500 5.11800 47.47900
C  41.37700 4.57900 47.71700
C  39.04900 4.90400 48.68900
C  40.02700 7.07200 45.82500
C  38.56500 7.37600 45.47900
H  38.14300 7.09100 44.03200
N  43.86900 3.04500 48.59000
C  42.67800 2.41800 48.19000
C  42.85100 0.99400 48.23700
C  44.23400 0.73900 48.43600
C  44.84200 2.07900 48.67500
C  41.79900 0.06800 47.67900
C  44.95200 -0.62000 48.48000
O  44.42000 -1.73000 48.31600
C  46.38000 -0.65600 48.83500
N  46.37300 4.81900 48.88200
C  46.90000 3.60200 48.87300
C  48.41100 3.63400 48.92700
C  48.72500 5.16200 49.08400
C  47.31600 5.75500 49.03900
C  48.91900 2.62500 50.05600
C  49.77700 5.63100 48.06500
C  51.32400 5.28900 48.35800
N  44.72300 7.14800 48.83600
C  45.94400 7.83000 48.91700
C  45.69500 9.29100 48.94400
C  44.29400 9.38400 48.66200
C  43.79500 8.06800 48.51900
C  46.69500 10.38500 49.03600
C  43.20900 10.35400 48.32300
O  43.33300 11.54800 48.38500
C  42.01300 9.51800 47.82200
C  40.81900 9.76000 48.67800
O  40.76700 9.62600 49.88700
O  39.77100 10.15700 47.79300
C  38.47900 10.39100 48.44000
H  40.56000 2.73000 47.61000
H  46.94300 1.65500 48.48300
H  48.05200 7.69300 49.30400
H  39.67300 7.31500 47.94600
H  39.49900 4.70100 46.60200
H  38.31400 5.70400 48.78300
H  39.62200 4.94600 49.61500
H  38.68600 3.87700 48.69900
H  40.38000 6.31100 45.12800
H  40.62000 7.97600 45.69400
H  38.34700 8.41200 45.73800
H  37.99400 6.74600 46.16200
H  41.72900 -0.72700 48.42200
H  42.04500 -0.46000 46.75800
H  40.87600 0.59400 47.43700
H  46.65800 -1.68000 49.08600
H  46.55000 -0.10900 49.76300
H  47.00800 -0.24900 48.04300
H  48.68000 3.20900 47.96000
H  49.05900 5.19500 50.12100
H  49.64800 3.18400 50.64300
H  49.33900 1.78200 49.50800
H  48.13400 2.28100 50.73000
H  49.71800 6.71400 47.95700
H  49.50300 5.27900 47.07000
H  51.76800 5.02100 47.39900
H  51.47200 4.62300 49.20800
H  51.73100 6.26600 48.61900
H  47.31000 10.21600 48.15200
H  47.37800 10.27100 49.87800
H  46.31100 11.40500 49.00300
H  41.85500 9.55800 46.74400
H  37.89300 11.04100 47.79000
H  38.48900 10.78900 49.45400
H  37.98200 9.42500 48.53100
Mg -12.03600 38.72200 43.03900
C  -9.93000 36.16400 41.84700
C  -9.94000 40.93700 41.25300
C  -14.45200 41.04900 43.26200
C  -14.12900 36.30600 44.32500
N  -10.18900 38.52600 41.57100
C  -9.55600 37.39200 41.31600
C  -8.36200 37.58500 40.40600
C  -8.20600 39.14100 40.50600
C  -9.58800 39.56200 41.07800
C  -7.05200 39.62100 41.40000
C  -8.75000 37.08400 38.89800
C  -7.79000 36.00100 38.31400
H  -6.89400 36.44000 37.12900
N  -12.22500 40.75300 42.32500
C  -11.17100 41.51000 41.71700
C  -11.63200 42.88000 41.68100
C  -12.95700 42.95300 42.17400
C  -13.30000 41.56100 42.62500
C  -10.80400 44.00800 41.18700
C  -13.85800 44.16100 42.22600
O  -13.41300 45.24000 41.90700
C  -15.31400 44.04100 42.59700
N  -14.03900 38.74500 43.56900
C  -14.82700 39.77500 43.74300
C  -16.18500 39.45800 44.47200
C  -16.03600 37.96600 44.69200
C  -14.66200 37.61500 44.19200
C  -16.69400 40.30100 45.71700
C  -17.13100 37.06100 44.00300
C  -16.86400 36.45400 42.65800
N  -12.06600 36.70700 43.11500
C  -12.91100 35.84300 43.76800
C  -12.42500 34.46200 43.71400
C  -11.30200 34.60300 42.95300
C  -11.10600 35.96000 42.63000
C  -12.99900 33.18900 44.36000
C  -10.24600 33.76800 42.34800
O  -10.11000 32.52000 42.40800
C  -9.18000 34.78800 41.78900
C  -7.88100 34.68900 42.64000
O  -7.23500 33.66300 42.68100
O  -7.51400 35.84500 43.34100
C  -6.42700 35.70600 44.26900
H  -9.19100 41.66800 40.94100
H  -15.28600 41.72500 43.46200
H  -14.77200 35.52600 44.73900
H  -7.47100 37.06200 40.75400
H  -8.08200 39.65700 39.55300
H  -7.40700 39.86800 42.40100
H  -6.60500 40.41300 40.79900
H  -6.23200 38.91500 41.52500
H  -8.76800 37.85400 38.12700
H  -9.72100 36.58900 38.91300
H  -8.32100 35.12300 37.94700
H  -7.18100 35.61500 39.13100
H  -11.00400 44.18900 40.13100
H  -9.76200 43.70100 41.27700
H  -11.02100 44.92100 41.74100
H  -15.89600 43.36100 41.97500
H  -15.79300 45.01400 42.49700
H  -15.32800 43.87200 43.67400
H  -16.90900 39.69600 43.69400
H  -15.92500 37.75600 45.75500
H  -17.54100 40.95300 45.50100
H  -15.82600 40.90500 45.98100
H  -16.78000 39.68200 46.61000
H  -18.04100 37.63800 43.83400
H  -17.39200 36.25300 44.68600
H  -16.27100 35.55100 42.79900
H  -16.38400 37.16800 41.98900
H  -17.72600 36.24800 42.02400
H  -12.28800 32.38800 44.56200
H  -13.79300 32.74600 43.75900
H  -13.46600 33.37200 45.32800
H  -8.86700 34.63800 40.75600
H  -5.75500 36.55100 44.12100
H  -5.80400 34.82000 44.15000
H  -6.74500 35.89900 45.29400

