158

Mg 25.22100 50.40700 26.21400
C  23.40900 51.52400 29.02500
C  27.40900 48.87700 28.49500
C  27.38700 50.03000 23.69600
C  22.92800 51.90300 24.18200
N  25.36700 50.33700 28.48600
C  24.50500 50.80400 29.39200
C  24.93200 50.45700 30.80200
C  26.30700 49.73200 30.58000
C  26.32000 49.50900 29.10800
C  27.58500 50.58900 31.01000
C  23.89200 49.52800 31.54400
C  23.33000 50.06200 32.86300
H  24.23000 50.87000 33.79800
N  27.13900 49.63000 26.11400
C  27.83400 48.97900 27.11500
C  28.95300 48.34100 26.54800
C  29.04800 48.72100 25.18600
C  27.83800 49.54200 24.95000
C  29.94500 47.54300 27.41800
C  30.06500 48.26800 24.23100
O  30.00400 48.56000 23.02800
C  31.34400 47.60900 24.73300
N  25.20000 50.89200 24.30300
C  26.20300 50.65000 23.39900
C  25.83700 50.89800 21.85400
C  24.32400 51.29100 22.06800
C  24.04700 51.27200 23.55700
C  26.69500 52.06400 21.19200
C  23.24600 50.35600 21.44300
C  23.18100 50.47800 19.95100
N  23.46700 51.33900 26.48000
C  22.67500 51.98500 25.59500
C  21.47000 52.46500 26.19300
C  21.76500 52.32200 27.59300
C  23.02100 51.69600 27.67200
C  20.32300 53.10900 25.51500
C  21.33900 52.67100 28.93500
O  20.42000 53.36600 29.33400
C  22.36200 52.12200 29.83800
C  22.89500 53.30200 30.67800
O  23.70500 54.16600 30.36600
O  22.23500 53.27800 31.88500
C  22.32600 54.53600 32.71600
H  28.00300 48.31100 29.21600
H  28.02500 49.75300 22.85400
H  22.20000 52.40500 23.54100
H  24.98400 51.44400 31.26200
H  26.37100 48.83200 31.19100
H  27.93500 51.28200 30.24400
H  28.33700 49.95400 31.47900
H  27.23000 51.18400 31.85100
H  24.26500 48.53000 31.77200
H  23.08300 49.47700 30.81500
H  22.95300 49.23600 33.46600
H  22.38100 50.59800 32.88100
H  30.92700 48.01200 27.47000
H  29.98900 46.54200 26.98800
H  29.67500 47.43600 28.46900
H  31.89700 48.30300 25.36500
H  31.91600 47.31500 23.85300
H  31.21600 46.63400 25.20400
H  25.91000 50.08300 21.13300
H  24.05800 52.22900 21.58100
H  27.03400 52.79700 21.92500
H  26.04200 52.46500 20.41600
H  27.61400 51.69500 20.73800
H  22.30200 50.59900 21.93000
H  23.56700 49.36600 21.76500
H  23.37800 49.50600 19.49900
H  23.65600 51.30600 19.42500
H  22.10300 50.54900 19.80100
H  20.14300 52.48000 24.64300
H  20.49300 54.18000 25.41000
H  19.38600 53.05900 26.07000
H  21.81300 51.51000 30.55300
H  23.29500 54.54400 33.21500
H  21.43700 54.54000 33.34600
H  22.17700 55.36100 32.01900
Mg 6.60600 57.27100 41.57500
C  5.14100 54.05000 41.46600
C  9.51200 55.79600 40.49300
C  7.64700 60.39200 40.66700
C  3.46400 58.65500 42.26300
N  7.22100 55.15000 40.95100
C  6.46300 54.06300 41.04200
C  7.25700 52.84500 40.53300
C  8.71000 53.37200 40.69700
C  8.52100 54.86000 40.73800
C  9.48100 52.83400 41.93400
C  6.97400 52.61500 39.01200
C  7.02000 51.09200 38.55100
H  6.08500 50.61500 37.50000
N  8.35200 57.97800 40.71700
C  9.50400 57.21200 40.42600
C  10.49500 58.06500 39.93400
C  9.94600 59.41200 39.86100
C  8.54900 59.28000 40.35000
C  11.89800 57.62800 39.64400
C  10.69000 60.61300 39.45800
O  11.86000 60.50400 39.16100
C  10.06900 61.96500 39.23300
N  5.79900 59.31100 41.57500
C  6.39400 60.40800 41.17500
C  5.58300 61.65300 41.29800
C  4.20900 61.06700 41.77600
C  4.45300 59.56700 41.82700
C  6.27800 62.66000 42.25900
C  2.91400 61.50000 41.05600
C  1.71100 61.72600 41.86400
N  4.63900 56.49500 41.95700
C  3.51700 57.21500 42.20600
C  2.46400 56.21100 42.39600
C  3.08600 54.94300 42.10700
C  4.43100 55.21400 41.79900
C  0.95600 56.41300 42.66100
C  2.89800 53.54000 42.17900
O  1.93200 52.91000 42.53900
C  4.21800 52.86100 41.70100
C  3.95800 52.07800 40.55100
O  3.62100 52.42000 39.43600
O  4.04600 50.78200 40.92300
C  3.29300 49.79600 40.14200
H  10.47700 55.30600 40.35000
H  7.97200 61.36100 40.28300
H  2.48300 59.07600 42.49200
H  7.05900 51.94700 41.11700
H  9.40300 53.20700 39.87200
H  10.42200 52.50200 41.49600
H  8.92300 52.04300 42.43500
H  9.59400 53.69900 42.58700
H  7.82900 53.07100 38.51400
H  6.06200 53.11600 38.68600
H  6.97000 50.42500 39.41100
H  8.03800 50.89200 38.21700
H  12.69300 58.20400 40.11800
H  12.06800 57.74900 38.57400
H  12.13400 56.60100 39.92000
H  9.76500 62.43600 40.16800
H  9.16900 61.87800 38.62500
H  10.71700 62.66400 38.70400
H  5.49700 62.06900 40.29400
H  4.09100 61.31200 42.83200
H  5.48600 63.13600 42.83700
H  6.71300 63.42800 41.61800
H  6.87300 62.13400 43.00500
H  2.68100 60.70000 40.35400
H  3.05600 62.38900 40.44200
H  1.85200 61.42800 42.90300
H  0.92200 61.09100 41.46000
H  1.32900 62.74100 41.75300
H  0.60200 57.18300 41.97600
H  0.88100 56.78600 43.68200
H  0.45000 55.45500 42.53300
H  4.69900 52.27900 42.48700
H  3.82100 48.86600 40.35300
H  3.12100 50.12400 39.11700
H  2.31500 49.65900 40.60400

