158

Mg 45.18300 5.19900 47.00900
C  42.85500 7.83400 46.58400
C  42.55000 2.99300 46.40900
C  47.43300 2.88800 46.56300
C  47.83200 7.65500 46.85500
N  43.00900 5.46900 46.45800
C  42.24400 6.61400 46.30800
C  40.73400 6.37700 46.28200
C  40.65600 4.80000 46.11000
C  42.11000 4.38000 46.38600
C  39.56900 4.13700 47.17700
C  39.85800 7.09500 45.13900
C  40.62000 7.44600 43.78000
H  39.88400 6.96100 42.49000
N  44.99400 3.18000 46.59200
C  43.87800 2.45200 46.49800
C  44.20800 1.02700 46.43100
C  45.66200 1.02000 46.24000
C  46.11400 2.35500 46.45800
C  43.19400 -0.07100 46.29500
C  46.43100 -0.22600 45.81300
O  45.85200 -1.30800 45.57000
C  48.00400 -0.12000 45.49900
N  47.31100 5.29200 46.86300
C  47.99300 4.12000 46.76200
C  49.54100 4.28300 46.94800
C  49.71800 5.79200 47.01500
C  48.26800 6.27800 46.89100
C  50.19100 3.61000 48.23300
C  50.74300 6.34600 46.01600
C  51.98000 6.97200 46.63100
N  45.35000 7.27100 46.84200
C  46.45400 8.11700 46.82900
C  45.99600 9.52000 46.82900
C  44.59300 9.37000 46.90700
C  44.24900 8.06900 46.79100
C  46.84400 10.71800 46.92500
C  43.46000 10.18700 47.04300
O  43.36200 11.37400 47.33200
C  42.23100 9.18400 46.66200
C  41.22400 9.18300 47.78000
O  41.18200 8.38700 48.69100
O  40.36200 10.29000 47.53400
C  39.29500 10.56200 48.47300
H  41.78500 2.25600 46.15400
H  48.23100 2.15900 46.40900
H  48.65800 8.34000 47.05800
H  40.15900 6.64200 47.17000
H  40.29900 4.65300 45.09100
H  39.05600 4.83500 47.83800
H  40.06900 3.41000 47.81600
H  38.79000 3.56300 46.67500
H  39.69800 8.11000 45.50100
H  38.89900 6.58500 45.04900
H  41.56100 6.93000 43.97400
H  40.75000 8.52800 43.74800
H  43.38600 -0.69300 45.42100
H  42.16700 0.28500 46.21400
H  43.16500 -0.65100 47.21700
H  48.61000 -0.09600 46.40500
H  48.12200 0.80600 44.93700
H  48.26000 -0.96900 44.86400
H  50.03200 3.85300 46.07500
H  49.91400 6.15700 48.02400
H  51.08000 4.15800 48.54800
H  50.47000 2.58700 47.98100
H  49.34900 3.59200 48.92500
H  50.19300 7.12100 45.48100
H  50.96000 5.53400 45.32200
H  51.75700 8.03900 46.65300
H  52.86900 6.69300 46.06600
H  52.11300 6.56900 47.63600
H  47.74500 10.59000 47.52500
H  46.26500 11.57200 47.27700
H  47.21200 10.99700 45.93700
H  41.77800 9.53800 45.73600
H  39.10900 11.63500 48.51100
H  39.63600 10.31800 49.47900
H  38.40600 9.99000 48.20700
Mg 35.46100 48.21100 26.39300
C  36.07500 46.19600 29.08600
C  34.35000 50.75000 28.44500
C  34.99200 50.16500 23.75300
C  36.51200 45.70600 24.19900
N  35.18200 48.41600 28.50600
C  35.53900 47.43100 29.44700
C  35.29400 47.99900 30.89900
C  34.45700 49.37300 30.57000
C  34.70800 49.54300 29.04700
C  32.93800 49.34000 30.84900
C  36.66300 48.29100 31.61100
C  36.78600 48.02000 33.10800
H  36.22800 49.20700 33.88900
N  34.82400 50.24200 26.14300
C  34.37700 51.11200 27.08000
C  34.02700 52.33700 26.50800
C  34.33100 52.25100 25.14300
C  34.81100 50.86200 24.94900
C  33.53700 53.55400 27.20200
C  34.30000 53.34600 24.08600
O  34.71100 53.05900 22.94400
C  33.80200 54.72300 24.36500
N  35.62100 47.93000 24.24900
C  35.31400 48.89100 23.39100
C  35.32100 48.45800 21.94000
C  35.96700 47.02300 22.07600
C  36.06500 46.82200 23.57100
C  33.81500 48.35000 21.39200
C  37.40200 46.86400 21.41600
C  38.53900 47.52000 22.16800
N  36.00100 46.28400 26.55900
C  36.54400 45.44700 25.60700
C  36.97600 44.16600 26.30000
C  36.78200 44.44000 27.67400
C  36.26600 45.72400 27.77900
C  37.59200 43.02300 25.56500
C  36.92700 43.91900 28.96500
O  37.24300 42.78300 29.29400
C  36.55100 45.10500 29.98100
C  35.60400 44.64500 31.00200
O  34.43600 44.29300 30.77100
O  36.19100 44.64600 32.27600
C  35.42900 43.99100 33.28200
H  33.91600 51.50200 29.10700
H  34.70500 50.82800 22.93400
H  36.80000 44.90400 23.51600
H  34.64000 47.31100 31.43500
H  34.84700 50.24700 31.09100
H  32.65800 50.10600 31.57100
H  32.68400 48.36500 31.26700
H  32.32200 49.49500 29.96300
H  36.99700 49.28600 31.31700
H  37.44000 47.68000 31.15200
H  37.81500 47.76700 33.36100
H  36.19000 47.13300 33.32700
H  32.80700 54.16500 26.67100
H  34.34300 54.20900 27.53200
H  32.97300 53.27100 28.09000
H  34.15600 55.38800 23.57800
H  34.36400 55.11100 25.21500
H  32.73500 54.88900 24.51800
H  35.90500 49.14900 21.33200
H  35.33200 46.29700 21.56800
H  33.03100 48.52400 22.12900
H  33.60800 47.34100 21.03500
H  33.66000 49.10900 20.62500
H  37.27900 47.43400 20.49500
H  37.45600 45.83000 21.07500
H  38.17100 48.18700 22.94800
H  39.11100 48.11100 21.45300
H  39.14700 46.70900 22.57100
H  37.70200 43.31800 24.52100
H  37.03500 42.08600 25.56200
H  38.52700 42.75900 26.05900
H  37.47500 45.25900 30.53800
H  34.95900 43.05800 32.97200
H  34.57100 44.62700 33.49800
H  36.02000 43.68900 34.14800

