158

Mg 9.02000 3.84800 27.07200
C  10.17600 2.08800 29.85600
C  7.00100 5.59000 29.18000
C  7.77700 5.48000 24.40000
C  10.49100 1.39800 25.00100
N  8.43500 3.63000 29.21400
C  9.18800 2.97600 30.19000
C  8.93100 3.41700 31.59300
C  7.77200 4.50100 31.35100
C  7.65000 4.54100 29.83100
C  6.56600 4.52000 32.27100
C  10.18200 4.02300 32.27000
C  10.26700 3.58500 33.79300
H  10.80900 4.54200 34.92300
N  7.63800 5.38200 26.83200
C  6.88500 5.95100 27.80000
C  6.06000 6.99900 27.29100
C  6.31000 7.03400 25.89900
C  7.28900 5.96900 25.62300
C  5.31600 7.96400 28.09700
C  5.86900 8.03200 24.80300
O  6.26300 7.94900 23.61300
C  4.83000 8.90700 25.22700
N  9.00000 3.39500 25.05200
C  8.50100 4.27800 24.14200
C  8.86300 3.81800 22.68100
C  9.82400 2.60600 22.86200
C  9.69300 2.40000 24.41300
C  7.65500 3.72900 21.73200
C  11.25600 2.92500 22.42400
C  12.21700 3.52600 23.35200
N  10.08700 2.04200 27.29600
C  10.61100 1.15100 26.39400
C  11.55400 0.30000 27.12800
C  11.38600 0.58200 28.49800
C  10.41200 1.62900 28.54100
C  12.51400 -0.57500 26.51900
C  11.84900 0.27700 29.81000
O  12.69000 -0.58900 30.12800
C  11.07000 1.26200 30.75300
C  10.31500 0.46200 31.67200
O  9.15500 0.00700 31.40700
O  10.87500 0.46500 32.92100
C  10.20700 -0.19600 33.99700
H  6.41700 6.21700 29.85700
H  7.40600 5.99100 23.51000
H  11.17400 0.76700 24.42800
H  8.49200 2.54600 32.08000
H  8.18600 5.50500 31.44000
H  6.87000 4.06800 33.21500
H  5.77700 3.93100 31.80400
H  6.21800 5.54500 32.40000
H  10.14000 5.11200 32.23700
H  11.11100 3.79000 31.74900
H  10.79300 2.63600 33.89800
H  9.25900 3.24300 34.02600
H  5.49800 9.01100 27.85200
H  5.53400 7.92900 29.16500
H  4.26000 7.78800 27.89500
H  4.03500 8.23000 25.53900
H  4.59200 9.44800 24.31100
H  5.06100 9.52800 26.09200
H  9.45800 4.64700 22.29800
H  9.35400 1.74200 22.39400
H  6.73600 4.03500 22.23100
H  7.45100 2.82800 21.15300
H  7.77600 4.40100 20.88200
H  11.25900 3.60700 21.57400
H  11.60600 2.00700 21.95300
H  12.70200 4.33800 22.81000
H  12.81200 2.67500 23.68500
H  11.67200 3.92900 24.20500
H  12.12300 -1.53000 26.16800
H  13.25900 -0.74800 27.29600
H  12.98800 -0.02600 25.70600
H  11.88500 1.72500 31.31000
H  9.47700 0.51700 34.38000
H  10.81100 -0.43000 34.87400
H  9.68300 -1.10100 33.68700
Mg 9.13300 48.61100 25.02000
C  7.37600 48.82700 27.99900
C  12.01000 49.47000 26.64000
C  10.71300 47.82600 22.29500
C  5.97600 48.25500 23.41100
N  9.57400 49.15400 27.04000
C  8.75800 49.13600 28.15300
C  9.59300 49.55600 29.41900
C  10.83500 50.25300 28.77300
C  10.87000 49.59300 27.38400
C  10.64900 51.82700 28.62200
C  9.89500 48.36900 30.40600
C  9.79200 48.61600 31.86100
H  9.24200 47.40000 32.69700
N  11.13100 48.52300 24.55000
C  12.22300 48.94700 25.31300
C  13.42900 48.66400 24.54100
C  13.00800 48.28700 23.24800
C  11.56100 48.16800 23.31700
C  14.80900 48.86600 25.17000
C  13.88100 47.86300 22.08900
O  13.39800 47.82400 20.97000
C  15.41600 47.62900 22.27900
N  8.43200 48.34100 23.09100
C  9.30600 47.92200 22.14300
C  8.55000 47.44000 20.87100
C  7.06600 47.41100 21.33400
C  7.14500 48.08800 22.68900
C  8.86900 48.39800 19.72200
C  6.38400 46.01700 21.38600
C  7.24400 44.92800 22.05800
N  7.10200 48.65400 25.52700
C  5.90300 48.52300 24.82100
C  4.71700 48.53900 25.67900
C  5.29400 48.57100 26.97500
C  6.71300 48.68500 26.81800
C  3.29200 48.35200 25.28900
C  4.98100 48.55800 28.37900
O  3.91300 48.36200 28.96100
C  6.26000 48.78000 29.08900
C  6.43400 47.62900 29.93300
O  6.70400 46.45200 29.54400
O  6.07100 48.07100 31.22100
C  5.84200 47.00400 32.20500
H  12.88800 49.83400 27.17800
H  11.10800 47.46500 21.34400
H  4.98400 48.11700 22.97600
H  9.03300 50.32400 29.95200
H  11.73500 50.02400 29.34400
H  10.96100 52.01900 27.59600
H  11.23700 52.39700 29.34100
H  9.63300 52.16400 28.82600
H  10.89900 47.96900 30.26200
H  9.26800 47.54200 30.07300
H  9.15200 49.47600 32.05500
H  10.84000 48.72800 32.13700
H  15.48700 48.03400 24.97700
H  14.76300 48.99400 26.25100
H  15.31500 49.79200 24.89500
H  15.80200 48.64300 22.37800
H  15.76400 47.14800 21.36500
H  15.63400 47.01300 23.15100
H  9.01700 46.49500 20.59300
H  6.53600 48.21500 20.82200
H  9.62700 49.14100 19.97100
H  8.00200 48.97900 19.40400
H  9.12500 47.75200 18.88200
H  6.25100 45.71200 20.34800
H  5.44700 46.09500 21.93900
H  7.92900 45.24400 22.84500
H  7.78700 44.47400 21.23000
H  6.57000 44.17900 22.47400
H  2.76500 49.11700 24.71800
H  2.77200 48.22100 26.23800
H  3.04000 47.52200 24.62900
H  6.13400 49.67800 29.69500
H  5.88300 46.00700 31.76700
H  4.89200 47.25700 32.67500
H  6.59700 47.15200 32.97800

