158

Mg 30.48300 57.86300 40.26100
C  27.63400 56.11600 39.04000
C  32.38900 55.12800 39.30900
C  33.22600 59.77600 40.42500
C  28.45000 60.60700 40.87300
N  30.04100 55.86000 39.04500
C  28.78300 55.31000 38.90500
C  28.86000 53.83800 38.52500
C  30.36400 53.44200 39.02000
C  30.98200 54.90100 39.15400
C  30.51500 52.52600 40.25600
C  28.67100 53.66100 37.02200
C  28.90900 54.79000 36.02500
H  28.01000 54.93300 34.78000
N  32.52000 57.49600 39.93900
C  33.11700 56.29700 39.54900
C  34.51000 56.48500 39.31100
C  34.76300 57.91600 39.51400
C  33.44800 58.49400 39.93700
C  35.35900 55.31200 38.87600
C  36.02300 58.62300 39.29300
O  37.06800 58.00900 39.05700
C  36.20000 60.17700 39.28800
N  30.83000 59.94200 40.61000
C  32.02900 60.47200 40.74100
C  31.91200 62.02800 41.06800
C  30.35000 62.20500 41.26300
C  29.84100 60.86900 40.86400
C  32.82000 62.52700 42.21200
C  29.74800 63.32700 40.34000
C  28.71100 64.40300 40.87800
N  28.48200 58.27200 40.03300
C  27.78800 59.41200 40.41200
C  26.37300 59.26100 40.11900
C  26.25800 57.97800 39.56500
C  27.55100 57.46100 39.53300
C  25.32000 60.29300 40.31200
C  25.33600 57.02200 39.03100
O  24.13800 57.09800 39.01700
C  26.20000 55.62000 38.81000
C  25.72300 54.66200 39.84300
O  25.61400 55.02100 40.98800
O  25.31300 53.48900 39.32100
C  24.57800 52.49600 40.14100
H  32.91600 54.19300 39.10900
H  34.06500 60.47100 40.50000
H  27.83800 61.49000 41.06600
H  28.09900 53.23600 39.02200
H  30.79500 52.80100 38.25000
H  31.00300 51.56000 40.12500
H  29.54900 52.32900 40.72100
H  31.11300 53.02500 41.01900
H  27.66800 53.30100 36.79600
H  29.35200 52.84300 36.78400
H  29.84600 54.51700 35.54000
H  28.83700 55.78100 36.47400
H  36.30200 55.62800 38.43000
H  34.91500 54.55400 38.23100
H  35.64300 54.79000 39.79000
H  36.14600 60.57200 40.30200
H  35.44400 60.71200 38.71300
H  37.08800 60.54900 38.77800
H  32.26300 62.53900 40.17100
H  30.09300 62.35700 42.31100
H  33.35200 61.68000 42.64400
H  32.22600 62.91200 43.04100
H  33.46700 63.33400 41.87000
H  29.38700 62.83300 39.43800
H  30.60800 63.87100 39.94900
H  29.24800 65.34000 41.02400
H  28.40300 64.12700 41.88700
H  27.79400 64.53300 40.30300
H  24.75900 60.05300 41.21600
H  24.63800 60.43500 39.47400
H  25.77300 61.26100 40.52600
H  25.96600 55.15100 37.85400
H  24.92200 52.41900 41.17200
H  24.54400 51.52100 39.65500
H  23.56000 52.88500 40.11900
Mg -1.56000 34.91700 25.88000
C  -3.49000 33.50900 28.44800
C  -0.67700 37.42800 28.04500
C  0.14700 36.30600 23.37500
C  -2.87400 32.54300 23.68300
N  -2.06600 35.42000 28.04700
C  -2.83200 34.69500 28.85600
C  -2.69700 35.09600 30.32400
C  -1.95800 36.45700 30.18400
C  -1.59400 36.53100 28.67600
C  -2.82100 37.61800 30.70100
C  -1.99000 34.04300 31.13200
C  -1.53800 34.56900 32.49600
H  -1.79300 33.57900 33.60400
N  -0.35700 36.57700 25.70700
C  -0.11800 37.46800 26.71900
C  0.81200 38.43200 26.25400
C  1.07900 38.09300 24.88100
C  0.23400 36.99300 24.59300
C  1.49600 39.51100 27.09300
C  2.04500 38.82100 24.00800
O  2.24800 38.53300 22.84100
C  2.86100 39.96800 24.45500
N  -1.38100 34.56300 23.82500
C  -0.62200 35.23700 22.95600
C  -0.51500 34.63400 21.56500
C  -1.44200 33.40900 21.75000
C  -1.89700 33.43700 23.22500
C  -0.94100 35.61500 20.41000
C  -0.80500 32.08500 21.17100
C  -0.53600 30.94900 22.20600
N  -3.06800 33.41800 25.91400
C  -3.44000 32.53200 24.94400
C  -4.37100 31.65100 25.54700
C  -4.36600 31.96500 26.93200
C  -3.63200 33.09500 27.07300
C  -5.14100 30.44300 24.88900
C  -4.84000 31.53900 28.21200
O  -5.50400 30.54500 28.50000
C  -4.24200 32.49000 29.29200
C  -5.37100 32.87500 30.19500
O  -6.13500 33.81700 30.00000
O  -5.49400 31.93200 31.13400
C  -6.41600 32.09800 32.28100
H  -0.41700 38.20400 28.76800
H  0.75300 36.77300 22.59600
H  -3.23900 31.65900 23.15700
H  -3.69800 35.18400 30.74700
H  -1.00100 36.44300 30.70500
H  -2.20000 38.26500 31.32000
H  -3.57900 37.19200 31.35800
H  -3.21400 38.24900 29.90400
H  -1.09700 33.88700 30.52700
H  -2.60600 33.14600 31.19300
H  -1.89700 35.56900 32.74000
H  -0.45200 34.53400 32.58100
H  2.55900 39.27400 27.05000
H  1.18300 39.40400 28.13200
H  1.22100 40.49500 26.71300
H  2.42300 40.69400 25.14000
H  3.19000 40.57700 23.61300
H  3.65300 39.41100 24.95600
H  0.51300 34.27200 21.55800
H  -2.39800 33.55600 21.24800
H  -1.97400 35.42200 20.12100
H  -0.26200 35.62900 19.55700
H  -0.85100 36.65600 20.72100
H  0.20000 32.31700 20.81800
H  -1.47700 31.73000 20.38900
H  -0.10500 31.35700 23.12100
H  0.21600 30.27100 21.80200
H  -1.48000 30.41400 22.30600
H  -5.99000 30.29400 25.55700
H  -4.48400 29.57800 24.79600
H  -5.56300 30.69500 23.91600
H  -3.51600 31.81100 29.73800
H  -6.11400 33.01100 32.79500
H  -6.44000 31.24700 32.96100
H  -7.41000 32.09300 31.83200

