158

Mg 41.38700 8.80100 29.95500
C  43.03900 10.05600 32.69800
C  39.09400 7.11200 31.95500
C  39.92500 7.42900 27.22600
C  43.86700 10.07100 27.84100
N  41.14100 8.55200 32.08500
C  41.83200 9.30700 33.03100
C  41.29900 9.03600 34.38700
C  40.19200 7.95100 34.11900
C  40.12100 7.84000 32.63300
C  40.35100 6.58400 34.95800
C  40.92000 10.34900 35.07600
C  40.66100 10.15700 36.57500
H  41.42800 11.07400 37.61700
N  39.64200 7.54000 29.63900
C  38.80100 7.04400 30.58000
C  37.68300 6.43600 29.92800
C  37.82100 6.52700 28.52600
C  39.19000 7.14500 28.42500
C  36.58800 5.65600 30.68900
C  36.83200 6.05800 27.47300
O  37.18700 6.08000 26.32000
C  35.39300 5.50300 27.80300
N  41.85000 8.63200 27.78300
C  41.08500 8.09400 26.89800
C  41.60100 8.38800 25.48300
C  42.92300 9.21500 25.69300
C  42.83700 9.39300 27.17600
C  41.79200 7.12300 24.58800
C  42.97600 10.56000 24.93600
C  44.12100 10.58700 23.92700
N  43.20300 9.83000 30.15800
C  44.08000 10.27500 29.19000
C  45.16900 10.85000 29.94300
C  44.79300 10.80000 31.29000
C  43.57700 10.16100 31.37000
C  46.31000 11.43700 29.24800
C  45.18600 11.22900 32.59800
O  46.22500 11.73900 33.03600
C  44.06500 10.72000 33.56300
C  44.68200 9.78200 34.57400
O  45.20600 8.70100 34.29600
O  44.74800 10.40800 35.79500
C  45.37000 9.58600 36.83700
H  38.51700 6.61200 32.73600
H  39.49200 7.03500 26.30500
H  44.63300 10.45100 27.16200
H  42.12100 8.60600 34.96000
H  39.21800 8.30100 34.46100
H  39.42500 6.46000 35.51900
H  41.10600 6.55100 35.74300
H  40.56500 5.79400 34.23800
H  40.02900 10.79800 34.63600
H  41.70800 11.08900 34.94200
H  40.76300 9.11400 36.87500
H  39.61100 10.36000 36.78400
H  36.62600 5.78900 31.77100
H  36.67700 4.59100 30.47400
H  35.59300 6.06700 30.51700
H  34.88400 5.17900 26.89400
H  34.87400 6.32600 28.29400
H  35.50300 4.57100 28.35700
H  40.84700 9.05800 25.07000
H  43.80100 8.59000 25.53400
H  41.71900 6.19900 25.16100
H  42.64900 7.16600 23.91500
H  40.91600 7.13200 23.94000
H  43.14900 11.35700 25.66000
H  42.04400 10.75500 24.40600
H  44.00000 11.29000 23.10300
H  44.30700 9.65100 23.39900
H  45.06900 10.90200 24.36100
H  46.78200 12.16000 29.91300
H  45.97700 12.03100 28.39700
H  47.05100 10.74000 28.85500
H  43.75000 11.59500 34.13100
H  46.44600 9.68900 36.97300
H  44.93400 8.58800 36.88800
H  45.07600 10.02000 37.79200
Mg 49.02500 35.14100 27.08900
C  47.00300 34.01300 29.81000
C  49.61200 37.95100 28.94700
C  50.05700 36.53500 24.33900
C  47.80000 32.39900 25.23000
N  48.46000 35.78200 29.25000
C  47.68700 35.15000 30.15200
C  47.67300 35.92200 31.44900
C  48.08200 37.37100 31.00500
C  48.78600 37.01600 29.65300
C  46.88500 38.46000 30.97100
C  48.60500 35.33800 32.58700
C  47.88700 35.05200 33.93800
H  46.91500 36.07800 34.41300
N  49.94600 36.89300 26.74200
C  50.10800 37.92700 27.59600
C  50.86800 39.01200 26.97700
C  50.87900 38.72600 25.55800
C  50.27400 37.36900 25.46800
C  51.26000 40.21100 27.75200
C  51.47800 39.49000 24.44300
O  51.42000 39.01600 23.31200
C  52.15900 40.78000 24.63900
N  48.98100 34.47700 25.06500
C  49.55900 35.29200 24.13400
C  49.32300 34.68000 22.76100
C  48.82500 33.20100 23.05900
C  48.56300 33.35500 24.58600
C  48.23900 35.43400 21.92700
C  49.83700 32.01500 22.79500
C  49.66300 31.26100 21.46500
N  47.75200 33.46500 27.44000
C  47.43100 32.39500 26.61000
C  46.67400 31.39700 27.34500
C  46.43100 31.98000 28.61700
C  47.07900 33.24900 28.59700
C  46.03300 30.04600 26.88900
C  45.58200 31.88500 29.80300
O  44.69600 30.99200 30.11100
C  46.02700 33.13400 30.62900
C  46.63800 32.57200 31.93100
O  47.75800 32.11200 32.04800
O  45.68000 32.39400 32.93900
C  46.06700 31.52800 34.01000
H  49.74700 38.87500 29.51300
H  50.35400 36.92600 23.36400
H  47.42900 31.60700 24.57500
H  46.62900 35.83900 31.75300
H  48.92300 37.84500 31.51100
H  47.15800 39.39700 31.45500
H  46.05500 37.97900 31.48900
H  46.58800 38.73300 29.95800
H  49.43300 35.93200 32.97200
H  48.96600 34.42100 32.12100
H  48.64500 34.96700 34.71600
H  47.34300 34.10800 33.92000
H  50.43000 40.88400 27.96900
H  51.90700 40.96500 27.30300
H  51.76300 39.81900 28.63500
H  51.43500 41.36400 25.20700
H  52.41900 41.31600 23.72700
H  53.00800 40.49200 25.26000
H  50.24100 34.61500 22.17600
H  47.83300 32.97500 22.66700
H  47.29900 34.90500 21.77100
H  48.56600 35.82000 20.96100
H  47.87600 36.24100 22.56200
H  49.76100 31.33800 23.64600
H  50.83900 32.44400 22.81000
H  50.65200 31.30100 21.01000
H  48.93100 31.67800 20.77200
H  49.40100 30.25500 21.79200
H  46.25200 29.89600 25.83200
H  44.95800 30.04500 27.07000
H  46.58900 29.31600 27.47700
H  45.16000 33.74600 30.87500
H  45.13500 31.23100 34.49100
H  46.70400 32.02900 34.73900
H  46.50000 30.57100 33.72100

