158

Mg -2.54600 34.56100 26.64500
C  -3.55200 32.36100 29.23100
C  -0.95000 36.51200 28.94400
C  -1.87600 36.77800 24.12300
C  -4.44300 32.68100 24.42000
N  -2.17400 34.25000 28.81400
C  -2.65600 33.31900 29.71900
C  -2.44500 33.77000 31.12800
C  -1.78500 35.18200 31.02200
C  -1.66200 35.34200 29.46900
C  -2.73200 36.38200 31.69700
C  -1.83600 32.78200 32.16600
C  -2.48800 32.86900 33.58000
H  -1.60300 32.52700 34.74500
N  -1.46000 36.30300 26.54500
C  -0.81800 36.91400 27.57600
C  -0.14300 38.09700 27.10700
C  -0.42200 38.17800 25.70900
C  -1.27300 37.04400 25.35600
C  0.81200 38.98500 27.89200
C  0.12100 39.21500 24.66200
O  -0.11500 39.13500 23.45600
C  0.90900 40.41200 25.09200
N  -3.24900 34.79000 24.51800
C  -2.61600 35.67700 23.73800
C  -3.04500 35.34600 22.30600
C  -3.72700 33.99800 22.32500
C  -3.90900 33.83900 23.80000
C  -4.07500 36.42200 21.82000
C  -2.97600 32.85400 21.51100
C  -1.80900 32.05200 22.16400
N  -3.77100 32.94700 26.76800
C  -4.43500 32.25400 25.80000
C  -5.19300 31.12100 26.38900
C  -4.84000 31.14600 27.69600
C  -3.95400 32.23400 27.91200
C  -5.98300 30.09300 25.70900
C  -4.97000 30.35700 28.90300
O  -5.54100 29.27200 29.07500
C  -4.41800 31.37300 30.04400
C  -5.54000 32.10400 30.73900
O  -6.12800 33.05400 30.23600
O  -5.81200 31.49900 31.93800
C  -6.63300 32.31900 32.91800
H  -0.41800 37.15200 29.65100
H  -1.66500 37.39000 23.24400
H  -5.03700 32.03100 23.77400
H  -3.45900 33.89000 31.51100
H  -0.80200 35.24900 31.48900
H  -3.71300 35.95600 31.90900
H  -2.75700 37.25900 31.05000
H  -2.22900 36.59900 32.63900
H  -0.76100 32.93700 32.25100
H  -1.89200 31.78800 31.72200
H  -3.07700 31.95200 33.56500
H  -3.13800 33.73300 33.71600
H  1.20000 38.44500 28.75600
H  0.28100 39.89300 28.18000
H  1.73200 39.16800 27.33700
H  1.18900 41.17000 24.36000
H  1.94800 40.10500 25.20400
H  0.33300 40.70200 25.97100
H  -2.15600 35.31600 21.67600
H  -4.79100 33.99600 22.08900
H  -4.34700 37.14100 22.59200
H  -5.04400 36.09700 21.43900
H  -3.67500 37.10000 21.06600
H  -2.62100 33.16000 20.52700
H  -3.67900 32.04000 21.33500
H  -0.99200 32.22400 21.46400
H  -1.90800 30.97900 22.33400
H  -1.56400 32.51500 23.12000
H  -5.80500 30.05700 24.63400
H  -6.98300 30.44500 25.96000
H  -5.85800 29.06400 26.04500
H  -3.84900 30.73300 30.71700
H  -5.97200 32.96900 33.49200
H  -7.05300 31.51100 33.51700
H  -7.41400 32.84700 32.37000
Mg -5.97400 24.89100 26.09100
C  -4.17200 26.43100 28.60500
C  -7.41500 22.89400 28.54000
C  -7.07000 22.92300 23.53300
C  -4.21900 26.96100 23.68900
N  -5.76200 24.61900 28.25300
C  -5.03400 25.50700 29.09700
C  -5.40900 25.24900 30.55600
C  -6.12800 23.90400 30.51200
C  -6.41700 23.76300 29.00800
C  -5.26500 22.85700 31.11800
C  -6.22700 26.40800 31.15600
C  -5.43000 27.00000 32.38800
H  -5.00500 25.99600 33.45400
N  -7.22100 23.25100 26.07900
C  -7.79400 22.68300 27.17300
C  -8.75800 21.67900 26.67200
C  -8.61400 21.66700 25.26000
C  -7.59200 22.64200 24.88700
C  -9.70200 20.96500 27.56500
C  -9.32900 20.78200 24.30400
O  -9.21400 20.79100 23.06700
C  -10.27100 19.79300 24.70700
N  -5.77200 24.94700 23.91000
C  -6.27600 24.01100 23.07700
C  -5.82800 24.23000 21.61400
C  -5.25000 25.70600 21.70700
C  -5.06400 25.92900 23.20200
C  -4.81300 23.10900 21.16400
C  -6.15500 26.82400 21.08500
C  -5.48400 27.56300 19.90700
N  -4.52600 26.36900 26.10100
C  -3.97600 27.14800 25.09400
C  -2.96200 28.03100 25.59900
C  -3.03800 27.75900 27.03700
C  -3.94500 26.72900 27.24000
C  -2.26300 29.08200 24.81700
C  -2.50600 28.15100 28.25500
O  -1.68900 28.97500 28.42600
C  -3.15900 27.31300 29.32800
C  -2.13000 26.56900 30.05600
O  -1.65700 25.45500 29.74900
O  -1.84600 27.28700 31.21300
C  -1.05900 26.63700 32.30300
H  -7.77000 22.28200 29.37200
H  -7.30100 22.28400 22.67800
H  -3.65200 27.59700 23.00500
H  -4.46100 25.16700 31.08700
H  -7.03300 23.96300 31.11700
H  -5.71700 22.69700 32.09700
H  -4.20100 23.04300 31.26700
H  -5.44700 21.97500 30.50400
H  -7.26200 26.16800 31.39700
H  -6.46500 27.22500 30.47400
H  -6.06600 27.76600 32.83100
H  -4.53200 27.56700 32.14300
H  -9.43500 19.97200 27.92800
H  -10.69500 21.02200 27.11900
H  -9.80800 21.57300 28.46300
H  -10.33300 19.04800 23.91300
H  -11.25000 20.27100 24.73600
H  -9.85500 19.31300 25.59300
H  -6.70900 24.26000 20.97400
H  -4.23900 25.76100 21.30200
H  -3.84900 23.61300 21.09600
H  -5.03900 22.69600 20.18100
H  -4.72000 22.32100 21.91200
H  -6.38300 27.67600 21.72600
H  -7.09000 26.40100 20.71700
H  -6.28600 27.49900 19.17200
H  -4.62300 27.03100 19.50200
H  -5.41200 28.60500 20.22000
H  -2.93700 29.72700 24.25200
H  -1.72300 28.53500 24.04400
H  -1.52600 29.62100 25.41200
H  -3.61900 27.93200 30.09800
H  -1.55400 25.81600 32.82200
H  -0.79000 27.34400 33.08800
H  -0.08600 26.26700 31.98000

