158

Mg 47.34100 25.07800 29.67600
C  48.07600 27.58200 31.99300
C  45.88700 23.29800 32.04600
C  46.66400 22.76300 27.29600
C  49.10300 27.00500 27.16400
N  47.15000 25.27800 31.75900
C  47.35300 26.49800 32.54400
C  46.92300 26.31500 34.03900
C  46.48800 24.74200 34.07200
C  46.52000 24.39800 32.54600
C  47.33300 23.89200 35.09200
C  45.85700 27.33100 34.50600
C  45.94300 27.99800 35.90100
H  46.39700 27.08200 37.07400
N  46.38200 23.28800 29.72200
C  45.81500 22.71500 30.78500
C  45.07400 21.52200 30.46800
C  45.23900 21.36600 29.05700
C  46.07800 22.45600 28.59100
C  44.23300 20.67900 31.41100
C  44.72100 20.27000 28.18000
O  45.03400 20.18900 27.03100
C  43.76900 19.26100 28.75200
N  47.96800 24.85100 27.55900
C  47.57400 23.78700 26.81000
C  48.15700 23.86600 25.33900
C  48.76500 25.32000 25.33400
C  48.62300 25.76100 26.77600
C  49.12700 22.69700 25.04400
C  48.24700 26.39100 24.36900
C  49.24800 27.14900 23.45500
N  48.41300 26.84900 29.50100
C  48.97300 27.57500 28.44300
C  49.49800 28.75300 28.95500
C  49.25000 28.78900 30.35700
C  48.49900 27.65000 30.66600
C  50.15700 29.84400 28.18200
C  49.38600 29.55400 31.58700
O  49.93600 30.68700 31.74200
C  48.51000 28.85900 32.65600
C  49.31400 28.64900 33.88300
O  50.04600 27.66800 34.02800
O  49.10000 29.67400 34.71700
C  49.61500 29.55500 36.08100
H  45.36300 22.69100 32.78700
H  46.35800 22.03500 26.54200
H  49.44200 27.65100 26.35200
H  47.73500 26.47400 34.74900
H  45.42900 24.65600 34.31600
H  48.20300 23.62000 34.49300
H  46.87600 22.91700 35.26300
H  47.66500 24.52700 35.91300
H  44.92800 26.76100 34.49500
H  45.77000 28.21000 33.86800
H  45.07800 28.59200 36.19500
H  46.78000 28.69100 35.82000
H  43.19100 20.77500 31.10700
H  44.32900 21.10300 32.41100
H  44.81400 19.77000 31.56700
H  44.30600 18.76900 29.56300
H  43.63700 18.52000 27.96400
H  42.78000 19.57400 29.08700
H  47.32100 23.93700 24.64300
H  49.85000 25.31400 25.23400
H  49.99600 23.23500 24.66600
H  48.70900 22.09600 24.23600
H  49.26700 22.16600 25.98500
H  47.73800 27.15000 24.96200
H  47.45500 25.97000 23.75000
H  50.28200 26.84900 23.62600
H  49.30200 28.23400 23.54600
H  49.09200 27.04200 22.38200
H  49.65400 30.70700 28.61700
H  49.92400 29.68400 27.12900
H  51.23700 29.97400 28.25100
H  47.64500 29.50300 32.81200
H  49.95000 30.54600 36.39000
H  50.38800 28.79200 35.99100
H  48.81100 29.15900 36.70100
Mg -2.19000 35.25900 26.74100
C  -3.74100 33.36800 29.22900
C  -0.63700 37.19300 29.13200
C  -0.87200 37.00200 24.32500
C  -4.18600 33.51000 24.31400
N  -2.22300 35.37500 28.93800
C  -2.95300 34.46500 29.70600
C  -2.69100 34.66500 31.20400
C  -1.83800 36.02900 31.10800
C  -1.60500 36.30200 29.63300
C  -2.30700 37.29600 31.90100
C  -1.95300 33.44400 31.85400
C  -2.58900 32.76900 33.07400
H  -1.73100 32.49600 34.35200
N  -0.83500 36.87400 26.73400
C  -0.27700 37.40800 27.77500
C  0.71300 38.39100 27.35300
C  0.62600 38.43200 25.95300
C  -0.37900 37.41400 25.58900
C  1.54800 39.27700 28.39900
C  1.34500 39.25900 24.88500
O  1.05400 39.29000 23.70700
C  2.42500 40.19200 25.32900
N  -2.63800 35.40000 24.65600
C  -1.89000 36.18500 23.85800
C  -2.47500 36.33200 22.50200
C  -3.28700 35.00300 22.44500
C  -3.53300 34.68200 23.91500
C  -3.27700 37.66400 22.31100
C  -2.68800 33.78300 21.71800
C  -1.24600 33.33500 22.21600
N  -3.60200 33.74900 26.76800
C  -4.21700 33.06100 25.70200
C  -4.90000 31.93500 26.21000
C  -4.73500 31.98200 27.63600
C  -3.93100 33.08200 27.91600
C  -5.73500 31.02000 25.38200
C  -5.16800 31.35300 28.83200
O  -5.83300 30.32400 28.97000
C  -4.57500 32.30600 29.96300
C  -5.74100 32.85700 30.76500
O  -6.55300 33.66300 30.33200
O  -5.75700 32.33500 31.99400
C  -6.79200 32.66200 33.00800
H  -0.03600 37.71900 29.87700
H  -0.52400 37.66500 23.53000
H  -4.50700 32.79500 23.55300
H  -3.69800 34.77000 31.60600
H  -0.77200 35.95600 31.31900
H  -1.52300 37.47800 32.63600
H  -3.29200 37.14100 32.34200
H  -2.31400 38.15200 31.22700
H  -0.99700 33.82800 32.20700
H  -1.85400 32.65000 31.11300
H  -2.94200 31.77800 32.79300
H  -3.51500 33.17200 33.48300
H  1.27800 40.30700 28.16400
H  2.61200 39.11100 28.23200
H  1.32200 39.06900 29.44500
H  2.98900 40.61400 24.49600
H  3.08000 39.69400 26.04300
H  1.85800 40.97400 25.83400
H  -1.64000 36.23500 21.80800
H  -4.26400 35.24200 22.02400
H  -3.35400 38.26000 23.22000
H  -4.31400 37.47800 22.03100
H  -2.72200 38.25900 21.58600
H  -2.57900 34.08000 20.67500
H  -3.45800 33.01600 21.62800
H  -0.70200 33.99200 22.89400
H  -0.66800 33.03400 21.34200
H  -1.39000 32.42600 22.80000
H  -6.03400 30.11100 25.90300
H  -5.23500 30.73600 24.45600
H  -6.69800 31.50000 25.20600
H  -3.94600 31.68400 30.59900
H  -7.22900 31.76300 33.44400
H  -7.67000 33.10700 32.54000
H  -6.30300 33.25800 33.77800

