158

Mg 40.10800 8.65700 29.29300
C  41.84900 9.75800 32.20000
C  37.82900 7.03900 31.45800
C  38.58400 7.58700 26.70500
C  42.87400 9.56800 27.52600
N  39.96100 8.33900 31.67600
C  40.65300 9.10000 32.60500
C  40.00800 8.85500 33.97100
C  38.76100 8.00200 33.79100
C  38.83500 7.76900 32.24100
C  38.74200 6.77300 34.66300
C  39.74400 10.18700 34.70300
C  40.01900 10.29900 36.19200
H  40.38500 11.62500 36.88100
N  38.47900 7.46100 29.13200
C  37.73800 6.83100 30.07800
C  36.60300 6.14300 29.41700
C  36.78900 6.32400 28.03300
C  37.97700 7.18200 27.92300
C  35.53400 5.44400 30.09500
C  35.92900 5.78500 26.85400
O  36.36100 5.82600 25.69200
C  34.56800 5.12500 27.13200
N  40.84800 8.23400 27.38000
C  39.89000 8.01600 26.45400
C  40.45500 8.06600 25.03600
C  41.79300 8.96400 25.29600
C  41.85200 8.95200 26.81600
C  40.89300 6.71800 24.38900
C  41.59900 10.40200 24.80200
C  40.44300 11.22400 25.27500
N  41.88900 9.57900 29.66200
C  42.94200 9.83600 28.85800
C  43.94200 10.56200 29.52800
C  43.54800 10.54000 30.83500
C  42.31200 9.90700 30.90000
C  45.19600 11.06200 28.92100
C  43.98100 10.92800 32.14700
O  44.91200 11.57300 32.54300
C  42.84500 10.41300 33.10500
C  43.34700 9.33200 34.06200
O  43.53900 8.19500 33.68400
O  43.34800 9.72100 35.38400
C  43.96800 8.91200 36.46700
H  37.01500 6.70300 32.10300
H  38.06100 7.32900 25.78200
H  43.73500 9.90500 26.94500
H  40.75000 8.30600 34.55100
H  37.84400 8.57400 33.93600
H  39.56600 6.76200 35.37700
H  38.78200 5.83300 34.11100
H  37.93200 6.76300 35.39300
H  38.69800 10.42900 34.51700
H  40.29800 11.03100 34.29000
H  40.76000 9.51800 36.36600
H  39.07100 10.19300 36.72000
H  35.79700 5.33200 31.14700
H  35.31200 4.44500 29.72100
H  34.56500 5.91900 29.94100
H  34.07300 5.88600 27.73600
H  34.74300 4.22000 27.71300
H  34.04000 4.82600 26.22600
H  39.72200 8.54600 24.38800
H  42.75000 8.58400 24.93800
H  41.89100 6.76100 23.95300
H  40.38000 6.29400 23.52500
H  40.76300 5.91800 25.11800
H  41.56100 10.24700 23.72400
H  42.52100 10.88200 25.13000
H  39.93300 10.74000 26.10800
H  39.74100 11.52200 24.49500
H  40.75200 12.20100 25.64600
H  45.64800 10.30100 28.28500
H  45.87700 11.31700 29.73300
H  44.96400 11.86200 28.21800
H  42.33900 11.12700 33.75400
H  45.01100 9.22100 36.39600
H  43.79200 7.84000 36.38400
H  43.48500 9.26300 37.37900
Mg 53.27900 23.57400 44.51900
C  50.55600 25.65600 43.72500
C  51.86600 21.04300 42.86500
C  56.30100 22.17900 44.46200
C  54.80300 26.70900 45.55600
N  51.54800 23.47500 43.23300
C  50.52800 24.36900 43.12500
C  49.44300 23.86600 42.17000
C  49.68200 22.23400 42.29900
C  51.14600 22.24200 42.77100
C  48.69900 21.41100 43.17500
C  49.63700 24.42300 40.72500
C  48.37400 24.79600 39.95300
H  47.88300 23.72600 38.88600
N  53.95900 21.77600 43.88900
C  53.18900 20.88400 43.26000
C  54.02200 19.70300 43.07500
C  55.31400 19.97000 43.44000
C  55.28400 21.38200 43.90700
C  53.46600 18.39300 42.53000
C  56.56800 19.03900 43.42700
O  56.56200 17.89500 43.00500
C  57.85600 19.42100 43.96800
N  55.25000 24.34400 44.84700
C  56.29500 23.45400 44.95700
C  57.59600 24.11100 45.70300
C  57.11100 25.57700 45.85500
C  55.63600 25.56400 45.41500
C  57.96200 23.46600 47.08000
C  57.88000 26.70500 45.06100
C  58.54700 27.80200 45.82400
N  52.81300 25.74300 44.71900
C  53.49100 26.83000 45.28100
C  52.56800 27.89800 45.50400
C  51.42800 27.50600 44.87900
C  51.63400 26.20900 44.38500
C  53.01000 29.12600 46.31400
C  50.07100 27.84200 44.64800
O  49.47900 28.85400 44.99500
C  49.44600 26.71800 43.80400
C  49.04100 27.31000 42.47700
O  49.70200 27.59800 41.53000
O  47.66000 27.46200 42.53500
C  47.12200 27.89800 41.31700
H  51.37000 20.12800 42.53600
H  57.26400 21.74400 44.73700
H  55.24200 27.61100 45.98900
H  48.46100 24.08100 42.59300
H  49.70600 21.71500 41.34100
H  48.69900 21.55400 44.25500
H  48.77200 20.34500 42.96000
H  47.66300 21.54800 42.86400
H  50.26100 23.77200 40.11200
H  50.29800 25.27700 40.87200
H  48.60900 25.73400 39.44900
H  47.59500 25.00700 40.68600
H  53.92000 17.55200 43.05600
H  53.60300 18.42700 41.45000
H  52.39100 18.32000 42.69500
H  58.34700 20.10000 43.27100
H  58.55800 18.58900 44.00800
H  57.76500 19.81000 44.98200
H  58.41300 24.09200 44.98000
H  57.13400 25.75400 46.93000
H  58.09800 24.12000 47.94200
H  58.97700 23.08400 46.97300
H  57.37900 22.57100 47.29300
H  57.19400 27.20100 44.37400
H  58.67800 26.24000 44.48200
H  58.18000 28.68700 45.30300
H  59.62500 27.63900 45.84300
H  58.18200 27.80100 46.85100
H  52.14100 29.76400 46.47100
H  53.65300 29.71100 45.65700
H  53.61200 28.93800 47.20300
H  48.53600 26.32400 44.25500
H  47.49500 28.88500 41.04200
H  46.06000 27.78300 41.52900
H  47.37400 27.24300 40.48200

