158

Mg 8.96300 47.69600 26.64400
C  6.61400 47.82000 29.42900
C  11.47100 48.23100 28.81600
C  11.07800 47.54600 24.11200
C  6.24400 47.47200 24.53700
N  9.00600 47.85500 28.88400
C  7.96800 47.94600 29.82600
C  8.60300 48.38800 31.16600
C  10.02700 48.84500 30.87700
C  10.21900 48.20700 29.44100
C  10.28500 50.36400 30.95400
C  8.44500 47.30300 32.30500
C  8.22000 47.86100 33.68200
H  8.12900 46.81600 34.77100
N  11.00000 47.73500 26.49100
C  11.88000 48.11600 27.49200
C  13.18500 48.16800 26.97600
C  13.11600 47.66300 25.63600
C  11.68300 47.64700 25.33600
C  14.37100 48.56800 27.73800
C  14.18200 47.21200 24.70500
O  13.99200 46.72300 23.60700
C  15.61300 47.35700 25.23600
N  8.72400 47.85500 24.63400
C  9.69900 47.62800 23.75200
C  9.15300 47.41700 22.33400
C  7.65200 47.45000 22.44300
C  7.50800 47.53600 24.01500
C  9.80000 48.21400 21.15800
C  7.06900 46.23600 21.82500
C  5.54800 46.39900 21.43200
N  6.88800 47.63400 26.85500
C  5.92100 47.56700 25.91900
C  4.67800 47.62400 26.58300
C  4.89400 47.66400 27.95800
C  6.27400 47.67900 28.05900
C  3.51600 47.78700 25.77300
C  4.21900 47.76300 29.23300
O  3.00800 47.76900 29.46700
C  5.36900 47.65500 30.27200
C  5.31000 46.30900 30.91000
O  5.89700 45.32300 30.51000
O  4.48500 46.42700 31.98600
C  4.46000 45.25300 32.92200
H  12.31400 48.45600 29.47300
H  11.70400 47.33000 23.24300
H  5.41200 47.15600 23.90500
H  7.94500 49.17200 31.54000
H  10.69500 48.28000 31.52700
H  9.40500 50.88200 30.57300
H  11.09600 50.69900 30.30700
H  10.50100 50.76800 31.94300
H  9.26600 46.58600 32.29900
H  7.54700 46.70400 32.15500
H  7.26300 48.37200 33.78700
H  9.06900 48.53100 33.82100
H  14.19800 48.78800 28.79100
H  14.79300 49.49900 27.36000
H  14.98700 47.67200 27.82200
H  15.79100 48.41800 25.41400
H  16.32500 46.99000 24.49700
H  15.80700 46.72300 26.10100
H  9.36500 46.36000 22.16900
H  7.28200 48.38400 22.01900
H  10.04600 47.49000 20.38100
H  10.65600 48.78100 21.52600
H  9.07600 48.98000 20.88100
H  7.13100 45.34900 22.45600
H  7.44900 45.97000 20.83900
H  5.09400 45.53600 21.91800
H  5.40800 46.27000 20.35900
H  5.26200 47.42800 21.65000
H  3.19400 46.84000 25.34000
H  3.62300 48.63300 25.09400
H  2.69300 48.04700 26.43800
H  5.20200 48.33100 31.11000
H  5.16700 44.45500 32.69400
H  3.50000 44.74600 32.82700
H  4.43400 45.50100 33.98300
Mg -11.06900 40.63300 42.03600
C  -10.40100 37.21200 40.96200
C  -7.85500 41.47500 41.10300
C  -12.05900 43.83500 41.79300
C  -14.24600 39.58200 42.70100
N  -9.32900 39.45900 40.96900
C  -9.25700 38.06700 40.70600
C  -7.88700 37.70000 40.18400
C  -7.02300 38.99700 40.62600
C  -8.08700 40.10100 40.81500
C  -6.18200 38.69700 41.88900
C  -7.90900 37.50400 38.67400
C  -7.15300 36.22900 38.24100
H  -5.84600 36.49300 37.41700
N  -10.06600 42.38700 41.62000
C  -8.74300 42.50800 41.38500
C  -8.36000 43.90400 41.39400
C  -9.61300 44.60300 41.46500
C  -10.63400 43.60900 41.67200
C  -6.94400 44.28300 41.27600
C  -9.73500 46.14300 41.25500
O  -8.76700 46.83200 40.83800
C  -11.06700 46.77600 41.38000
N  -12.93500 41.55400 42.06300
C  -13.12700 42.89500 41.96000
C  -14.61400 43.26300 42.15600
C  -15.19200 41.87900 42.65700
C  -14.03600 40.94700 42.57100
C  -14.92900 44.51300 42.94500
C  -16.50100 41.46800 41.98100
C  -17.70200 40.89800 42.81000
N  -12.11600 38.81900 42.02200
C  -13.37800 38.51300 42.31000
C  -13.66900 37.00200 42.27600
C  -12.54600 36.55500 41.71300
C  -11.59000 37.64500 41.56400
C  -14.94000 36.28300 42.67900
C  -11.93000 35.28500 41.30000
O  -12.28300 34.13600 41.48400
C  -10.52700 35.69600 40.77000
C  -9.44300 34.96500 41.52800
O  -8.89400 35.33500 42.51400
O  -9.16700 33.81600 40.90900
C  -8.15300 32.92600 41.46000
H  -6.80500 41.68600 40.89000
H  -12.39900 44.87200 41.83800
H  -15.23100 39.28600 43.06700
H  -7.48500 36.82300 40.69100
H  -6.31300 39.23700 39.83400
H  -6.68700 38.23300 42.73600
H  -5.85200 39.67600 42.23500
H  -5.31100 38.06100 41.73400
H  -7.37800 38.32500 38.19400
H  -8.92100 37.57800 38.27700
H  -7.89400 35.58300 37.76800
H  -6.86400 35.65600 39.12100
H  -6.25800 43.62500 41.81000
H  -6.66600 45.32700 41.42600
H  -6.61900 44.26400 40.23600
H  -11.65100 46.26800 40.61300
H  -11.05400 47.86500 41.42900
H  -11.46900 46.63900 42.38400
H  -14.96500 43.31100 41.12500
H  -15.57000 41.91000 43.67900
H  -14.05700 45.14800 43.10200
H  -15.39000 44.27200 43.90300
H  -15.74900 45.07300 42.49500
H  -16.28900 40.70900 41.22700
H  -16.89000 42.32900 41.43700
H  -18.10100 39.93200 42.50200
H  -18.60000 41.50800 42.72000
H  -17.35800 40.82600 43.84200
H  -14.87000 35.74600 43.62500
H  -15.12500 35.48700 41.95800
H  -15.83000 36.91000 42.62000
H  -10.66900 35.37900 39.73700
H  -8.65800 32.02100 41.79700
H  -7.65900 33.35200 42.33300
H  -7.38400 32.72700 40.71400

