158

Mg 8.14600 3.17200 27.11300
C  9.74100 1.84000 29.94200
C  6.16500 5.09000 29.17100
C  6.60000 4.22100 24.36700
C  9.72600 0.57800 25.24900
N  7.91400 3.33000 29.28500
C  8.73800 2.78100 30.19900
C  8.57400 3.48400 31.58900
C  7.25500 4.30000 31.38500
C  7.11200 4.31900 29.83900
C  5.90200 3.66400 31.97300
C  9.82700 4.32000 32.09600
C  9.52500 5.04500 33.42300
H  10.53700 4.94300 34.49900
N  6.65600 4.55400 26.80400
C  5.93300 5.20800 27.77100
C  5.08500 6.18800 27.15400
C  5.19300 5.97200 25.74400
C  6.18600 4.85200 25.59800
C  4.09300 7.13400 27.85000
C  4.48200 6.67600 24.62200
O  4.71900 6.48700 23.44800
C  3.42200 7.62600 24.84800
N  8.18500 2.51400 25.11100
C  7.40600 3.10900 24.13000
C  7.54000 2.47300 22.73500
C  8.62600 1.32900 23.03000
C  8.89000 1.50200 24.55100
C  6.20200 2.06500 22.03700
C  9.83800 1.31700 22.06200
C  9.84600 0.23500 21.00100
N  9.47300 1.52800 27.45000
C  10.00500 0.61200 26.62800
C  10.94500 -0.26900 27.38600
C  10.89600 0.19400 28.66900
C  9.95600 1.26900 28.69000
C  11.67100 -1.38100 26.88900
C  11.40000 -0.01700 30.02000
O  12.19300 -0.81400 30.43100
C  10.76000 1.06300 30.89600
C  10.05000 0.34800 31.97100
O  8.87400 -0.12200 31.88800
O  10.84300 0.46900 33.12400
C  10.10100 -0.09200 34.33900
H  5.61200 5.81300 29.77300
H  6.07400 4.53500 23.46300
H  10.15400 -0.21500 24.63300
H  8.47600 2.71100 32.35100
H  7.35500 5.33900 31.70000
H  5.49800 4.12500 32.87400
H  6.08300 2.61600 32.21400
H  5.14600 3.56900 31.19400
H  10.07900 5.10900 31.38800
H  10.69200 3.66600 32.20900
H  8.53500 4.85500 33.83700
H  9.56500 6.11500 33.22100
H  3.09600 6.91100 27.47000
H  4.21700 8.18000 27.57100
H  4.07000 7.07700 28.93900
H  2.63500 7.16900 25.44900
H  2.78800 7.68000 23.96300
H  3.74500 8.52100 25.38000
H  8.01500 3.22400 22.10500
H  8.12600 0.36200 22.98800
H  5.34200 2.20700 22.69200
H  6.37300 1.02900 21.74200
H  6.11100 2.63900 21.11500
H  10.77600 1.15000 22.59200
H  9.94300 2.24900 21.50700
H  9.93800 0.71900 20.02900
H  8.85600 -0.22000 21.02800
H  10.60400 -0.54500 21.07700
H  12.69500 -1.10200 26.64100
H  11.27500 -1.57100 25.89200
H  11.53700 -2.19500 27.60200
H  11.41300 1.85300 31.26600
H  9.53700 -0.98400 34.06600
H  9.33900 0.58400 34.72700
H  10.81700 -0.33800 35.12300
Mg 35.47600 2.45000 29.19700
C  33.55800 3.80800 31.94700
C  38.20500 2.48200 31.15800
C  37.21500 1.77500 26.44700
C  32.56300 2.99900 27.22500
N  35.80600 3.10600 31.32900
C  34.85400 3.38900 32.27900
C  35.56700 3.41500 33.67200
C  37.09500 3.15200 33.38500
C  37.05400 2.91400 31.82000
C  38.14200 4.19700 33.77000
C  34.88800 2.59700 34.87200
C  35.66500 1.63400 35.78500
H  36.65300 2.19300 36.76300
N  37.48400 1.97500 28.91100
C  38.45300 2.03100 29.81300
C  39.67100 1.52100 29.24600
C  39.46000 1.32500 27.83600
C  38.00600 1.71300 27.65900
C  40.85500 1.25500 30.06200
C  40.27000 1.01000 26.66300
O  39.95100 0.99700 25.50100
C  41.66500 0.67900 26.96400
N  34.95900 2.43000 27.16000
C  35.81000 1.99700 26.24500
C  35.19100 1.90300 24.89100
C  33.68600 2.00000 25.16400
C  33.72300 2.48400 26.61700
C  35.76300 2.87900 23.86700
C  32.93900 0.62100 25.12700
C  32.99100 -0.36700 23.90800
N  33.41100 3.16000 29.50700
C  32.44800 3.42300 28.57600
C  31.25100 3.97700 29.27900
C  31.71000 4.13800 30.67000
C  32.99600 3.61900 30.73100
C  29.83700 4.33600 28.74100
C  31.26500 4.43100 31.96000
O  30.17000 4.77700 32.28800
C  32.42800 4.17300 32.88900
C  32.66000 5.39300 33.73000
O  33.44900 6.26200 33.53600
O  31.71500 5.39900 34.75100
C  31.58400 6.70400 35.40200
H  39.09000 2.32100 31.77800
H  37.66000 1.49000 25.49200
H  31.71700 3.04900 26.53600
H  35.57800 4.44700 34.02500
H  37.52900 2.28700 33.88500
H  38.51900 4.80400 32.94700
H  39.04200 3.66000 34.07100
H  37.76900 4.79400 34.60200
H  34.17800 1.97400 34.32700
H  34.21300 3.16700 35.51000
H  36.09300 0.84000 35.17300
H  34.94400 1.06400 36.37200
H  41.00600 0.17800 30.13200
H  40.76900 1.58200 31.09800
H  41.74800 1.71400 29.63600
H  41.79800 -0.10200 27.71300
H  42.21100 1.59600 27.18500
H  42.05200 0.24100 26.04400
H  35.40400 0.90700 24.50300
H  33.18200 2.81300 24.64000
H  36.74800 3.25200 24.14800
H  35.22600 3.82300 23.76500
H  35.99100 2.40900 22.91000
H  31.96000 1.06700 24.95300
H  33.10100 0.09900 26.07000
H  31.98900 -0.76500 23.74400
H  33.66700 -1.18600 24.15400
H  33.45400 0.15400 23.07100
H  29.28400 3.44500 28.44400
H  30.02200 4.94500 27.85700
H  29.21900 4.79000 29.51600
H  32.23400 3.27300 33.47300
H  31.12400 7.30100 34.61500
H  32.45500 7.10200 35.92300
H  30.86800 6.67500 36.22300

