158

Mg 26.49000 50.04300 26.93000
C  24.44900 51.49100 29.46300
C  28.46200 48.82300 29.39700
C  28.74200 49.24300 24.54900
C  24.59700 51.84600 24.58600
N  26.41700 50.14600 29.21200
C  25.47100 50.75000 30.01500
C  25.64100 50.30400 31.55500
C  27.07000 49.56700 31.40900
C  27.35600 49.49900 29.94300
C  28.18300 50.17700 32.27000
C  24.43200 49.48700 32.15500
C  24.00600 49.93200 33.62900
H  25.04300 50.55700 34.52200
N  28.27600 49.09000 26.97500
C  28.93200 48.65900 28.09300
C  30.06400 47.93300 27.66300
C  30.15600 47.95000 26.25500
C  29.07200 48.78700 25.78800
C  31.05500 47.33000 28.59100
C  31.14300 47.28700 25.31300
O  31.02300 47.31900 24.13100
C  32.30600 46.54200 25.81800
N  26.60300 50.47500 24.86100
C  27.67000 49.99600 24.09500
C  27.47800 50.23000 22.58100
C  26.14300 51.15100 22.61600
C  25.72300 51.12900 24.09700
C  28.62700 50.92400 21.93600
C  25.02800 50.43500 21.74100
C  23.96400 49.52400 22.38700
N  24.84100 51.30900 26.93800
C  24.09100 51.88800 25.88400
C  22.88000 52.54300 26.41500
C  23.02500 52.40200 27.75200
C  24.23400 51.74600 28.06600
C  21.74100 53.25400 25.71300
C  22.38800 52.75400 29.00500
O  21.31500 53.33100 29.23700
C  23.29600 52.15300 30.16700
C  23.55900 53.26900 31.09900
O  24.23600 54.25100 30.81300
O  22.84700 53.08200 32.20800
C  22.78700 54.05900 33.24800
H  29.11500 48.33900 30.12600
H  29.37000 49.01900 23.68400
H  23.92800 52.37200 23.90100
H  25.79900 51.22700 32.11200
H  27.03400 48.54100 31.77500
H  28.88300 50.80400 31.71800
H  28.81800 49.34900 32.58400
H  27.66800 50.75400 33.03900
H  24.64900 48.42200 32.23000
H  23.57300 49.60300 31.49500
H  23.44300 49.15300 34.14200
H  23.29500 50.73900 33.45200
H  31.32900 46.30300 28.34800
H  30.77300 47.41400 29.64000
H  31.92000 47.97700 28.44300
H  33.05300 46.39400 25.03800
H  31.89800 45.59500 26.17300
H  32.70100 47.21000 26.58300
H  27.37400 49.26500 22.08500
H  26.28900 52.15800 22.22700
H  29.35100 50.23200 21.50700
H  29.14200 51.60800 22.61100
H  28.20000 51.50000 21.11500
H  25.49400 49.84700 20.95000
H  24.50200 51.20900 21.18300
H  24.28900 49.02600 23.30100
H  23.71700 48.76700 21.64300
H  23.03900 50.02600 22.67100
H  20.82000 53.11500 26.27900
H  21.51100 53.03900 24.67000
H  21.94700 54.31700 25.58100
H  22.64200 51.46100 30.69800
H  23.54500 53.66200 33.92300
H  21.80900 54.11200 33.72500
H  23.20500 55.04200 33.03100
Mg -10.58100 39.37500 40.50600
C  -9.56200 36.31900 39.46000
C  -7.76600 40.76700 38.89600
C  -11.84200 42.56400 40.94300
C  -13.71600 38.14300 41.31300
N  -8.83700 38.58500 39.34900
C  -8.67300 37.29600 39.05500
C  -7.45400 37.03100 38.12400
C  -6.78200 38.41700 38.20500
C  -7.88300 39.37700 38.79100
C  -5.43100 38.48500 39.02800
C  -7.81500 36.60600 36.63600
C  -6.72200 36.54300 35.58800
H  -6.70100 37.63700 34.58500
N  -9.85700 41.38000 40.14000
C  -8.65800 41.68800 39.51600
C  -8.44100 43.11500 39.43200
C  -9.49100 43.62400 40.20300
C  -10.51600 42.55000 40.44400
C  -7.18800 43.89500 38.88700
C  -9.71300 45.04700 40.68400
O  -8.84200 45.91600 40.47100
C  -10.87400 45.46800 41.45100
N  -12.59000 40.24100 40.98800
C  -12.76400 41.52200 41.27000
C  -14.20400 41.86500 41.72100
C  -14.80000 40.38500 41.83700
C  -13.70000 39.56300 41.27800
C  -14.27700 42.76400 42.96700
C  -16.16900 40.13700 41.10100
C  -17.37100 40.42900 41.98800
N  -11.47600 37.60200 40.58100
C  -12.71500 37.20900 40.99600
C  -12.84000 35.76600 40.94500
C  -11.65800 35.45500 40.21600
C  -10.80700 36.58600 40.11200
C  -14.02100 34.87400 41.33100
C  -10.94300 34.36200 39.62500
O  -11.36400 33.20900 39.50900
C  -9.58000 34.85200 39.11900
C  -8.49600 34.15400 39.81100
O  -8.31100 34.14700 41.04200
O  -7.59300 33.70900 38.84000
C  -6.33100 33.23400 39.44800
H  -6.84300 41.09800 38.41700
H  -12.33100 43.51800 41.14900
H  -14.65900 37.65200 41.56300
H  -6.86300 36.29600 38.67000
H  -6.59200 38.81300 37.20800
H  -5.67600 39.21300 39.80000
H  -4.68100 38.78500 38.29600
H  -5.26000 37.52200 39.50900
H  -8.63000 37.20400 36.22900
H  -8.19800 35.59400 36.76800
H  -6.96200 35.57400 35.15300
H  -5.80400 36.57100 36.17500
H  -7.60300 44.65500 38.22400
H  -6.58000 43.21600 38.29000
H  -6.62700 44.40800 39.66900
H  -11.18500 44.73000 42.19100
H  -11.71000 45.64900 40.77700
H  -10.61500 46.36100 42.01900
H  -14.61800 42.41800 40.87800
H  -14.77300 40.15800 42.90300
H  -15.02900 43.54600 42.86100
H  -13.34400 43.30900 43.10500
H  -14.42000 42.18600 43.88000
H  -16.17900 39.15200 40.63500
H  -16.37400 40.86700 40.31800
H  -17.95000 39.51200 42.09400
H  -18.01300 41.19300 41.55000
H  -17.14100 40.81300 42.98200
H  -13.82300 33.85900 40.98700
H  -14.96500 35.19200 40.88800
H  -14.12500 34.83200 42.41600
H  -9.57900 34.73600 38.03600
H  -5.76300 32.68700 38.69500
H  -6.48800 32.57500 40.30100
H  -5.67900 34.02300 39.82500

