158

Mg 48.82100 45.52400 43.67800
C  45.54200 45.62800 42.38300
C  48.95800 42.29000 42.84200
C  52.02400 45.80000 43.91200
C  48.47700 49.05600 44.19200
N  47.34400 44.21800 42.74500
C  46.15800 44.45500 42.23800
C  45.61400 43.22700 41.45400
C  46.63100 42.09900 41.83500
C  47.72300 42.88300 42.59100
C  46.11500 40.91200 42.82300
C  45.62700 43.50000 39.87400
C  44.37100 43.11900 39.11300
H  44.36000 41.89400 38.14700
N  50.30700 44.18400 43.51200
C  50.22000 42.84400 43.19300
C  51.51000 42.22800 43.19800
C  52.43400 43.23700 43.55000
C  51.62500 44.51900 43.63500
C  51.64300 40.70300 42.86700
C  53.88300 42.98900 43.82900
O  54.26500 41.84000 43.78700
C  54.90400 44.08700 44.16800
N  50.04100 47.23300 44.11800
C  51.36300 47.06100 44.13500
C  52.11200 48.40000 44.35900
C  50.98200 49.47800 44.54700
C  49.75100 48.53200 44.26400
C  53.14400 48.35600 45.50500
C  51.09700 50.61300 43.49900
C  50.80600 52.10500 43.92000
N  47.33500 47.09600 43.38800
C  47.27900 48.38700 43.69600
C  45.99700 48.95300 43.53900
C  45.25300 47.90000 42.96100
C  46.16600 46.80400 42.93400
C  45.53300 50.43700 43.90400
C  43.99400 47.52000 42.36400
O  43.01600 48.21500 42.18100
C  44.10100 45.97700 42.01400
C  43.01500 45.28100 42.72200
O  42.49700 44.30100 42.22400
O  42.55900 45.86600 43.82900
C  41.53900 45.07600 44.56200
H  48.93200 41.25100 42.50600
H  53.11400 45.86400 43.88700
H  48.27100 50.05100 44.59100
H  44.67000 42.79300 41.78200
H  47.01000 41.52800 40.98700
H  46.30900 39.99900 42.26200
H  45.05400 41.10800 42.97500
H  46.48900 40.86400 43.84600
H  46.32900 42.82200 39.38800
H  45.81700 44.54400 39.62500
H  44.11700 43.97400 38.48500
H  43.56800 42.98200 39.83600
H  52.16100 40.65100 41.90900
H  50.75900 40.08700 42.70400
H  52.33000 40.19300 43.54200
H  55.85900 43.67900 44.49800
H  54.42100 44.59100 45.00600
H  55.00600 44.69200 43.26700
H  52.69200 48.75400 43.50700
H  50.99400 49.79100 45.59100
H  54.11600 48.54200 45.04700
H  53.15700 47.35100 45.92600
H  52.92700 49.04900 46.31800
H  50.64300 50.47800 42.51700
H  52.16200 50.65900 43.27400
H  50.27700 52.05000 44.87100
H  50.13000 52.67700 43.28500
H  51.72400 52.69200 43.90000
H  44.61100 50.70000 43.38600
H  46.27500 51.11100 43.47500
H  45.33500 50.61900 44.96100
H  43.95100 45.83000 40.94500
H  40.58600 44.86800 44.07500
H  41.19000 45.80300 45.29500
H  41.89500 44.25500 45.18500
Mg 17.00200 52.42300 26.49600
C  18.95700 51.23300 29.00200
C  14.75900 53.71200 28.87900
C  14.93500 53.43200 23.94300
C  19.10000 50.89700 24.09500
N  16.83100 52.37400 28.60500
C  17.74200 51.83800 29.40800
C  17.41900 52.20400 30.88500
C  15.92500 52.58300 30.87100
C  15.85000 52.97500 29.38400
C  14.95400 51.37100 31.23200
C  18.40900 53.25200 31.50600
C  18.43100 53.57500 33.03900
H  17.58700 52.65100 33.99000
N  15.06100 53.45000 26.37000
C  14.41100 53.89400 27.50900
C  13.31300 54.74100 27.01200
C  13.26000 54.67800 25.61500
C  14.40300 53.82200 25.23100
C  12.45900 55.53900 27.96800
C  12.34400 55.28800 24.66300
O  12.55500 55.16300 23.43900
C  11.22600 56.12100 25.14400
N  17.02800 52.28000 24.30500
C  16.08600 52.74100 23.52000
C  16.41400 52.40800 22.03000
C  17.90400 51.94700 22.06000
C  18.00000 51.66100 23.56100
C  15.45300 51.51100 21.23100
C  18.97200 53.00300 21.65900
C  19.95000 52.51900 20.56500
N  18.64400 51.28300 26.46100
C  19.40900 50.67100 25.41400
C  20.64900 50.09000 26.01600
C  20.42100 50.26000 27.41900
C  19.27800 50.95800 27.62600
C  21.76900 49.29400 25.28700
C  21.04300 49.99300 28.76800
O  22.03300 49.41100 29.17100
C  20.04600 50.61400 29.79100
C  19.44300 49.46500 30.50000
O  18.85000 48.53500 30.00000
O  19.68600 49.64300 31.85400
C  19.17500 48.60200 32.72400
H  14.01700 54.01500 29.62200
H  14.31200 53.84200 23.14600
H  19.80300 50.58100 23.32200
H  17.51800 51.31200 31.50400
H  15.67100 53.38900 31.55900
H  14.15300 51.37800 30.49300
H  14.41200 51.45500 32.17400
H  15.51800 50.44200 31.15800
H  18.42300 54.17100 30.92000
H  19.35600 52.73000 31.36900
H  17.93300 54.54500 33.06000
H  19.45500 53.68100 33.39500
H  12.59300 56.55300 27.59000
H  12.85500 55.49200 28.98200
H  11.42800 55.20600 27.85000
H  11.54500 57.03600 25.64400
H  10.74000 55.51500 25.90800
H  10.40800 56.34200 24.45800
H  16.32300 53.32200 21.44300
H  17.96000 51.00000 21.52300
H  15.06700 52.00200 20.33700
H  14.68600 51.23400 21.95400
H  15.88900 50.56200 20.91900
H  19.51100 53.37300 22.53100
H  18.55200 53.96300 21.36000
H  19.51600 51.82100 19.84900
H  20.79800 51.97800 20.98500
H  20.43100 53.38000 20.10200
H  22.39600 48.96900 26.11700
H  22.29300 49.89800 24.54600
H  21.26600 48.48800 24.75300
H  20.54300 51.33400 30.44100
H  19.85100 47.75100 32.79900
H  18.16300 48.29900 32.45600
H  18.92400 49.05300 33.68400

