158

Mg 23.86100 -6.80200 47.36100
C  26.54400 -4.66000 46.26900
C  21.84200 -5.14900 45.10300
C  21.57300 -9.20100 47.82700
C  26.26100 -8.65300 49.07200
N  24.19200 -5.07100 45.93300
C  25.30400 -4.36200 45.65100
C  25.14100 -3.41200 44.45600
C  23.57300 -3.42600 44.32800
C  23.16400 -4.65700 45.13300
C  22.79100 -2.19500 44.75500
C  25.87300 -4.01200 43.24100
C  27.10300 -3.13500 42.74400
H  27.10200 -2.49900 41.38300
N  21.90400 -7.05300 46.67400
C  21.24000 -6.22900 45.77800
C  19.89100 -6.74300 45.57800
C  19.81200 -7.93500 46.26700
C  21.13900 -8.10400 46.99500
C  18.78200 -5.95400 44.88000
C  18.61300 -8.86500 46.41600
O  17.59700 -8.51700 45.80200
C  18.52300 -10.08600 47.25000
N  23.91800 -8.72200 48.28800
C  22.79300 -9.55600 48.40700
C  23.12000 -10.93100 49.04300
C  24.66900 -10.71200 49.39800
C  24.98400 -9.27000 48.91500
C  22.30100 -11.33800 50.30100
C  25.73500 -11.65500 48.75500
C  26.84300 -12.07200 49.83600
N  25.96200 -6.61800 47.78800
C  26.78400 -7.49200 48.45600
C  28.07100 -6.86600 48.61300
C  28.04700 -5.63500 47.84600
C  26.75100 -5.63100 47.24600
C  29.34400 -7.45900 49.22100
C  28.74200 -4.48000 47.37100
O  29.80000 -4.04800 47.60500
C  27.76900 -3.81400 46.26400
C  27.38100 -2.46000 46.66900
O  26.86900 -2.23200 47.76700
O  27.84800 -1.51500 45.79800
C  27.78400 -0.10100 46.26000
H  21.18600 -4.54100 44.47700
H  20.98800 -10.10500 47.64400
H  27.07300 -9.24300 49.50200
H  25.43400 -2.38100 44.65400
H  23.26800 -3.59700 43.29500
H  23.44500 -1.45300 45.21200
H  22.04100 -2.52500 45.47400
H  22.25000 -1.87700 43.86400
H  25.14700 -4.10700 42.43400
H  26.23300 -5.03000 43.38600
H  28.02900 -3.69700 42.86200
H  27.20400 -2.33100 43.47200
H  17.90700 -5.69900 45.47600
H  18.59300 -6.33200 43.87500
H  19.25200 -4.97200 44.82200
H  17.49300 -10.44300 47.27800
H  18.81000 -9.85600 48.27600
H  19.23100 -10.85000 46.92900
H  23.04400 -11.63600 48.21500
H  24.85400 -10.70900 50.47200
H  21.68400 -10.48400 50.57800
H  22.96600 -11.60300 51.12300
H  21.62700 -12.15500 50.04300
H  26.20500 -11.15000 47.91100
H  25.24500 -12.55700 48.38900
H  26.70200 -13.14600 49.95600
H  26.64800 -11.68400 50.83600
H  27.83700 -11.90700 49.42100
H  30.12500 -6.70100 49.27200
H  29.61800 -8.37400 48.69400
H  29.14100 -7.66000 50.27200
H  28.32800 -3.94100 45.33700
H  26.74700 0.14200 46.49200
H  28.20200 0.50200 45.45500
H  28.41500 0.05900 47.13400
Mg 46.88700 16.29900 28.79200
C  44.83100 15.62500 31.52400
C  49.04900 17.73900 31.05600
C  48.63300 17.56700 26.15700
C  44.52600 15.03800 26.68300
N  46.96800 16.58800 31.04800
C  46.05800 16.21300 31.93700
C  46.40100 16.54800 33.38300
C  47.60300 17.52700 33.18200
C  47.92200 17.24500 31.70400
C  47.17800 19.01400 33.38200
C  46.69800 15.31500 34.19900
C  46.38600 15.43800 35.72900
H  46.10800 16.79200 36.47300
N  48.62800 17.40900 28.68100
C  49.49400 17.77900 29.70100
C  50.79300 18.22600 29.08800
C  50.56900 18.36600 27.67500
C  49.22700 17.77900 27.43800
C  51.81900 18.82200 29.98600
C  51.60200 18.69700 26.59000
O  51.28700 18.73100 25.38300
C  53.06000 18.73900 27.02300
N  46.48200 16.49500 26.74700
C  47.35000 17.01200 25.83100
C  47.05900 16.52800 24.38300
C  45.80100 15.68600 24.60500
C  45.55200 15.77700 26.07600
C  47.03400 17.70000 23.35200
C  45.92900 14.29200 23.86800
C  46.12800 13.06000 24.78400
N  45.03000 15.52200 28.95100
C  44.23400 14.91900 28.04700
C  43.12500 14.20400 28.66500
C  43.27800 14.59800 29.96500
C  44.45900 15.34500 30.13100
C  41.97800 13.37700 28.04000
C  42.64100 14.44300 31.28400
O  41.62500 13.78300 31.63600
C  43.56600 15.15500 32.28000
C  42.78100 16.34900 32.71300
O  42.10700 17.12400 32.02300
O  42.89900 16.42700 34.09200
C  42.36000 17.70900 34.66200
H  49.64400 18.31900 31.76500
H  49.24500 17.70500 25.26300
H  43.90500 14.48100 25.97900
H  45.53900 17.02500 33.84900
H  48.44800 17.16900 33.77000
H  46.14800 19.28300 33.61400
H  47.50100 19.67700 32.58000
H  47.66700 19.28800 34.31700
H  47.74100 15.04600 34.03100
H  46.14500 14.40000 33.98900
H  47.21600 14.92900 36.22000
H  45.48000 14.94900 36.08700
H  52.79600 18.34100 29.95300
H  51.53400 18.83700 31.03800
H  51.86400 19.88300 29.74100
H  53.55700 18.69600 26.05400
H  53.23500 17.88800 27.68200
H  53.18500 19.65400 27.60100
H  47.93100 15.94500 24.08800
H  44.95900 16.17500 24.11300
H  47.66900 17.42000 22.51100
H  47.45900 18.57600 23.84200
H  45.96900 17.83600 23.16300
H  46.73700 14.27400 23.13700
H  45.03100 14.02400 23.31100
H  46.93400 13.29800 25.47900
H  46.55000 12.29100 24.13700
H  45.15100 12.74500 25.15000
H  42.33800 13.04500 27.06600
H  41.14500 14.02900 27.77600
H  41.74200 12.56200 28.72500
H  43.91000 14.54800 33.11800
H  42.63600 18.59400 34.08800
H  42.68800 17.81200 35.69600
H  41.27300 17.69900 34.73600

