158

Mg 16.86100 52.06500 26.13000
C  18.49200 50.74500 28.91900
C  14.32000 53.01200 28.25900
C  15.09000 53.03500 23.48000
C  19.37800 50.77800 24.06700
N  16.50500 52.03600 28.45500
C  17.32400 51.48800 29.30200
C  16.85100 51.77700 30.78200
C  15.40600 52.18500 30.55300
C  15.35600 52.49600 29.02700
C  14.33300 51.12200 31.00200
C  17.85200 52.75200 31.46900
C  18.17700 52.45100 32.92700
H  17.05000 51.79600 33.80300
N  15.03000 52.91800 25.91100
C  14.10600 53.21400 26.89300
C  12.91500 53.85500 26.30300
C  13.24000 53.97800 24.94800
C  14.54300 53.33300 24.72100
C  11.80400 54.49200 27.11900
C  12.37300 54.53500 23.82900
O  12.68300 54.54500 22.65400
C  11.09500 55.07600 24.17500
N  17.14800 51.88100 24.07500
C  16.31900 52.41800 23.16300
C  16.88000 52.29900 21.74500
C  18.30700 51.74800 21.95200
C  18.33000 51.46000 23.41400
C  15.99200 51.44200 20.78700
C  19.43300 52.70400 21.48900
C  19.50500 54.19200 21.84800
N  18.53300 50.82300 26.32800
C  19.52500 50.50500 25.43600
C  20.59800 49.74600 26.09900
C  20.18900 49.80200 27.51500
C  18.94400 50.53900 27.57800
C  21.88200 49.20100 25.50600
C  20.57000 49.44300 28.85500
O  21.51500 48.78600 29.23100
C  19.49700 50.05200 29.82200
C  18.94500 48.93000 30.54800
O  18.16800 48.11500 30.08300
O  19.29800 49.03800 31.84300
C  18.75800 48.10900 32.82500
H  13.49100 53.24000 28.93200
H  14.59200 53.10800 22.51100
H  20.28800 50.64200 23.48000
H  16.88400 50.80800 31.28000
H  15.10900 53.08800 31.08600
H  13.68400 51.60100 31.73500
H  14.89600 50.26000 31.36000
H  13.68900 50.73400 30.21300
H  17.49900 53.78300 31.48400
H  18.81800 52.65700 30.97200
H  18.37700 53.34700 33.51400
H  19.06200 51.82200 32.82100
H  12.06000 54.45500 28.17800
H  10.88800 53.90700 27.03900
H  11.64500 55.52200 26.79900
H  10.37800 54.39800 24.63800
H  10.53200 55.02900 23.24300
H  11.17900 56.08600 24.57700
H  16.91500 53.34900 21.45400
H  18.41800 50.75000 21.52900
H  16.51400 50.84300 20.04100
H  15.42700 51.97900 20.02400
H  15.32500 50.76600 21.32200
H  19.40900 52.87600 20.41300
H  20.37700 52.20300 21.70400
H  20.22900 54.35200 22.64700
H  18.55000 54.52600 22.25200
H  19.84400 54.72700 20.96100
H  21.94400 49.25800 24.41900
H  22.09400 48.14400 25.66900
H  22.73900 49.66100 25.99700
H  20.03800 50.69500 30.51700
H  19.28800 47.15900 32.76600
H  17.67200 48.02100 32.84400
H  18.96400 48.48900 33.82600
Mg -11.19600 16.32300 42.95600
C  -8.08400 14.70700 42.76300
C  -9.54400 19.24900 41.89300
C  -14.14800 17.64800 41.96400
C  -12.62700 13.36000 43.77500
N  -9.12100 16.85200 42.14100
C  -8.03000 16.04500 42.27700
C  -6.72500 16.69900 41.76800
C  -7.20000 18.28200 42.01500
C  -8.70900 18.11900 41.91400
C  -6.78900 18.91700 43.32400
C  -6.40900 16.37400 40.32500
C  -5.20500 15.38100 40.02000
H  -5.52700 14.40400 38.88400
N  -11.75800 18.16300 42.16300
C  -10.92100 19.26000 41.85700
C  -11.75400 20.31000 41.33400
C  -13.12100 19.91700 41.38500
C  -13.05200 18.47000 41.79800
C  -11.05900 21.52100 40.77600
C  -14.27200 20.70600 40.88800
O  -14.12900 21.82300 40.43000
C  -15.69400 20.26500 40.80600
N  -13.10700 15.63200 42.78900
C  -14.19600 16.30300 42.37700
C  -15.49300 15.37300 42.39200
C  -14.97700 14.13900 43.17600
C  -13.46300 14.39700 43.26300
C  -16.71600 16.03300 43.05800
C  -15.48500 12.81700 42.55300
C  -15.83500 11.65400 43.54500
N  -10.53800 14.43700 43.43500
C  -11.20800 13.30600 43.81700
C  -10.27600 12.24400 44.06100
C  -9.00000 12.77300 43.68200
C  -9.23700 14.07300 43.26300
C  -10.71000 10.86000 44.44600
C  -7.62000 12.51700 43.63000
O  -6.98100 11.50300 43.99000
C  -6.94900 13.76200 43.01600
C  -6.05000 14.20800 44.07500
O  -6.43100 14.57500 45.20700
O  -4.83100 14.19900 43.60600
C  -3.83000 14.85900 44.47100
H  -9.04500 20.19500 41.67500
H  -15.10100 18.03100 41.59200
H  -13.03400 12.42200 44.15900
H  -5.88000 16.56100 42.44300
H  -6.86400 18.89500 41.17800
H  -6.23800 19.84100 43.15000
H  -6.20100 18.27600 43.98000
H  -7.62000 19.09600 44.00700
H  -6.08800 17.28100 39.81300
H  -7.27200 15.92100 39.83800
H  -4.93300 14.82300 40.91600
H  -4.29300 15.94900 39.84000
H  -11.81000 22.31100 40.80000
H  -10.61500 21.39300 39.78900
H  -10.40000 21.96800 41.52100
H  -15.78000 19.46800 40.06700
H  -16.36900 21.02600 40.41300
H  -15.96700 19.96400 41.81700
H  -15.69900 15.17400 41.34100
H  -15.39400 14.24700 44.17800
H  -16.29400 16.84800 43.64500
H  -17.34600 15.32400 43.59600
H  -17.37100 16.46300 42.30000
H  -14.79700 12.33200 41.86000
H  -16.40800 13.06800 42.03100
H  -16.67500 11.01600 43.27000
H  -15.73700 11.99700 44.57500
H  -15.04800 10.92100 43.37000
H  -10.75100 10.25500 43.54000
H  -11.70300 10.81900 44.89600
H  -9.96200 10.43400 45.11500
H  -6.39300 13.43800 42.13600
H  -3.14300 15.40500 43.82400
H  -3.33600 14.16400 45.14900
H  -4.29200 15.60100 45.12300

