158

Mg 10.26400 47.23900 26.25100
C  8.22900 47.29000 29.14200
C  12.77800 48.54500 28.06200
C  12.16500 47.30000 23.41700
C  7.37300 46.82700 24.32100
N  10.50500 47.58500 28.40400
C  9.54700 47.60800 29.40000
C  10.10800 48.16000 30.77600
C  11.36600 48.91700 30.20600
C  11.62500 48.22900 28.85100
C  11.18100 50.51200 30.11700
C  10.45000 47.06000 31.81000
C  10.61200 47.41900 33.32900
H  10.41900 46.22400 34.31300
N  12.20400 47.70000 25.86500
C  13.11000 48.19100 26.74300
C  14.41400 48.30200 26.13600
C  14.28600 47.83000 24.77000
C  12.80100 47.61200 24.60100
C  15.67700 48.71800 26.82000
C  15.30500 47.69600 23.57500
O  15.05100 47.47300 22.37800
C  16.86200 47.88400 23.88100
N  9.86600 46.94400 24.12200
C  10.81400 47.08700 23.11400
C  10.13300 46.83700 21.74800
C  8.67500 46.46700 22.16400
C  8.64200 46.86500 23.62400
C  10.30100 47.97900 20.75200
C  8.10400 45.01500 21.82300
C  8.78800 43.84000 22.53000
N  8.27300 47.04500 26.66500
C  7.20200 46.79800 25.75200
C  6.01800 46.41800 26.48700
C  6.38400 46.71100 27.81500
C  7.72600 47.07400 27.84500
C  4.63300 45.99400 25.90600
C  5.89900 46.70600 29.22900
O  4.83300 46.48000 29.66800
C  7.11500 47.11000 30.10400
C  7.33700 45.91000 31.00300
O  7.81600 44.83000 30.71600
O  6.76300 46.16800 32.21700
C  6.87900 45.02000 33.18300
H  13.58100 49.04800 28.60400
H  12.81600 47.41200 22.54800
H  6.43400 46.84700 23.76400
H  9.42200 48.86500 31.24600
H  12.27300 48.77000 30.79100
H  11.46100 50.81200 29.10700
H  11.84100 50.94500 30.86900
H  10.21100 50.93100 30.38200
H  11.36000 46.67600 31.34900
H  9.76100 46.23800 31.61700
H  9.95300 48.21600 33.67300
H  11.62000 47.82300 33.41800
H  16.51800 48.03700 26.94300
H  15.43100 49.05300 27.82800
H  16.13100 49.63500 26.44400
H  17.03400 48.87700 24.29700
H  17.38300 47.65700 22.95100
H  17.26500 47.23200 24.65600
H  10.60600 45.99000 21.24900
H  7.93800 47.12000 21.69700
H  10.89600 48.71800 21.28800
H  9.33200 48.44000 20.56100
H  10.92100 47.75500 19.88400
H  8.22200 44.78100 20.76500
H  7.05300 44.99300 22.11100
H  9.39000 44.13700 23.38900
H  9.36000 43.16500 21.89400
H  8.01600 43.15100 22.87300
H  4.15300 46.85700 25.44400
H  3.93700 45.46800 26.55900
H  4.90800 45.24200 25.16600
H  6.86200 48.09200 30.50500
H  6.59300 45.11600 34.23100
H  7.95200 44.83200 33.18100
H  6.27700 44.14800 32.92600
Mg -5.68600 24.26200 25.54900
C  -4.23000 26.03800 28.18700
C  -7.54600 22.47300 27.83700
C  -6.79700 22.39000 22.97200
C  -3.85400 26.24900 23.28600
N  -5.78100 24.26900 27.70300
C  -5.15700 25.08800 28.59900
C  -5.64400 24.79900 30.12900
C  -6.20500 23.31000 29.94600
C  -6.56100 23.35300 28.40000
C  -5.25900 22.14100 30.33000
C  -6.71300 25.83700 30.58500
C  -6.58400 26.41500 31.95300
H  -5.92800 25.50400 32.98600
N  -7.05400 22.66300 25.43000
C  -7.78600 22.08200 26.48500
C  -8.63800 21.02200 25.96500
C  -8.54800 21.11500 24.52900
C  -7.45300 22.05900 24.25100
C  -9.44800 20.24800 26.87600
C  -9.32200 20.42800 23.39100
O  -9.14700 20.64400 22.20400
C  -10.46400 19.43300 23.72900
N  -5.42300 24.33900 23.49200
C  -5.99700 23.39700 22.66000
C  -5.55200 23.68300 21.14100
C  -5.10800 25.09300 21.29700
C  -4.70800 25.22100 22.75700
C  -4.43500 22.71000 20.68000
C  -6.07600 26.23700 20.92300
C  -5.50000 27.16400 19.87100
N  -4.30000 25.87200 25.64100
C  -3.67900 26.56900 24.66800
C  -2.70100 27.47300 25.31300
C  -2.91300 27.33700 26.65800
C  -3.88500 26.31400 26.85400
C  -1.68900 28.25300 24.53000
C  -2.53700 27.90900 28.00900
O  -1.90400 28.86600 28.37200
C  -3.42400 27.01500 29.06500
C  -2.46900 26.32900 29.95900
O  -1.88700 25.27400 29.69200
O  -2.30500 27.08300 31.13300
C  -1.36900 26.56100 32.16300
H  -8.10500 21.91900 28.59400
H  -7.08500 21.85400 22.06500
H  -3.25600 26.82400 22.57600
H  -4.82800 24.75200 30.85000
H  -7.18200 23.13300 30.39600
H  -4.30000 22.48900 30.71500
H  -5.04200 21.61800 29.39900
H  -5.82300 21.52300 31.02900
H  -7.74200 25.49700 30.47300
H  -6.60900 26.69300 29.91800
H  -7.63700 26.50200 32.22200
H  -6.02000 27.34700 31.90400
H  -9.11700 19.23300 27.09700
H  -10.49600 20.16900 26.59000
H  -9.46300 20.70100 27.86700
H  -11.28300 20.01500 24.15000
H  -9.95700 18.72100 24.38000
H  -10.81300 18.92900 22.82800
H  -6.47800 23.56400 20.58000
H  -4.19700 25.30400 20.73600
H  -4.88900 22.33600 19.76200
H  -4.21400 21.94900 21.42800
H  -3.48200 23.18100 20.43700
H  -6.35500 26.81800 21.80200
H  -7.02600 25.78200 20.64300
H  -4.70900 27.75600 20.33300
H  -6.25000 27.88600 19.54900
H  -5.07400 26.76900 18.94900
H  -0.93400 27.62800 24.05300
H  -1.20000 28.88600 25.27100
H  -2.12000 28.92800 23.79000
H  -4.00800 27.61000 29.76700
H  -1.78000 26.81700 33.13900
H  -0.40900 27.05700 32.02100
H  -1.19300 25.49800 31.99700

