158

Mg 24.68300 -5.32500 46.33500
C  26.73500 -2.78400 45.00000
C  22.20500 -4.43200 43.96800
C  22.98600 -8.03500 47.11200
C  27.52500 -6.65800 47.79800
N  24.60000 -3.87100 44.56800
C  25.54500 -2.90100 44.23400
C  25.07500 -1.94200 43.23600
C  23.59400 -2.52200 42.96100
C  23.40500 -3.61200 43.95100
C  22.36000 -1.49600 42.97400
C  26.01000 -1.94900 42.00500
C  26.07100 -0.61700 41.27700
H  25.53600 -0.45400 39.84600
N  22.78200 -5.92100 45.83800
C  21.96800 -5.46700 44.86400
C  20.78200 -6.21100 44.80000
C  21.02600 -7.34700 45.66400
C  22.32900 -7.12700 46.24400
C  19.54800 -5.86100 43.94200
C  20.03400 -8.41700 45.86400
O  18.99900 -8.43800 45.23200
C  20.09400 -9.53400 46.99800
N  25.18400 -7.00400 47.38500
C  24.25500 -8.01800 47.67000
C  24.89300 -9.24600 48.27600
C  26.40900 -8.81500 48.50300
C  26.43700 -7.43100 47.84800
C  24.19800 -9.70400 49.60600
C  27.53300 -9.89000 48.10800
C  28.53400 -10.38200 49.12400
N  26.67700 -4.82500 46.52400
C  27.72900 -5.40800 47.20200
C  28.90500 -4.65500 47.11500
C  28.55200 -3.59100 46.28800
C  27.20000 -3.71400 45.92200
C  30.11500 -4.79400 47.95400
C  29.09400 -2.35300 45.72100
O  30.23800 -1.95400 45.73800
C  27.91100 -1.78200 44.81800
C  27.63000 -0.40600 45.29500
O  26.93900 -0.11400 46.29500
O  28.10700 0.49800 44.41100
C  27.89800 1.91000 44.85400
H  21.33200 -4.14900 43.37700
H  22.40200 -8.95800 47.13800
H  28.37500 -7.16800 48.25700
H  24.97300 -0.90900 43.57000
H  23.58400 -3.00000 41.98200
H  21.57600 -1.85700 43.64000
H  21.98900 -1.42300 41.95200
H  22.65800 -0.46600 43.16900
H  25.55000 -2.64800 41.30600
H  27.02400 -2.25400 42.26500
H  27.11600 -0.31100 41.32800
H  25.51800 0.14300 41.82900
H  19.48300 -6.48700 43.05300
H  19.49300 -4.79200 43.73300
H  18.69800 -6.12800 44.56900
H  19.10900 -9.99500 47.07300
H  20.40500 -9.14100 47.96600
H  20.75600 -10.32100 46.63600
H  24.86200 -10.03200 47.52100
H  26.51000 -8.54100 49.55300
H  24.69500 -9.44800 50.54200
H  24.05500 -10.78100 49.52100
H  23.22600 -9.24200 49.78400
H  28.09700 -9.38000 47.32600
H  27.06400 -10.72400 47.58600
H  29.51600 -10.20300 48.68600
H  28.30700 -11.41900 49.37000
H  28.40400 -9.78900 50.02900
H  29.98400 -4.23600 48.88100
H  30.99700 -4.32700 47.51800
H  30.22700 -5.84800 48.20900
H  28.23100 -1.76800 43.77700
H  27.92700 2.01900 45.93800
H  26.96100 2.32100 44.47700
H  28.66600 2.50900 44.36600
Mg 26.00700 1.49700 29.78500
C  27.97400 1.08700 32.68000
C  23.27200 2.02100 31.90900
C  24.08900 1.30800 27.17900
C  28.75400 0.45100 27.84200
N  25.63900 1.48000 32.11100
C  26.69400 1.47600 33.03200
C  26.16700 1.79400 34.38500
C  24.59800 1.95800 34.25700
C  24.44600 1.84400 32.65200
C  23.81800 0.83200 34.95300
C  26.87100 3.07600 35.03700
C  27.71000 2.90700 36.30900
H  27.22500 3.85800 37.44600
N  23.93300 1.79200 29.54800
C  22.98000 1.90000 30.50600
C  21.68700 2.07400 29.83500
C  21.95100 1.97900 28.47600
C  23.37700 1.67000 28.34600
C  20.37300 2.35800 30.62600
C  20.95300 2.23500 27.34300
O  21.17900 2.36700 26.11600
C  19.51700 1.98900 27.67400
N  26.44600 1.02100 27.73300
C  25.42800 1.08800 26.85800
C  25.91500 0.75400 25.46600
C  27.43900 0.46500 25.59900
C  27.61500 0.63100 27.12900
C  25.31600 -0.48600 24.78400
C  28.32900 1.46600 24.75200
C  29.04400 0.80900 23.52300
N  28.05700 0.87300 30.14000
C  28.98900 0.46500 29.23900
C  30.24800 0.25300 29.98100
C  29.94700 0.43400 31.35000
C  28.59500 0.79900 31.34400
C  31.50000 -0.19600 29.38700
C  30.44900 0.42200 32.64700
O  31.64100 0.27900 33.01600
C  29.21700 0.85400 33.59600
C  28.85700 -0.13400 34.65300
O  28.45500 -1.25900 34.39600
O  29.22700 0.32800 35.85600
C  29.22800 -0.67900 36.96600
H  22.42000 2.26500 32.54800
H  23.49400 1.30700 26.26300
H  29.56700 -0.01500 27.28000
H  26.34500 0.88900 34.96500
H  24.28900 2.96300 34.54300
H  23.88200 -0.06500 34.33700
H  22.78500 1.17800 34.92000
H  24.16500 0.54100 35.94500
H  26.03600 3.71000 35.33600
H  27.43900 3.46800 34.19300
H  28.73700 3.19200 36.08300
H  27.61100 1.89100 36.69200
H  20.02300 3.27100 30.14500
H  20.50300 2.49400 31.70000
H  19.72700 1.48900 30.49300
H  18.98100 1.93800 26.72600
H  19.08500 2.86000 28.16600
H  19.40700 1.08800 28.27900
H  25.56700 1.55700 24.81600
H  27.62500 -0.58000 25.35100
H  26.04100 -1.13100 24.28800
H  24.67300 -0.09900 23.99300
H  24.81500 -1.09500 25.53700
H  29.09500 1.96300 25.34800
H  27.68700 2.27900 24.41500
H  28.81400 1.34800 22.60300
H  28.61000 -0.18900 23.45700
H  30.12400 0.93800 23.58300
H  31.72000 0.23400 28.40900
H  31.32600 -1.26900 29.30100
H  32.39600 -0.17900 30.00800
H  29.44000 1.82800 34.03000
H  28.28900 -0.42300 37.45800
H  30.10000 -0.51500 37.59900
H  29.23200 -1.72900 36.67300

