158

Mg 24.77000 1.45200 29.67600
C  26.92500 1.23300 32.50500
C  22.07400 1.24400 31.96400
C  22.84500 1.06200 27.10000
C  27.65900 0.93100 27.64900
N  24.53300 1.20300 31.96400
C  25.59200 1.33000 32.88400
C  25.05600 1.54600 34.25900
C  23.53600 1.25400 34.09200
C  23.35500 1.28600 32.59000
C  22.93400 -0.02800 34.72100
C  25.35600 2.92100 35.03600
C  25.99900 2.81900 36.41800
H  25.55000 3.84500 37.51900
N  22.77600 1.31500 29.59900
C  21.79500 1.24500 30.61700
C  20.50200 1.12100 30.05300
C  20.72700 1.09200 28.61000
C  22.18600 1.18800 28.37100
C  19.22700 1.14700 30.85700
C  19.65800 0.93900 27.46300
O  19.94100 0.90700 26.30300
C  18.22200 0.61800 27.78800
N  25.24200 0.97000 27.62500
C  24.23300 0.99200 26.72300
C  24.67400 1.27300 25.28300
C  26.26500 1.23000 25.43600
C  26.43500 1.03700 26.97800
C  24.02100 0.43600 24.10600
C  26.90300 2.50100 24.85000
C  26.66700 3.82500 25.56000
N  26.88500 1.08400 29.97500
C  27.92000 0.84600 29.09500
C  29.17700 0.62700 29.83000
C  28.83600 0.85500 31.13400
C  27.44300 1.03800 31.19700
C  30.45700 0.47100 29.23800
C  29.38200 0.90500 32.48900
O  30.54800 0.79600 32.88700
C  28.14000 1.16200 33.39700
C  28.03400 0.00600 34.31200
O  28.04700 -1.13500 34.01300
O  28.08800 0.47500 35.60700
C  28.65500 -0.43300 36.64500
H  21.21000 1.16700 32.62800
H  22.22000 0.86400 26.22700
H  28.51900 1.06500 26.99000
H  25.48300 0.68600 34.77600
H  23.02700 2.04000 34.65000
H  22.73100 -0.87500 34.06500
H  21.96300 0.10100 35.20000
H  23.65300 -0.37300 35.46300
H  24.44500 3.51900 35.00300
H  26.09900 3.47100 34.45700
H  27.00900 3.16200 36.19600
H  25.79400 1.80900 36.77300
H  18.82000 2.14900 30.71900
H  19.25900 0.88100 31.91400
H  18.50000 0.42100 30.49200
H  18.20500 -0.28100 28.40400
H  17.63500 0.46100 26.88300
H  17.85800 1.52800 28.26500
H  24.34700 2.28900 25.06400
H  26.68700 0.29400 25.07000
H  24.71700 -0.22100 23.58300
H  23.66000 1.13800 23.35400
H  23.19400 -0.11700 24.55100
H  26.50700 2.60800 23.84000
H  27.96800 2.28600 24.75600
H  26.25900 3.64700 26.55500
H  25.92700 4.47700 25.09400
H  27.64300 4.27800 25.73300
H  30.61000 -0.26700 28.45000
H  31.16800 0.37600 30.05900
H  30.51600 1.46100 28.78700
H  28.25300 2.04700 34.02300
H  28.00000 -0.31400 37.50800
H  29.64000 0.01300 36.77800
H  28.68600 -1.46400 36.29100
Mg 35.08900 2.60800 29.45200
C  32.97300 3.53800 31.93700
C  37.67200 2.30700 31.72400
C  37.15700 1.61300 26.91600
C  32.50100 3.24800 27.15300
N  35.31300 2.95900 31.56500
C  34.25300 3.26500 32.43300
C  34.74200 3.41700 33.91600
C  36.35300 3.24400 33.74100
C  36.50700 2.84300 32.24900
C  37.31300 4.43800 34.19300
C  33.96900 2.34500 34.82600
C  33.49700 2.79000 36.26000
H  34.35900 3.78000 36.96800
N  37.11000 1.94300 29.35000
C  37.93800 1.80500 30.45200
C  39.12700 1.08900 30.00300
C  39.07000 0.98300 28.56700
C  37.73600 1.51400 28.19700
C  40.16100 0.79100 31.04400
C  40.15400 0.45500 27.67300
O  40.21100 0.66900 26.50200
C  41.34000 -0.23300 28.26200
N  34.76600 2.34200 27.39200
C  35.81500 2.00000 26.55700
C  35.38800 2.14400 25.09800
C  33.78600 2.39300 25.21000
C  33.68800 2.72400 26.68000
C  36.08200 3.42000 24.38600
C  32.90300 1.27400 24.68800
C  32.26400 0.23800 25.69000
N  33.14000 3.32200 29.45600
C  32.21600 3.58000 28.48700
C  30.96700 3.95000 29.10200
C  31.21000 4.05000 30.44400
C  32.55500 3.61700 30.61700
C  29.73200 4.05600 28.30100
C  30.58300 4.25000 31.67200
O  29.43000 4.56000 31.98600
C  31.71100 3.99200 32.74200
C  31.79800 5.22100 33.56900
O  32.50800 6.17000 33.33200
O  30.94500 5.12800 34.64700
C  30.93400 6.25500 35.52600
H  38.41500 2.14000 32.50600
H  37.81800 1.32600 26.09500
H  31.70900 3.43600 26.42500
H  34.45300 4.44100 34.15300
H  36.67800 2.41900 34.37500
H  38.03600 4.67600 33.41300
H  37.89500 4.12400 35.05900
H  36.70400 5.29900 34.47100
H  34.47900 1.39300 34.97300
H  33.09800 1.97600 34.28300
H  33.50400 1.88000 36.85900
H  32.45400 3.10600 36.23900
H  39.75200 0.71100 32.05200
H  41.01200 1.47000 30.98900
H  40.58400 -0.20500 30.91600
H  42.04800 -0.54200 27.49300
H  41.04800 -1.12500 28.81600
H  41.97000 0.34500 28.93800
H  35.58500 1.21300 24.56600
H  33.51500 3.29600 24.66400
H  35.37000 4.11000 23.93400
H  36.73500 2.96700 23.63900
H  36.66300 3.96300 25.13200
H  33.50000 0.67300 24.00200
H  32.03900 1.69300 24.17300
H  31.19200 0.04300 25.65000
H  32.47800 0.55300 26.71200
H  32.67600 -0.74600 25.46700
H  29.78800 3.31300 27.50500
H  29.66800 5.01300 27.78400
H  28.80800 3.91500 28.86100
H  31.33900 3.18400 33.37100
H  30.60800 7.19800 35.08700
H  31.92800 6.51000 35.89300
H  30.30300 6.08500 36.39800

