158

Mg 8.01600 1.77400 27.90600
C  9.76600 0.73700 30.75100
C  6.23000 3.78500 30.11300
C  6.31700 2.76400 25.32400
C  9.88000 -0.51000 26.04900
N  8.00600 2.12600 30.21300
C  8.88700 1.70600 31.19800
C  8.57300 2.29100 32.54100
C  7.27500 3.03000 32.25200
C  7.12100 2.98300 30.73900
C  5.96400 2.65000 33.12900
C  9.80400 3.24900 32.98600
C  10.67700 2.77900 34.20800
H  10.95300 3.68000 35.38600
N  6.38900 3.05200 27.69700
C  5.89200 3.86800 28.68800
C  4.90700 4.72300 28.19600
C  4.97400 4.58000 26.73500
C  5.96100 3.44800 26.53400
C  3.94500 5.62400 28.99200
C  4.14500 5.18100 25.64200
O  4.03400 4.79400 24.47800
C  3.36800 6.41500 26.03000
N  7.98800 1.15300 25.98700
C  7.28400 1.83000 25.06900
C  7.43500 1.19500 23.71000
C  8.68900 0.18500 23.82300
C  8.89000 0.30400 25.36100
C  6.21200 0.34200 23.14900
C  9.92600 0.78600 23.14100
C  10.17100 0.16500 21.70400
N  9.61800 0.40100 28.25600
C  10.18100 -0.51500 27.43500
C  11.15700 -1.33400 28.14700
C  11.05900 -0.87600 29.40700
C  10.06900 0.18900 29.43700
C  12.10400 -2.30900 27.57300
C  11.53600 -1.06400 30.71900
O  12.38500 -1.86500 31.11100
C  10.85800 0.02300 31.60000
C  10.31400 -0.68800 32.78800
O  9.28100 -1.31200 32.79600
O  11.28200 -0.62600 33.80500
C  10.91100 -1.21000 35.09600
H  5.70000 4.43800 30.81000
H  5.84400 3.04000 24.37900
H  10.32100 -1.26600 25.39600
H  8.36500 1.60300 33.36100
H  7.43500 4.10000 32.38200
H  6.14000 1.69300 33.62000
H  5.05400 2.75700 32.53800
H  5.84400 3.43300 33.87700
H  9.66900 4.32800 33.05900
H  10.53600 3.09200 32.19400
H  11.63600 2.36200 33.90100
H  10.16900 1.90300 34.61100
H  4.31100 6.63200 28.79600
H  3.90600 5.37400 30.05200
H  2.96200 5.45500 28.55200
H  2.36300 6.12100 26.33400
H  3.19100 7.15700 25.25100
H  3.89700 6.92100 26.83900
H  7.66100 1.98900 22.99900
H  8.51500 -0.83800 23.48900
H  5.37900 0.19000 23.83600
H  6.54100 -0.57900 22.66700
H  5.74300 1.03000 22.44500
H  10.87500 0.64300 23.65900
H  9.77200 1.86500 23.14600
H  9.62700 -0.75100 21.47500
H  11.24100 -0.00800 21.58500
H  9.91700 0.96000 21.00200
H  12.25400 -2.21500 26.49800
H  11.68900 -3.30600 27.72200
H  13.08900 -2.24900 28.03400
H  11.52200 0.77600 32.02300
H  10.50800 -0.41700 35.72600
H  11.77300 -1.60700 35.63200
H  10.12100 -1.93200 34.88600
Mg 43.85900 4.92500 47.00300
C  41.93700 7.80500 47.00300
C  40.94700 3.02800 47.06400
C  45.68200 2.24100 46.24000
C  46.70400 6.93800 46.96900
N  41.67500 5.39400 46.79800
C  41.15300 6.61500 46.97600
C  39.59700 6.61800 47.16800
C  39.38800 4.99300 47.24000
C  40.76800 4.43500 47.04700
C  38.79900 4.50300 48.53900
C  38.59300 7.32900 46.21500
C  39.17300 7.71800 44.86900
H  38.81500 6.87000 43.69900
N  43.43600 2.91500 46.68700
C  42.16900 2.31600 46.74900
C  42.29000 0.96600 46.39900
C  43.57900 0.74400 45.88900
C  44.32700 2.01200 46.23600
C  41.12000 0.02300 46.43300
C  44.19300 -0.56000 45.19800
O  43.60600 -1.65200 45.22200
C  45.41300 -0.45900 44.37600
N  45.97900 4.59100 46.76700
C  46.46700 3.32100 46.48200
C  47.94800 3.37200 46.13100
C  48.31300 4.94300 46.52300
C  46.92800 5.54000 46.76700
C  48.69900 2.26100 46.80800
C  49.42000 5.68100 45.69000
C  50.57800 6.22000 46.51800
N  44.31100 6.95400 47.11200
C  45.47700 7.62800 47.01400
C  45.23600 9.11400 46.95300
C  43.82300 9.17700 46.95500
C  43.35100 7.89500 47.02900
C  46.26500 10.17700 46.74200
C  42.72200 10.07100 46.97300
O  42.68000 11.27100 46.86800
C  41.37700 9.26000 47.06300
C  40.56900 9.67800 48.25200
O  40.65300 9.29000 49.41700
O  39.65700 10.66600 47.90600
C  38.88000 11.21000 48.98400
H  40.07000 2.39200 47.19300
H  46.27600 1.34900 46.03300
H  47.60800 7.54400 47.05700
H  39.42700 7.01300 48.17000
H  38.82200 4.66400 46.36800
H  38.06800 3.72600 48.31600
H  38.29300 5.26800 49.12800
H  39.56600 4.09700 49.19800
H  38.31800 8.27800 46.67500
H  37.70500 6.69500 46.21700
H  40.25700 7.61500 44.89700
H  38.81100 8.71700 44.62500
H  41.49300 -0.98100 46.63800
H  40.57900 0.05700 45.48700
H  40.43600 0.40500 47.19200
H  45.43600 -1.43200 43.88600
H  46.28600 -0.33600 45.01600
H  45.25900 0.30500 43.61300
H  48.08100 3.36600 45.04900
H  48.78100 4.83600 47.50100
H  48.76200 1.44200 46.09100
H  48.18100 1.89700 47.69600
H  49.70600 2.59500 47.05900
H  48.98600 6.57900 45.25100
H  49.86700 5.10100 44.88200
H  51.51500 5.69100 46.34000
H  50.50000 6.21200 47.60500
H  50.74600 7.26400 46.25500
H  46.35200 10.75300 47.66400
H  45.91200 10.77000 45.89900
H  47.22200 9.75000 46.44200
H  40.78100 9.40900 46.16300
H  39.50400 11.81400 49.64200
H  38.29700 10.39600 49.41400
H  38.21400 11.97100 48.57500

