158

Mg -1.72100 17.69900 26.82400
C  -2.34400 15.63800 29.48200
C  -2.46900 20.41200 28.88000
C  -1.26300 19.80700 24.21800
C  -1.45800 14.97900 24.67000
N  -2.68200 17.95400 28.89000
C  -2.52200 16.96000 29.83800
C  -3.04000 17.49100 31.22600
C  -3.09700 19.01900 30.95300
C  -2.64300 19.15300 29.43900
C  -4.46800 19.73800 31.45400
C  -2.07700 16.96500 32.40500
C  -1.81300 17.72200 33.70800
H  -1.95900 16.88200 34.99000
N  -1.78300 19.83900 26.56800
C  -2.03600 20.74100 27.55800
C  -1.96400 22.08600 27.07100
C  -1.43500 21.93900 25.70400
C  -1.54300 20.49100 25.40800
C  -2.31900 23.37800 27.81600
C  -1.00100 22.90200 24.73700
O  -0.70600 22.67400 23.54400
C  -0.80800 24.35000 25.33400
N  -1.54200 17.43000 24.68800
C  -1.27900 18.48600 23.87300
C  -1.02800 17.95300 22.43500
C  -1.00700 16.40000 22.61400
C  -1.25100 16.24400 24.05500
C  -2.21500 18.44400 21.48400
C  0.32900 15.72900 22.13400
C  1.50200 15.74300 23.20600
N  -1.91100 15.72600 26.94200
C  -1.75000 14.73000 25.98000
C  -1.83500 13.48000 26.66300
C  -1.97200 13.75900 28.04300
C  -2.07600 15.17900 28.15500
C  -1.69100 12.20000 25.92600
C  -2.09400 13.16100 29.34000
O  -2.08400 11.99700 29.73200
C  -2.32200 14.31000 30.36500
C  -1.16500 14.23000 31.29900
O  -0.03000 14.65600 31.19800
O  -1.61400 13.35700 32.24000
C  -0.72500 13.20200 33.35900
H  -2.51800 21.24700 29.58200
H  -1.10200 20.49200 23.38200
H  -1.33700 14.12500 24.00000
H  -3.97600 16.97000 31.42600
H  -2.25600 19.51500 31.43600
H  -5.07700 18.90600 31.80700
H  -4.92200 20.12200 30.54000
H  -4.33700 20.36600 32.33500
H  -1.14900 16.69100 31.90300
H  -2.58100 16.04200 32.68800
H  -2.54500 18.51000 33.88200
H  -0.78600 18.07700 33.79300
H  -2.75000 23.29800 28.81400
H  -3.06400 23.83300 27.16400
H  -1.43600 23.99300 27.98900
H  -1.81900 24.75400 25.38700
H  -0.37800 24.84200 24.46200
H  -0.15700 24.42500 26.20500
H  -0.02800 18.31500 22.19600
H  -1.93100 15.98600 22.20800
H  -2.87800 19.14600 21.99000
H  -2.91900 17.64000 21.26800
H  -1.85100 18.88000 20.55300
H  0.64800 16.14200 21.17700
H  0.10600 14.68000 21.94100
H  1.22800 16.03700 24.21900
H  2.24800 16.40300 22.76400
H  1.85600 14.71500 23.27600
H  -2.53800 11.53900 26.10800
H  -0.76900 11.65700 26.13700
H  -1.83500 12.35000 24.85700
H  -3.31400 14.20200 30.80500
H  0.27300 12.91500 33.02900
H  -1.10000 12.34700 33.92100
H  -0.65700 14.13500 33.91900
Mg 8.60500 4.16500 28.03400
C  10.00200 2.46900 30.76500
C  6.87600 6.10400 30.20500
C  7.37800 5.67800 25.45100
C  10.16400 1.66900 26.01300
N  8.40900 4.17400 30.29100
C  9.15700 3.47300 31.24100
C  8.81800 3.94500 32.63300
C  7.76600 5.06000 32.38300
C  7.68700 5.14200 30.89600
C  6.35500 4.87600 33.09900
C  10.14400 4.43500 33.30700
C  9.87700 5.17700 34.61900
H  10.60200 4.82800 35.91400
N  7.32200 5.73100 27.80600
C  6.72600 6.40700 28.84500
C  5.81200 7.40800 28.24700
C  5.95800 7.32300 26.83600
C  6.91300 6.18500 26.64500
C  4.85600 8.34500 28.99800
C  5.38800 8.26700 25.75200
O  5.71200 8.15300 24.59100
C  4.44400 9.45800 26.08700
N  8.65300 3.63000 26.02900
C  8.20500 4.57300 25.15300
C  8.46400 4.11000 23.70300
C  9.29100 2.80900 23.83800
C  9.40800 2.67200 25.37800
C  7.09000 3.90300 22.85900
C  10.64700 2.66200 22.99900
C  11.05700 1.19800 22.61300
N  9.76200 2.48000 28.27500
C  10.33300 1.53500 27.35700
C  11.20800 0.63700 27.98800
C  11.10200 0.97700 29.35700
C  10.19100 2.02200 29.44700
C  12.02500 -0.50900 27.25400
C  11.63200 0.61100 30.59000
O  12.35400 -0.36600 30.82600
C  10.96600 1.58500 31.60200
C  10.24300 0.73600 32.62200
O  9.11600 0.26800 32.41400
O  10.93800 0.71200 33.84500
C  10.23900 0.07200 34.99400
H  6.24100 6.75700 30.80700
H  6.94200 6.17000 24.58000
H  10.63800 0.93400 25.35900
H  8.44000 3.09800 33.20600
H  8.18900 6.03700 32.61900
H  5.53900 4.81000 32.37900
H  6.32200 5.77900 33.71000
H  6.43500 3.97800 33.71100
H  10.58900 5.03700 32.51400
H  10.80800 3.64500 33.65900
H  8.80200 5.16700 34.79600
H  10.02100 6.24800 34.47700
H  5.10000 9.40500 28.91800
H  4.81500 7.86800 29.97700
H  3.90400 8.21400 28.48300
H  4.04600 10.03000 25.24900
H  5.02400 10.05400 26.79100
H  3.61600 9.11700 26.71000
H  9.11000 4.87700 23.27700
H  8.48300 2.12300 23.58400
H  6.17100 3.72000 23.41500
H  7.28100 3.19200 22.05500
H  6.91800 4.83000 22.31200
H  11.40300 3.18700 23.58300
H  10.44100 3.12400 22.03400
H  11.92900 0.92300 23.20500
H  11.37100 1.13100 21.57100
H  10.31600 0.41100 22.75200
H  12.29500 -1.18100 28.06900
H  12.85400 -0.15300 26.64300
H  11.36400 -0.91100 26.48600
H  11.72800 2.16400 32.12300
H  9.57900 -0.75800 34.74100
H  9.79000 0.82700 35.63900
H  11.01800 -0.43500 35.56500

