158

Mg 41.58100 41.02600 26.58800
C  41.21700 43.40100 29.06300
C  42.57000 38.74300 29.04700
C  42.79600 39.01300 24.17000
C  40.97200 43.43700 24.15900
N  41.87500 41.10300 28.82800
C  41.49400 42.15900 29.58500
C  41.50500 41.82700 31.03600
C  42.11200 40.39200 31.05000
C  42.18700 40.00500 29.53900
C  43.40600 40.27000 31.90500
C  40.23200 42.04000 31.83400
C  40.10800 41.28700 33.25200
H  39.25100 42.00500 34.36100
N  42.36300 39.13800 26.55300
C  42.62800 38.39300 27.67700
C  43.04700 37.02600 27.26800
C  43.27700 37.09900 25.79500
C  42.83700 38.46500 25.45800
C  43.38900 35.95200 28.21700
C  43.80000 36.09000 24.79100
O  43.88900 36.34600 23.55100
C  44.41000 34.72500 25.28400
N  41.76300 41.17300 24.49400
C  42.26600 40.20600 23.72700
C  42.23000 40.68600 22.20900
C  41.38900 41.92600 22.26100
C  41.41700 42.26100 23.70200
C  43.67400 40.83400 21.63200
C  39.91400 41.79000 21.81200
C  38.87700 41.34600 22.86300
N  41.21100 43.09500 26.56600
C  41.00200 43.91400 25.47800
C  40.81600 45.25300 25.99800
C  40.81500 45.13200 27.35100
C  41.06500 43.77300 27.66800
C  40.54200 46.45800 25.26400
C  40.63700 45.82900 28.68200
O  40.48900 47.04100 28.92400
C  40.89000 44.73900 29.77900
C  42.04400 45.19000 30.68200
O  43.14000 45.50000 30.38900
O  41.52200 45.32200 31.89900
C  42.50100 45.72700 32.94000
H  42.85100 38.09600 29.88100
H  43.42900 38.56500 23.40100
H  40.76900 44.19200 23.39700
H  42.22900 42.53400 31.44000
H  41.45100 39.68900 31.55800
H  44.21200 39.66500 31.48900
H  43.20800 39.85400 32.89200
H  43.83600 41.25700 32.07500
H  39.43800 41.72100 31.15700
H  40.20000 43.12900 31.86200
H  41.10700 41.09200 33.64200
H  39.51700 40.37500 33.16800
H  42.75500 35.15900 27.81900
H  43.02400 36.09500 29.23400
H  44.45600 35.73900 28.15000
H  44.90300 34.21800 24.45400
H  43.73900 34.04400 25.80700
H  45.25600 34.91900 25.94300
H  41.77700 39.83700 21.69700
H  41.81300 42.78400 21.74000
H  44.32400 40.06600 22.05100
H  44.05300 41.83300 21.84700
H  43.65600 40.75300 20.54500
H  39.93400 41.13700 20.94000
H  39.64200 42.79000 21.47200
H  39.28400 41.29300 23.87300
H  38.43300 40.39900 22.55500
H  38.06300 42.07000 22.83300
H  40.73400 46.33900 24.19700
H  41.19700 47.26600 25.59100
H  39.59900 46.95400 25.49300
H  39.98700 44.70400 30.38900
H  43.40000 45.12100 33.06000
H  42.12600 45.43300 33.92100
H  42.82100 46.76700 32.88000
Mg 35.95800 49.08500 25.32100
C  36.13500 47.37100 28.41400
C  34.70300 51.77700 26.94300
C  35.27100 50.48800 22.40000
C  37.23900 46.29300 23.77600
N  35.41400 49.45500 27.50700
C  35.70400 48.72700 28.59800
C  35.50800 49.58400 29.88900
C  34.77700 50.88000 29.33800
C  34.99300 50.70300 27.82900
C  33.22400 50.99900 29.68700
C  36.74400 49.83100 30.74300
C  36.69500 49.18600 32.20200
H  35.44600 49.22000 33.05400
N  35.15700 50.99100 24.75600
C  34.61800 51.95500 25.54600
C  34.27600 53.08500 24.70700
C  34.42700 52.62900 23.34600
C  34.98800 51.34100 23.42900
C  33.82800 54.45700 25.14600
C  34.17300 53.36900 21.99700
O  34.57800 53.10500 20.91800
C  33.47100 54.70200 22.08400
N  36.28300 48.56200 23.46700
C  35.98600 49.32700 22.33400
C  36.42600 48.62400 21.01000
C  37.39000 47.56900 21.65500
C  36.94200 47.36300 23.06700
C  35.22300 47.98100 20.27500
C  38.89900 47.77900 21.58000
C  39.70800 47.05900 20.43200
N  36.39800 47.15800 25.89800
C  36.84500 46.07700 25.14900
C  37.19300 44.91200 26.01600
C  36.94000 45.43700 27.31000
C  36.39200 46.72200 27.17400
C  37.72600 43.55200 25.61600
C  36.97000 45.01700 28.72500
O  37.18900 43.90400 29.25200
C  36.39800 46.28400 29.53000
C  35.29500 45.82400 30.40000
O  34.11400 45.90100 30.16400
O  35.80500 45.31400 31.53800
C  34.85700 45.04000 32.60300
H  34.23900 52.63300 27.43700
H  34.91300 50.77000 21.40800
H  37.74200 45.57300 23.12800
H  34.87200 48.95800 30.51400
H  35.35100 51.63400 29.87700
H  32.87600 50.39600 30.52600
H  32.61600 50.68200 28.83900
H  32.96300 52.02200 29.95600
H  36.90700 50.89200 30.93100
H  37.54800 49.35900 30.17800
H  37.52100 49.66600 32.72800
H  36.96200 48.15100 31.98800
H  32.87700 54.80100 24.73800
H  34.69200 55.10700 25.00800
H  33.68800 54.38400 26.22400
H  32.48100 54.44400 22.46200
H  33.31300 55.11500 21.08800
H  33.94400 55.55900 22.56500
H  36.96700 49.20600 20.26300
H  37.22300 46.61700 21.15100
H  34.26600 48.28400 20.69900
H  35.27100 46.89500 20.19800
H  35.32300 48.39000 19.26900
H  39.30000 47.71600 22.59200
H  39.00500 48.81500 21.26000
H  40.41400 47.76900 20.00100
H  38.99200 46.73300 19.67800
H  40.17400 46.22000 20.94900
H  38.31200 43.77300 24.72400
H  36.93900 42.86400 25.30700
H  38.28200 43.15600 26.46600
H  37.22200 46.69900 30.11100
H  34.43100 44.04400 32.47500
H  34.09300 45.80600 32.73400
H  35.42300 45.12600 33.53100

