158

Mg 1.05200 -0.89800 42.47200
C  4.51500 -0.43500 41.70100
C  0.36800 1.95300 41.08400
C  -2.12400 -1.90600 42.65900
C  1.97300 -4.22700 43.53400
N  2.32200 0.56400 41.47500
C  3.66300 0.60800 41.20600
C  4.11600 1.95300 40.67900
C  2.81500 2.80600 40.84300
C  1.77700 1.69800 41.07600
C  2.88400 3.86300 41.94700
C  4.56000 1.71600 39.18400
C  5.85300 2.38900 38.73500
H  5.89400 3.50400 37.69200
N  -0.64100 -0.01800 42.03700
C  -0.73200 1.13800 41.37800
C  -2.12500 1.49000 41.23500
C  -2.90300 0.41500 41.78000
C  -1.90400 -0.62000 42.14000
C  -2.51900 2.85100 40.72200
C  -4.39700 0.41500 42.00900
O  -5.10100 1.26500 41.55900
C  -5.06600 -0.66400 42.75800
N  0.05900 -2.88300 43.07600
C  -1.24500 -2.91300 43.11000
C  -1.79500 -4.27600 43.45600
C  -0.40800 -5.01500 43.89800
C  0.64400 -4.03300 43.47400
C  -2.78700 -4.20900 44.65000
C  -0.10200 -6.43700 43.33600
C  -1.22200 -7.21300 42.67100
N  2.81100 -2.14000 42.51100
C  3.01100 -3.39200 43.06400
C  4.41400 -3.75300 43.08500
C  5.01300 -2.65200 42.44300
C  4.03600 -1.66200 42.24100
C  4.99200 -4.91700 43.80400
C  6.29700 -2.14700 41.99300
O  7.31000 -2.81600 42.09600
C  6.03300 -0.63400 41.56100
C  6.81500 0.43100 42.28000
O  6.46000 1.01100 43.33100
O  7.88000 0.90100 41.52400
C  8.56800 2.07800 42.07500
H  0.07100 2.86500 40.56100
H  -3.19500 -2.11600 42.62200
H  2.27700 -5.11300 44.09500
H  4.96100 2.36400 41.23200
H  2.56600 3.28100 39.89400
H  2.39100 3.44600 42.82500
H  2.48100 4.78700 41.53100
H  3.95100 3.96600 42.14700
H  3.80300 2.20800 38.57300
H  4.51100 0.65100 38.95900
H  6.40400 1.54900 38.31300
H  6.45200 2.69000 39.59400
H  -3.52500 2.89100 40.30500
H  -1.80300 3.26600 40.01300
H  -2.51000 3.49500 41.60100
H  -5.15000 -1.58100 42.17400
H  -6.05900 -0.40900 43.12800
H  -4.50300 -0.72500 43.68900
H  -2.19100 -4.70500 42.53500
H  -0.42500 -5.03200 44.98800
H  -3.64500 -4.81500 44.35900
H  -3.17600 -3.20300 44.80800
H  -2.52100 -4.63100 45.61900
H  0.11800 -7.06000 44.20300
H  0.77300 -6.56200 42.69800
H  -1.23600 -8.28000 42.89000
H  -1.05800 -7.20300 41.59300
H  -2.20700 -6.80200 42.89300
H  4.66800 -5.84000 43.32300
H  4.59500 -5.03600 44.81300
H  6.06700 -4.84400 43.97200
H  6.29800 -0.46100 40.51800
H  9.04600 1.94400 43.04600
H  8.02600 3.02000 41.98100
H  9.39000 2.23400 41.37700
Mg 47.00800 35.00500 28.30800
C  45.49700 32.87000 30.73400
C  47.54000 37.27100 30.86000
C  48.14800 36.97900 26.04200
C  46.25000 32.41300 25.86000
N  46.66000 35.03500 30.56200
C  46.08600 34.05100 31.32400
C  46.12900 34.33500 32.78700
C  46.38000 35.88200 32.78200
C  46.88000 36.10200 31.33100
C  45.22100 36.79400 33.22700
C  47.24100 33.31300 33.38400
C  47.68300 33.57700 34.86600
H  46.90500 34.63200 35.75100
N  47.94900 36.86600 28.45200
C  48.04000 37.63500 29.56700
C  48.84100 38.78000 29.26600
C  49.00500 38.79800 27.79100
C  48.34500 37.52700 27.32000
C  49.24600 39.88700 30.28500
C  49.73100 39.72800 26.87800
O  49.81100 39.59100 25.66800
C  50.18500 41.10500 27.31400
N  47.12900 34.74100 26.26700
C  47.52400 35.80800 25.55600
C  47.16700 35.61000 24.10000
C  46.81700 34.11500 23.99000
C  46.73300 33.68400 25.42300
C  46.11100 36.69200 23.58000
C  47.90900 33.17400 23.30200
C  47.43700 32.01800 22.47700
N  46.06700 33.08500 28.26400
C  45.89300 32.15200 27.23200
C  45.26000 30.97800 27.69400
C  45.05100 31.23700 29.04000
C  45.55500 32.54200 29.34100
C  44.67800 29.90000 27.00500
C  44.55900 30.59100 30.25200
O  44.14400 29.47300 30.51100
C  44.48300 31.77100 31.28000
C  44.55800 31.24800 32.65200
O  45.16000 30.23700 32.91700
O  43.78500 31.99300 33.51100
C  43.82700 31.50500 34.90300
H  47.60900 38.05900 31.61300
H  48.49600 37.61100 25.22200
H  46.01100 31.74200 25.03300
H  45.21300 34.07900 33.32000
H  47.21400 36.05800 33.46100
H  44.41900 36.35100 33.81800
H  44.75100 37.33400 32.40600
H  45.76900 37.43600 33.91700
H  48.12200 33.28600 32.74200
H  46.84900 32.30000 33.47300
H  48.73400 33.86200 34.90900
H  47.54900 32.72700 35.53600
H  48.78400 40.81300 29.94300
H  50.32300 40.02400 30.38300
H  48.81800 39.74300 31.27600
H  51.00100 41.03400 28.03300
H  49.29300 41.61100 27.68200
H  50.69900 41.61200 26.49800
H  47.96100 35.93100 23.42600
H  45.85600 34.07400 23.47700
H  45.23100 36.09400 23.34600
H  46.47600 37.18900 22.68100
H  45.79000 37.29200 24.43200
H  48.44600 32.61800 24.07000
H  48.59400 33.90300 22.86900
H  46.38300 32.08500 22.20900
H  47.73100 31.06000 22.90700
H  48.01900 31.96500 21.55700
H  45.16900 29.73300 26.04700
H  43.60900 29.96700 26.79900
H  44.82100 28.97800 27.56900
H  43.47300 32.17200 31.19300
H  44.36500 32.30800 35.40800
H  44.23900 30.50300 35.01700
H  42.88900 31.70200 35.42200

