158

Mg 35.90600 2.55900 30.69400
C  33.64700 3.71500 32.99100
C  38.35700 2.54400 33.12900
C  38.24700 1.56600 28.36100
C  33.54900 2.88200 28.14300
N  35.96000 3.08800 32.71600
C  34.91900 3.42400 33.50800
C  35.30100 3.27800 35.06500
C  36.82600 3.37600 34.86000
C  37.08700 2.97300 33.41600
C  37.48100 4.64100 35.35200
C  34.70500 2.01800 35.70800
C  34.44000 2.12100 37.26200
H  34.99200 3.34800 37.97100
N  38.05500 2.09700 30.70700
C  38.81600 2.15900 31.87500
C  40.16500 1.79400 31.57900
C  40.19500 1.35900 30.14200
C  38.82800 1.69300 29.64600
C  41.28000 1.84200 32.62000
C  41.23400 0.84200 29.31300
O  41.11600 0.50500 28.12200
C  42.59000 0.69000 29.89700
N  35.93000 2.49700 28.51500
C  36.96300 1.87800 27.80900
C  36.63300 1.56400 26.31700
C  35.12400 1.93700 26.26600
C  34.83600 2.51000 27.69800
C  37.62600 2.27200 25.33700
C  34.09500 0.84400 25.81800
C  34.37900 0.11500 24.51900
N  33.97400 3.23000 30.52600
C  33.14200 3.31600 29.42500
C  31.80900 3.72400 29.93000
C  31.93800 3.79800 31.33800
C  33.29700 3.62100 31.58900
C  30.55100 3.82500 29.03900
C  31.21700 4.07200 32.56600
O  30.04400 4.30500 32.65000
C  32.23700 3.89200 33.75000
C  31.94700 4.99100 34.67600
O  32.33000 6.15200 34.54700
O  31.14900 4.49400 35.71000
C  31.04400 5.42600 36.89000
H  39.06500 2.66900 33.95100
H  38.95300 1.30300 27.57000
H  32.75400 2.90100 27.39500
H  34.98100 4.13000 35.66400
H  37.27300 2.51600 35.35900
H  36.89000 5.08200 36.15500
H  37.62600 5.29500 34.49200
H  38.44300 4.45300 35.82900
H  35.32600 1.15300 35.47500
H  33.78200 1.77100 35.18300
H  34.81400 1.26700 37.82500
H  33.35400 2.08400 37.34600
H  41.36200 0.80800 32.95400
H  41.02100 2.53200 33.42300
H  42.16800 2.34400 32.23500
H  43.31100 0.30900 29.17400
H  42.50900 0.11000 30.81700
H  42.94500 1.68900 30.14900
H  36.71400 0.52900 25.98500
H  34.95000 2.82200 25.65400
H  37.15600 3.09900 24.80500
H  38.24600 1.63000 24.71100
H  38.26900 2.81600 26.02900
H  33.12500 1.29400 25.61000
H  34.01100 0.10800 26.61800
H  34.39800 -0.97200 24.59500
H  35.39700 0.38900 24.24100
H  33.62500 0.35500 23.77000
H  30.60700 3.06200 28.26200
H  30.34700 4.85400 28.74000
H  29.65900 3.44400 29.53600
H  31.90100 2.92800 34.13200
H  30.25500 4.93800 37.46200
H  30.71900 6.45100 36.71100
H  31.92900 5.37300 37.52400
Mg 10.02200 48.15600 26.17000
C  7.81200 48.60300 28.82100
C  12.55000 49.80400 27.94900
C  12.01600 47.81800 23.51500
C  7.25800 47.36900 24.11300
N  10.11300 49.27700 28.12200
C  9.15300 49.05900 29.11200
C  9.77300 49.65200 30.35300
C  11.09500 50.32000 29.96800
C  11.28700 49.77100 28.53900
C  11.21700 51.88700 30.08900
C  9.87700 48.57800 31.45600
C  10.51700 49.00600 32.80800
H  9.76400 48.34200 34.02100
N  12.05600 48.64400 25.82300
C  12.86600 49.22600 26.70400
C  14.22000 49.24800 26.10600
C  14.15500 48.59400 24.84200
C  12.67200 48.30500 24.66700
C  15.44700 49.88600 26.83200
C  15.30200 48.13600 23.86000
O  15.12900 47.52400 22.79100
C  16.72800 48.40000 24.24700
N  9.66100 47.60500 24.03400
C  10.69100 47.43900 23.22200
C  10.29900 46.99600 21.85800
C  8.71400 46.73100 22.01900
C  8.50300 47.18000 23.51900
C  10.61800 47.95600 20.66300
C  8.23000 45.34900 21.78000
C  8.47100 44.27800 22.83400
N  8.00000 48.04700 26.33600
C  6.95900 47.70500 25.46200
C  5.62600 47.67000 26.08400
C  5.99400 48.03100 27.41300
C  7.39100 48.23700 27.49900
C  4.30300 47.32100 25.57800
C  5.45300 48.06500 28.74100
O  4.29300 47.92900 29.10300
C  6.60000 48.37800 29.74000
C  6.78900 47.09600 30.52000
O  7.43500 46.13900 30.14800
O  6.10500 47.17900 31.69800
C  6.47900 46.11400 32.59100
H  13.35800 50.30500 28.48700
H  12.76400 47.70600 22.72800
H  6.51500 46.97700 23.41500
H  9.13100 50.43700 30.75300
H  11.92900 49.96500 30.57300
H  10.25800 52.34200 30.33700
H  11.69500 52.31500 29.20800
H  11.91300 51.94200 30.92600
H  10.30600 47.69500 30.98200
H  8.89700 48.12900 31.61700
H  10.73400 50.07000 32.89700
H  11.48300 48.50000 32.81100
H  16.18900 50.31800 26.16100
H  15.97100 49.07100 27.33200
H  15.20800 50.75700 27.44200
H  16.89200 49.47300 24.15100
H  17.36800 47.77700 23.62100
H  16.79100 48.00300 25.26000
H  10.86100 46.06800 21.76000
H  8.27800 47.43300 21.30800
H  10.80400 48.95900 21.04800
H  9.79600 47.99700 19.94900
H  11.55500 47.62000 20.22000
H  8.64300 45.04600 20.81800
H  7.16100 45.50200 21.63300
H  7.47700 43.85000 22.96000
H  8.71200 44.73900 23.79200
H  9.24300 43.55100 22.58100
H  4.22300 46.41000 24.98400
H  3.97100 48.05600 24.84500
H  3.57600 47.40500 26.38600
H  6.21500 49.19600 30.35000
H  6.18700 45.17800 32.11500
H  5.95500 46.28400 33.53100
H  7.55800 46.21800 32.70200

