158

Mg 17.45400 -1.26300 28.47300
C  16.12900 0.74000 31.04500
C  19.09600 -3.16700 30.83600
C  19.15800 -2.67100 25.95700
C  15.97000 0.88100 26.15200
N  17.74900 -1.12900 30.69900
C  16.98500 -0.30800 31.51000
C  17.25200 -0.73300 32.97900
C  18.11900 -2.03500 32.90500
C  18.41200 -2.05100 31.39600
C  19.43000 -1.77200 33.70200
C  15.93000 -0.96200 33.83800
C  15.85400 -0.33900 35.22300
H  17.08900 -0.00600 36.08100
N  18.87500 -2.72100 28.37200
C  19.42100 -3.46200 29.45300
C  20.08600 -4.65600 28.82600
C  20.23100 -4.40700 27.44500
C  19.46500 -3.17300 27.20100
C  20.52100 -5.79400 29.68900
C  20.84300 -5.27900 26.26700
O  20.82600 -4.82900 25.10700
C  21.44300 -6.67000 26.54400
N  17.63500 -0.96800 26.37800
C  18.39700 -1.63600 25.51100
C  18.04900 -1.33900 24.02700
C  16.72800 -0.55000 24.15200
C  16.73600 -0.20600 25.66000
C  19.18800 -0.63500 23.30600
C  15.50100 -1.36300 23.74600
C  14.56800 -0.63800 22.71800
N  16.27800 0.40800 28.58500
C  15.72100 1.16500 27.54400
C  14.87800 2.21400 28.08900
C  15.09200 2.15200 29.50800
C  15.90300 1.02500 29.72500
C  14.10300 3.27100 27.28900
C  14.75900 2.81300 30.74100
O  14.01500 3.71000 31.04200
C  15.42200 1.89900 31.87100
C  16.38600 2.72900 32.59600
O  17.36400 3.16200 32.08200
O  16.05300 2.79800 33.93800
C  17.06300 3.43800 34.75500
H  19.35900 -3.95700 31.54300
H  19.54000 -3.08900 25.02300
H  15.42900 1.54600 25.47500
H  17.78100 0.13300 33.37500
H  17.53800 -2.93400 33.11300
H  20.07500 -1.16600 33.06600
H  19.97700 -2.71300 33.77400
H  19.13100 -1.45300 34.70000
H  15.59900 -1.98200 34.03600
H  15.10000 -0.58200 33.24200
H  15.22700 -0.95400 35.86800
H  15.24400 0.55400 35.08900
H  21.60900 -5.76400 29.75700
H  20.23800 -6.74100 29.23100
H  20.00700 -5.69500 30.64500
H  22.03900 -6.77600 27.45100
H  22.08200 -7.00000 25.72500
H  20.66700 -7.41300 26.72600
H  17.88800 -2.31200 23.56200
H  16.86800 0.37000 23.58400
H  19.21400 0.45000 23.41000
H  19.14600 -0.85100 22.23800
H  20.12200 -1.02600 23.70900
H  14.95300 -1.75800 24.60200
H  15.77400 -2.30200 23.26300
H  14.40100 -1.23500 21.82100
H  14.96000 0.32900 22.40300
H  13.61900 -0.42900 23.21100
H  13.83500 4.10900 27.93200
H  13.18600 2.84600 26.88200
H  14.74500 3.64700 26.49300
H  14.66100 1.57700 32.58200
H  17.14800 4.46900 34.41100
H  18.05700 2.99500 34.68400
H  16.73900 3.39200 35.79400
Mg 26.39400 49.78200 26.90200
C  24.48500 51.35000 29.47100
C  28.83600 49.24000 29.39200
C  28.37400 48.76600 24.52500
C  24.17800 51.35200 24.55800
N  26.50600 50.11000 29.20000
C  25.48700 50.59400 29.97700
C  25.85800 50.38900 31.45700
C  27.36600 49.99700 31.39000
C  27.67100 49.80400 29.89800
C  28.37400 50.98700 32.12700
C  24.95000 49.26300 32.24600
C  24.16100 49.80400 33.35800
H  24.06000 49.02100 34.72700
N  28.20000 48.92800 26.98300
C  29.14100 48.87400 28.04500
C  30.30500 48.27700 27.55300
C  30.20600 48.11000 26.14700
C  28.87000 48.55800 25.84000
C  31.53400 48.03000 28.40400
C  31.29900 47.84000 25.07200
O  31.16600 47.76700 23.83700
C  32.77300 47.57500 25.47300
N  26.31500 49.95000 24.82800
C  27.20800 49.30900 24.04800
C  26.90200 49.55800 22.55700
C  25.57500 50.35600 22.60400
C  25.33700 50.62200 24.12500
C  28.09100 50.29600 21.69900
C  24.39400 49.55400 22.02300
C  23.11900 50.26900 21.52400
N  24.62500 51.05500 26.93600
C  23.91100 51.67400 25.92700
C  22.69600 52.33600 26.51500
C  23.01500 52.25700 27.93600
C  24.16400 51.49300 28.10500
C  21.50800 52.83000 25.74400
C  22.52200 52.60400 29.20200
O  21.50900 53.17000 29.42600
C  23.44600 52.07700 30.31800
C  24.03700 53.18500 31.11100
O  24.68900 54.06900 30.60200
O  23.65700 53.08000 32.41500
C  24.21400 54.10600 33.36500
H  29.70700 49.22300 30.05000
H  28.95700 48.45200 23.65700
H  23.54500 51.74400 23.76000
H  25.80800 51.34500 31.97800
H  27.48600 49.02500 31.86900
H  29.08900 51.36200 31.39500
H  28.82200 50.41500 32.93900
H  27.84000 51.80700 32.60700
H  25.61600 48.51100 32.66900
H  24.41800 48.82400 31.40300
H  23.15200 49.96200 32.97700
H  24.58600 50.77400 33.61600
H  31.90000 47.03300 28.15700
H  31.32400 48.05900 29.47300
H  32.26200 48.79300 28.12900
H  33.49500 47.55200 24.65700
H  33.03700 46.74600 26.13000
H  33.03100 48.53100 25.92900
H  26.72800 48.54000 22.20900
H  25.59800 51.34400 22.14600
H  28.61400 51.06100 22.27300
H  27.57300 50.82000 20.89500
H  28.84600 49.62500 21.28900
H  24.19600 48.88500 22.86100
H  24.67100 48.89000 21.20500
H  22.79800 49.88600 20.55600
H  23.29700 51.33600 21.39000
H  22.33000 50.15200 22.26700
H  20.65500 52.43000 26.29200
H  21.42400 52.55400 24.69300
H  21.43300 53.91500 25.82400
H  22.90400 51.33100 30.89900
H  24.51800 55.03200 32.87600
H  25.11500 53.79000 33.89100
H  23.48600 54.38700 34.12700

