158

Mg 36.24000 49.69500 24.48300
C  36.27300 47.80700 27.23100
C  35.07000 52.37800 26.16400
C  35.73400 51.29100 21.47300
C  37.26600 46.75700 22.61900
N  35.59600 50.00400 26.36900
C  35.83100 49.09300 27.41600
C  35.57900 49.74700 28.76800
C  35.07700 51.14900 28.42500
C  35.26700 51.16700 26.92100
C  33.65800 51.42000 28.87400
C  36.81600 49.75000 29.74400
C  36.63300 49.30000 31.22900
H  35.19900 49.34300 31.74300
N  35.56000 51.61600 23.89000
C  35.22600 52.63100 24.75800
C  34.94900 53.85900 23.98300
C  35.09800 53.54700 22.57200
C  35.43200 52.08400 22.57600
C  34.64600 55.12300 24.71500
C  34.99400 54.48400 21.32700
O  35.10100 54.04600 20.19600
C  34.71000 55.89000 21.47000
N  36.48400 49.06600 22.40000
C  36.21200 49.93300 21.35500
C  36.39800 49.28200 19.92100
C  36.99700 47.89300 20.34100
C  36.80300 47.83700 21.85000
C  35.13700 49.30100 19.03700
C  38.49200 47.55500 19.90600
C  39.65800 48.10300 20.73500
N  36.58600 47.56600 24.79200
C  37.12600 46.57000 23.96700
C  37.46900 45.38700 24.80400
C  37.12200 45.78900 26.11700
C  36.56900 47.11400 26.03000
C  38.08700 44.08400 24.31500
C  37.18400 45.51200 27.50200
O  37.61600 44.50700 28.00600
C  36.63700 46.74900 28.35600
C  35.47800 46.35000 29.16600
O  34.33500 46.36300 28.83500
O  36.02800 45.87900 30.31600
C  35.02100 45.32200 31.28300
H  34.74500 53.24800 26.73800
H  35.70400 51.85900 20.54100
H  37.58000 45.92500 21.98400
H  34.79000 49.17300 29.25500
H  35.68600 51.96600 28.81000
H  33.60600 52.29900 29.51700
H  33.23000 50.52800 29.33100
H  33.09600 51.50700 27.94400
H  37.10800 50.79700 29.82000
H  37.60000 49.11000 29.33700
H  37.20700 49.97700 31.86300
H  36.95000 48.25800 31.26500
H  33.63400 55.42700 24.45000
H  35.28000 55.93300 24.35400
H  34.67700 55.05500 25.80200
H  35.73000 56.27500 21.47400
H  34.33800 56.28200 22.41700
H  34.22100 56.28700 20.58000
H  37.16000 49.85500 19.39200
H  36.41500 47.08800 19.89100
H  34.92700 50.20600 18.46800
H  34.32900 49.09200 19.73800
H  35.23900 48.47200 18.33600
H  38.66400 48.00300 18.92700
H  38.62000 46.47600 19.81500
H  40.25600 48.74200 20.08500
H  40.32300 47.33900 21.13800
H  39.40300 48.78600 21.54500
H  39.16900 44.09500 24.45300
H  37.78100 43.88800 23.28800
H  37.71500 43.34700 25.02700
H  37.45400 47.13900 28.96400
H  34.02900 45.11100 30.88500
H  35.00700 46.07800 32.06800
H  35.29000 44.35900 31.71800
Mg -4.54200 25.24500 26.28300
C  -3.21500 26.66600 29.23100
C  -6.50000 23.16200 28.24600
C  -5.56100 23.85300 23.50000
C  -2.30200 27.31400 24.47500
N  -4.68000 24.92500 28.48900
C  -4.18700 25.68800 29.48600
C  -4.72700 25.25600 30.84400
C  -5.62700 23.99900 30.51100
C  -5.69300 24.04400 28.97700
C  -5.28200 22.66200 31.10400
C  -5.47200 26.42800 31.54900
C  -5.48000 26.43700 33.13700
H  -4.89800 25.17200 33.95000
N  -5.78100 23.61400 25.90500
C  -6.48800 22.88800 26.84000
C  -7.33500 21.89600 26.15200
C  -7.08600 22.10200 24.77100
C  -6.12500 23.21800 24.64700
C  -8.29900 20.95100 26.86700
C  -7.71400 21.33700 23.56600
O  -7.24600 21.46000 22.45600
C  -8.79700 20.34700 23.72900
N  -4.01400 25.50500 24.31500
C  -4.52900 24.78000 23.27000
C  -3.92700 25.16400 21.91200
C  -3.00700 26.36900 22.34100
C  -3.15800 26.50900 23.82700
C  -3.16300 24.04000 21.24600
C  -3.26200 27.68200 21.61500
C  -2.21800 28.02300 20.52400
N  -3.10800 26.75500 26.68500
C  -2.27700 27.47200 25.86300
C  -1.49100 28.38900 26.60000
C  -1.80700 28.07300 27.95600
C  -2.84200 27.08600 27.96600
C  -0.38500 29.30000 26.01900
C  -1.48900 28.44200 29.33700
O  -0.68900 29.28200 29.76000
C  -2.39800 27.48700 30.24800
C  -1.47900 26.58300 30.91600
O  -0.69500 25.76400 30.34500
O  -1.69000 26.60500 32.26900
C  -0.68500 25.99300 33.15800
H  -7.12800 22.45900 28.79700
H  -5.92700 23.44200 22.55700
H  -1.66300 27.93800 23.84700
H  -3.96900 25.01600 31.59000
H  -6.65700 24.22000 30.79500
H  -5.20600 21.90100 30.32800
H  -6.02000 22.36100 31.84800
H  -4.39100 22.70900 31.73100
H  -6.52000 26.35500 31.26100
H  -5.17500 27.35900 31.06700
H  -6.49900 26.58500 33.49300
H  -4.87700 27.29400 33.44000
H  -9.25300 20.96300 26.33900
H  -8.50200 21.14300 27.92100
H  -7.82400 19.97200 26.80000
H  -8.77000 19.82100 22.77500
H  -9.72200 20.92200 23.78200
H  -8.66900 19.66000 24.56600
H  -4.79900 25.43000 21.31500
H  -1.97600 26.13600 22.07100
H  -3.54400 23.69100 20.28700
H  -2.91100 23.22300 21.92200
H  -2.20900 24.37600 20.83800
H  -3.18200 28.54000 22.28200
H  -4.24300 27.74300 21.14400
H  -2.32300 27.32900 19.69000
H  -1.18700 27.86700 20.84300
H  -2.26200 29.08900 20.29700
H  -0.59800 29.42500 24.95700
H  0.55900 28.77500 26.16600
H  -0.48700 30.30400 26.42900
H  -3.01200 28.04100 30.95900
H  -1.00100 25.05800 33.62200
H  -0.29300 26.66500 33.92100
H  0.22400 25.68900 32.64000

