158

Mg 25.06400 -8.05600 47.35300
C  27.43000 -5.80600 46.06100
C  22.90600 -7.11200 44.90000
C  23.36900 -10.83600 48.01100
C  27.92400 -9.56700 49.18500
N  25.29700 -6.80300 45.34200
C  26.23600 -5.75900 45.26100
C  25.84200 -4.75400 44.16200
C  24.34300 -5.13600 43.97600
C  24.15900 -6.43700 44.75900
C  23.32400 -4.01100 44.36300
C  26.63900 -4.87900 42.82700
C  27.73200 -3.78300 42.64900
H  27.83400 -3.21200 41.23400
N  23.25100 -8.77200 46.79600
C  22.52100 -8.19500 45.79400
C  21.27900 -8.85500 45.77600
C  21.37000 -9.90700 46.76000
C  22.73600 -9.86700 47.27200
C  20.09500 -8.37400 44.88400
C  20.37400 -10.89100 47.16300
O  19.33100 -10.93300 46.53300
C  20.37500 -11.75200 48.46300
N  25.59000 -9.93000 48.47500
C  24.64200 -10.88500 48.58400
C  25.20500 -12.22000 49.24500
C  26.48900 -11.63700 49.86400
C  26.69000 -10.26100 49.19000
C  24.30600 -12.92900 50.25600
C  27.70100 -12.54900 49.82600
C  28.53900 -12.68700 51.19000
N  27.16600 -7.80600 47.69600
C  28.18100 -8.37400 48.50600
C  29.44300 -7.58900 48.38500
C  29.12400 -6.61100 47.44800
C  27.77700 -6.77000 47.07500
C  30.71400 -7.80600 49.29100
C  29.77600 -5.48000 46.85400
O  30.85600 -4.99400 47.10300
C  28.65000 -4.81000 46.02200
C  28.30800 -3.43200 46.61800
O  27.54300 -3.27900 47.58500
O  28.95800 -2.43000 45.90800
C  28.44700 -1.04100 46.04700
H  22.25800 -6.71900 44.11300
H  22.80400 -11.75400 48.18400
H  28.78000 -10.02700 49.68300
H  25.98900 -3.77800 44.62500
H  24.19200 -5.36900 42.92200
H  22.41600 -4.03200 43.76000
H  23.93200 -3.10800 44.29500
H  23.01900 -4.10000 45.40500
H  25.99100 -4.92600 41.95200
H  27.07200 -5.87100 42.95100
H  28.69600 -4.23600 42.87900
H  27.58800 -2.91900 43.29800
H  20.13200 -7.30400 44.67800
H  19.17100 -8.57800 45.42500
H  20.04200 -8.96600 43.97100
H  20.88900 -12.68800 48.24400
H  19.32200 -11.81400 48.74000
H  20.99100 -11.20600 49.17800
H  25.52100 -12.86600 48.42600
H  26.20500 -11.37600 50.88400
H  24.46800 -12.58500 51.27800
H  24.33700 -14.01700 50.18800
H  23.27100 -12.66600 50.03700
H  28.35300 -12.31100 48.98500
H  27.32900 -13.54200 49.57300
H  29.46600 -12.12000 51.10000
H  28.70300 -13.74600 51.39000
H  27.90000 -12.27000 51.96800
H  30.48400 -8.34600 50.20900
H  31.13500 -6.84800 49.59500
H  31.49700 -8.26700 48.68800
H  28.91500 -4.50000 45.01100
H  28.79200 -0.50900 46.93300
H  27.35800 -1.01900 46.09300
H  28.79500 -0.52100 45.15400
Mg -1.73300 33.38200 26.95200
C  -3.21900 31.66700 29.61800
C  -0.15800 35.58900 29.00900
C  -0.90600 35.33800 24.29400
C  -3.46100 31.18100 24.67300
N  -1.82900 33.70600 29.06300
C  -2.45100 32.89100 29.98900
C  -2.04200 33.33000 31.41300
C  -1.12100 34.56100 31.17700
C  -1.03700 34.60500 29.61600
C  -1.67400 35.91400 31.83300
C  -1.41400 32.20300 32.29500
C  -0.45200 32.60100 33.41000
H  -0.62300 32.06100 34.84200
N  -0.66900 35.18300 26.69000
C  -0.07900 35.94400 27.61000
C  0.74100 37.00000 27.00400
C  0.54000 36.90600 25.60300
C  -0.42200 35.81500 25.45200
C  1.71700 37.80200 27.90700
C  1.08500 37.80800 24.55900
O  0.82100 37.67800 23.36300
C  2.06500 38.88100 24.86800
N  -2.28700 33.41300 24.72100
C  -1.77500 34.32500 23.90300
C  -1.94400 33.86600 22.43500
C  -2.54600 32.37400 22.60700
C  -2.79500 32.30600 24.07400
C  -2.87100 34.71300 21.61800
C  -1.55500 31.20900 22.09600
C  -0.11400 31.11500 22.64400
N  -3.04500 31.75200 27.10000
C  -3.61800 30.98300 26.09600
C  -4.40200 29.91100 26.77700
C  -4.27000 30.15800 28.14100
C  -3.45500 31.27300 28.28500
C  -5.36200 28.94800 26.13800
C  -4.76900 29.73700 29.47800
O  -5.47700 28.77200 29.77400
C  -4.00900 30.70200 30.45200
C  -4.98900 31.45200 31.34000
O  -5.36900 32.61100 31.20700
O  -5.27600 30.59400 32.41200
C  -5.78800 31.30700 33.65300
H  0.46200 36.17100 29.69400
H  -0.50700 35.89300 23.44200
H  -3.97000 30.44600 24.04500
H  -2.99600 33.64500 31.83700
H  -0.07200 34.47000 31.45800
H  -2.52000 35.63100 32.45900
H  -2.07600 36.58600 31.07600
H  -0.87700 36.44300 32.35400
H  -1.02300 31.40400 31.66500
H  -2.29000 31.83000 32.82500
H  -0.14700 33.64700 33.42200
H  0.45400 32.11100 33.05400
H  2.73100 37.40600 27.86000
H  1.25700 37.85500 28.89400
H  1.75100 38.86600 27.67100
H  1.60100 39.73000 25.37100
H  2.46400 39.27100 23.93200
H  2.92200 38.57900 25.47000
H  -0.99900 33.78200 21.89800
H  -3.46000 32.29500 22.01900
H  -2.86000 35.69400 22.09300
H  -3.92200 34.42700 21.58500
H  -2.59100 34.93700 20.58900
H  -1.49700 31.35900 21.01800
H  -2.03500 30.23900 22.23200
H  -0.07200 31.84000 23.45600
H  0.73500 31.36900 22.00800
H  -0.04100 30.12200 23.08700
H  -5.05300 28.77900 25.10600
H  -6.39700 29.29000 26.17100
H  -5.35400 27.96400 26.60600
H  -3.50900 29.96900 31.08600
H  -4.96900 31.76700 34.20500
H  -6.09300 30.54100 34.36500
H  -6.61700 31.99200 33.47300

