158

Mg -1.68400 17.80300 26.85100
C  -2.64700 15.80800 29.53100
C  -2.67000 20.56500 28.61100
C  -1.00200 19.71500 24.07500
C  -1.68200 14.91300 24.79200
N  -2.63600 18.12400 28.76100
C  -2.69700 17.19100 29.80700
C  -2.95800 17.79400 31.10100
C  -3.40500 19.21100 30.72500
C  -2.90800 19.31900 29.25300
C  -4.92100 19.51000 30.81800
C  -1.76100 17.89100 32.00600
C  -1.95200 17.36100 33.44500
H  -0.70900 17.13600 34.38100
N  -1.69800 19.87200 26.48000
C  -2.16500 20.80300 27.31000
C  -2.15700 22.09300 26.67600
C  -1.42000 21.89700 25.46300
C  -1.26100 20.44700 25.29100
C  -2.74100 23.37000 27.29900
C  -0.95200 23.00900 24.44000
O  -0.35400 22.70700 23.39600
C  -1.00100 24.42000 24.92700
N  -1.40200 17.41600 24.81300
C  -1.06500 18.32300 23.83700
C  -0.98700 17.69500 22.41600
C  -0.76300 16.19400 22.77600
C  -1.31400 16.12200 24.24800
C  -2.16600 18.01000 21.43500
C  0.65800 15.66100 22.76600
C  1.75500 16.63800 23.30000
N  -2.00300 15.77700 27.06300
C  -2.01500 14.76400 26.19900
C  -2.35900 13.50600 26.85700
C  -2.49500 13.87300 28.16700
C  -2.34000 15.26300 28.29100
C  -2.37800 12.14400 26.30300
C  -2.82000 13.34600 29.46300
O  -3.17800 12.19700 29.79400
C  -2.85500 14.59800 30.39800
C  -1.64700 14.31900 31.29700
O  -0.49600 14.62400 30.92200
O  -1.98900 13.84000 32.58800
C  -0.83000 13.68200 33.42500
H  -2.93200 21.39900 29.26500
H  -0.85500 20.37200 23.21500
H  -1.75800 13.96000 24.26300
H  -3.81800 17.21100 31.43100
H  -2.93800 20.06400 31.21800
H  -5.14800 20.42000 30.26200
H  -5.22100 19.58900 31.86300
H  -5.46500 18.70700 30.32100
H  -1.37400 18.90900 32.04000
H  -0.97800 17.35600 31.46700
H  -2.41900 16.37800 33.37100
H  -2.64000 18.05400 33.92800
H  -3.27400 23.96100 26.55400
H  -1.88300 23.99900 27.53900
H  -3.44200 23.22000 28.12000
H  -0.54100 24.47300 25.91400
H  -2.04900 24.70800 25.00700
H  -0.40000 25.04000 24.26200
H  -0.08000 18.11000 21.97700
H  -1.26700 15.49400 22.10900
H  -2.78600 18.78500 21.88600
H  -2.72600 17.12200 21.14300
H  -1.80600 18.35500 20.46600
H  0.88400 15.54600 21.70500
H  0.76200 14.72600 23.31700
H  2.59500 15.99300 23.55400
H  1.46800 17.22900 24.17000
H  2.15100 17.22100 22.46800
H  -1.67000 11.96000 25.49500
H  -3.41100 11.90700 26.05000
H  -2.10700 11.48100 27.12500
H  -3.77700 14.65400 30.97700
H  -0.42300 12.67100 33.42200
H  -1.21400 13.86500 34.42900
H  -0.02600 14.40400 33.28400
Mg 35.58100 1.94600 29.38700
C  33.68300 3.04200 31.90000
C  38.31700 1.91100 31.69800
C  37.76500 1.20200 26.90300
C  33.22700 2.86800 27.13400
N  36.02300 2.60400 31.50700
C  34.99900 2.85300 32.35000
C  35.49700 2.92700 33.82200
C  36.99500 2.78700 33.77500
C  37.12900 2.43900 32.21300
C  37.85400 4.07800 34.11000
C  34.76200 1.88100 34.68900
C  34.34100 2.24800 36.15100
H  34.73800 3.63000 36.70200
N  37.71100 1.49600 29.32300
C  38.59700 1.48500 30.34000
C  39.83100 0.93200 29.80100
C  39.67000 0.55000 28.47000
C  38.35000 1.07000 28.15900
C  41.08000 0.79200 30.66000
C  40.71500 -0.11400 27.43700
O  40.35100 -0.37100 26.28600
C  42.14900 -0.44700 27.93700
N  35.47000 2.02500 27.30600
C  36.51000 1.61800 26.49800
C  36.22900 1.95400 25.02700
C  34.69600 2.34300 25.08900
C  34.40800 2.41600 26.60300
C  37.14600 3.12100 24.47800
C  33.79800 1.33800 24.34700
C  33.57800 -0.04700 25.03100
N  33.79500 2.91800 29.43000
C  32.83000 3.09000 28.42700
C  31.61800 3.63900 29.01300
C  31.86600 3.54000 30.41600
C  33.27000 3.16400 30.55000
C  30.30400 3.98100 28.37100
C  31.22900 3.64700 31.70800
O  30.07300 3.87500 32.10000
C  32.47700 3.51800 32.70800
C  32.73100 4.87100 33.39500
O  33.57500 5.77300 33.07600
O  31.79600 5.08100 34.34900
C  31.75800 6.31500 35.04300
H  39.09400 1.72200 32.44100
H  38.47900 1.03300 26.09400
H  32.48200 3.19300 26.40400
H  35.34500 3.93800 34.20200
H  37.38600 1.98600 34.40300
H  38.38100 4.27700 33.17700
H  38.57500 3.89900 34.90700
H  37.27500 4.96100 34.38400
H  35.43700 1.02500 34.68900
H  33.90000 1.46100 34.17000
H  34.66200 1.51300 36.88900
H  33.25900 2.12100 36.19200
H  41.33100 -0.23100 30.94000
H  40.88100 1.22400 31.64000
H  41.95700 1.35100 30.33400
H  42.67900 -0.97300 27.14300
H  42.03600 -1.11700 28.79000
H  42.59200 0.51700 28.18600
H  36.52700 1.02600 24.54000
H  34.42100 3.29100 24.62700
H  36.57300 3.99900 24.18000
H  37.72100 2.75400 23.62800
H  37.82800 3.35500 25.29600
H  34.17000 1.14400 23.34100
H  32.80700 1.77400 24.22200
H  33.22900 -0.79000 24.31400
H  32.95300 0.05400 25.91800
H  34.55400 -0.35000 25.41100
H  30.26600 3.45400 27.41800
H  30.34600 5.04400 28.13500
H  29.45600 3.76700 29.02200
H  32.30100 2.76400 33.47600
H  32.76800 6.60000 35.33700
H  31.21900 6.13400 35.97200
H  31.27900 7.09000 34.44400

