158

Mg 34.88300 2.39000 29.22200
C  32.70600 3.93900 31.46100
C  37.22800 2.06500 31.72300
C  36.98600 1.28000 26.96500
C  32.49700 3.09900 26.64800
N  35.01500 3.04400 31.31000
C  33.94200 3.57900 32.07200
C  34.30800 3.37400 33.58200
C  35.88300 3.20400 33.53500
C  36.12600 2.70500 32.10000
C  36.87300 4.39700 33.91200
C  33.45000 2.26900 34.30000
C  32.78900 2.84500 35.57700
H  33.45500 4.02800 36.33000
N  36.83200 1.64800 29.38000
C  37.61400 1.64300 30.43000
C  38.82400 0.92400 30.11000
C  38.71100 0.58300 28.73200
C  37.44400 1.16600 28.26200
C  40.08900 0.79500 31.07100
C  39.72500 -0.19500 27.80500
O  39.51100 -0.52900 26.61300
C  41.10700 -0.72800 28.43600
N  34.72300 2.29100 27.14200
C  35.75300 1.77000 26.46400
C  35.43800 1.68700 24.94700
C  33.90800 1.98800 24.93200
C  33.69500 2.58300 26.30900
C  36.26200 2.61200 24.11100
C  32.95600 0.78400 24.55900
C  32.56700 -0.25400 25.63400
N  32.98800 3.40300 29.02300
C  32.09800 3.53600 27.93600
C  30.79500 3.99400 28.43200
C  30.95800 4.15800 29.81700
C  32.31700 3.80000 30.10500
C  29.60800 4.30800 27.54100
C  30.34300 4.62800 31.01800
O  29.25000 5.03700 31.17900
C  31.42900 4.43100 32.14000
C  31.53300 5.77500 32.78500
O  31.96200 6.76200 32.22800
O  31.06400 5.77200 34.02700
C  31.17000 7.07100 34.73100
H  38.04300 1.94600 32.43900
H  37.65600 0.95300 26.16700
H  31.80000 3.22500 25.81700
H  34.15300 4.40300 33.90400
H  36.21300 2.41200 34.20700
H  37.59000 4.68500 33.14300
H  37.45600 4.10300 34.78400
H  36.38400 5.35700 34.07800
H  33.96900 1.36000 34.60200
H  32.63800 2.02400 33.61500
H  32.78100 2.03700 36.30800
H  31.76100 3.08000 35.30100
H  39.90100 1.25200 32.04200
H  41.00700 1.20700 30.65300
H  40.23000 -0.27300 31.24100
H  40.94100 -1.05600 29.46200
H  41.88300 0.03700 28.40200
H  41.51600 -1.58600 27.90300
H  35.57900 0.63100 24.71500
H  33.79100 2.83300 24.25300
H  36.93300 3.22600 24.71100
H  35.65800 3.33000 23.55600
H  36.88900 1.99300 23.47000
H  33.33400 0.22100 23.70600
H  32.03300 1.18600 24.14000
H  31.51300 -0.04500 25.81600
H  33.12900 -0.22800 26.56800
H  32.76700 -1.23700 25.20800
H  29.87300 4.34800 26.48500
H  29.10300 5.25600 27.72800
H  29.02000 3.41200 27.74000
H  31.02200 3.73800 32.87700
H  30.44900 7.73200 34.25000
H  32.19200 7.43800 34.63800
H  30.93700 6.79300 35.75900
Mg -12.04200 37.94000 42.79800
C  -10.55300 35.05200 41.90500
C  -9.72700 39.74400 41.22700
C  -14.12300 40.56100 43.03100
C  -14.72400 35.95600 44.21100
N  -10.28000 37.43900 41.84800
C  -9.89500 36.19000 41.38400
C  -8.75100 36.19500 40.29300
C  -8.32000 37.68400 40.45700
C  -9.47400 38.37500 41.24400
C  -6.89600 37.86900 41.15500
C  -9.36300 36.00600 38.90300
C  -8.33100 35.55500 37.83700
H  -7.73500 36.61200 36.91300
N  -11.97300 39.88700 42.08700
C  -10.86000 40.50700 41.57100
C  -11.12900 41.84000 41.37200
C  -12.46900 42.15700 41.80800
C  -12.91300 40.82500 42.37900
C  -10.20400 42.66000 40.64300
C  -13.30700 43.45300 41.63700
O  -12.75100 44.34900 41.08500
C  -14.69800 43.60300 42.03500
N  -14.19200 38.26700 43.56900
C  -14.78400 39.43000 43.58800
C  -16.03100 39.44500 44.48900
C  -16.39800 37.88100 44.55000
C  -15.00400 37.35100 44.14400
C  -15.84700 40.02100 45.86900
C  -17.65600 37.58900 43.59800
C  -18.30000 36.30800 43.84100
N  -12.49100 35.90900 43.13800
C  -13.55000 35.26700 43.78300
C  -13.20300 33.83500 43.89800
C  -11.99000 33.66900 43.19600
C  -11.76000 35.01200 42.66300
C  -13.96200 32.71200 44.62900
C  -10.96600 32.79400 42.78700
O  -10.80800 31.62100 42.93400
C  -10.09200 33.61900 41.72700
C  -8.61300 33.39400 42.03400
O  -7.85400 32.76000 41.32000
O  -8.15500 34.29800 42.97500
C  -6.76200 34.25100 43.37600
H  -8.91200 40.30700 40.76800
H  -14.67900 41.46400 43.29000
H  -15.50300 35.39900 44.73600
H  -8.00400 35.46700 40.61000
H  -8.25900 38.12200 39.46000
H  -6.96600 37.76000 42.23700
H  -6.49800 38.85600 40.91700
H  -6.16700 37.17900 40.73100
H  -9.82200 36.93200 38.55900
H  -10.20500 35.31800 38.97200
H  -8.74500 34.64200 37.41100
H  -7.43500 35.25000 38.37900
H  -9.19100 42.25900 40.63600
H  -10.19500 43.55000 41.27300
H  -10.57700 43.09200 39.71500
H  -15.25300 42.75900 41.62600
H  -15.12700 44.56700 41.76300
H  -14.57000 43.59600 43.11800
H  -16.85000 40.03700 44.08100
H  -16.65600 37.58700 45.56700
H  -16.57700 39.81000 46.65000
H  -15.95500 41.10500 45.83500
H  -14.87800 39.72300 46.27000
H  -17.31400 37.61000 42.56300
H  -18.34200 38.43300 43.53100
H  -19.33300 36.32500 43.49400
H  -18.24100 35.98300 44.88000
H  -17.85700 35.48600 43.27900
H  -14.62000 32.17100 43.94800
H  -14.61700 33.13400 45.39200
H  -13.43800 31.91400 45.15400
H  -10.42300 33.27000 40.75000
H  -6.17800 34.88900 42.71300
H  -6.39500 33.22500 43.39400
H  -6.58500 34.72500 44.34100

