158

Mg 9.14600 47.89500 27.48900
C  7.08400 47.34500 30.28300
C  11.54700 48.91400 29.66000
C  11.12700 48.53800 24.88800
C  6.52200 47.28700 25.46100
N  9.27000 48.13300 29.70800
C  8.35700 47.69600 30.67900
C  8.95700 47.97400 32.07200
C  10.32500 48.65100 31.83300
C  10.38100 48.65600 30.28900
C  10.61400 50.03800 32.53200
C  8.93300 46.72100 33.09000
C  9.87600 46.60100 34.28900
H  9.28600 45.96700 35.61200
N  11.11000 48.68000 27.25800
C  11.94300 48.87900 28.26300
C  13.30600 49.10200 27.74800
C  13.20900 49.10500 26.31600
C  11.78800 48.75800 26.04900
C  14.48200 49.39300 28.59100
C  14.24900 49.37500 25.29000
O  13.99200 49.37500 24.10800
C  15.65000 49.51300 25.72600
N  8.85900 47.96200 25.48900
C  9.84200 48.07200 24.62900
C  9.49400 47.59100 23.20100
C  7.91900 47.33700 23.40500
C  7.77300 47.48300 24.90400
C  9.79200 48.66500 22.09100
C  7.38700 46.08300 22.71800
C  5.94400 46.08200 22.07800
N  7.14200 47.39600 27.71400
C  6.12700 47.24700 26.78700
C  4.82100 47.06100 27.45500
C  5.14800 47.05100 28.86700
C  6.57300 47.27200 28.94700
C  3.52700 46.87600 26.90300
C  4.62600 46.85300 30.21000
O  3.53900 46.65600 30.68100
C  5.85700 47.00300 31.18100
C  5.97600 45.80200 31.97600
O  6.66100 44.86800 31.68000
O  5.41000 45.94400 33.21100
C  5.49800 44.76700 34.15400
H  12.33400 49.26500 30.33000
H  11.71300 48.51500 23.96700
H  5.61900 47.23600 24.84900
H  8.26200 48.73200 32.43500
H  10.99500 47.85700 32.16300
H  10.85100 50.71300 31.70900
H  11.50100 50.09700 33.16400
H  9.85700 50.34200 33.25500
H  9.08600 45.77400 32.57400
H  7.88600 46.71400 33.39600
H  10.13600 47.62200 34.56500
H  10.62300 45.83500 34.08000
H  15.36100 48.78400 28.37900
H  14.09600 49.24700 29.60000
H  14.64400 50.46000 28.43200
H  15.66000 50.40700 26.35000
H  16.29100 49.46700 24.84600
H  15.98000 48.61000 26.24000
H  10.03700 46.67300 22.97500
H  7.38100 48.13300 22.89100
H  10.75300 48.45100 21.62200
H  9.90400 49.64200 22.56200
H  9.02200 48.85600 21.34400
H  7.42600 45.30000 23.47600
H  8.03300 45.74500 21.90800
H  5.33200 45.27300 22.47800
H  5.98400 45.94100 20.99800
H  5.48600 47.01900 22.39400
H  2.74900 47.15800 27.61200
H  3.39300 45.82400 26.64700
H  3.44000 47.34400 25.92200
H  5.62400 47.79600 31.89200
H  6.14600 43.92700 33.90300
H  4.51400 44.41600 34.46400
H  6.02100 45.20500 35.00400
Mg -1.80600 34.29900 26.24400
C  -3.37000 32.71400 28.95800
C  -0.96300 36.88300 28.45400
C  -0.64800 36.02000 23.70000
C  -3.38600 32.02600 24.03900
N  -2.20100 34.71600 28.41300
C  -2.66000 33.81600 29.37700
C  -2.43900 34.29300 30.84500
C  -1.91800 35.76000 30.59000
C  -1.65400 35.82300 29.05400
C  -2.83100 36.97600 31.12900
C  -1.43600 33.28000 31.51800
C  -2.09000 32.51800 32.68300
H  -1.20800 32.40000 33.92000
N  -0.81100 36.09800 26.13200
C  -0.59300 37.01300 27.07200
C  0.25900 38.17800 26.56800
C  0.45500 37.92300 25.14100
C  -0.38200 36.65500 24.92200
C  0.62500 39.36300 27.49900
C  1.12000 38.71500 24.06000
O  1.07100 38.27700 22.96600
C  1.94500 39.91600 24.42000
N  -2.20900 34.21100 24.23300
C  -1.41200 34.86400 23.40000
C  -1.70500 34.51500 21.92300
C  -2.33200 33.09600 22.10100
C  -2.61200 33.07600 23.54500
C  -2.70200 35.59900 21.26000
C  -1.40600 31.98900 21.49900
C  -0.28100 31.55200 22.35900
N  -3.23100 32.74000 26.41500
C  -3.74700 31.87100 25.42100
C  -4.51300 30.89300 26.14500
C  -4.33900 31.11700 27.45800
C  -3.63300 32.29200 27.60000
C  -5.19000 29.70800 25.41200
C  -4.60300 30.58600 28.79300
O  -5.19900 29.55500 29.15700
C  -3.95600 31.54700 29.79200
C  -5.03400 31.95400 30.77600
O  -5.77000 32.94300 30.71200
O  -5.06100 30.95200 31.76800
C  -6.06400 31.23300 32.79900
H  -0.65400 37.69800 29.11000
H  -0.15000 36.41600 22.81200
H  -3.61700 31.33000 23.22900
H  -3.41800 34.20400 31.31700
H  -0.99900 35.92000 31.15400
H  -2.46200 37.56300 31.97100
H  -3.83800 36.65100 31.39100
H  -2.96500 37.76600 30.39000
H  -0.66700 33.93000 31.93500
H  -1.08100 32.55900 30.78200
H  -2.28800 31.49600 32.36000
H  -3.07100 32.83300 33.04000
H  1.51400 39.13100 28.08500
H  -0.16700 39.48400 28.23800
H  0.79500 40.27100 26.91900
H  2.73100 39.48200 25.03700
H  1.32900 40.67900 24.89600
H  2.29700 40.18600 23.42400
H  -0.75100 34.45600 21.39900
H  -3.32700 33.07400 21.65500
H  -2.23600 36.09700 20.40900
H  -2.83600 36.41500 21.97000
H  -3.63100 35.11200 20.96400
H  -1.11900 32.31100 20.49800
H  -2.10300 31.15300 21.53800
H  -0.43400 30.55100 22.76100
H  -0.20100 32.13700 23.27600
H  0.63400 31.45000 21.77600
H  -4.71100 29.66200 24.43400
H  -6.20200 30.07400 25.23800
H  -5.00200 28.82300 26.02100
H  -3.20900 30.98300 30.35100
H  -5.76600 32.07000 33.43100
H  -6.26600 30.38100 33.44700
H  -7.00000 31.49100 32.30400

