158

Mg 41.46100 40.61700 26.68900
C  41.02700 43.02300 29.07100
C  42.47100 38.45400 29.08700
C  42.32100 38.48700 24.28400
C  40.63700 43.00400 24.25700
N  41.79000 40.81000 28.91000
C  41.44500 41.80200 29.68300
C  41.52000 41.39100 31.11500
C  42.02900 39.91500 31.02500
C  42.08100 39.65900 29.58500
C  43.42100 39.56800 31.71600
C  40.07600 41.46100 31.79100
C  39.86500 40.84000 33.15800
H  39.34300 41.84600 34.15400
N  42.25600 38.67300 26.71100
C  42.61500 37.95900 27.79700
C  43.07200 36.67500 27.33800
C  43.09400 36.64100 25.93400
C  42.54300 37.99400 25.60900
C  43.60200 35.72200 28.31600
C  43.49200 35.53400 24.96200
O  43.26200 35.56200 23.72600
C  44.06000 34.21800 25.45700
N  41.56300 40.78200 24.63400
C  41.91000 39.74300 23.80700
C  41.89100 40.12200 22.28500
C  41.00500 41.34300 22.33000
C  40.98200 41.76700 23.82700
C  43.25200 40.46300 21.68400
C  39.63300 41.18400 21.82300
C  38.51700 40.70200 22.84100
N  40.89400 42.67900 26.61300
C  40.58400 43.48100 25.54900
C  40.32200 44.81000 26.02500
C  40.40500 44.65400 27.46700
C  40.76800 43.34100 27.74600
C  40.16000 46.06000 25.29600
C  40.33800 45.34000 28.76000
O  40.23000 46.54500 29.05200
C  40.58700 44.27700 29.81000
C  41.72900 44.81000 30.59200
O  42.78400 45.24000 30.21100
O  41.43800 44.69000 31.98200
C  42.49200 45.03300 32.94400
H  42.50600 37.73500 29.90800
H  42.44800 37.74600 23.49100
H  40.32500 43.60800 23.40300
H  42.19700 41.99600 31.71800
H  41.25500 39.27000 31.44200
H  44.22300 39.34900 31.01100
H  43.32900 38.68400 32.34800
H  43.83100 40.39700 32.29400
H  39.36400 41.00900 31.09900
H  39.72300 42.48700 31.89800
H  40.87900 40.48400 33.33900
H  39.26800 39.93000 33.11200
H  43.16400 35.79200 29.31200
H  44.68700 35.73400 28.41200
H  43.30300 34.71600 28.02100
H  43.17300 33.69900 25.81900
H  44.59200 34.43600 26.38300
H  44.62200 33.62200 24.73700
H  41.43500 39.24600 21.82500
H  41.53300 42.18100 21.87500
H  43.83400 39.54300 21.73300
H  43.75400 41.25600 22.23900
H  43.20900 40.64000 20.61000
H  39.68100 40.45700 21.01200
H  39.33600 42.16000 21.44200
H  38.73500 40.94000 23.88200
H  38.35600 39.63800 22.66500
H  37.60400 41.28000 22.69700
H  39.42800 46.12900 24.49100
H  41.08300 46.39000 24.81900
H  39.98900 46.79200 26.08400
H  39.77200 44.14600 30.52100
H  43.47600 45.20200 32.50700
H  42.56300 44.19800 33.64100
H  42.33300 45.93700 33.53200
Mg 26.80200 50.34000 27.07400
C  24.73900 51.82200 29.69000
C  29.02400 49.66200 29.51300
C  28.72900 49.15600 24.65600
C  24.51400 51.69100 24.73700
N  26.90200 50.85600 29.37300
C  25.92100 51.29200 30.23000
C  26.27800 51.00900 31.69900
C  27.71900 50.33900 31.58800
C  27.91600 50.30700 30.06500
C  28.88500 51.06000 32.29900
C  25.20200 50.19100 32.56100
C  25.55000 49.23400 33.72800
H  24.91200 49.55100 35.16000
N  28.55900 49.44400 27.07400
C  29.36100 49.22300 28.20900
C  30.61400 48.59100 27.80300
C  30.54100 48.54000 26.39200
C  29.23600 49.01400 25.97800
C  31.76700 48.29800 28.74400
C  31.70600 48.07600 25.43800
O  31.56600 48.01000 24.21400
C  33.11100 47.89000 25.87900
N  26.67700 50.42800 24.98100
C  27.50500 49.73300 24.21600
C  26.93900 49.70900 22.77200
C  25.46400 50.30400 22.93800
C  25.58500 50.87800 24.25700
C  27.80500 50.52900 21.82900
C  24.33700 49.21000 22.77500
C  23.10700 49.58200 21.91800
N  25.07400 51.57000 27.10600
C  24.23600 51.97800 26.07100
C  23.13200 52.81900 26.63700
C  23.30400 52.70100 28.00900
C  24.47800 52.00300 28.31100
C  21.94300 53.49400 25.89900
C  22.63200 53.06800 29.29200
O  21.59800 53.67800 29.62200
C  23.59400 52.43200 30.46200
C  24.06900 53.65600 31.19900
O  25.15400 54.24500 31.05800
O  23.15400 53.83900 32.23000
C  23.54600 54.86400 33.19800
H  29.82200 49.29100 30.15900
H  29.24600 48.62200 23.85600
H  23.84900 52.04700 23.94700
H  26.36800 52.02500 32.08200
H  27.75800 49.27100 31.80200
H  28.48200 51.76100 33.03000
H  29.42800 51.58900 31.51500
H  29.47200 50.33700 32.86500
H  24.67400 49.59500 31.81600
H  24.43800 50.90100 32.87700
H  26.61100 49.36300 33.94500
H  25.29600 48.20100 33.49100
H  31.80000 47.25300 29.05100
H  31.84500 48.98700 29.58500
H  32.78200 48.34700 28.35200
H  33.34700 48.87000 26.29300
H  33.77800 47.69600 25.03900
H  33.15400 47.08000 26.60800
H  26.73100 48.72000 22.36400
H  25.22400 51.05400 22.18400
H  28.74500 50.58100 22.37800
H  27.44400 51.54300 21.66300
H  27.81700 50.05300 20.84800
H  23.96700 49.08300 23.79200
H  24.70700 48.23100 22.47000
H  23.09600 48.98600 21.00600
H  22.98700 50.60700 21.56700
H  22.26100 49.27000 22.53200
H  21.93700 53.40700 24.81200
H  21.64900 54.52500 26.09800
H  21.11100 52.89500 26.26800
H  23.15000 51.66400 31.09600
H  23.82800 55.81800 32.75200
H  24.30500 54.42300 33.84400
H  22.79000 55.00500 33.97100

