158

Mg -1.72400 17.55900 25.39400
C  -2.02900 15.36000 28.01300
C  -2.08900 20.10400 27.59200
C  -2.40100 19.73600 22.76500
C  -2.05600 14.79700 23.21000
N  -1.99400 17.72100 27.53600
C  -2.05700 16.67500 28.39700
C  -2.08500 17.17100 29.86400
C  -2.30100 18.74900 29.75000
C  -2.13200 18.89700 28.23300
C  -3.64500 19.22700 30.28500
C  -0.94700 16.72000 30.78300
C  -0.38500 17.52100 31.99700
H  -0.14200 16.75100 33.36400
N  -1.88800 19.65400 25.20700
C  -2.00900 20.51400 26.27200
C  -1.90200 21.84700 25.77500
C  -1.96000 21.77600 24.32200
C  -2.11000 20.34900 24.05900
C  -2.01700 23.04800 26.73800
C  -1.92700 22.86600 23.21100
O  -2.04600 22.65900 22.02200
C  -1.57100 24.25500 23.71700
N  -2.25700 17.36500 23.24900
C  -2.46100 18.36700 22.40200
C  -2.75000 17.81500 21.06400
C  -2.40500 16.29700 21.05800
C  -2.22700 16.13200 22.57600
C  -4.23900 18.02100 20.59000
C  -1.09100 16.00600 20.24500
C  0.29300 16.14600 20.88500
N  -1.87200 15.44500 25.46800
C  -1.85300 14.45100 24.55500
C  -1.95200 13.15900 25.18300
C  -2.06000 13.42700 26.56200
C  -1.88900 14.84000 26.68300
C  -2.14400 11.87300 24.52900
C  -2.22300 12.83700 27.82200
O  -2.31600 11.65900 28.15700
C  -2.25700 14.09000 28.86800
C  -1.35600 13.74000 29.98900
O  -0.15100 13.73800 29.96300
O  -2.13300 13.29700 31.08000
C  -1.38100 12.74300 32.20500
H  -2.21800 20.94900 28.27200
H  -2.62600 20.37100 21.90500
H  -2.11900 13.91400 22.57100
H  -2.99700 16.76100 30.29700
H  -1.45500 19.27500 30.19100
H  -4.33500 18.45600 30.62800
H  -4.24900 19.72500 29.52600
H  -3.49700 20.02500 31.01300
H  -0.16600 16.42000 30.08400
H  -1.26600 15.80000 31.27200
H  -0.96700 18.40800 32.24700
H  0.62000 17.78300 31.66500
H  -3.00600 23.48100 26.59200
H  -1.31700 23.85800 26.53300
H  -1.83800 22.83600 27.79300
H  -0.58600 24.01400 24.11800
H  -2.29500 24.56300 24.47100
H  -1.57300 24.84500 22.80000
H  -2.13600 18.39800 20.37800
H  -3.24000 15.68400 20.71700
H  -4.38800 19.03200 20.21000
H  -4.95700 17.84400 21.39000
H  -4.46000 17.25900 19.84200
H  -1.03000 16.75600 19.45600
H  -1.16200 15.06500 19.70000
H  0.91500 16.68600 20.17200
H  0.63000 15.11000 20.93500
H  0.40000 16.72000 21.80500
H  -2.07000 11.92400 23.44300
H  -3.10700 11.44200 24.80000
H  -1.46100 11.12900 24.93800
H  -3.29300 14.14400 29.20000
H  -1.33200 13.58500 32.89500
H  -0.35100 12.47100 31.97400
H  -1.83800 11.90200 32.72700
Mg 36.10300 0.38300 30.41200
C  33.62500 1.55800 32.64200
C  38.43800 0.82700 32.77600
C  38.27200 -0.16400 28.07100
C  33.49300 0.71400 27.81400
N  36.04700 1.21000 32.41200
C  34.93000 1.39600 33.21200
C  35.24700 1.39200 34.73700
C  36.81800 1.67500 34.62800
C  37.15900 1.13800 33.22100
C  37.13600 3.20700 34.94500
C  34.89400 0.05400 35.48600
C  34.21200 0.15500 36.83500
H  34.22900 1.41100 37.81300
N  38.09500 0.29300 30.46300
C  38.89500 0.44700 31.48200
C  40.23100 0.08100 31.04000
C  40.23300 -0.29700 29.70000
C  38.83500 -0.09100 29.32400
C  41.34000 0.09900 32.06100
C  41.35000 -0.69500 28.84300
O  41.21100 -1.08300 27.70900
C  42.70500 -0.84200 29.45000
N  35.88100 0.60900 28.23400
C  36.98000 0.12500 27.58500
C  36.72900 0.07400 26.13400
C  35.19200 0.27000 25.96100
C  34.80400 0.52800 27.39100
C  37.57800 0.91000 25.21800
C  34.48200 -0.89200 25.20300
C  33.98400 -2.07000 26.03300
N  34.01300 0.96900 30.21700
C  33.11500 1.02500 29.13300
C  31.80500 1.24300 29.56700
C  32.00600 1.52200 30.93500
C  33.30600 1.30200 31.27400
C  30.48900 1.30700 28.78600
C  31.26300 1.95400 32.10900
O  30.08000 2.29600 32.16200
C  32.28800 1.85000 33.39200
C  32.30200 3.12800 34.21500
O  33.03600 4.09000 34.04900
O  31.34600 2.96600 35.23400
C  31.13000 4.14200 36.09600
H  39.14100 0.77700 33.61000
H  39.02400 -0.41700 27.32100
H  32.72600 0.64700 27.03900
H  34.74400 2.14600 35.34300
H  37.33200 1.04800 35.35700
H  37.02700 3.76600 34.01600
H  38.17800 3.27200 35.25800
H  36.49900 3.63500 35.71900
H  35.65700 -0.72400 35.46700
H  34.11000 -0.37600 34.86400
H  34.68500 -0.64200 37.40900
H  33.15000 -0.05900 36.71500
H  42.30300 0.38800 31.64000
H  41.55100 -0.87700 32.49800
H  41.08700 0.73600 32.90800
H  42.63600 -1.41100 30.37700
H  43.07500 0.17900 29.54000
H  43.35300 -1.46300 28.83200
H  37.19800 -0.88900 25.93000
H  35.01600 1.21900 25.45400
H  38.50000 1.22000 25.71000
H  37.03300 1.78800 24.87000
H  37.83200 0.33800 24.32600
H  35.18400 -1.27400 24.46200
H  33.69400 -0.37700 24.65300
H  34.31400 -1.94400 27.06400
H  34.44300 -2.96700 25.61800
H  32.92500 -2.30400 25.92100
H  30.48300 0.45500 28.10600
H  30.57500 2.22700 28.20800
H  29.60900 1.27100 29.42900
H  32.00300 0.99400 34.00400
H  31.33000 3.80400 37.11300
H  30.06200 4.35200 36.15200
H  31.76700 5.00700 35.91200

