158

Mg 43.36700 3.79000 48.23100
C  41.29200 6.46400 47.35100
C  40.53600 1.65700 48.00000
C  45.37000 1.17100 48.27500
C  46.13900 5.93800 47.55200
N  41.10900 4.06400 47.70100
C  40.54100 5.26300 47.37700
C  39.01100 5.07000 47.20300
C  38.78300 3.53300 47.76800
C  40.22700 3.02100 47.89600
C  37.97000 3.47700 49.13300
C  38.51600 5.20400 45.76500
C  37.45400 6.33000 45.55600
H  36.77100 6.37400 44.14300
N  42.99300 1.75300 48.07700
C  41.79700 1.05200 48.01600
C  42.04500 -0.35100 48.11900
C  43.44100 -0.51600 48.06500
C  44.00900 0.78600 48.14000
C  41.03400 -1.49300 48.16700
C  44.15800 -1.84400 48.00900
O  43.46100 -2.92100 48.19400
C  45.60500 -1.96200 47.56100
N  45.45700 3.57000 47.68600
C  46.04700 2.40900 48.05000
C  47.59300 2.54100 48.11900
C  47.85400 4.01400 47.59200
C  46.39400 4.53600 47.60400
C  47.99200 2.44000 49.64500
C  48.42200 4.11800 46.13900
C  49.49500 5.11200 45.97100
N  43.66400 5.84200 47.88900
C  44.82000 6.55400 47.56900
C  44.48400 7.93700 47.37500
C  43.08700 7.96000 47.43700
C  42.61900 6.61800 47.56800
C  45.41500 9.11900 47.22800
C  41.87800 8.81500 47.44000
O  41.79400 10.06000 47.50200
C  40.71400 7.88900 47.24500
C  39.74200 8.25600 48.38100
O  39.85800 7.98500 49.53900
O  38.76700 9.09800 47.86300
C  37.86000 9.69000 48.84800
H  39.69000 1.00900 48.24200
H  46.01400 0.34300 48.57800
H  47.01600 6.58200 47.47000
H  38.47300 5.68600 47.92400
H  38.38900 2.87100 46.99600
H  37.43700 4.36800 49.46500
H  38.76100 3.19600 49.82900
H  37.42000 2.53600 49.12200
H  37.82400 4.37200 45.63400
H  39.28900 5.32300 45.00500
H  37.85000 7.33800 45.67300
H  36.69000 6.20200 46.32300
H  40.02600 -1.07900 48.19600
H  41.18800 -2.14600 49.02700
H  41.10400 -2.17000 47.31500
H  46.30900 -2.00300 48.39300
H  45.78000 -1.11900 46.89400
H  45.68900 -2.87000 46.96400
H  48.08100 1.78900 47.49900
H  48.55300 4.53700 48.24500
H  47.45600 1.58700 50.06200
H  47.65700 3.33700 50.16700
H  49.07600 2.38600 49.74500
H  47.68200 4.36800 45.37900
H  48.77500 3.13300 45.83100
H  49.18600 5.75100 45.14400
H  50.37800 4.53900 45.69100
H  49.76100 5.59800 46.91000
H  44.92600 9.86300 46.59900
H  46.28000 8.73600 46.68700
H  45.64300 9.44600 48.24200
H  40.21300 8.06500 46.29200
H  36.88600 9.22900 48.68800
H  37.71300 10.75400 48.66300
H  38.13600 9.50200 49.88500
Mg 48.70500 45.73600 43.21300
C  45.25800 45.16100 42.94800
C  49.20600 42.39200 42.78900
C  52.06900 46.25200 43.11700
C  48.14000 49.09900 43.33100
N  47.37200 44.00600 42.80700
C  45.91300 43.97300 42.85900
C  45.38800 42.50200 42.83400
C  46.74100 41.66900 42.64800
C  47.90000 42.72100 42.79600
C  46.84000 40.41800 43.48900
C  44.29500 42.00700 41.85700
C  44.17600 42.59900 40.43900
H  44.04400 41.78900 39.16100
N  50.40700 44.45100 43.02500
C  50.41500 43.11400 42.81800
C  51.77400 42.55900 42.81800
C  52.64300 43.69100 42.98800
C  51.74300 44.86900 43.04700
C  52.00500 41.07900 42.75900
C  54.14900 43.59700 43.06200
O  54.73400 42.52100 42.89800
C  55.05800 44.81800 43.25400
N  49.92700 47.40000 43.00400
C  51.22300 47.36600 43.08100
C  51.82700 48.76700 43.29200
C  50.58300 49.70500 43.08900
C  49.49700 48.71900 43.22100
C  52.43300 48.92400 44.70600
C  50.59000 50.47600 41.74500
C  50.73500 52.02700 41.85500
N  47.01900 46.98800 42.97400
C  46.98700 48.34300 43.14400
C  45.61000 48.74200 43.21900
C  44.91100 47.52000 43.10300
C  45.82300 46.47700 43.02500
C  44.93100 50.06500 43.37700
C  43.56100 46.93800 42.96000
O  42.49100 47.47800 42.79900
C  43.78200 45.34200 43.04300
C  43.12600 44.78100 44.26400
O  42.28900 43.94400 44.24600
O  43.63900 45.29200 45.42200
C  43.03600 44.92600 46.74600
H  49.33100 41.31000 42.70300
H  53.12600 46.52500 43.13900
H  48.05300 50.17200 43.51300
H  44.90600 42.40200 43.80700
H  46.86900 41.28800 41.63500
H  47.11300 39.62200 42.79700
H  45.85400 40.21700 43.90800
H  47.66200 40.34100 44.20100
H  43.30800 42.13900 42.30000
H  44.48300 40.95800 41.62700
H  45.01800 43.28800 40.37500
H  43.33700 43.29300 40.46300
H  51.84500 40.88700 41.69800
H  51.16700 40.53000 43.18800
H  52.89100 40.65100 43.22700
H  55.05500 45.31600 42.28400
H  56.06100 44.41900 43.40300
H  54.65300 45.52900 43.97500
H  52.62300 48.66000 42.55500
H  50.54700 50.44900 43.88500
H  52.25700 48.09200 45.38700
H  52.01500 49.84400 45.11300
H  53.50000 49.14000 44.76700
H  49.69200 50.31500 41.15000
H  51.44700 50.07500 41.20400
H  50.35300 52.37300 42.81500
H  50.16700 52.51900 41.06400
H  51.78100 52.33100 41.82900
H  44.20000 50.17100 42.57600
H  45.67900 50.85200 43.28100
H  44.48600 50.07900 44.37200
H  43.20000 44.81800 42.28500
H  43.75600 44.46600 47.42300
H  42.23500 44.18800 46.71700
H  42.58100 45.86600 47.06000

