158

Mg 26.18400 1.11900 29.16200
C  28.02600 0.89100 32.15500
C  23.33700 1.34800 31.12900
C  24.39400 0.91000 26.41100
C  29.07100 -0.03200 27.43800
N  25.83700 0.97900 31.44000
C  26.70700 1.16600 32.42500
C  25.97400 1.44600 33.73000
C  24.48600 1.25200 33.37800
C  24.54600 1.04100 31.85700
C  23.81000 0.04100 34.08300
C  26.38900 2.86100 34.30200
C  25.95700 2.98900 35.76600
H  26.98500 2.81200 36.78900
N  24.14200 1.34500 28.74700
C  23.15600 1.41600 29.70500
C  21.90900 1.70000 28.97100
C  22.22900 1.68300 27.55300
C  23.64700 1.31900 27.51300
C  20.66900 1.95000 29.74400
C  21.36000 1.86900 26.31300
O  21.78100 1.99800 25.16800
C  19.92700 2.12000 26.43600
N  26.66300 0.60900 27.19300
C  25.69900 0.60700 26.17800
C  26.36600 0.40100 24.85100
C  27.87700 0.30400 25.20000
C  27.91600 0.28700 26.71400
C  25.78100 -0.84900 24.11900
C  28.72800 1.46600 24.65200
C  29.45400 1.22200 23.27000
N  28.12200 0.54500 29.65900
C  29.16600 0.04300 28.86300
C  30.29000 -0.30700 29.66400
C  29.92400 0.08300 30.97100
C  28.59700 0.57100 30.89300
C  31.38100 -1.17000 29.21800
C  30.43000 0.12300 32.31200
O  31.53500 -0.10900 32.76600
C  29.17400 0.66800 33.17600
C  28.73900 -0.30600 34.23900
O  28.05600 -1.33900 34.05500
O  29.19400 0.17600 35.45800
C  29.07700 -0.70800 36.60600
H  22.43500 1.56900 31.70300
H  23.67900 0.80800 25.59100
H  29.97000 -0.33500 26.89700
H  26.23700 0.71900 34.49800
H  23.79600 2.06600 33.59900
H  23.50000 -0.68500 33.33100
H  23.05300 0.34300 34.80600
H  24.39300 -0.51600 34.81700
H  26.06600 3.64400 33.61600
H  27.45700 2.81400 34.08700
H  25.16200 2.27000 35.96400
H  25.51300 3.96200 35.97600
H  20.40300 3.00100 29.63000
H  20.67400 1.73200 30.81200
H  19.80100 1.39300 29.39100
H  19.63200 2.88900 25.72200
H  19.69300 2.43000 27.45400
H  19.54000 1.11500 26.27000
H  26.26000 1.36200 24.34700
H  28.33100 -0.56200 24.71900
H  26.35600 -1.13200 23.23700
H  24.73100 -0.67800 23.88200
H  25.81400 -1.71100 24.78600
H  29.62500 1.66200 25.24000
H  28.16900 2.39700 24.55900
H  30.42000 1.70600 23.12700
H  28.70000 1.59000 22.57500
H  29.55700 0.15700 23.06400
H  31.71100 -1.76200 30.07200
H  32.22100 -0.74900 28.66700
H  31.01000 -1.87300 28.47200
H  29.45800 1.60500 33.65500
H  30.05200 -0.69400 37.09500
H  28.87800 -1.76000 36.40000
H  28.31500 -0.23300 37.22300
Mg -12.32300 37.99800 41.91500
C  -10.23300 35.40700 40.83300
C  -10.28000 40.21000 40.15200
C  -14.52800 40.41600 42.50500
C  -14.24700 35.69700 43.44200
N  -10.59400 37.73800 40.58100
C  -9.88900 36.61300 40.29400
C  -8.83800 36.86100 39.19400
C  -8.71200 38.43300 39.33900
C  -10.02200 38.87000 40.03900
C  -7.44200 38.84700 40.21300
C  -9.03200 36.23500 37.76900
C  -7.78800 35.47900 37.17200
H  -6.78600 36.37600 36.30500
N  -12.34400 40.12600 41.50000
C  -11.41300 40.76800 40.81600
C  -11.84800 42.16800 40.81200
C  -13.16400 42.30400 41.44800
C  -13.39000 40.91000 41.88800
C  -11.02900 43.14800 40.16700
C  -13.94200 43.54800 41.73400
O  -13.51800 44.66000 41.44000
C  -15.30800 43.54400 42.34900
N  -14.14100 38.05400 42.69100
C  -14.89200 39.14600 42.88500
C  -16.21100 38.80500 43.72600
C  -16.12800 37.24700 43.94200
C  -14.77700 36.98500 43.29900
C  -16.19100 39.64400 44.94000
C  -17.21300 36.39200 43.26900
C  -17.91500 35.33600 44.09200
N  -12.32400 35.90600 42.06900
C  -13.07800 35.13500 42.93000
C  -12.53600 33.76800 43.09600
C  -11.32600 33.80600 42.32200
C  -11.31800 35.10200 41.67900
C  -12.99700 32.64900 43.99600
C  -10.15500 33.17500 41.81800
O  -9.73400 32.03900 42.01700
C  -9.55300 34.07800 40.65400
C  -8.03000 34.14600 40.77100
O  -7.24200 34.79600 41.46200
O  -7.57000 33.17300 39.90800
C  -6.11900 33.07600 39.83200
H  -9.58200 40.87300 39.63700
H  -15.32200 41.15000 42.65400
H  -14.81400 34.91200 43.94600
H  -7.88000 36.49500 39.56300
H  -8.67000 38.93800 38.37400
H  -6.81200 38.05200 40.61300
H  -7.82300 39.39200 41.07600
H  -6.81500 39.55200 39.66700
H  -9.26100 36.93300 36.96300
H  -9.78500 35.44900 37.81400
H  -8.14200 34.64700 36.56300
H  -7.24100 35.01200 37.99100
H  -11.66200 43.98600 39.87600
H  -10.48000 42.86700 39.26800
H  -10.29700 43.40000 40.93400
H  -15.97600 42.91200 41.76300
H  -15.66400 44.56000 42.52300
H  -15.26400 43.09400 43.34000
H  -17.09500 39.08000 43.15100
H  -16.07200 37.05700 45.01300
H  -15.13000 39.75300 45.16900
H  -16.60100 39.05900 45.76300
H  -16.73200 40.58900 44.89600
H  -16.74200 35.80900 42.47700
H  -17.88900 37.08800 42.77300
H  -17.96100 35.52200 45.16500
H  -17.61700 34.28900 44.03000
H  -18.91000 35.25700 43.65500
H  -12.36200 31.77100 43.87500
H  -14.03600 32.39800 43.78400
H  -13.11400 32.98200 45.02700
H  -9.95400 33.66500 39.72900
H  -5.69800 32.67400 40.75400
H  -5.74500 34.08400 39.65300
H  -5.87300 32.29100 39.11700

