158

Mg 47.80900 16.10700 28.57500
C  45.78600 15.57000 31.35800
C  50.06200 17.70900 30.64200
C  49.62900 16.94300 25.78900
C  45.35600 14.63500 26.50200
N  47.84600 16.69000 30.77000
C  47.02600 16.26900 31.72500
C  47.54600 16.61200 33.10400
C  48.75900 17.53300 32.81000
C  48.87700 17.31900 31.32800
C  48.43500 19.03000 33.03000
C  47.85800 15.42200 34.00100
C  47.07500 15.26900 35.36000
H  46.72400 16.60500 35.93400
N  49.61800 17.10400 28.23800
C  50.42400 17.66600 29.25700
C  51.65700 18.07000 28.69100
C  51.51000 17.89800 27.27400
C  50.19900 17.25500 27.03900
C  52.77000 18.65900 29.48300
C  52.47700 18.17100 26.13000
O  52.25600 17.77200 24.99700
C  53.72100 18.86600 26.36700
N  47.49400 15.90900 26.38200
C  48.42500 16.28800 25.48800
C  47.70300 16.28200 24.11200
C  46.62400 15.15600 24.38600
C  46.50200 15.13900 25.86700
C  47.15100 17.68200 23.71500
C  46.90300 13.80200 23.69200
C  47.44600 12.64500 24.53600
N  45.97100 15.24100 28.83800
C  45.05700 14.66800 27.87400
C  43.85900 14.26200 28.58500
C  44.07800 14.68200 29.89100
C  45.38100 15.25800 30.02400
C  42.63600 13.66100 28.02200
C  43.42700 14.67200 31.27300
O  42.31400 14.26300 31.61600
C  44.60500 15.28700 32.24300
C  44.08200 16.54200 32.89500
O  44.32500 17.70600 32.59300
O  43.14900 16.13100 33.80900
C  42.56100 17.21800 34.63100
H  50.71300 18.30900 31.28100
H  50.06800 17.28300 24.84900
H  44.64600 14.16500 25.81900
H  46.73600 17.25800 33.44200
H  49.68000 17.24000 33.31300
H  47.53700 19.29100 33.59100
H  48.31700 19.56000 32.08500
H  49.26600 19.45800 33.59100
H  48.92300 15.32700 34.21100
H  47.56500 14.55800 33.40400
H  47.69700 14.70800 36.05800
H  46.15600 14.69300 35.25400
H  52.69100 19.74600 29.47400
H  53.77300 18.40800 29.13700
H  52.79500 18.23300 30.48600
H  53.45400 19.75100 26.94500
H  54.21200 19.22300 25.46200
H  54.53400 18.23200 26.72300
H  48.35400 15.96800 23.29600
H  45.63300 15.43100 24.02600
H  46.07900 17.57000 23.55700
H  47.56800 18.02000 22.76600
H  47.36500 18.39800 24.50800
H  47.48400 13.83400 22.77100
H  45.99100 13.41100 23.24100
H  46.70500 11.90300 24.83500
H  47.93700 12.94000 25.46400
H  48.20900 12.20400 23.89500
H  42.83200 13.00200 27.17600
H  41.95100 14.46700 27.75900
H  42.10300 13.08900 28.78200
H  44.93600 14.49400 32.91300
H  41.47400 17.18900 34.54700
H  42.89500 18.23400 34.42100
H  42.81500 16.94800 35.65600
Mg 26.66100 50.10900 26.71800
C  24.65400 51.15400 29.32300
C  28.90300 49.06700 29.12000
C  28.69400 49.18000 24.25100
C  24.24400 51.11800 24.45700
N  26.74000 50.11800 29.02200
C  25.78900 50.59200 29.86600
C  25.99800 50.10000 31.29500
C  27.51600 49.68700 31.30400
C  27.74900 49.60200 29.74000
C  28.48300 50.71900 31.92800
C  24.97700 49.17200 31.86600
C  24.37600 49.40500 33.25500
H  24.54600 48.52100 34.48000
N  28.52300 49.28100 26.71200
C  29.35300 48.94000 27.76500
C  30.62100 48.48700 27.29200
C  30.56600 48.58600 25.84700
C  29.22200 49.00700 25.51200
C  31.66300 47.99400 28.23700
C  31.63700 48.43300 24.90600
O  31.47700 48.52900 23.72800
C  33.03800 48.13200 25.32900
N  26.51200 50.21300 24.63400
C  27.44000 49.67600 23.83100
C  27.00100 49.73200 22.31800
C  25.54900 50.34700 22.46300
C  25.38200 50.56200 23.91900
C  27.96600 50.56100 21.44900
C  24.36400 49.56400 21.86300
C  23.63900 48.48700 22.56500
N  24.89400 51.01400 26.78900
C  23.96000 51.36800 25.82700
C  22.89200 52.03800 26.44700
C  23.09700 51.97200 27.82200
C  24.36100 51.36600 27.95900
C  21.76200 52.64100 25.68200
C  22.50200 52.33300 29.06600
O  21.49900 52.99300 29.33200
C  23.44600 51.61400 30.07800
C  23.90800 52.53600 31.18300
O  24.84400 53.30600 31.08300
O  23.04900 52.40400 32.22600
C  23.30500 53.42700 33.34400
H  29.58300 48.73300 29.90600
H  29.23500 48.77600 23.39300
H  23.43300 51.44700 23.80300
H  26.01100 51.01800 31.88300
H  27.66300 48.69600 31.73400
H  28.70700 50.50000 32.97200
H  28.05900 51.67700 31.62900
H  29.46300 50.73500 31.45000
H  25.54500 48.25300 32.01200
H  24.20500 49.05900 31.10400
H  23.32700 49.63700 33.07300
H  24.81500 50.33600 33.61400
H  31.67900 48.64900 29.10800
H  32.71400 47.99700 27.94700
H  31.35800 47.05600 28.70100
H  33.31900 48.70100 26.21500
H  33.72300 48.30200 24.49900
H  32.95900 47.06600 25.54500
H  26.94300 48.71000 21.94200
H  25.65800 51.39100 22.17000
H  28.44300 49.85800 20.76500
H  28.76700 50.96900 22.06500
H  27.54200 51.34900 20.82600
H  24.65800 49.06900 20.93700
H  23.60200 50.29400 21.59200
H  23.70500 47.52200 22.06300
H  22.57400 48.69700 22.66300
H  23.98000 48.34800 23.59100
H  21.36000 51.88800 25.00400
H  21.93600 53.59200 25.17700
H  21.04800 52.84200 26.48000
H  22.94500 50.81700 30.62900
H  22.31200 53.73200 33.67300
H  23.89600 54.28900 33.03500
H  23.82800 52.82800 34.09000

