158

Mg 2.20800 -1.00300 44.72800
C  5.64400 -0.20000 43.96800
C  1.36600 1.57600 42.76500
C  -0.80200 -2.33800 44.56100
C  3.56500 -4.07200 46.09900
N  3.43500 0.49500 43.47600
C  4.76700 0.69000 43.39700
C  5.12400 2.00800 42.76900
C  3.70300 2.70400 42.71900
C  2.76400 1.54200 43.04700
C  3.41900 3.85700 43.70300
C  5.79500 1.78700 41.35000
C  6.93900 2.68400 40.91800
H  6.79600 3.34600 39.51100
N  0.48200 -0.36800 43.97900
C  0.32500 0.69100 43.13500
C  -1.04500 0.85400 42.69500
C  -1.72500 -0.27800 43.17400
C  -0.66500 -1.04300 43.92000
C  -1.63300 1.96600 41.80400
C  -3.11500 -0.55000 43.05500
O  -3.87300 0.12300 42.40300
C  -3.80600 -1.57300 43.82800
N  1.53500 -3.01500 45.08100
C  0.16300 -3.16600 45.27500
C  -0.24800 -4.44800 45.98600
C  1.19600 -5.08300 46.16600
C  2.20700 -3.96400 45.86400
C  -1.12700 -4.27700 47.29900
C  1.59900 -6.27800 45.25900
C  1.81500 -7.61200 46.04800
N  4.20700 -1.92200 45.14400
C  4.56800 -3.06800 45.87400
C  5.98500 -3.14900 46.00200
C  6.42900 -1.99900 45.28000
C  5.31500 -1.34400 44.77000
C  6.75400 -4.27800 46.70200
C  7.61900 -1.34100 44.85900
O  8.81500 -1.68500 44.84800
C  7.18500 -0.01300 44.10200
C  7.47100 1.10100 45.04400
O  6.69200 1.61100 45.77800
O  8.76200 1.54700 44.93100
C  9.36400 2.79600 45.53700
H  1.13200 2.48100 42.20100
H  -1.73200 -2.90900 44.58400
H  3.81200 -5.00500 46.60800
H  5.78000 2.62300 43.38500
H  3.63700 3.03100 41.68200
H  3.23700 3.43700 44.69300
H  2.63700 4.52800 43.34800
H  4.22600 4.54200 43.96400
H  5.03900 1.84400 40.56800
H  6.27500 0.80900 41.33100
H  7.82100 2.06000 40.77400
H  7.12500 3.52800 41.58200
H  -2.07000 1.72000 40.83600
H  -0.86900 2.73700 41.70400
H  -2.42900 2.34300 42.44600
H  -4.88500 -1.42100 43.80800
H  -3.36400 -1.52800 44.82400
H  -3.64500 -2.56100 43.39500
H  -0.83200 -5.02400 45.26800
H  1.37700 -5.30300 47.21800
H  -2.00500 -3.63200 47.31500
H  -0.55000 -3.96700 48.17100
H  -1.66400 -5.21800 47.41500
H  2.58100 -6.16800 44.80000
H  0.96500 -6.40600 44.38200
H  2.79600 -8.02200 45.80600
H  0.91600 -8.18000 45.80700
H  1.80300 -7.51300 47.13300
H  6.11500 -5.13900 46.50800
H  6.92900 -4.15300 47.77000
H  7.73400 -4.46800 46.26300
H  7.62800 0.13200 43.11700
H  8.57100 3.49000 45.81500
H  10.21000 3.31500 45.08500
H  9.85500 2.51600 46.46900
Mg 26.22500 50.10600 26.37900
C  24.10500 51.09300 28.94400
C  28.52600 49.16000 28.73400
C  28.54400 49.57000 23.82500
C  24.10600 51.43400 24.01800
N  26.25100 49.98100 28.65700
C  25.28400 50.44400 29.49400
C  25.72500 50.22900 30.93000
C  27.23500 49.73300 30.80500
C  27.33800 49.49900 29.31600
C  28.34000 50.67700 31.49500
C  24.76200 49.30100 31.73800
C  24.46000 49.78900 33.17900
H  25.51100 50.09500 34.24300
N  28.26900 49.44900 26.30400
C  28.97700 49.05700 27.41100
C  30.30200 48.69800 26.97000
C  30.19800 48.62000 25.54600
C  28.97200 49.23800 25.14200
C  31.43200 48.34900 27.92000
C  31.38200 48.17000 24.60500
O  31.21700 48.25500 23.38400
C  32.53900 47.52500 25.17000
N  26.32300 50.48000 24.23700
C  27.36800 50.12200 23.42600
C  26.95300 50.13600 21.92000
C  25.50600 50.52800 22.04900
C  25.27800 50.84500 23.49100
C  27.85200 50.99800 20.99400
C  24.41000 49.77000 21.22100
C  23.28500 48.91000 21.89600
N  24.38600 50.92500 26.41800
C  23.67600 51.45100 25.35700
C  22.44200 51.93500 25.87600
C  22.59500 51.92400 27.27200
C  23.78700 51.21200 27.55500
C  21.37100 52.56500 25.07400
C  21.93200 52.28100 28.54300
O  20.94000 52.93600 28.80900
C  22.90400 51.73600 29.69200
C  23.14600 52.89900 30.60500
O  23.80500 53.86400 30.37500
O  22.55600 52.58800 31.80200
C  22.91000 53.42800 32.93100
H  29.28800 48.88500 29.46600
H  29.29500 49.30600 23.07800
H  23.33800 51.66100 23.27600
H  25.70200 51.21700 31.39000
H  27.39900 48.73700 31.21700
H  28.74300 50.22400 32.40000
H  27.86300 51.56800 31.90300
H  29.21100 50.85700 30.86500
H  25.13100 48.27600 31.76700
H  23.75300 49.20400 31.33700
H  23.92100 48.90000 33.50500
H  23.71600 50.58500 33.19100
H  31.22600 48.63500 28.95100
H  32.44000 48.68000 27.67200
H  31.37500 47.26300 27.98300
H  33.03800 48.36900 25.64600
H  33.13000 47.22500 24.30400
H  32.09500 46.76400 25.81200
H  27.07200 49.07100 21.72400
H  25.54100 51.50500 21.56800
H  27.43300 51.98500 20.79600
H  27.98500 50.38400 20.10300
H  28.83400 51.23300 21.40300
H  24.96800 49.15100 20.51800
H  23.93400 50.53000 20.60200
H  23.52500 48.44500 22.85200
H  22.89600 48.10800 21.26900
H  22.39800 49.53000 22.03000
H  20.47800 53.02800 25.49300
H  21.05100 51.76800 24.40300
H  21.85600 53.33600 24.47600
H  22.39900 51.04100 30.36300
H  23.92500 53.18800 33.24700
H  22.12500 53.38500 33.68600
H  22.77400 54.46500 32.62600

