158

Mg 23.93300 -8.33000 47.48100
C  26.81700 -6.25100 46.39400
C  22.38400 -7.16100 44.65800
C  21.75100 -10.64400 47.93900
C  26.12200 -9.79600 49.70000
N  24.56200 -6.81300 45.78000
C  25.68200 -6.05200 45.60000
C  25.58400 -5.06900 44.42500
C  24.09100 -5.37900 43.98300
C  23.62600 -6.45900 44.88500
C  23.22600 -4.17700 43.93800
C  26.58000 -5.47100 43.19300
C  27.41100 -4.25800 42.61200
H  27.16800 -3.89300 41.22100
N  22.23800 -8.69400 46.59700
C  21.77800 -8.13400 45.43800
C  20.44500 -8.57400 45.21700
C  20.19800 -9.61800 46.11800
C  21.45900 -9.72600 46.93500
C  19.49000 -8.04900 44.12000
C  18.88600 -10.42800 46.32900
O  17.99100 -10.19900 45.60000
C  18.62800 -11.30300 47.48700
N  23.92400 -9.93500 48.82000
C  22.85000 -10.80800 48.78500
C  23.02200 -11.88800 49.79900
C  24.52100 -11.66400 50.28500
C  24.86200 -10.40900 49.51700
C  21.92700 -11.94400 50.90200
C  25.53400 -12.77800 49.84400
C  26.38200 -13.48900 50.87600
N  26.03000 -8.19300 47.91100
C  26.69500 -8.80000 48.93000
C  27.98100 -8.27000 49.10300
C  28.04000 -7.18900 48.21000
C  26.85000 -7.24700 47.41600
C  29.13100 -8.81100 50.01400
C  28.82000 -6.05000 47.73100
O  29.92500 -5.70400 48.16800
C  28.14200 -5.47600 46.42600
C  27.90100 -3.99600 46.56600
O  26.93200 -3.43700 47.15500
O  28.73300 -3.26700 45.79300
C  28.41300 -1.87400 45.59800
H  21.85600 -6.77400 43.78400
H  20.89800 -11.30300 48.11600
H  26.73900 -10.33500 50.42200
H  25.72500 -4.00300 44.60100
H  24.11100 -5.86900 43.01000
H  22.33100 -4.33100 44.54100
H  22.79800 -3.98600 42.95400
H  23.75700 -3.29600 44.29900
H  26.00800 -5.89900 42.37000
H  27.31900 -6.22200 43.47100
H  28.44300 -4.58900 42.72500
H  27.46100 -3.40500 43.28800
H  19.78400 -7.09000 43.69300
H  18.45900 -8.02900 44.47500
H  19.67400 -8.71600 43.27900
H  18.87100 -10.87900 48.46100
H  19.23200 -12.20900 47.44000
H  17.59400 -11.63500 47.58000
H  22.93400 -12.84700 49.28900
H  24.53600 -11.60700 51.37300
H  22.29900 -11.52000 51.83500
H  21.67500 -13.00300 50.96600
H  21.01700 -11.37400 50.71900
H  26.21300 -12.51500 49.03300
H  24.90800 -13.49800 49.31700
H  25.89200 -14.38300 51.26100
H  26.67700 -12.85200 51.71000
H  27.37600 -13.67500 50.46800
H  29.23000 -9.89400 49.94700
H  29.16300 -8.35800 51.00600
H  30.05400 -8.43400 49.57400
H  28.77900 -5.80200 45.60300
H  28.56200 -1.68900 44.53400
H  28.88700 -1.11100 46.21400
H  27.34500 -1.74900 45.77300
Mg -5.21300 25.55100 26.77300
C  -3.74200 27.33500 29.55300
C  -6.73500 23.47300 29.10400
C  -5.99500 23.55900 24.14100
C  -3.28500 27.57600 24.59700
N  -5.24300 25.48900 29.02000
C  -4.62300 26.28400 29.93900
C  -4.85700 25.73400 31.43300
C  -5.72700 24.50900 31.28800
C  -5.91600 24.44500 29.71500
C  -5.10700 23.15900 31.89500
C  -5.36800 26.99400 32.17000
C  -6.46600 26.82800 33.26400
H  -6.14500 25.92800 34.48900
N  -6.17700 23.79300 26.65700
C  -6.80300 23.16100 27.70100
C  -7.61700 22.03700 27.13800
C  -7.38300 22.01100 25.73900
C  -6.45900 23.16600 25.46100
C  -8.45100 21.22100 28.06000
C  -7.96500 21.02800 24.64200
O  -7.57700 20.99500 23.48500
C  -8.86100 19.95700 25.14300
N  -4.75800 25.59800 24.65900
C  -5.29000 24.75300 23.73300
C  -4.95100 25.16000 22.30400
C  -4.04400 26.42600 22.49700
C  -4.04000 26.57600 23.99200
C  -4.23700 24.06400 21.49300
C  -4.64200 27.75700 21.88700
C  -3.57500 28.66200 21.31200
N  -3.77400 27.09600 26.93800
C  -3.15500 27.84000 26.00200
C  -2.26400 28.73200 26.68000
C  -2.52200 28.59200 28.07400
C  -3.44000 27.58200 28.19500
C  -1.23100 29.61600 26.04500
C  -2.09700 29.20000 29.36100
O  -1.31600 30.04800 29.62200
C  -2.83700 28.32800 30.39300
C  -1.77000 27.63300 31.05600
O  -0.95700 26.94000 30.51400
O  -1.93400 27.75000 32.43500
C  -1.34500 26.76400 33.34200
H  -7.19400 22.77100 29.80200
H  -6.25100 23.04600 23.21200
H  -2.70800 28.23800 23.94800
H  -3.87000 25.42800 31.77800
H  -6.67500 24.62300 31.81300
H  -4.46700 23.47900 32.71800
H  -4.47400 22.64100 31.17400
H  -5.82000 22.41100 32.24400
H  -5.64600 27.75700 31.44300
H  -4.54100 27.40500 32.74800
H  -7.41200 26.45300 32.87500
H  -6.39900 27.86500 33.59400
H  -9.38500 20.92900 27.58000
H  -8.82400 21.75300 28.93600
H  -7.90300 20.30700 28.28600
H  -8.79200 19.09900 24.47500
H  -9.82400 20.45900 25.22700
H  -8.45000 19.57100 26.07600
H  -5.84600 25.38700 21.72500
H  -3.00700 26.19900 22.25000
H  -4.84800 23.66100 20.68500
H  -4.15900 23.17500 22.11900
H  -3.18100 24.30300 21.36700
H  -5.17800 28.30800 22.65900
H  -5.42100 27.55000 21.15300
H  -3.78100 28.87500 20.26300
H  -2.62400 28.12900 21.28600
H  -3.52600 29.58100 21.89700
H  -1.73400 30.54800 25.78800
H  -0.99400 29.24200 25.04900
H  -0.32300 29.80100 26.61800
H  -3.39800 28.89700 31.13400
H  -1.01200 25.83400 32.88200
H  -2.16100 26.47500 34.00400
H  -0.52100 27.25500 33.86100

