158

Mg 24.26100 -5.99900 46.29300
C  26.38100 -3.63700 44.58800
C  21.66600 -4.75900 44.40400
C  22.60400 -8.62900 47.23300
C  27.14700 -7.04000 47.98800
N  24.12700 -4.55300 44.36200
C  25.07400 -3.59000 44.03600
C  24.53400 -2.60400 43.02700
C  22.98100 -2.92200 43.23200
C  22.87600 -4.14600 44.05300
C  22.28000 -1.72700 44.04700
C  25.06200 -2.73200 41.56500
C  25.48900 -1.39400 40.87500
H  25.53200 -1.34900 39.32300
N  22.38500 -6.69000 45.84300
C  21.42800 -6.02800 45.10600
C  20.23000 -6.85000 45.14900
C  20.41700 -8.02900 45.93600
C  21.79800 -7.81800 46.38900
C  19.08300 -6.42000 44.29400
C  19.47200 -9.14400 46.35300
O  18.35700 -9.10400 45.83800
C  19.80100 -10.13000 47.35700
N  24.84000 -7.68200 47.35300
C  23.95100 -8.55100 47.75500
C  24.52900 -9.57900 48.78000
C  26.01100 -9.11400 48.89100
C  26.05000 -7.90200 48.03000
C  23.72300 -9.55300 50.12700
C  27.01500 -10.18600 48.50200
C  28.28500 -10.08900 49.32900
N  26.33400 -5.40700 46.39200
C  27.37000 -5.94700 47.11900
C  28.59900 -5.23600 46.86200
C  28.25000 -4.29100 45.86600
C  26.87700 -4.47900 45.59300
C  29.90000 -5.45200 47.42400
C  28.84100 -3.25900 44.98300
O  29.97200 -2.87600 44.81100
C  27.62500 -2.77200 44.20000
C  27.32400 -1.33700 44.51600
O  26.79400 -0.95900 45.52300
O  27.87600 -0.57300 43.57100
C  27.84600 0.90600 43.90600
H  20.81600 -4.32700 43.87200
H  22.16400 -9.54200 47.64000
H  27.97000 -7.27000 48.66900
H  24.83200 -1.62400 43.39900
H  22.50800 -3.10100 42.26600
H  22.92700 -1.30200 44.81500
H  21.48800 -2.13700 44.67300
H  21.90900 -0.89100 43.45400
H  24.29700 -3.24100 40.97900
H  25.87100 -3.46300 41.54800
H  26.53400 -1.16200 41.08200
H  24.89800 -0.56500 41.26300
H  18.65100 -5.52900 44.74900
H  18.29800 -7.16800 44.18900
H  19.53400 -6.15100 43.33900
H  18.99000 -10.82500 47.57300
H  20.16300 -9.59000 48.23200
H  20.53200 -10.69100 46.77600
H  24.54100 -10.62900 48.48600
H  26.20800 -8.78400 49.91200
H  23.37500 -10.53100 50.46000
H  22.80300 -8.97300 50.05700
H  24.30300 -9.10600 50.93400
H  27.32200 -10.12100 47.45800
H  26.51600 -11.15200 48.57400
H  28.83500 -11.03000 49.30200
H  27.99100 -9.90400 50.36200
H  28.97400 -9.34700 48.92500
H  30.60200 -5.99500 46.79100
H  29.92800 -5.84000 48.44300
H  30.30200 -4.43900 47.44100
H  27.84800 -2.91900 43.14300
H  28.11900 1.49900 43.03300
H  28.68000 1.01300 44.59900
H  26.88600 1.29800 44.24300
Mg 1.64000 41.14600 24.87300
C  3.92800 41.62400 27.71500
C  -0.61100 39.97300 27.04300
C  -0.19200 40.48700 22.22500
C  4.35800 42.04400 22.78100
N  1.67700 40.84900 27.19700
C  2.64300 41.24400 28.12200
C  2.23200 41.07200 29.54600
C  0.75700 40.32000 29.28400
C  0.58100 40.40400 27.76400
C  0.63300 38.88600 29.84100
C  2.15700 42.49300 30.27000
C  1.93000 42.45900 31.76200
H  1.65600 41.09800 32.42900
N  -0.15100 40.34600 24.67000
C  -0.99900 39.97600 25.67100
C  -2.20900 39.45800 25.01400
C  -2.04700 39.51700 23.61000
C  -0.74100 40.17800 23.45700
C  -3.26600 38.94600 25.88800
C  -2.97300 38.95100 22.48600
O  -2.57400 38.90900 21.33100
C  -4.33600 38.35100 22.88700
N  1.99900 41.30500 22.81700
C  1.06600 41.00000 21.90800
C  1.52800 41.29000 20.51800
C  2.85600 42.17500 20.74400
C  3.15200 41.77600 22.19100
C  1.61000 40.11000 19.47100
C  2.73500 43.68300 20.66500
C  3.19500 44.40400 19.36900
N  3.74200 41.67300 25.12400
C  4.73200 41.93600 24.19100
C  6.02500 42.13300 24.86000
C  5.74900 42.04500 26.21800
C  4.37200 41.75200 26.35100
C  7.28800 42.34100 24.17100
C  6.36800 42.14000 27.51100
O  7.51100 42.30700 27.90800
C  5.15900 41.96300 28.53700
C  5.41000 40.89900 29.61700
O  5.44700 39.72500 29.46100
O  5.48800 41.47500 30.91000
C  5.50800 40.53400 32.03600
H  -1.33900 39.63800 27.78400
H  -0.88700 40.49900 21.38300
H  5.12000 42.36800 22.07000
H  2.92500 40.42100 30.08000
H  -0.00600 40.96500 29.72000
H  1.61000 38.49900 30.12900
H  0.20300 38.24200 29.07300
H  -0.03800 38.87300 30.70000
H  1.40800 43.06100 29.71800
H  3.10800 43.01300 30.15600
H  1.07600 43.07000 32.05300
H  2.82700 42.81800 32.26500
H  -2.95300 37.94400 26.18300
H  -4.29000 38.94100 25.51400
H  -3.37900 39.55800 26.78200
H  -4.88900 39.05600 23.50700
H  -4.15200 37.40200 23.39000
H  -5.00100 38.21100 22.03400
H  0.72500 41.98400 20.27000
H  3.61000 41.77000 20.06900
H  0.99900 40.47900 18.64700
H  1.25800 39.21700 19.98800
H  2.67600 40.01600 19.26500
H  3.39800 44.07000 21.43800
H  1.71600 43.95900 20.93500
H  2.29400 44.86100 18.95800
H  3.65800 43.69400 18.68300
H  3.92500 45.12700 19.73200
H  7.98400 41.54700 24.44300
H  7.66900 43.32600 24.44200
H  7.11500 42.14400 23.11300
H  4.96100 42.93300 28.99400
H  6.55800 40.38500 32.28600
H  5.03500 39.59800 31.73800
H  4.86200 40.85700 32.85300

