158

Mg 17.83600 -1.70500 28.51100
C  16.57000 0.15100 31.16300
C  19.62700 -3.62100 30.66500
C  19.40100 -3.05400 25.85500
C  15.89300 0.23000 26.35800
N  18.04500 -1.73700 30.67900
C  17.45000 -0.83600 31.55100
C  17.95300 -1.06700 32.97100
C  19.03700 -2.17400 32.76100
C  18.94500 -2.54000 31.29600
C  20.50500 -1.80900 33.21200
C  16.75600 -1.53600 33.91400
C  16.60300 -0.74600 35.29200
H  17.84000 -0.55200 36.15800
N  19.06900 -3.39400 28.30500
C  19.71300 -4.05000 29.29400
C  20.59600 -5.01100 28.72800
C  20.64900 -4.85500 27.29900
C  19.69000 -3.70400 27.07900
C  21.25100 -6.03700 29.63800
C  21.43900 -5.59500 26.28500
O  21.17400 -5.40300 25.10600
C  22.48400 -6.64600 26.61300
N  17.62800 -1.47100 26.37000
C  18.37400 -2.10400 25.50100
C  18.15900 -1.57600 24.04800
C  16.90100 -0.73800 24.27000
C  16.80500 -0.62300 25.73700
C  19.41300 -0.83800 23.41600
C  15.68400 -1.49300 23.59900
C  14.54800 -0.69400 22.87600
N  16.52400 -0.03000 28.64400
C  15.81400 0.63900 27.70800
C  14.96600 1.61800 28.33800
C  15.30500 1.48500 29.70900
C  16.21000 0.47300 29.81900
C  14.05200 2.60700 27.63200
C  15.10500 2.11600 31.03900
O  14.47200 3.14700 31.35700
C  15.86500 1.17100 32.04400
C  16.75400 2.12100 32.88900
O  17.89100 2.49800 32.62000
O  16.01100 2.67200 33.81800
C  16.73300 3.72000 34.57700
H  20.22400 -4.33800 31.23100
H  20.03100 -3.30800 25.00000
H  15.36100 0.76300 25.56700
H  18.39900 -0.13700 33.32500
H  18.69800 -3.08400 33.25600
H  20.57700 -0.78600 33.58300
H  21.04100 -1.87100 32.26500
H  20.90200 -2.48300 33.97100
H  16.97700 -2.57200 34.17000
H  15.81100 -1.45900 33.37700
H  15.89000 -1.22600 35.96100
H  16.22800 0.26400 35.12100
H  20.74000 -6.22900 30.58100
H  22.23700 -5.64800 29.89400
H  21.35000 -7.00300 29.14400
H  23.01300 -6.99600 25.72600
H  22.05000 -7.47700 27.16900
H  23.34100 -6.26500 27.16700
H  18.00000 -2.53200 23.54900
H  16.90400 0.26100 23.83400
H  20.10000 -0.73400 24.25500
H  19.11600 0.12500 23.00100
H  19.84000 -1.50200 22.66400
H  15.23000 -2.14000 24.34900
H  16.03500 -2.22900 22.87500
H  14.83700 0.34500 22.71800
H  13.64100 -0.80500 23.47100
H  14.25300 -1.09200 21.90500
H  14.00700 3.56800 28.14300
H  13.01900 2.28300 27.50100
H  14.32400 2.84700 26.60500
H  15.10500 0.81300 32.73800
H  15.90100 4.01000 35.21800
H  16.99800 4.50900 33.87400
H  17.53800 3.22800 35.12300
Mg -10.37100 17.17900 41.02900
C  -6.95600 16.76400 41.08000
C  -9.76400 20.58600 40.23600
C  -13.69700 17.56400 40.27700
C  -10.72400 13.76900 41.24700
N  -8.55300 18.54900 40.62200
C  -7.27000 18.09300 40.79400
C  -6.25000 19.24200 40.40400
C  -7.22000 20.49500 40.61700
C  -8.60400 19.88800 40.50400
C  -7.13700 21.12600 42.07600
C  -5.81100 19.11700 38.84400
C  -4.32500 18.85500 38.46700
H  -4.03000 17.66200 37.66700
N  -11.51900 18.87400 40.40700
C  -11.10300 20.18700 40.15200
C  -12.21200 20.99400 39.77100
C  -13.36300 20.16700 39.71800
C  -12.86700 18.77300 40.15800
C  -12.13100 22.51300 39.72100
C  -14.74300 20.58300 39.16500
O  -15.03300 21.71600 38.78800
C  -15.90200 19.63300 39.10500
N  -11.97900 15.86000 40.71600
C  -13.23600 16.31300 40.59900
C  -14.23700 15.15100 40.66300
C  -13.29300 13.88900 40.59700
C  -11.88800 14.51900 40.82200
C  -15.24300 15.21600 41.89000
C  -13.39300 12.91900 39.35500
C  -14.07500 11.58800 39.52800
N  -9.16600 15.52900 41.28500
C  -9.44100 14.20600 41.40500
C  -8.19700 13.48300 41.69300
C  -7.18900 14.42100 41.53400
C  -7.83500 15.66100 41.27100
C  -8.05000 12.01200 41.86800
C  -5.75900 14.72400 41.58400
O  -4.81200 13.93700 41.85600
C  -5.54900 16.31000 41.36800
C  -5.08300 16.85600 42.63200
O  -3.89800 17.13000 42.87000
O  -6.15000 17.03500 43.49600
C  -5.71500 17.37800 44.87900
H  -9.51100 21.57700 39.85300
H  -14.71100 17.62600 39.87700
H  -10.94400 12.70700 41.37800
H  -5.44700 19.13300 41.13300
H  -7.09600 21.31900 39.91400
H  -8.09800 21.35200 42.53700
H  -6.64400 22.09300 41.97300
H  -6.52300 20.48400 42.70700
H  -6.03100 20.10800 38.44800
H  -6.41800 18.31000 38.43100
H  -3.88800 18.60500 39.43300
H  -3.89900 19.78100 38.07900
H  -11.96900 22.90600 38.71700
H  -11.22100 22.83700 40.22700
H  -13.02700 23.01700 40.08300
H  -16.80500 20.19700 38.87300
H  -16.06400 19.22600 40.10300
H  -15.66500 18.92800 38.30800
H  -14.82200 15.15000 39.74300
H  -13.57500 13.27600 41.45300
H  -16.08000 15.82400 41.54500
H  -14.79800 15.76300 42.72100
H  -15.54300 14.18600 42.08500
H  -12.38600 12.63900 39.04700
H  -13.90700 13.55900 38.63700
H  -14.99600 11.75700 38.96900
H  -14.26500 11.39500 40.58300
H  -13.56600 10.75900 39.03600
H  -7.25700 11.79200 42.58200
H  -7.75000 11.63300 40.89100
H  -9.02900 11.60400 42.12000
H  -4.87000 16.53100 40.54400
H  -6.50400 17.07900 45.56900
H  -5.64600 18.46600 44.89100
H  -4.89900 16.76200 45.25500

