158

Mg 42.79000 41.61500 26.02300
C  42.10600 43.77700 28.67500
C  44.36000 39.62800 28.33700
C  43.81000 39.68100 23.51100
C  41.53100 43.95700 23.86700
N  43.02400 41.65800 28.25700
C  42.57600 42.52600 29.12700
C  42.89300 42.22400 30.57900
C  44.03100 41.14200 30.42400
C  43.83300 40.75300 28.90200
C  45.40500 41.55400 30.86000
C  41.58700 41.66600 31.23200
C  41.06800 42.46800 32.42700
H  41.78400 42.40300 33.66300
N  43.80000 39.82600 25.90600
C  44.33200 39.15500 26.95500
C  44.91000 37.95200 26.47700
C  44.82400 37.94800 25.05900
C  44.18100 39.20400 24.77300
C  45.48400 36.93700 27.39700
C  45.25400 36.98800 24.02600
O  45.31500 37.27200 22.80700
C  45.46200 35.55600 24.36900
N  42.71400 41.79500 24.02400
C  43.12200 40.85800 23.16300
C  42.81300 41.31900 21.75800
C  41.92100 42.61300 21.86700
C  42.02400 42.78900 23.34900
C  44.01600 41.45100 20.79400
C  40.41700 42.45200 21.32500
C  39.43600 41.53000 22.14000
N  42.01700 43.47200 26.17900
C  41.59900 44.34900 25.18900
C  41.33600 45.62100 25.77000
C  41.40300 45.38200 27.15800
C  41.83000 44.09800 27.34300
C  41.08800 46.96400 25.11000
C  41.18300 45.98200 28.43300
O  40.71500 47.07900 28.67500
C  41.56000 44.97100 29.51900
C  42.46000 45.63800 30.50800
O  43.62700 45.95700 30.31200
O  41.60300 46.03200 31.48700
C  42.24800 46.89100 32.49300
H  44.81200 39.06700 29.15800
H  43.87400 39.07000 22.60800
H  41.08200 44.58600 23.09500
H  43.13000 43.04900 31.25000
H  43.77800 40.23600 30.97500
H  45.44000 42.60400 31.15100
H  45.88600 41.61300 29.88400
H  45.81200 40.76200 31.48700
H  41.73200 40.59400 31.36100
H  40.88300 41.82100 30.41500
H  40.13100 42.03300 32.77700
H  40.97600 43.50600 32.10900
H  45.46400 37.08900 28.47600
H  46.50400 36.67600 27.11600
H  44.83900 36.05800 27.38900
H  45.17300 34.86000 23.58100
H  44.82400 35.39100 25.23700
H  46.47000 35.36300 24.73700
H  42.12100 40.61400 21.29700
H  42.38600 43.47100 21.38300
H  44.95000 41.12600 21.25100
H  44.19200 42.50500 20.58100
H  43.88600 41.06600 19.78300
H  40.35800 42.04400 20.31600
H  40.04600 43.47600 21.37300
H  39.79200 41.07700 23.06600
H  39.19800 40.64600 21.54900
H  38.49900 42.07900 22.22900
H  42.04500 47.18000 24.63400
H  40.96600 47.73900 25.86600
H  40.18200 46.83800 24.51800
H  40.68300 44.53700 29.99900
H  41.54700 47.65600 32.82700
H  43.24700 47.22700 32.21500
H  42.53500 46.25400 33.33000
Mg 30.16400 58.20900 39.99200
C  27.41000 56.30300 38.74700
C  32.21800 55.54300 39.04700
C  32.76500 60.17500 40.34900
C  28.03100 61.00000 40.18400
N  29.77700 56.20300 39.06400
C  28.56000 55.53700 38.76900
C  28.68000 54.01000 38.48800
C  30.21000 53.83200 38.75800
C  30.79500 55.26800 38.90400
C  30.48700 52.87200 39.94600
C  28.09600 53.57100 37.10700
C  28.87500 54.05600 35.83600
H  28.14800 54.67300 34.56900
N  32.29200 57.88400 39.79300
C  32.87100 56.72400 39.37000
C  34.25600 56.96100 39.42700
C  34.50500 58.35000 39.69700
C  33.17600 58.89300 40.05600
C  35.32500 55.87900 39.18400
C  35.89900 59.07200 39.69600
O  36.97900 58.48500 39.46700
C  35.96700 60.55100 40.18400
N  30.40200 60.28000 40.15200
C  31.57900 60.84200 40.44400
C  31.50300 62.31300 40.60000
C  29.98600 62.58500 40.71000
C  29.39800 61.23700 40.33800
C  32.27600 62.88200 41.84700
C  29.34800 63.81600 39.92700
C  28.19300 64.50500 40.72600
N  28.14300 58.59100 39.59300
C  27.42400 59.84800 39.77300
C  26.02400 59.58800 39.39400
C  25.99600 58.24300 39.03000
C  27.30600 57.68300 39.13400
C  24.85200 60.47700 39.45500
C  25.08100 57.19600 38.63500
O  23.88700 57.17600 38.47800
C  25.95300 55.89800 38.51600
C  25.44200 55.02400 39.65900
O  25.25200 55.35200 40.80400
O  25.18900 53.72100 39.16200
C  24.65300 52.75800 40.17800
H  32.94100 54.73800 38.89500
H  33.54700 60.92000 40.51100
H  27.33000 61.83600 40.14400
H  28.00600 53.65200 39.26600
H  30.68100 53.58600 37.80600
H  30.75200 53.54400 40.76200
H  31.26700 52.11800 39.83600
H  29.51200 52.51600 40.27600
H  27.03600 53.79000 36.97700
H  28.04000 52.48400 37.04300
H  29.40300 53.18300 35.45200
H  29.60200 54.75800 36.24400
H  36.27000 56.20500 38.74900
H  34.98800 55.05700 38.55300
H  35.59600 55.52800 40.18000
H  35.52500 60.62900 41.17700
H  35.37000 61.12800 39.47600
H  36.97100 60.96000 40.07200
H  31.95100 62.69500 39.68300
H  29.95600 62.66000 41.79700
H  33.24400 63.20300 41.46200
H  32.39700 62.19600 42.68500
H  31.77800 63.72600 42.32400
H  28.83900 63.31600 39.10300
H  30.06700 64.59200 39.66500
H  27.34800 64.70900 40.06900
H  28.52000 65.41200 41.23600
H  27.83300 63.87700 41.54100
H  24.79600 61.00500 38.50400
H  24.91000 61.28900 40.18100
H  24.02500 59.79700 39.66000
H  25.67200 55.47300 37.55300
H  24.11300 51.99300 39.62000
H  23.87600 53.17300 40.82100
H  25.36800 52.24200 40.81800

