158

Mg 43.29800 5.03300 46.64500
C  41.37700 8.00200 46.91800
C  40.23600 3.32700 46.48700
C  44.94100 2.24900 45.77200
C  46.00900 7.02400 45.86700
N  41.04000 5.55300 46.81900
C  40.53500 6.85300 46.99300
C  39.00400 6.84200 46.95100
C  38.68000 5.31700 47.12700
C  40.03200 4.70700 46.70700
C  38.19700 4.99700 48.55500
C  38.41200 7.37800 45.61800
C  38.93300 6.87000 44.24100
H  39.71000 7.70300 43.19400
N  42.66400 3.05600 46.33300
C  41.36900 2.58800 46.23800
C  41.46300 1.21600 45.85300
C  42.81700 0.81400 45.70900
C  43.55100 2.05100 45.95200
C  40.19500 0.39500 45.61200
C  43.36600 -0.56500 45.43400
O  42.60100 -1.45500 45.22700
C  44.80700 -0.93600 45.51000
N  45.21600 4.69400 45.86700
C  45.67700 3.47500 45.74600
C  47.25000 3.46800 45.59600
C  47.44100 4.93900 45.28900
C  46.13500 5.58800 45.74300
C  47.89400 2.96900 46.93600
C  47.89500 5.16900 43.81400
C  49.42900 5.14300 43.66000
N  43.71300 7.10500 46.55000
C  44.86900 7.76800 46.21700
C  44.72600 9.20700 46.32600
C  43.34100 9.37100 46.64900
C  42.76200 8.01800 46.69000
C  45.83400 10.24100 46.24200
C  42.28200 10.36600 46.94000
O  42.35500 11.61600 47.01600
C  40.93300 9.50500 46.97400
C  40.13600 9.77400 48.17000
O  40.19100 9.17200 49.26700
O  39.18600 10.79400 47.92700
C  38.35000 11.22600 49.04400
H  39.31500 2.75700 46.35100
H  45.62100 1.41200 45.59700
H  46.93600 7.59100 45.76000
H  38.66500 7.46100 47.78100
H  37.97200 5.06000 46.34000
H  37.16100 4.66100 48.57300
H  38.43000 5.70300 49.35200
H  38.74100 4.12600 48.92300
H  38.42900 8.46600 45.55700
H  37.32700 7.27000 45.63200
H  38.02600 6.45100 43.80500
H  39.66800 6.07500 44.36700
H  39.52300 0.75900 46.38900
H  40.26800 -0.69200 45.63400
H  39.86600 0.52300 44.58000
H  45.24800 -0.50800 46.41100
H  45.29400 -0.55000 44.61500
H  44.82300 -2.02100 45.61200
H  47.48600 2.78600 44.77900
H  48.24800 5.35200 45.89500
H  47.30900 2.23200 47.48600
H  47.97600 3.83800 47.58900
H  48.84700 2.53800 46.63000
H  47.35800 5.97600 43.31500
H  47.45600 4.36200 43.22700
H  49.82000 5.65700 44.53800
H  49.78600 5.80200 42.86800
H  49.74500 4.10000 43.68000
H  46.50400 10.18700 45.38400
H  46.45100 10.11700 47.13200
H  45.38900 11.23600 46.25000
H  40.32500 9.86100 46.14200
H  37.34400 10.84600 48.87000
H  38.21600 12.30500 48.96300
H  38.73900 10.90900 50.01200
Mg 54.99600 24.91700 44.12400
C  51.93200 26.88700 43.36200
C  53.13400 22.23000 43.03600
C  57.86100 23.43600 43.89100
C  56.48900 27.93200 44.77600
N  52.84000 24.73100 43.06900
C  51.82100 25.59900 42.89800
C  50.60300 24.86200 42.29900
C  50.91000 23.41700 42.90900
C  52.37500 23.44000 43.12700
C  50.13500 23.07600 44.30100
C  50.48600 24.90600 40.71800
C  49.06900 24.49000 40.29000
H  48.65300 24.64300 38.80100
N  55.42700 23.05900 43.63300
C  54.51800 22.05200 43.18100
C  55.24800 20.79800 43.08800
C  56.61400 21.06700 43.38400
C  56.67800 22.53200 43.60900
C  54.59000 19.45700 42.66500
C  57.66400 20.03400 43.48900
O  57.39900 18.88100 43.41200
C  59.06700 20.40800 43.83200
N  56.93600 25.62400 44.12100
C  57.96400 24.76600 44.15100
C  59.22200 25.41100 44.65900
C  58.79300 26.95800 44.67300
C  57.23600 26.88400 44.52800
C  59.70900 24.90400 46.06000
C  59.43100 27.74300 43.46100
C  60.15800 29.07200 43.86400
N  54.35300 26.95700 44.21300
C  55.13200 28.02800 44.55900
C  54.31400 29.23000 44.62500
C  53.05800 28.77200 44.18200
C  53.11500 27.39500 43.91100
C  54.72800 30.64100 44.98300
C  51.75800 29.29700 43.86100
O  51.33500 30.45800 43.93200
C  50.91300 28.02000 43.36100
C  50.42000 28.27100 41.99800
O  51.16700 28.68000 41.12200
O  49.10000 27.90200 41.82400
C  48.71200 27.97400 40.42400
H  52.44500 21.39300 42.90800
H  58.78800 22.93000 44.16900
H  57.03300 28.87100 44.89800
H  49.74200 25.26800 42.83100
H  50.74400 22.68400 42.12000
H  49.37600 23.82500 44.52800
H  50.86900 23.02100 45.10500
H  49.65200 22.10400 44.20600
H  51.05000 24.02500 40.41100
H  50.85800 25.81800 40.25300
H  48.26900 24.88800 40.91500
H  48.91400 23.41600 40.38800
H  53.70700 19.70800 42.07700
H  54.19900 18.99000 43.56900
H  55.19600 18.73700 42.11600
H  59.45000 21.11300 43.09400
H  59.70000 19.53700 44.00400
H  58.89600 20.95400 44.75900
H  59.88100 25.07800 43.85600
H  59.10000 27.42500 45.60900
H  60.14800 23.90600 46.06500
H  58.93100 25.06700 46.80500
H  60.52200 25.48100 46.50100
H  58.68600 27.93400 42.68900
H  60.18100 27.08000 43.03000
H  59.82200 29.77600 43.10400
H  61.21500 28.93400 44.09100
H  59.62400 29.38400 44.76200
H  53.94400 31.28100 44.57900
H  55.71300 30.87200 44.57600
H  54.83200 30.72900 46.06400
H  50.19900 27.83200 44.16300
H  47.86200 27.33400 40.19100
H  49.51300 27.69000 39.74200
H  48.41500 28.99300 40.17300

