158

Mg 41.57200 8.15800 30.21400
C  43.26200 9.54500 32.83400
C  39.34200 6.74300 32.61400
C  39.89600 6.76000 27.68800
C  43.99800 9.10800 28.05500
N  41.41500 8.10300 32.39700
C  42.11100 8.87000 33.24400
C  41.70600 8.79600 34.66800
C  40.45000 7.89700 34.56100
C  40.41800 7.46100 33.13800
C  40.37800 6.72500 35.55700
C  41.37100 10.14500 35.44100
C  42.09100 10.32800 36.72500
H  41.36100 10.93700 37.85900
N  39.93500 6.97600 30.16800
C  39.08400 6.60400 31.19700
C  37.93300 5.95400 30.63000
C  38.01700 6.03200 29.19700
C  39.37200 6.57400 28.96100
C  36.89300 5.30200 31.44200
C  36.99100 5.57700 28.14600
O  37.24500 5.66800 26.94700
C  35.57300 5.30800 28.53800
N  41.93000 7.86800 28.18600
C  41.01500 7.41200 27.29100
C  41.45600 7.46100 25.86500
C  42.81100 8.26500 25.99800
C  42.91900 8.49100 27.46000
C  41.69900 6.00000 25.28600
C  42.85900 9.55500 25.11200
C  42.13400 10.80200 25.57800
N  43.42300 9.04900 30.35700
C  44.27700 9.42200 29.39200
C  45.36100 10.23300 30.00300
C  44.98500 10.31500 31.38500
C  43.79200 9.58800 31.53500
C  46.65400 10.75300 29.34100
C  45.36300 10.82700 32.64900
O  46.39300 11.36800 32.98700
C  44.22200 10.40800 33.67700
C  44.94000 9.53000 34.65000
O  45.36000 8.41100 34.49200
O  45.18200 10.22200 35.84700
C  45.68200 9.38200 36.94000
H  38.44100 6.61100 33.21600
H  39.40300 6.25800 26.85300
H  44.66700 9.65100 27.38400
H  42.42700 8.19700 35.22400
H  39.61000 8.49500 34.91500
H  41.11300 6.86800 36.34900
H  40.59800 5.74400 35.13700
H  39.44300 6.74900 36.11700
H  40.29000 10.28600 35.42100
H  41.77900 10.95200 34.83300
H  42.95900 10.98400 36.66200
H  42.53200 9.40100 37.09000
H  37.27100 5.14400 32.45200
H  36.64800 4.30200 31.08300
H  36.04400 5.98500 31.44600
H  35.51900 4.60200 29.36700
H  35.04200 4.96000 27.65200
H  35.11700 6.25700 28.82200
H  40.68100 7.93300 25.26100
H  43.68000 7.61900 25.86800
H  42.74000 5.86500 24.99100
H  41.03600 5.83900 24.43700
H  41.44200 5.26400 26.04800
H  42.44200 9.39500 24.11700
H  43.91300 9.79200 24.96500
H  42.71200 11.72700 25.59600
H  41.48400 10.57100 26.42200
H  41.47200 10.91400 24.72000
H  46.51400 10.70900 28.26100
H  47.54700 10.24500 29.70300
H  46.87500 11.77100 29.66100
H  43.79100 11.35200 34.01200
H  45.42300 9.89600 37.86600
H  46.73900 9.16300 36.78800
H  45.05100 8.49400 36.96900
Mg 50.40600 45.13100 41.52600
C  47.11800 45.71500 40.36000
C  50.03400 41.81700 40.62500
C  53.72100 44.69800 41.96900
C  50.80100 48.62000 42.02600
N  48.73300 43.93600 40.62400
C  47.42800 44.35200 40.38800
C  46.53800 43.18400 39.89000
C  47.44600 41.93400 40.15600
C  48.82400 42.57600 40.51400
C  46.78300 41.04200 41.29200
C  46.09600 43.29000 38.40600
C  44.57400 43.11500 38.12800
H  43.94400 43.82300 36.96900
N  51.77100 43.47900 41.14300
C  51.38400 42.20000 40.85400
C  52.61900 41.38500 40.87100
C  53.71400 42.27700 41.21900
C  53.06800 43.54500 41.51900
C  52.67900 39.97200 40.49100
C  55.22900 41.92600 41.27200
O  55.55200 40.75400 41.12300
C  56.32800 42.83500 41.57700
N  52.02500 46.52200 41.85600
C  53.29100 46.03100 42.11800
C  54.20600 47.18000 42.51600
C  53.34700 48.48500 42.42800
C  51.95400 47.83300 42.09600
C  54.93500 47.14500 43.89500
C  53.84200 49.53900 41.44400
C  54.21000 50.94100 41.96200
N  49.21100 46.83700 41.50100
C  49.56400 48.15400 41.57800
C  48.40800 48.99800 41.29200
C  47.43400 48.03600 40.81500
C  47.97900 46.76400 40.93100
C  48.27000 50.48400 41.46500
C  46.10300 47.95100 40.31700
O  45.31600 48.87400 40.06400
C  45.81100 46.38800 40.15100
C  44.70000 46.02300 41.05600
O  44.80200 45.65800 42.24700
O  43.49300 46.08300 40.40700
C  42.25800 45.82900 41.22900
H  50.03900 40.76100 40.34400
H  54.76900 44.52800 42.22500
H  50.85200 49.71100 42.04100
H  45.65300 43.13800 40.52400
H  47.52500 41.31800 39.26100
H  47.11800 40.01400 41.15500
H  45.71100 41.11900 41.11000
H  47.04200 41.43400 42.27500
H  46.56100 42.45100 37.88800
H  46.44400 44.26200 38.05700
H  44.06100 43.37000 39.05600
H  44.39400 42.04700 38.00300
H  53.48400 39.91600 39.75800
H  51.74400 39.49000 40.20700
H  52.99100 39.40400 41.36700
H  56.26200 42.81600 42.66500
H  56.20200 43.80600 41.09700
H  57.33400 42.54200 41.27500
H  54.90000 47.15600 41.67500
H  53.24100 48.91500 43.42400
H  55.96000 47.49700 44.00300
H  54.84900 46.11400 44.23800
H  54.48800 47.83000 44.61500
H  53.13300 49.43600 40.62300
H  54.78500 49.17100 41.04100
H  53.44100 51.70100 41.82500
H  55.18600 51.30600 41.64100
H  54.27000 50.86300 43.04700
H  47.26100 50.89500 41.43800
H  48.84300 51.05300 40.73300
H  48.63400 50.62300 42.48300
H  45.50600 46.16300 39.12900
H  42.34600 44.87800 41.75500
H  41.50800 45.82000 40.43900
H  41.97200 46.58100 41.96500

