158

Mg 26.47000 50.40300 26.66900
C  24.48500 51.98700 28.92500
C  28.87900 49.71600 29.12000
C  28.51000 49.31700 24.31300
C  24.20100 51.58300 24.08100
N  26.66300 50.78700 28.71300
C  25.63500 51.33800 29.46300
C  25.86200 51.08500 30.95400
C  27.28700 50.39400 31.05500
C  27.65700 50.29400 29.57100
C  28.37100 51.22400 31.91700
C  24.75400 50.21400 31.68300
C  24.10800 50.72000 32.95800
H  24.82100 51.25800 34.14700
N  28.43100 49.66900 26.70300
C  29.19100 49.44200 27.79200
C  30.43100 48.78700 27.36300
C  30.36800 48.71800 25.94700
C  29.07000 49.28300 25.55700
C  31.54400 48.19500 28.31300
C  31.34300 48.06800 24.94500
O  31.13400 47.92000 23.72500
C  32.61600 47.49600 25.46200
N  26.39100 50.46900 24.46800
C  27.32000 49.81600 23.78300
C  27.14700 50.11400 22.29700
C  25.61400 50.57400 22.19000
C  25.34200 50.92600 23.66900
C  28.12200 51.17600 21.68200
C  24.60700 49.42200 21.76200
C  24.59400 49.02800 20.24400
N  24.69700 51.63300 26.49400
C  23.87200 51.96000 25.39000
C  22.72300 52.66600 25.92200
C  22.92700 52.77900 27.27900
C  24.10700 52.10800 27.61000
C  21.62800 53.29400 25.02100
C  22.36500 53.23600 28.47900
O  21.33500 53.91600 28.72300
C  23.30400 52.65600 29.65600
C  23.73700 53.81000 30.50200
O  24.43900 54.74000 30.12000
O  22.98800 53.77600 31.71600
C  23.11500 55.06000 32.47500
H  29.56700 49.32700 29.87300
H  29.05500 48.82300 23.50600
H  23.47200 51.78400 23.29300
H  25.81000 52.03100 31.49300
H  27.20900 49.36000 31.39000
H  29.09800 51.59500 31.19500
H  28.88000 50.61600 32.66500
H  27.85600 51.97600 32.51400
H  25.29100 49.38200 32.13800
H  24.00700 49.80800 31.00000
H  23.53500 49.88100 33.35100
H  23.48200 51.50200 32.52800
H  31.71400 47.12500 28.19200
H  31.25500 48.23600 29.36300
H  32.51400 48.65000 28.11200
H  33.26500 47.18900 24.64200
H  32.39200 46.60100 26.04300
H  33.09900 48.32000 25.98700
H  27.27000 49.25100 21.64200
H  25.71900 51.41000 21.49900
H  28.85300 51.35400 22.47000
H  27.65000 52.14500 21.51900
H  28.58500 50.71500 20.81000
H  23.59600 49.65400 22.09500
H  24.89100 48.50000 22.26900
H  23.60100 49.31700 19.89900
H  24.85100 47.98000 20.09100
H  25.25200 49.59200 19.58400
H  21.26100 52.45300 24.43200
H  22.07700 53.95000 24.27500
H  20.88600 53.87100 25.57400
H  22.72700 51.92600 30.22400
H  23.47500 55.92700 31.92000
H  23.81600 54.77800 33.25900
H  22.21500 55.34300 33.02100
Mg 16.78500 52.05000 26.25500
C  18.83900 51.07100 28.98300
C  14.28500 52.84200 28.51800
C  14.74100 52.99600 23.80200
C  19.09300 50.69600 24.10500
N  16.68200 52.04900 28.52400
C  17.65800 51.73300 29.42200
C  17.21400 52.22100 30.81000
C  15.64700 52.45000 30.65700
C  15.52800 52.47900 29.14500
C  14.86700 51.24500 31.21400
C  18.02700 53.46300 31.25500
C  18.19400 53.60400 32.78200
H  17.12300 53.20900 33.74500
N  14.81000 52.89900 26.18700
C  13.96900 53.16600 27.19800
C  12.70800 53.57300 26.63600
C  12.80200 53.69600 25.23100
C  14.13900 53.25900 25.00000
C  11.51300 53.82300 27.47200
C  11.79100 54.11900 24.11900
O  12.03400 54.20600 22.92000
C  10.39400 54.40200 24.35300
N  16.84300 51.80100 24.31900
C  15.98900 52.45700 23.40700
C  16.51800 52.32400 21.98800
C  17.85800 51.62000 22.12200
C  17.96300 51.31200 23.63700
C  15.53100 51.61200 21.04100
C  19.04500 52.55600 21.70000
C  20.14200 51.88800 20.86200
N  18.60900 51.04000 26.46600
C  19.46400 50.47600 25.44800
C  20.61600 49.87400 26.07900
C  20.48700 50.07500 27.44500
C  19.25500 50.76600 27.59700
C  21.57100 48.97200 25.43700
C  20.99200 49.79600 28.77900
O  21.89800 49.04400 29.18100
C  20.03400 50.59800 29.84700
C  19.56500 49.67300 30.85400
O  18.93600 48.64200 30.50700
O  19.89300 50.12200 32.10500
C  19.43900 49.34700 33.22600
H  13.54000 53.09000 29.27700
H  14.26500 53.26400 22.85600
H  19.87200 50.37900 23.40900
H  17.45100 51.47300 31.56600
H  15.38200 53.44300 31.02100
H  14.50900 50.57700 30.43100
H  13.94000 51.43900 31.75400
H  15.49300 50.57600 31.80400
H  17.53400 54.40100 31.00200
H  19.01200 53.41100 30.79100
H  18.51800 54.63300 32.93600
H  19.01500 52.96100 33.09800
H  11.16500 54.76600 27.05200
H  11.77300 54.00900 28.51400
H  10.69000 53.11900 27.34500
H  9.89000 54.77300 23.46100
H  10.28700 55.19000 25.09900
H  9.89300 53.54300 24.79900
H  16.70200 53.35300 21.67900
H  18.04000 50.64400 21.67300
H  16.09000 50.83700 20.51600
H  15.18600 52.27400 20.24600
H  14.70200 51.06700 21.49200
H  19.54800 53.02900 22.54300
H  18.66600 53.32500 21.02700
H  21.10800 52.01300 21.35100
H  20.32600 52.36600 19.90000
H  19.91500 50.83400 20.70600
H  22.18500 48.65200 26.27900
H  22.08000 49.52000 24.64400
H  21.15400 48.12900 24.88600
H  20.39300 51.50300 30.33800
H  18.50700 48.81200 33.04200
H  19.26600 50.08200 34.01200
H  20.27700 48.73300 33.55700

