158

Mg 42.96600 41.77200 26.71800
C  42.09100 44.00400 29.18300
C  44.15600 39.62700 29.12100
C  44.17500 39.76100 24.27700
C  42.26600 44.34100 24.39400
N  43.17500 41.86600 28.95200
C  42.47100 42.76200 29.70700
C  42.38300 42.33600 31.21000
C  43.15900 40.95400 31.15500
C  43.60800 40.81000 29.67100
C  44.34000 40.74000 32.16100
C  40.92900 42.41700 31.82700
C  40.60300 41.59000 33.04400
H  40.10700 42.19200 34.38200
N  43.95800 39.91000 26.70000
C  44.37400 39.23300 27.80400
C  45.09800 38.00000 27.41900
C  44.81900 37.87800 26.00100
C  44.26400 39.22400 25.58300
C  45.83700 37.04300 28.40700
C  45.01700 36.81400 24.97400
O  44.68700 36.96600 23.82900
C  45.49800 35.41400 25.48100
N  43.26400 42.02900 24.70100
C  43.70600 41.00700 23.90100
C  43.66000 41.39900 22.48800
C  42.86300 42.72300 22.52000
C  42.73000 43.07900 23.96500
C  45.10200 41.43500 21.90900
C  41.45900 42.75100 21.77100
C  40.50000 41.66700 22.05100
N  42.47000 43.80400 26.73600
C  42.12100 44.70000 25.76900
C  41.57300 45.90700 26.22200
C  41.52900 45.66900 27.60800
C  42.12100 44.40500 27.85900
C  41.19800 47.15400 25.39700
C  41.18900 46.30200 28.86300
O  40.67500 47.37400 29.13000
C  41.60700 45.27800 29.93100
C  42.48000 45.95000 30.93700
O  43.56600 46.48000 30.68000
O  42.02800 45.91200 32.18400
C  42.86700 46.09000 33.38900
H  44.34400 38.86600 29.88100
H  44.51300 39.17400 23.42000
H  42.04800 45.08600 23.62600
H  42.95900 43.10200 31.72900
H  42.46900 40.16300 31.44600
H  45.38000 40.59600 31.86900
H  44.26100 39.91700 32.87100
H  44.40800 41.68500 32.69900
H  40.23300 42.18900 31.01900
H  40.84900 43.46200 32.12700
H  41.38300 40.90300 33.37200
H  39.78400 40.97800 32.66700
H  45.19500 36.17600 28.56600
H  46.12000 37.55000 29.32900
H  46.78600 36.74200 27.96500
H  45.33700 34.62200 24.75000
H  44.96300 35.30400 26.42500
H  46.57800 35.53200 25.57100
H  43.11300 40.67900 21.87900
H  43.43800 43.45300 21.95000
H  45.47800 42.43600 22.12000
H  44.95700 41.19400 20.85500
H  45.77100 40.72500 22.39400
H  41.79800 42.63300 20.74200
H  41.04800 43.75600 21.85800
H  40.93500 40.99800 22.79400
H  40.26800 41.10700 21.14600
H  39.53700 41.99500 22.44400
H  42.01300 47.81400 25.10300
H  40.53200 47.70300 26.06200
H  40.58300 46.87900 24.54000
H  40.75400 45.02700 30.56100
H  43.95600 46.10500 33.36100
H  42.59800 45.29200 34.08100
H  42.52700 47.05300 33.77100
Mg 10.02000 47.99600 25.64500
C  8.02500 48.23900 28.53000
C  12.49000 49.39700 27.29300
C  11.64400 48.23000 22.69100
C  7.14400 46.86800 23.86000
N  10.17100 48.70000 27.70400
C  9.33600 48.61500 28.74500
C  10.04100 49.15100 30.04700
C  11.32100 49.89400 29.45400
C  11.31600 49.33100 28.06000
C  10.99800 51.40200 29.22800
C  10.37600 48.13100 31.08100
C  10.00700 48.50900 32.54300
H  10.19600 47.40600 33.49600
N  11.82800 48.63400 25.07400
C  12.77300 49.11000 25.93300
C  14.04600 49.22000 25.24500
C  13.82200 48.92500 23.89700
C  12.33600 48.61800 23.82500
C  15.34100 49.59900 25.97300
C  14.77100 48.83300 22.65200
O  14.43300 48.83400 21.45100
C  16.19700 48.91400 22.95000
N  9.41100 47.75800 23.49100
C  10.31500 47.87700 22.51400
C  9.72100 47.37100 21.17900
C  8.38100 46.65000 21.66300
C  8.30700 47.06900 23.11800
C  9.56100 48.52900 20.18700
C  8.21600 45.13100 21.36400
C  8.90300 44.02300 22.27000
N  7.92600 47.76300 25.98000
C  6.87300 47.31000 25.14800
C  5.68900 47.19200 25.97500
C  6.10200 47.58800 27.29100
C  7.48400 47.85600 27.21100
C  4.39400 46.58200 25.47900
C  5.61200 47.77700 28.71100
O  4.46400 47.75600 29.20200
C  6.90700 47.96500 29.60000
C  7.14500 46.65100 30.35400
O  7.80700 45.71200 29.93300
O  6.48500 46.74800 31.54600
C  6.65300 45.60600 32.45900
H  13.32100 49.91200 27.78000
H  12.23400 48.12700 21.77800
H  6.28200 46.41100 23.37000
H  9.40400 49.83600 30.60600
H  12.29100 49.67600 29.90000
H  10.01000 51.68100 29.59400
H  10.95100 51.74500 28.19400
H  11.75500 51.98000 29.75800
H  11.45400 47.97100 31.05900
H  9.96500 47.12200 31.03700
H  8.91900 48.56700 32.51400
H  10.57000 49.40100 32.81700
H  15.22200 49.71100 27.05100
H  15.74400 50.57300 25.69400
H  16.11100 48.84200 25.82500
H  16.67000 49.04600 21.97700
H  16.52300 47.98000 23.40600
H  16.33500 49.84100 23.50700
H  10.36800 46.61100 20.74300
H  7.49500 47.13900 21.25900
H  10.20200 49.36200 20.47600
H  8.50000 48.78000 20.22200
H  9.72200 48.32000 19.12900
H  8.47500 45.03700 20.30900
H  7.15000 44.96100 21.51600
H  8.21400 43.19700 22.44400
H  9.32300 44.43100 23.18900
H  9.70300 43.65700 21.62700
H  3.82900 47.32100 24.91100
H  3.71600 46.40300 26.31400
H  4.43000 45.66600 24.89000
H  6.98900 48.85500 30.22500
H  7.59800 45.78000 32.97300
H  6.70100 44.64000 31.95800
H  5.92400 45.52700 33.26500

