158

Mg 2.61200 -0.61600 43.66500
C  6.21500 -0.07500 43.48600
C  2.15900 2.17600 41.88000
C  -0.46200 -1.72100 42.99000
C  3.48100 -3.92500 44.75000
N  4.10000 0.73400 42.67000
C  5.44500 0.83200 42.76900
C  5.95600 2.17000 42.25400
C  4.63500 3.01900 42.20600
C  3.53200 1.93300 42.20500
C  4.63200 4.13100 43.26600
C  6.77000 2.20300 40.97100
C  6.11900 1.53900 39.72900
H  6.21200 2.43500 38.47200
N  1.05200 0.14800 42.57700
C  0.99900 1.34800 42.01600
C  -0.31400 1.59900 41.54500
C  -1.16900 0.54500 41.91000
C  -0.19200 -0.41900 42.48800
C  -0.71900 2.86600 40.79300
C  -2.65100 0.41800 41.85100
O  -3.37500 1.16000 41.26100
C  -3.34100 -0.62000 42.65400
N  1.68300 -2.58200 43.66700
C  0.36200 -2.63700 43.59500
C  -0.25100 -4.00200 44.13600
C  1.05400 -4.74100 44.57000
C  2.16000 -3.71700 44.32200
C  -1.26300 -3.68600 45.30800
C  1.29800 -6.20300 44.05800
C  1.39300 -7.32400 45.16500
N  4.40900 -1.75400 44.22500
C  4.58900 -3.00900 44.76300
C  5.87400 -3.19500 45.30700
C  6.59100 -2.05400 44.74800
C  5.66400 -1.27900 44.10900
C  6.33100 -4.38800 46.06800
C  7.86400 -1.45300 44.66100
O  8.92000 -1.90000 45.08100
C  7.73300 -0.15700 43.77900
C  8.39400 1.00400 44.51700
O  9.37900 1.60600 44.05000
O  7.89600 1.10900 45.77300
C  8.45500 2.22600 46.63800
H  2.01000 3.23100 41.63800
H  -1.43500 -2.19700 42.85400
H  3.69000 -4.92000 45.14900
H  6.59200 2.61500 43.01800
H  4.58100 3.53800 41.24800
H  5.38700 4.03700 44.04600
H  3.64600 4.09700 43.72900
H  4.89300 5.05600 42.75000
H  7.75000 1.76600 41.16500
H  7.14100 3.20800 40.76600
H  5.05200 1.45700 39.93600
H  6.54000 0.54900 39.55600
H  -0.95200 2.62600 39.75500
H  0.06600 3.62200 40.78800
H  -1.59100 3.34400 41.23800
H  -4.17700 -0.03000 43.02900
H  -2.84200 -0.82700 43.60000
H  -3.59600 -1.49100 42.05000
H  -0.74500 -4.59000 43.36300
H  1.12800 -4.81100 45.65600
H  -1.60800 -2.67500 45.09200
H  -0.89600 -3.88500 46.31400
H  -2.17000 -4.28000 45.20100
H  2.18400 -6.11600 43.42900
H  0.43400 -6.51600 43.47200
H  2.34700 -7.84200 45.06400
H  0.64200 -8.10700 45.05500
H  1.21500 -6.89800 46.15200
H  7.03400 -4.85500 45.37900
H  5.53900 -5.08300 46.34800
H  6.82500 -4.15400 47.01100
H  8.42600 -0.25100 42.94300
H  9.43400 1.94100 47.02200
H  7.80400 2.35400 47.50400
H  8.47100 3.05000 45.92500
Mg 25.42000 52.03200 26.64400
C  23.31800 53.14200 29.34700
C  27.94800 51.58600 28.80400
C  27.48600 51.81900 23.84000
C  22.86400 53.17400 24.42200
N  25.60900 52.29400 28.78600
C  24.63000 52.70100 29.73200
C  25.11700 52.53900 31.20400
C  26.64800 52.15900 30.96400
C  26.75800 52.01500 29.39400
C  27.72000 53.11000 31.61500
C  24.28500 51.46900 32.05100
C  24.00800 51.75300 33.53800
H  25.01200 52.25900 34.45900
N  27.35400 51.73700 26.35400
C  28.28100 51.47900 27.40000
C  29.59100 51.26400 26.75400
C  29.54300 51.40000 25.35000
C  28.07500 51.62500 25.12900
C  30.78900 51.13700 27.71000
C  30.65900 51.34300 24.28300
O  30.51300 51.45800 23.06800
C  32.06400 51.03000 24.87200
N  25.17000 52.24500 24.49300
C  26.18000 52.11400 23.54000
C  25.72800 52.46700 22.13600
C  24.20300 52.58200 22.24300
C  24.05300 52.64600 23.83300
C  26.49500 53.59100 21.48000
C  23.36500 51.50800 21.62400
C  23.17800 51.69200 20.07700
N  23.45900 52.93600 26.76500
C  22.54100 53.28900 25.80900
C  21.32500 53.67900 26.46200
C  21.65000 53.66400 27.80600
C  22.89300 53.18900 28.00100
C  20.00600 54.23600 25.83300
C  21.01200 53.86300 29.07200
O  19.85800 54.20100 29.39100
C  22.10600 53.44500 30.14200
C  22.39200 54.68100 30.96500
O  22.63200 55.78600 30.54000
O  22.39700 54.39300 32.26800
C  22.49500 55.56200 33.14800
H  28.59200 51.29500 29.63700
H  28.15600 51.68800 22.98800
H  22.12100 53.53300 23.70600
H  25.10200 53.49000 31.73500
H  26.87500 51.21400 31.45800
H  28.36600 52.57900 32.31400
H  27.21200 53.92800 32.12700
H  28.40900 53.43800 30.83700
H  24.80600 50.51200 32.03600
H  23.30700 51.29200 31.60500
H  23.72700 50.81100 34.00800
H  23.12300 52.37800 33.65900
H  30.54900 50.99100 28.76300
H  31.33600 52.08000 27.69700
H  31.38300 50.25100 27.48800
H  32.80300 50.96100 24.07300
H  32.11000 50.08500 25.41300
H  32.34700 51.82900 25.55700
H  25.92100 51.55600 21.56900
H  23.98800 53.56000 21.81300
H  27.53900 53.41400 21.73700
H  26.18200 54.62100 21.64900
H  26.40400 53.61100 20.39400
H  22.34700 51.42800 22.00600
H  23.88600 50.59900 21.92500
H  23.66100 50.81500 19.64400
H  23.75500 52.56400 19.77100
H  22.12300 51.73800 19.80900
H  20.01300 54.01700 24.76500
H  20.01300 55.32300 25.91500
H  19.11400 53.88700 26.35400
H  21.76000 52.58400 30.71400
H  21.67000 56.24200 32.93600
H  23.52500 55.91800 33.16700
H  22.34000 55.22800 34.17400

