158

Mg 26.36400 49.89600 27.11600
C  24.29500 51.18200 29.62700
C  28.59800 49.29700 29.66800
C  28.55100 48.82200 24.84700
C  24.30200 51.08300 24.62500
N  26.37800 50.09600 29.38600
C  25.43500 50.63400 30.17000
C  25.68500 50.36000 31.65300
C  27.21100 50.12600 31.56800
C  27.41300 49.68700 30.09400
C  28.06900 51.34400 32.02300
C  24.99100 49.25100 32.41000
C  24.42100 49.41200 33.82600
H  25.45000 49.89300 34.91600
N  28.32300 49.25600 27.19900
C  29.02100 48.94000 28.35000
C  30.35900 48.55000 27.99000
C  30.38700 48.36300 26.58300
C  29.06600 48.79400 26.11700
C  31.45900 48.38600 28.97500
C  31.52100 47.82200 25.69400
O  31.44100 47.76000 24.45900
C  32.85300 47.39600 26.28900
N  26.45200 50.06600 25.01700
C  27.35500 49.31700 24.32200
C  27.02200 49.20400 22.82300
C  25.52300 49.70900 22.81100
C  25.34200 50.25000 24.28700
C  27.88800 50.15700 22.00800
C  24.38200 48.57800 22.56000
C  23.20400 48.97500 21.68000
N  24.57500 50.98100 27.04700
C  23.81000 51.44100 25.94800
C  22.62500 52.16700 26.49000
C  22.84600 52.12000 27.90200
C  23.99100 51.37500 28.23100
C  21.54800 52.90400 25.65200
C  22.24600 52.46300 29.20600
O  21.21700 53.09000 29.42900
C  23.15300 51.86100 30.40700
C  23.68400 53.02000 31.20200
O  24.70900 53.65400 30.90100
O  22.97100 53.18000 32.33300
C  23.51700 54.13900 33.33000
H  29.41100 49.19600 30.38900
H  29.17300 48.58400 23.98200
H  23.57600 51.46500 23.90400
H  25.50800 51.24700 32.26100
H  27.53100 49.24400 32.12300
H  27.40100 52.07900 32.47300
H  28.48600 51.82100 31.13600
H  28.84600 51.09800 32.74700
H  25.68100 48.40800 32.42900
H  24.10800 48.96700 31.83900
H  23.99500 48.47800 34.19100
H  23.84900 50.33500 33.91700
H  31.78900 47.35700 29.11800
H  31.27500 48.73900 29.99000
H  32.29800 48.95300 28.57300
H  33.39300 48.21000 26.77200
H  33.53400 47.09500 25.49200
H  32.67600 46.47500 26.84400
H  27.03800 48.20400 22.39000
H  25.38700 50.44900 22.02300
H  28.78300 50.47200 22.54600
H  27.44200 51.10900 21.72200
H  28.17100 49.69500 21.06300
H  24.04400 48.26000 23.54700
H  24.82600 47.71400 22.06600
H  23.37500 49.91800 21.16100
H  22.33700 49.05000 22.33700
H  23.13700 48.10000 21.03400
H  21.79100 53.08300 24.60400
H  21.64900 53.89500 26.09500
H  20.64100 52.30500 25.57900
H  22.68100 51.08200 31.00600
H  24.39900 53.62100 33.70800
H  22.66700 54.35300 33.97700
H  23.90400 55.02300 32.82200
Mg 9.38300 48.63000 25.60000
C  7.24500 48.67000 28.45500
C  11.95000 49.51500 27.70000
C  11.24000 48.18200 23.01200
C  6.44000 48.04900 23.64700
N  9.57100 49.01700 27.81100
C  8.54800 48.97600 28.73600
C  9.07000 49.48400 30.15200
C  10.52500 50.09400 29.71800
C  10.71100 49.51300 28.34000
C  10.64400 51.66200 29.71900
C  9.12900 48.35200 31.20000
C  8.93800 48.61900 32.71000
H  8.69800 47.46600 33.75200
N  11.32500 48.79400 25.47500
C  12.28600 49.14400 26.38000
C  13.56400 49.13700 25.68300
C  13.38500 48.53000 24.40100
C  11.94500 48.48100 24.21800
C  14.85400 49.41300 26.38300
C  14.37300 48.18700 23.35700
O  13.93000 47.62700 22.34300
C  15.78100 48.46300 23.50300
N  8.86800 48.24400 23.54700
C  9.88000 48.06100 22.68000
C  9.41000 47.61700 21.29300
C  7.84400 47.68300 21.44000
C  7.69500 47.98300 22.95900
C  9.93500 48.48700 20.17800
C  6.97900 46.50000 20.94000
C  6.45100 46.58200 19.51700
N  7.26300 48.46200 25.90900
C  6.18000 48.35100 25.01200
C  4.97400 48.31400 25.74700
C  5.31900 48.50100 27.04500
C  6.73900 48.57300 27.13800
C  3.61100 48.20200 25.25600
C  4.76200 48.64100 28.39700
O  3.63700 48.74100 28.82500
C  6.01200 48.70700 29.32900
C  5.93700 47.59100 30.29600
O  6.37500 46.45000 30.15200
O  5.37100 48.05500 31.42700
C  5.15600 47.08200 32.48200
H  12.74900 50.03200 28.23500
H  11.82900 48.05900 22.10100
H  5.55600 47.91400 23.02100
H  8.47300 50.31900 30.52000
H  11.30700 49.62700 30.31800
H  11.50500 52.09900 30.22500
H  9.76800 52.18200 30.10600
H  10.68100 52.13000 28.73500
H  10.17500 48.06100 31.29600
H  8.60700 47.43300 30.93300
H  8.07900 49.24100 32.96000
H  9.80900 49.15600 33.08700
H  15.34800 50.21100 25.82800
H  15.49300 48.53000 26.36200
H  14.70400 49.72700 27.41500
H  16.30000 48.31200 22.55700
H  16.21700 47.87000 24.30700
H  15.97200 49.47700 23.85400
H  9.85900 46.62400 21.30900
H  7.33500 48.43600 20.83800
H  10.39400 49.34900 20.66300
H  9.13400 48.78100 19.50100
H  10.66500 47.99200 19.53700
H  6.12900 46.32900 21.60000
H  7.46200 45.52500 20.99500
H  7.10900 47.29100 19.01400
H  5.42300 46.94300 19.51700
H  6.51200 45.59300 19.06400
H  3.29700 49.21400 25.00200
H  2.98200 47.75000 26.02300
H  3.60300 47.49400 24.42800
H  5.98600 49.64100 29.89000
H  4.33400 46.42000 32.20900
H  4.95800 47.50500 33.46700
H  6.12300 46.61200 32.66100

