158

Mg 23.33400 -6.29400 44.81600
C  25.58500 -3.69000 43.92900
C  20.85700 -4.57200 43.12100
C  21.52400 -9.12700 44.67200
C  25.98800 -7.92400 46.29600
N  23.27100 -4.39200 43.54500
C  24.30200 -3.51000 43.41300
C  23.71700 -2.25800 42.58100
C  22.16700 -2.38800 42.64100
C  22.05300 -3.86000 43.13000
C  21.36700 -1.28800 43.39200
C  24.24700 -2.23000 41.11400
C  24.66300 -0.93000 40.52300
H  24.83900 -0.87000 39.01000
N  21.36300 -6.78100 44.09500
C  20.51700 -5.90500 43.45300
C  19.20100 -6.62100 43.28600
C  19.43900 -8.00600 43.58200
C  20.76100 -8.00900 44.21300
C  17.99600 -5.98500 42.62500
C  18.46400 -9.14300 43.41400
O  17.35900 -8.91400 42.95400
C  18.85500 -10.63000 43.71900
N  23.78000 -8.22200 45.40000
C  22.84400 -9.22400 45.23800
C  23.35700 -10.55900 45.85100
C  24.69200 -10.18100 46.45800
C  24.82900 -8.67500 46.07600
C  22.38900 -11.31400 46.86500
C  25.94600 -11.14400 46.32300
C  26.68200 -11.67200 47.59900
N  25.40200 -5.87400 45.22400
C  26.32100 -6.63900 45.77800
C  27.59400 -5.93000 45.75200
C  27.36100 -4.79300 44.98600
C  25.99500 -4.78900 44.70500
C  28.84300 -6.34100 46.45200
C  28.02800 -3.60800 44.38500
O  29.18700 -3.22400 44.36800
C  26.85100 -2.80100 43.57300
C  26.65700 -1.48500 44.18500
O  26.34400 -1.24000 45.35400
O  27.07700 -0.48500 43.33800
C  27.39800 0.82300 43.97800
H  19.97700 -3.97900 42.86000
H  21.06700 -10.10300 44.84700
H  26.82900 -8.48700 46.70400
H  24.11400 -1.35600 43.04700
H  21.65600 -2.40900 41.67800
H  20.78100 -0.89300 42.56100
H  22.01200 -0.60300 43.94200
H  20.62400 -1.66000 44.09800
H  23.50400 -2.75300 40.51100
H  25.10100 -2.90600 41.17000
H  25.63800 -0.79600 40.99300
H  23.96400 -0.13600 40.78400
H  17.28600 -6.61100 42.08400
H  18.46300 -5.21700 42.00900
H  17.34100 -5.53100 43.36800
H  18.11400 -11.37300 43.42200
H  18.96400 -10.80500 44.79000
H  19.82900 -10.66300 43.23200
H  23.49000 -11.14600 44.94200
H  24.43200 -10.20100 47.51600
H  22.92200 -11.69600 47.73600
H  21.97700 -12.14400 46.29100
H  21.57000 -10.65800 47.16000
H  26.72500 -10.80700 45.63900
H  25.54800 -12.03800 45.84300
H  27.74600 -11.66100 47.36100
H  26.46900 -12.69400 47.91000
H  26.56800 -10.94700 48.40500
H  29.27700 -7.18500 45.91600
H  28.67100 -6.68600 47.47200
H  29.57200 -5.53400 46.52400
H  27.10300 -2.64200 42.52500
H  26.61000 1.53300 43.72700
H  28.26100 1.25500 43.47100
H  27.63900 0.76900 45.04000
Mg 48.60500 44.93600 42.96200
C  45.16300 45.04400 42.10600
C  48.61100 41.59800 42.12700
C  51.98900 45.01400 43.36800
C  48.45400 48.40900 43.51200
N  47.10700 43.52100 41.95100
C  45.74600 43.81000 41.89900
C  44.94600 42.54500 41.58700
C  46.02400 41.47000 41.50300
C  47.34200 42.15700 42.00700
C  45.68800 40.20200 42.33200
C  44.11900 42.71300 40.22800
C  44.92700 43.42900 39.16700
H  44.87500 42.72400 37.72800
N  50.10300 43.53700 42.55000
C  49.86700 42.27200 42.30700
C  51.10100 41.52500 42.39400
C  52.15100 42.42200 42.67600
C  51.43700 43.73400 42.87500
C  51.23300 40.03000 42.11900
C  53.66800 42.17500 42.73700
O  53.96800 40.99300 42.54300
C  54.65100 43.20600 42.99800
N  50.12500 46.62100 42.96800
C  51.38400 46.31200 43.37200
C  52.08400 47.62100 43.82400
C  51.03200 48.65900 43.86800
C  49.77200 47.87100 43.45800
C  52.87400 47.44500 45.19200
C  51.18100 49.89500 42.84000
C  52.00600 51.09800 43.24200
N  47.18300 46.47600 42.89700
C  47.24500 47.78600 43.25900
C  45.95400 48.45400 43.15300
C  45.12700 47.42000 42.71400
C  45.85900 46.20800 42.63800
C  45.79200 49.94100 43.30100
C  43.77100 47.13400 42.22800
O  42.77500 47.85300 42.14700
C  43.70700 45.55500 41.85800
C  42.60600 44.87400 42.65600
O  41.71100 44.17700 42.27200
O  42.78500 45.24900 43.98500
C  41.80000 44.74100 44.91200
H  48.56900 40.51300 42.00900
H  53.02000 44.97900 43.72600
H  48.28400 49.48600 43.57000
H  44.21400 42.37100 42.37600
H  46.16800 41.09600 40.48900
H  44.61600 40.26500 42.51700
H  46.32000 40.19400 43.22000
H  45.92600 39.30600 41.75800
H  43.20000 43.24500 40.47200
H  43.83500 41.72200 39.87300
H  45.92800 43.67300 39.52400
H  44.47500 44.41600 39.06900
H  51.96300 39.79100 41.34600
H  50.32100 39.53600 41.78300
H  51.53200 39.56100 43.05600
H  54.59200 44.13100 42.42500
H  55.59900 42.71400 42.78300
H  54.82200 43.31300 44.06900
H  52.80300 47.79700 43.02400
H  50.96000 48.95700 44.91400
H  53.89600 47.66000 44.87800
H  52.65900 46.40100 45.41600
H  52.67200 48.21000 45.94200
H  50.17600 50.16300 42.51500
H  51.72000 49.45500 42.00000
H  52.89700 51.19500 42.62100
H  52.19300 51.01100 44.31200
H  51.31800 51.92500 43.06700
H  46.30400 50.43400 42.47400
H  46.16900 50.27300 44.26800
H  44.71300 50.06600 43.21100
H  43.40500 45.56000 40.81100
H  41.66100 43.66900 44.77600
H  40.83400 45.24700 44.89900
H  42.13300 44.93700 45.93100

