158

Mg 46.81200 34.86700 27.84200
C  45.09800 33.09000 30.21900
C  46.77500 37.59700 29.89100
C  47.61400 36.80100 25.25800
C  46.13900 32.17900 25.61200
N  46.28500 35.13400 29.88600
C  45.53700 34.30300 30.69200
C  45.56900 34.86300 32.12300
C  45.71900 36.36800 31.88700
C  46.41400 36.38600 30.52000
C  44.41200 37.14400 31.82200
C  46.83500 34.24600 32.84800
C  46.86000 34.21200 34.47400
H  45.88200 35.08600 35.23200
N  47.27300 36.81200 27.61500
C  47.28600 37.81700 28.59800
C  47.88400 39.03000 28.08200
C  48.15100 38.83400 26.75300
C  47.65700 37.46800 26.50600
C  48.24500 40.24800 28.92300
C  48.78600 39.75100 25.72600
O  48.97900 39.39800 24.52900
C  49.30500 41.09700 26.14000
N  46.95300 34.39500 25.83800
C  47.25500 35.45400 25.00200
C  47.34600 35.00500 23.51700
C  47.09000 33.44900 23.60800
C  46.66900 33.35700 25.07200
C  46.32100 35.63400 22.62300
C  48.32000 32.56100 23.18300
C  49.55500 32.58000 24.05300
N  45.91600 32.93800 27.93200
C  45.78500 31.93700 26.98200
C  45.10800 30.78700 27.59100
C  44.81300 31.18300 28.88900
C  45.32000 32.49400 29.04100
C  44.71600 29.51100 27.02400
C  44.22200 30.70500 30.08400
O  43.62000 29.64000 30.22500
C  44.13600 32.08700 30.93900
C  44.39000 31.65800 32.38300
O  45.35700 31.09300 32.82900
O  43.33700 32.06400 33.15300
C  43.46200 31.64700 34.58600
H  46.88300 38.44600 30.56900
H  47.89300 37.44000 24.41800
H  45.96700 31.34400 24.92900
H  44.65600 34.72000 32.70000
H  46.18200 36.88800 32.72600
H  43.61600 36.47000 32.13800
H  44.26700 37.53700 30.81500
H  44.42800 37.95200 32.55400
H  47.69300 34.91000 32.74700
H  47.03000 33.23300 32.49800
H  47.85000 34.54600 34.78500
H  46.87700 33.16800 34.78900
H  47.53400 41.05700 28.75500
H  49.22100 40.70300 28.76100
H  48.21300 39.94700 29.97000
H  49.78700 41.63000 25.32000
H  50.11400 40.98800 26.86200
H  48.46600 41.71400 26.46300
H  48.34500 35.20300 23.12600
H  46.24000 33.09300 23.02600
H  45.61500 36.29400 23.12800
H  45.71700 34.87500 22.12600
H  46.83700 36.21000 21.85500
H  48.66000 32.58000 22.14700
H  48.07200 31.53400 23.45100
H  49.71600 33.58900 24.43200
H  50.49700 32.38600 23.54000
H  49.45400 31.90500 24.90300
H  43.99500 29.66600 26.22200
H  44.34100 28.81400 27.77400
H  45.54700 29.02200 26.51500
H  43.16400 32.58100 30.92300
H  42.56400 32.08500 35.02100
H  44.34500 32.14200 34.98800
H  43.53400 30.59600 34.86600
Mg 6.98500 56.58300 41.83000
C  6.03800 53.09600 41.97600
C  10.07100 55.65400 40.50300
C  7.72200 59.83000 41.35600
C  4.05900 57.40100 43.40800
N  7.88200 54.63800 41.22700
C  7.29100 53.30000 41.34800
C  8.28800 52.33400 40.86600
C  9.66500 53.09000 40.88400
C  9.21500 54.57000 40.83300
C  10.53100 52.77800 42.14300
C  7.90900 51.81700 39.35900
C  8.19600 50.28100 39.27000
H  7.38900 49.47100 38.28000
N  8.57900 57.63300 40.92000
C  9.80100 57.04300 40.53600
C  10.77800 58.07400 40.30000
C  10.09400 59.30500 40.31400
C  8.68500 58.93400 40.83600
C  12.24000 57.78700 39.82500
C  10.73000 60.62900 40.02200
O  11.91900 60.70300 39.74800
C  9.98700 61.97700 40.20600
N  5.90000 58.34000 42.19600
C  6.45900 59.58200 41.93900
C  5.42800 60.64700 42.42700
C  4.27100 59.91600 43.14000
C  4.77700 58.46100 42.95000
C  6.06000 61.87200 43.25100
C  2.84700 60.20500 42.61900
C  1.66800 60.09400 43.64800
N  5.41400 55.51600 42.55600
C  4.31600 55.99300 43.22300
C  3.45900 54.93000 43.60500
C  4.06600 53.76800 43.11900
C  5.24200 54.19100 42.41600
C  2.13700 54.88000 44.25600
C  3.98000 52.33400 43.03300
O  3.14300 51.47600 43.39700
C  5.23000 51.90500 42.19000
C  4.68200 51.32100 40.95900
O  4.25100 51.86200 39.90800
O  4.69500 49.95800 41.03100
C  3.88700 49.26300 40.03200
H  11.09400 55.34600 40.28000
H  8.01400 60.87900 41.27400
H  3.13100 57.60000 43.94800
H  8.38500 51.43200 41.46900
H  10.30700 52.85900 40.03400
H  11.52200 52.53500 41.75900
H  10.18500 51.87500 42.64500
H  10.76700 53.56600 42.85900
H  8.64700 52.34700 38.75700
H  6.92500 52.19200 39.07700
H  7.90400 49.70400 40.14700
H  9.26000 50.12900 39.09000
H  13.01800 58.55100 39.82700
H  12.24900 57.59800 38.75200
H  12.65900 56.90600 40.31200
H  9.89600 62.26700 41.25200
H  9.01700 61.78500 39.74700
H  10.59900 62.68800 39.65000
H  5.03400 61.01400 41.48000
H  4.26200 60.12800 44.20900
H  6.09600 62.83200 42.73700
H  7.09000 61.62000 43.50400
H  5.48300 61.98700 44.16900
H  2.74800 59.43700 41.85200
H  2.60200 61.08700 42.02600
H  1.47100 61.04900 44.13500
H  1.82600 59.33400 44.41300
H  0.79300 59.69500 43.13500
H  1.94300 55.83800 44.73900
H  2.19300 54.19700 45.10300
H  1.30100 54.62500 43.60400
H  5.71800 51.12900 42.78200
H  2.81200 49.42100 40.12300
H  3.99900 48.18900 40.17600
H  4.18500 49.42900 38.99700

