158

Mg 0.69700 7.07700 25.14100
C  1.30200 8.92100 28.12400
C  1.02800 4.22900 27.26000
C  0.01900 5.26900 22.60100
C  0.88000 9.99500 23.38200
N  1.01800 6.60400 27.40800
C  1.19600 7.56400 28.41000
C  1.56800 6.89300 29.73400
C  1.72000 5.37500 29.38700
C  1.22800 5.38700 27.95000
C  3.15700 4.80400 29.56100
C  0.59800 7.26700 30.84800
C  1.18200 7.79600 32.17600
H  2.11000 6.91200 32.98900
N  0.60800 4.97700 24.87500
C  0.63900 3.99900 25.89100
C  0.45000 2.71700 25.24500
C  0.24100 2.97100 23.87000
C  0.31900 4.40600 23.67100
C  0.34500 1.46700 25.97100
C  -0.03800 1.96400 22.63800
O  -0.23000 2.50700 21.53400
C  -0.16600 0.47700 22.77900
N  0.71400 7.50000 23.22000
C  0.22000 6.60200 22.35100
C  -0.11700 7.28300 21.00300
C  -0.26700 8.78200 21.44400
C  0.55200 8.77800 22.73000
C  1.16500 7.00800 19.98900
C  -1.66400 9.39400 21.60200
C  -1.75100 10.88200 21.15800
N  1.13400 9.13800 25.61600
C  1.16200 10.22100 24.80300
C  1.36600 11.40000 25.63200
C  1.39600 10.88800 26.88500
C  1.27700 9.52400 26.82100
C  1.40900 12.87100 25.16700
C  1.62100 11.39500 28.24400
O  1.75100 12.47400 28.71400
C  1.52700 10.08000 29.09800
C  2.74000 10.01700 29.94700
O  3.85100 9.59200 29.61600
O  2.56000 10.75500 31.10400
C  3.60700 10.90400 32.04900
H  1.15600 3.28600 27.79500
H  -0.33500 4.69800 21.74000
H  0.70800 10.88900 22.77900
H  2.48800 7.37900 30.05900
H  1.02300 4.77900 29.97700
H  3.66700 5.48600 30.24100
H  3.70300 4.77500 28.61800
H  3.14900 3.79300 29.96800
H  -0.04400 6.40100 31.00500
H  -0.05300 8.03700 30.43400
H  0.48200 8.01800 32.98200
H  1.75200 8.68200 31.89600
H  0.09600 1.57400 27.02600
H  1.31500 0.97300 25.92500
H  -0.44900 0.83600 25.57300
H  -1.15100 0.20900 23.16200
H  0.61200 -0.07300 23.30800
H  -0.15200 0.05300 21.77500
H  -1.08200 7.02000 20.57100
H  0.25100 9.47800 20.78500
H  1.96400 6.80600 20.70300
H  1.34100 7.90200 19.39100
H  0.91200 6.15800 19.35600
H  -1.97900 9.38200 22.64500
H  -2.40800 8.96200 20.93200
H  -2.59700 11.05800 20.49300
H  -0.94800 11.24600 20.51700
H  -1.77700 11.52900 22.03500
H  1.05100 12.84200 24.13800
H  2.37900 13.34600 25.31500
H  0.68100 13.47500 25.70900
H  0.69500 10.29700 29.76700
H  3.39600 11.70900 32.75300
H  4.62300 11.14600 31.73800
H  3.63100 9.91800 32.51300
Mg 47.78300 34.49200 26.71400
C  45.99000 33.13900 29.40600
C  48.20000 37.20400 28.87500
C  48.96600 36.24600 24.16300
C  47.14500 31.70400 24.83100
N  47.32400 34.96400 28.99600
C  46.59000 34.28400 29.84500
C  46.63000 34.87400 31.25800
C  46.87300 36.38900 30.89500
C  47.59100 36.17600 29.56900
C  45.60800 37.26000 30.85200
C  47.80100 34.35100 32.13000
C  47.93200 34.53400 33.65600
H  46.88900 35.39100 34.46100
N  48.51400 36.48900 26.60600
C  48.73800 37.39700 27.60100
C  49.27500 38.60600 27.04700
C  49.40800 38.38800 25.63200
C  48.97600 36.98000 25.39900
C  49.47300 39.84500 27.99700
C  49.84400 39.31900 24.49200
O  49.98600 38.97500 23.31700
C  50.32900 40.70400 24.93200
N  47.99500 34.03600 24.81000
C  48.46600 34.95500 23.91400
C  48.67100 34.32400 22.51600
C  48.26800 32.83300 22.81300
C  47.77800 32.81500 24.23600
C  47.78400 34.98100 21.30500
C  49.38000 31.80500 22.54000
C  50.60400 31.81000 23.39700
N  46.74700 32.79200 26.94200
C  46.56500 31.73300 26.09400
C  45.82600 30.72100 26.85400
C  45.41900 31.33300 28.06200
C  46.08600 32.49800 28.11700
C  45.30200 29.43400 26.43900
C  44.64500 31.09100 29.25100
O  43.88900 30.22700 29.56300
C  44.92400 32.36900 30.14900
C  45.22100 31.86000 31.51600
O  46.22300 31.20700 31.85100
O  44.22100 32.26800 32.37800
C  44.52200 31.93800 33.80200
H  48.22200 38.04800 29.56700
H  49.43600 36.70500 23.29000
H  47.02600 30.74900 24.31400
H  45.74400 34.81200 31.89000
H  47.47700 36.86000 31.67000
H  45.79900 38.26300 31.23300
H  44.83300 36.73800 31.41300
H  45.19100 37.31800 29.84700
H  48.72500 34.66700 31.64600
H  47.89400 33.29600 31.87100
H  48.96600 34.83500 33.82100
H  47.91900 33.50100 34.00100
H  50.38700 40.36400 27.71000
H  49.63200 39.75500 29.07200
H  48.69600 40.56400 27.73700
H  51.21000 40.61400 25.56800
H  49.47100 41.13400 25.44800
H  50.59200 41.32700 24.07700
H  49.72900 34.50300 22.32300
H  47.41500 32.48400 22.23100
H  48.47800 35.52800 20.66800
H  47.09300 35.65900 21.80500
H  47.20900 34.24300 20.74600
H  49.77700 31.94400 21.53400
H  48.91800 30.82100 22.62300
H  50.96000 30.85300 23.77700
H  50.53400 32.46500 24.26500
H  51.39100 32.21100 22.75800
H  45.49900 29.36400 25.36900
H  44.24200 29.35200 26.67900
H  45.79000 28.56800 26.88600
H  44.04500 33.01300 30.19300
H  44.07700 32.77700 34.33800
H  45.56600 31.92500 34.11400
H  44.04200 31.01100 34.11700

