158

Mg 42.01900 41.18400 27.16700
C  41.29200 43.41900 29.56200
C  43.18300 38.99300 29.48400
C  42.55700 38.82900 24.71000
C  41.29700 43.47000 24.74300
N  42.17200 41.22500 29.32500
C  41.75300 42.24800 30.14400
C  42.00000 41.95600 31.63500
C  42.70700 40.49200 31.53800
C  42.67000 40.18800 30.00300
C  44.09400 40.54300 32.15500
C  40.66400 42.02800 32.51000
C  40.69500 42.94300 33.70700
H  39.63300 42.49900 34.82000
N  42.85600 39.24400 27.08200
C  43.26000 38.51600 28.17300
C  43.73100 37.18400 27.75300
C  43.45200 37.10400 26.37100
C  42.85800 38.40300 26.00800
C  44.48600 36.15900 28.61500
C  43.73900 35.96900 25.41600
O  43.39800 35.96400 24.23800
C  44.34300 34.66800 25.92600
N  42.11600 41.20500 25.05400
C  42.32600 40.14000 24.20500
C  42.27900 40.48700 22.78000
C  41.75400 41.90300 22.78400
C  41.73300 42.21900 24.29000
C  43.66700 40.26000 21.90300
C  40.34500 42.19100 22.05800
C  39.01700 42.03400 22.83400
N  41.38000 43.08300 27.11700
C  41.10900 43.87200 26.05400
C  40.62500 45.19000 26.51000
C  40.66700 45.06300 27.95600
C  41.13000 43.77400 28.18400
C  40.44800 46.46200 25.69000
C  40.48900 45.72400 29.24500
O  40.18300 46.88000 29.45700
C  40.96100 44.74700 30.28700
C  42.11800 45.33700 30.96400
O  43.21600 45.46800 30.47200
O  41.71900 45.66500 32.21600
C  42.73000 46.08100 33.13800
H  43.63400 38.28500 30.18200
H  42.75700 38.12800 23.89700
H  41.02700 44.08900 23.88500
H  42.65000 42.75200 32.00000
H  42.10500 39.73000 32.03400
H  44.13500 39.75600 32.90800
H  44.23300 41.52000 32.61900
H  44.79700 40.39600 31.33500
H  40.58000 41.07200 33.02600
H  39.78000 42.36300 31.96800
H  40.40400 43.94300 33.38600
H  41.70800 43.08800 34.08400
H  43.96400 35.20300 28.65300
H  44.65200 36.47500 29.64500
H  45.48100 35.93800 28.22900
H  45.37000 34.83300 26.24900
H  44.18200 33.88300 25.18700
H  43.70500 34.42900 26.77700
H  41.42300 39.91700 22.41800
H  42.54000 42.55900 22.40900
H  43.96600 41.19100 21.42000
H  43.33900 39.49500 21.20000
H  44.45300 39.91600 22.57600
H  40.32000 41.37100 21.34000
H  40.39900 43.16800 21.57700
H  38.41900 42.94200 22.75600
H  39.22400 42.00500 23.90400
H  38.40900 41.18600 22.52000
H  39.40700 46.77500 25.60700
H  40.83100 46.36000 24.67500
H  41.01800 47.24000 26.19700
H  40.21700 44.60800 31.07100
H  42.62600 45.47400 34.03700
H  42.66300 47.13100 33.42200
H  43.74400 45.95500 32.75600
Mg 17.24600 51.72100 25.74200
C  19.01000 50.51500 28.38500
C  14.66500 52.62100 27.89400
C  15.46900 52.91700 23.13300
C  19.38200 50.12000 23.44900
N  16.84100 51.60400 27.87500
C  17.80000 51.18300 28.75700
C  17.39900 51.40300 30.16500
C  15.90600 51.72000 30.01700
C  15.76200 52.08600 28.55600
C  14.86200 50.56400 30.46700
C  18.30800 52.56600 30.72300
C  18.46600 52.60200 32.31600
H  17.38600 51.75600 33.08000
N  15.37500 52.78000 25.50800
C  14.44300 53.02300 26.56200
C  13.29100 53.70900 26.08600
C  13.51400 53.85600 24.68500
C  14.81100 53.14500 24.33500
C  12.21900 54.28400 27.01600
C  12.69700 54.52300 23.60800
O  12.95100 54.60900 22.41500
C  11.37300 55.26300 23.93600
N  17.48400 51.66400 23.59200
C  16.64400 52.32500 22.71800
C  17.10300 52.24000 21.22900
C  18.43800 51.36100 21.40900
C  18.41900 50.94800 22.88900
C  16.04300 51.59600 20.19600
C  19.71200 52.20700 21.02600
C  21.00100 51.55000 20.47800
N  18.89600 50.53100 25.81700
C  19.68700 49.96600 24.81400
C  20.73200 49.20300 25.47400
C  20.53800 49.39200 26.84400
C  19.42000 50.19300 27.02900
C  21.77100 48.41300 24.76800
C  21.07300 49.08700 28.19700
O  22.01800 48.43400 28.59400
C  20.08300 49.87100 29.24100
C  19.62200 48.85500 30.29900
O  19.10500 47.77100 30.15700
O  20.00200 49.27500 31.53800
C  19.90900 48.38500 32.65600
H  13.83900 52.78700 28.59000
H  14.85000 53.34200 22.34100
H  20.12400 49.62400 22.82000
H  17.51100 50.47100 30.72000
H  15.71900 52.65100 30.55300
H  14.03600 51.08200 30.95400
H  15.29100 49.85800 31.17800
H  14.43400 50.08000 29.58900
H  17.99900 53.54300 30.35300
H  19.26900 52.42100 30.23000
H  18.45500 53.66100 32.57400
H  19.42400 52.14900 32.57300
H  12.23400 55.36900 27.11700
H  12.27500 53.81800 28.00000
H  11.27100 53.88000 26.65900
H  10.60900 54.56800 24.28300
H  11.00400 55.83200 23.08300
H  11.61700 55.91100 24.77800
H  17.46100 53.23300 20.95900
H  18.36800 50.53800 20.69800
H  15.07500 52.07400 20.34400
H  15.94700 50.51800 20.31800
H  16.37600 51.83200 19.18500
H  20.00800 52.64800 21.97800
H  19.45300 53.05000 20.38500
H  20.93800 50.47800 20.28900
H  21.83000 51.65600 21.17700
H  21.31100 52.10600 19.59300
H  22.57600 48.31600 25.49700
H  22.21800 48.95700 23.93600
H  21.35500 47.47100 24.41000
H  20.72500 50.57000 29.77700
H  20.21400 47.35100 32.49300
H  18.91400 48.44900 33.09600
H  20.59600 48.73500 33.42700

