158

Mg 8.60500 4.23400 27.47600
C  9.74900 2.44700 30.57800
C  6.66500 6.16300 29.61600
C  7.62300 5.63900 24.81000
C  10.29600 1.89500 25.60900
N  8.21800 4.10700 29.88100
C  8.78300 3.39100 30.90900
C  8.25600 3.92400 32.27500
C  7.31600 5.09100 31.89300
C  7.38700 5.14200 30.33100
C  5.87800 4.91700 32.42300
C  9.43300 4.35100 33.28000
C  8.94100 5.04700 34.55600
H  10.08700 5.27100 35.52700
N  7.39800 5.79300 27.25300
C  6.62800 6.38200 28.21300
C  5.89000 7.44300 27.54000
C  6.22100 7.38700 26.15700
C  7.03700 6.18900 25.96500
C  5.00500 8.46900 28.29000
C  5.70200 8.34900 24.96000
O  6.04700 8.14600 23.79800
C  4.95400 9.52200 25.32400
N  8.75000 3.73900 25.50800
C  8.31900 4.50400 24.55700
C  8.44800 3.89700 23.11400
C  9.57300 2.82000 23.38800
C  9.56300 2.79400 24.96200
C  7.13900 3.38900 22.45200
C  10.94200 3.15300 22.74800
C  11.90000 2.11600 22.26000
N  9.81100 2.52700 27.90800
C  10.50300 1.76300 26.95900
C  11.30600 0.84700 27.69000
C  11.05700 1.07700 29.08300
C  10.12000 2.11500 29.16100
C  12.30300 -0.22000 27.20400
C  11.43100 0.64900 30.43800
O  12.29200 -0.12700 30.82900
C  10.52800 1.61600 31.45300
C  9.67800 0.79500 32.33700
O  8.94400 -0.07100 32.00100
O  10.20500 0.93000 33.60100
C  9.63800 -0.00900 34.69300
H  6.07500 6.79000 30.28900
H  7.26300 6.23200 23.96700
H  10.86200 1.11100 25.10200
H  7.70800 3.02800 32.56900
H  7.62000 6.06300 32.28200
H  5.14800 4.73800 31.63300
H  5.61300 5.91400 32.77500
H  5.90000 4.13900 33.18500
H  9.95500 5.08200 32.66400
H  10.10600 3.53000 33.53000
H  8.22600 4.37200 35.02600
H  8.57500 6.04900 34.33300
H  4.00200 8.51100 27.86600
H  5.48400 9.44600 28.34600
H  4.65900 8.13500 29.26800
H  5.59000 9.95000 26.09900
H  4.06100 9.16800 25.83900
H  4.82000 10.24700 24.52200
H  8.82300 4.65300 22.42400
H  9.28300 1.78900 23.18700
H  7.23200 2.34900 22.13900
H  6.94200 3.93300 21.52900
H  6.21900 3.52600 23.02000
H  11.48900 3.76600 23.46400
H  10.70600 3.77900 21.88700
H  12.00800 2.19500 21.17800
H  11.63000 1.07800 22.45500
H  12.87500 2.39900 22.65700
H  12.71200 -0.75400 28.06200
H  13.08800 0.26700 26.62500
H  11.81200 -0.95200 26.56300
H  11.19300 2.21100 32.07800
H  9.32100 -0.98700 34.33100
H  8.74700 0.45600 35.11400
H  10.37000 -0.20800 35.47500
Mg 35.59800 3.55800 30.48100
C  32.88400 4.42700 32.53900
C  37.74500 3.78900 33.04800
C  37.95800 3.14600 28.27700
C  33.24500 3.85100 27.79200
N  35.31000 4.10400 32.49900
C  34.13800 4.22300 33.18300
C  34.34000 4.22400 34.69800
C  35.86400 4.51400 34.75400
C  36.36400 4.04500 33.33700
C  36.28500 5.92100 35.18800
C  33.90200 2.95100 35.49500
C  33.68900 3.21200 37.02700
H  34.42300 4.40600 37.62100
N  37.66600 3.39600 30.69400
C  38.38900 3.38900 31.80500
C  39.77800 3.04400 31.54300
C  39.81100 2.78100 30.11700
C  38.41400 3.01500 29.64300
C  40.84700 2.68900 32.53800
C  40.91500 2.20600 29.23900
O  40.86200 2.15300 28.06500
C  42.25900 1.74100 29.88900
N  35.60300 3.53100 28.27500
C  36.75700 3.41500 27.66000
C  36.50400 3.28100 26.09200
C  34.93600 3.55900 25.89500
C  34.52300 3.61400 27.38900
C  37.39100 4.23600 25.19200
C  34.28700 2.36300 25.15900
C  32.99700 2.70800 24.32000
N  33.40200 4.16200 30.16900
C  32.60200 4.10000 29.05100
C  31.25400 4.40400 29.43500
C  31.32300 4.51300 30.85100
C  32.62300 4.32800 31.17000
C  30.09700 4.52900 28.55900
C  30.50700 4.73100 32.01100
O  29.32400 4.93500 32.16500
C  31.52200 4.54300 33.18200
C  31.39100 5.72800 34.11800
O  31.80700 6.84000 33.81600
O  30.79600 5.33200 35.30300
C  30.77500 6.27800 36.42100
H  38.45100 3.77100 33.88100
H  38.61100 2.78300 27.48100
H  32.54400 3.98100 26.96500
H  33.79100 5.04300 35.16400
H  36.38700 3.89500 35.48300
H  35.91900 6.26000 36.15700
H  35.96700 6.72400 34.52300
H  37.36400 6.05800 35.25200
H  34.57300 2.09300 35.43500
H  32.90300 2.66800 35.16500
H  33.83200 2.32200 37.64100
H  32.63700 3.48800 37.09800
H  41.82100 3.06300 32.22400
H  40.96000 1.60600 32.59700
H  40.55400 3.02100 33.53400
H  42.89600 1.29500 29.12500
H  42.18400 1.00800 30.69200
H  42.56000 2.70200 30.30700
H  36.79600 2.25500 25.86900
H  34.64700 4.48800 25.40300
H  38.05900 4.87600 25.76900
H  36.75100 4.93000 24.64800
H  38.01800 3.62800 24.53900
H  33.86400 1.67100 25.88700
H  34.92100 1.87900 24.41600
H  32.90200 2.18000 23.37100
H  33.01100 3.78000 24.12400
H  32.12800 2.50900 24.94600
H  29.21000 4.62300 29.18400
H  30.00600 3.63000 27.94900
H  30.27800 5.45000 28.00400
H  31.36000 3.62700 33.75000
H  30.78300 7.31500 36.08600
H  31.65600 6.06500 37.02800
H  29.92400 6.07900 37.07200

