158

Mg 24.47100 -6.58700 47.78800
C  27.01100 -4.21200 46.88500
C  22.35900 -4.88900 45.67700
C  22.39600 -9.08500 48.27800
C  26.97300 -8.28800 49.62300
N  24.77100 -4.86600 46.21900
C  25.84800 -4.05700 46.15400
C  25.58600 -2.90600 45.13100
C  23.91500 -2.86500 45.27500
C  23.58300 -4.30100 45.74500
C  23.28300 -1.71500 46.09600
C  26.23600 -3.26400 43.72500
C  27.26500 -2.24100 43.11600
H  27.36900 -2.32200 41.61200
N  22.60200 -6.94600 47.06000
C  21.87800 -6.14800 46.12400
C  20.63700 -6.80900 45.84000
C  20.53000 -8.00400 46.67200
C  21.90300 -8.07900 47.43300
C  19.71100 -6.41800 44.78300
C  19.39400 -8.94100 46.76400
O  18.41500 -8.67900 46.07700
C  19.37300 -10.23700 47.58300
N  24.74600 -8.50700 48.70300
C  23.67500 -9.27000 48.85200
C  23.94200 -10.50900 49.62800
C  25.35800 -10.18400 50.34200
C  25.74300 -8.95800 49.55500
C  22.85600 -11.02100 50.64400
C  26.42100 -11.34900 50.40200
C  27.06500 -11.36300 51.79500
N  26.52100 -6.33000 48.29100
C  27.44100 -7.11700 49.00900
C  28.75100 -6.46200 49.02700
C  28.56700 -5.36700 48.18300
C  27.28100 -5.36500 47.73000
C  29.95700 -6.96900 49.80000
C  29.25300 -4.10700 47.75300
O  30.31100 -3.61500 48.10200
C  28.30800 -3.34600 46.78600
C  28.17600 -1.88300 47.21100
O  27.74600 -1.40500 48.28400
O  28.43400 -1.12100 46.11000
C  27.98100 0.22000 46.25600
H  21.63300 -4.25300 45.16500
H  21.77400 -9.92900 48.58300
H  27.73000 -8.91500 50.09800
H  26.01300 -2.04300 45.64100
H  23.53400 -2.80200 44.25600
H  24.01200 -0.91100 46.20300
H  23.03200 -2.11900 47.07600
H  22.36200 -1.33800 45.65200
H  25.41300 -3.10000 43.03000
H  26.60500 -4.28600 43.63700
H  28.26400 -2.41400 43.51500
H  27.02100 -1.23200 43.44900
H  19.38200 -7.24100 44.14900
H  20.22000 -5.67500 44.17100
H  18.86600 -5.93500 45.27400
H  19.62800 -9.95600 48.60500
H  19.93700 -11.02700 47.08700
H  18.35100 -10.60900 47.65500
H  24.06600 -11.31600 48.90600
H  25.19400 -9.72700 51.31800
H  23.44500 -11.36300 51.49500
H  22.37300 -11.90200 50.22300
H  22.13100 -10.23100 50.83800
H  27.21100 -11.03600 49.72000
H  26.09500 -12.28300 49.94500
H  27.19700 -12.40600 52.08300
H  26.43800 -10.93400 52.57600
H  28.00400 -10.81700 51.69900
H  29.56300 -7.32300 50.75200
H  30.74600 -6.22100 49.87900
H  30.40300 -7.84400 49.32800
H  28.72000 -3.39100 45.77700
H  28.41500 0.65500 45.35500
H  28.44600 0.77900 47.06800
H  26.90200 0.36100 46.30400
Mg 26.43800 50.28900 27.14500
C  24.27700 51.27500 29.68200
C  28.53700 49.02400 29.48800
C  28.31600 49.13400 24.68200
C  24.23400 51.76600 24.85800
N  26.37100 50.12800 29.32400
C  25.37000 50.58000 30.19700
C  25.69500 50.26400 31.63600
C  27.13500 49.66600 31.52400
C  27.38400 49.58800 30.03200
C  28.21200 50.42000 32.41700
C  24.67100 49.33500 32.40700
C  24.08200 49.83800 33.73300
H  24.22400 48.82200 34.90600
N  28.19200 49.12400 27.11200
C  28.94700 48.73200 28.18400
C  30.16900 48.10800 27.69300
C  30.06000 48.18900 26.26700
C  28.77300 48.81100 25.98700
C  31.31100 47.51200 28.52400
C  31.10200 47.73300 25.23100
O  30.95200 47.88700 24.00500
C  32.34800 46.97500 25.66000
N  26.34400 50.56600 25.06700
C  27.24600 49.86400 24.25200
C  26.92200 50.15600 22.77100
C  25.45100 50.72000 22.86000
C  25.29600 51.06300 24.34100
C  28.04300 51.11300 22.11800
C  24.32400 49.80800 22.29000
C  23.56200 48.88400 23.25300
N  24.72700 51.43800 27.21300
C  23.86000 51.87500 26.21300
C  22.73700 52.48300 26.77300
C  22.85400 52.19800 28.13200
C  24.07200 51.64100 28.38100
C  21.64000 53.15700 26.06600
C  22.21200 52.36500 29.38000
O  21.07800 52.77600 29.59600
C  23.08600 51.83600 30.48300
C  23.47600 52.90400 31.44900
O  24.27200 53.72800 31.10000
O  22.73700 52.79800 32.58400
C  22.67900 53.94700 33.56200
H  29.22800 48.69400 30.26700
H  28.86100 48.65800 23.86400
H  23.52200 52.15100 24.12400
H  25.74700 51.19000 32.21000
H  27.17500 48.63900 31.88700
H  28.88900 49.76600 32.96600
H  27.79900 50.98200 33.25500
H  28.64600 51.16500 31.75000
H  25.13500 48.37300 32.62500
H  23.96400 48.98400 31.65500
H  23.01100 50.02600 33.65900
H  24.51500 50.81100 33.96400
H  31.18000 46.43500 28.62300
H  31.23300 47.92800 29.52900
H  32.28800 47.81400 28.14700
H  32.78600 46.80300 24.67700
H  32.18000 45.98200 26.07700
H  33.04400 47.41800 26.37200
H  26.95300 49.18700 22.27300
H  25.44400 51.62900 22.25900
H  28.77200 51.44500 22.85800
H  27.65500 52.03800 21.69000
H  28.53100 50.56200 21.31400
H  24.80600 49.16500 21.55400
H  23.61500 50.47000 21.79300
H  24.26800 48.57000 24.02200
H  23.11000 48.08900 22.66000
H  22.67300 49.38900 23.63200
H  21.98100 54.05800 25.55400
H  20.76000 53.48700 26.61900
H  21.19500 52.46600 25.35000
H  22.49100 51.06900 30.97700
H  22.90900 54.89300 33.07400
H  23.41300 53.64700 34.31000
H  21.70000 53.95500 34.04200

