158

Mg 41.57900 6.85100 29.62600
C  43.12400 8.42300 32.38100
C  39.12100 5.57700 31.76000
C  39.98100 5.48600 27.01500
C  44.03400 8.03600 27.66600
N  41.17400 6.91900 31.79900
C  41.87500 7.85700 32.66400
C  41.11700 7.86100 33.97100
C  40.07400 6.69200 33.91300
C  40.09400 6.35600 32.40200
C  40.49200 5.42400 34.69000
C  40.49100 9.18700 34.48600
C  40.49800 9.35300 36.00200
H  41.38800 10.40400 36.63600
N  39.87600 5.66100 29.40100
C  38.99100 5.28200 30.39600
C  37.93800 4.58700 29.81900
C  38.04800 4.68200 28.47800
C  39.33900 5.27800 28.20400
C  36.79400 4.12500 30.68900
C  37.02000 4.25400 27.43700
O  37.21000 4.49600 26.27300
C  35.68400 3.53100 27.80800
N  42.21800 6.41300 27.66200
C  41.21300 6.02500 26.71400
C  41.79900 6.21900 25.29200
C  43.00700 7.18600 25.48600
C  43.06300 7.25400 27.07600
C  42.29200 4.88300 24.67800
C  42.90400 8.54800 24.84100
C  41.56700 9.36000 25.12900
N  43.43800 7.83100 29.94700
C  44.29700 8.24900 29.03100
C  45.44700 8.92200 29.67700
C  45.04400 9.05300 31.02400
C  43.77500 8.34200 31.11200
C  46.64600 9.55200 29.03900
C  45.26700 9.71700 32.30400
O  46.07700 10.57300 32.65100
C  44.02200 9.29100 33.26300
C  44.70400 8.60100 34.37600
O  45.40500 7.62300 34.33100
O  44.42300 9.17600 35.55800
C  44.82100 8.63300 36.85700
H  38.33100 5.30700 32.46500
H  39.40400 5.11900 26.16400
H  44.82900 8.40100 27.01300
H  41.87700 7.56100 34.69200
H  39.05100 6.89600 34.23000
H  40.97400 4.73000 34.00100
H  39.57500 4.93100 35.01200
H  41.18400 5.67100 35.49600
H  39.42900 9.22100 34.24000
H  41.01000 9.93400 33.88600
H  40.52500 8.40500 36.53900
H  39.49500 9.68700 36.26400
H  35.79600 4.48600 30.44100
H  36.93900 4.16900 31.76900
H  36.85400 3.05000 30.51700
H  36.05500 2.79900 28.52500
H  35.18900 3.00600 26.99100
H  35.12800 4.19800 28.46800
H  41.09000 6.69200 24.61300
H  43.97500 6.79900 25.16900
H  43.35900 4.66500 24.68600
H  42.04800 4.85200 23.61600
H  41.82500 3.99000 25.09400
H  42.90200 8.47900 23.75300
H  43.74900 9.21600 25.00800
H  41.12900 9.01100 26.06400
H  40.77800 9.19800 24.39500
H  41.88700 10.40200 25.14500
H  46.46000 9.58500 27.96500
H  47.55500 8.98600 29.24500
H  46.77400 10.60400 29.29200
H  43.57600 10.23000 33.59000
H  44.94800 7.56300 36.69300
H  44.06500 8.71800 37.63700
H  45.78900 9.01100 37.18800
Mg 25.99200 50.62200 26.59000
C  24.09300 51.83500 29.26600
C  28.53500 49.81200 28.86500
C  28.14900 49.81400 24.00100
C  23.65100 51.77300 24.37900
N  26.27800 50.90300 28.80900
C  25.33000 51.28500 29.75200
C  25.76900 50.91200 31.20500
C  27.23200 50.51700 30.99400
C  27.37500 50.36300 29.47300
C  28.29700 51.28600 31.83800
C  24.81300 49.76300 31.73600
C  24.05900 50.15900 32.97400
H  24.39100 49.56500 34.28900
N  27.96900 49.81900 26.47600
C  28.84200 49.51000 27.51100
C  30.03800 48.87300 27.03100
C  29.88400 48.80400 25.64400
C  28.64100 49.51000 25.29900
C  31.16700 48.45400 27.93900
C  30.88200 48.17200 24.57500
O  30.62900 48.12600 23.37400
C  32.19900 47.58800 25.07600
N  25.98800 50.95400 24.46600
C  26.92700 50.40000 23.59400
C  26.43500 50.33200 22.15400
C  24.99700 50.94600 22.33700
C  24.83800 51.24400 23.83900
C  27.23100 51.23000 21.05100
C  23.85300 50.12000 21.66800
C  23.70800 50.28900 20.12700
N  24.31800 51.75200 26.76800
C  23.42800 52.07100 25.75600
C  22.24800 52.65400 26.36300
C  22.44300 52.55200 27.71700
C  23.70200 52.02900 27.91000
C  21.05100 53.16100 25.66700
C  21.79500 52.70300 29.04500
O  20.65600 53.01800 29.38100
C  22.88900 52.22400 30.10400
C  23.15500 53.40000 31.03500
O  23.90200 54.33000 30.79200
O  22.64500 53.17000 32.32000
C  22.98400 54.20400 33.36400
H  29.20200 49.62600 29.71000
H  28.74300 49.32900 23.22400
H  22.85200 52.01500 23.67500
H  25.64500 51.74100 31.90200
H  27.27900 49.49300 31.36400
H  28.93700 50.52300 32.27900
H  27.82500 51.94900 32.56300
H  28.99900 51.85600 31.23000
H  25.37000 48.83800 31.88400
H  24.12900 49.47500 30.93800
H  23.06600 49.76100 32.76500
H  23.99900 51.23400 33.14300
H  31.29600 47.37400 28.01300
H  30.97100 48.75700 28.96700
H  32.10400 48.89400 27.59500
H  32.88600 48.39800 25.32200
H  32.58900 46.99800 24.24600
H  31.99100 46.96900 25.94800
H  26.41900 49.26300 21.93900
H  24.97300 51.90800 21.82500
H  28.01800 51.73300 21.61200
H  26.54500 51.98600 20.66800
H  27.61200 50.63700 20.21900
H  22.88800 50.28800 22.14700
H  24.08300 49.05700 21.73500
H  24.72300 50.35000 19.73300
H  23.01800 51.09800 19.89000
H  23.37000 49.35000 19.69000
H  21.01300 52.72800 24.66800
H  21.07100 54.24900 25.60500
H  20.21200 52.79500 26.26000
H  22.51700 51.47500 30.80200
H  23.77300 54.91100 33.10800
H  23.38100 53.59800 34.17800
H  22.06400 54.66500 33.72100

