158

Mg 47.88200 45.12000 43.37800
C  44.46900 45.46200 42.65400
C  47.76900 41.98900 41.98000
C  51.25500 45.33700 43.14200
C  47.76100 48.42700 44.62800
N  46.34300 43.94300 42.40500
C  45.01800 44.26900 42.24600
C  44.31000 43.11700 41.48400
C  45.24500 41.91400 41.74300
C  46.50900 42.63300 42.06300
C  44.80900 41.01400 42.94600
C  44.16500 43.51100 39.97100
C  42.88100 43.01500 39.25600
H  42.81000 43.33500 37.80900
N  49.34200 43.82900 42.73400
C  49.07400 42.57600 42.18700
C  50.34700 41.87000 42.04900
C  51.42700 42.77100 42.34700
C  50.67500 44.05500 42.68700
C  50.49000 40.37000 41.69700
C  52.88500 42.39400 42.26700
O  53.27600 41.27400 41.91100
C  53.94500 43.35000 42.67300
N  49.28100 46.72800 43.51900
C  50.65900 46.51200 43.58000
C  51.39800 47.80700 44.11900
C  50.19900 48.76600 44.29100
C  48.98000 47.87600 44.23800
C  52.18800 47.58900 45.33800
C  50.19700 49.79200 43.10200
C  49.83800 51.25700 43.54500
N  46.43500 46.66000 43.65800
C  46.50100 47.90100 44.16900
C  45.25300 48.64200 44.15500
C  44.42200 47.71700 43.51400
C  45.18700 46.54900 43.22500
C  44.95800 49.94300 44.77400
C  43.11800 47.54600 43.05100
O  42.18900 48.32900 43.08300
C  43.07200 46.03300 42.43000
C  41.99400 45.26800 43.09900
O  41.30900 44.42700 42.52300
O  41.84700 45.56300 44.46100
C  40.94600 44.66400 45.23600
H  47.72700 40.94000 41.68100
H  52.34300 45.29900 43.05300
H  47.73700 49.42600 45.06800
H  43.33000 42.84100 41.87200
H  45.47300 41.33100 40.85000
H  44.69900 39.99400 42.57900
H  43.82000 41.12400 43.39200
H  45.63500 40.91400 43.65000
H  45.02700 43.31100 39.33500
H  44.05100 44.57100 39.74400
H  42.11200 43.55800 39.80600
H  42.68800 41.94800 39.36300
H  50.80800 40.37800 40.65500
H  49.69300 39.64000 41.83600
H  51.33400 40.02600 42.29400
H  53.91200 44.24400 42.04900
H  54.88700 42.83100 42.49100
H  53.79600 43.44200 43.74800
H  52.14600 48.11600 43.38800
H  50.15800 49.29600 45.24300
H  52.46700 46.53500 45.36300
H  51.58300 47.82200 46.21400
H  53.05700 48.24700 45.32900
H  49.49300 49.52100 42.31500
H  51.15300 49.82500 42.57900
H  50.76100 51.82700 43.65100
H  49.37000 51.26200 44.52900
H  49.20300 51.64500 42.74800
H  45.20700 50.77800 44.11900
H  45.69600 50.04400 45.57000
H  43.97300 49.95200 45.23900
H  42.88300 46.07800 41.35800
H  41.10800 44.96300 46.27200
H  41.22400 43.62100 45.08700
H  39.96100 44.92500 44.85000
Mg -5.59000 25.73500 26.08000
C  -3.86300 27.13700 28.89300
C  -7.02200 23.54700 28.23000
C  -6.69400 24.22500 23.45500
C  -3.86500 28.05700 24.00100
N  -5.46600 25.38900 28.28900
C  -4.72200 26.04400 29.19900
C  -4.97100 25.51600 30.64500
C  -5.99600 24.35800 30.40900
C  -6.15300 24.45200 28.88900
C  -5.56200 23.02500 30.95800
C  -5.53400 26.60300 31.60500
C  -6.73300 26.28800 32.55300
H  -6.51400 25.05000 33.51700
N  -6.78000 24.15700 25.87800
C  -7.33200 23.36100 26.86900
C  -8.22200 22.36300 26.27900
C  -8.17300 22.59600 24.84600
C  -7.19900 23.70600 24.68900
C  -9.09300 21.43500 27.14600
C  -8.91200 21.89600 23.81700
O  -8.72900 22.04500 22.60700
C  -10.06600 21.02100 24.17400
N  -5.44900 26.14900 24.08400
C  -5.96800 25.32800 23.18300
C  -5.42400 25.67100 21.78100
C  -4.85000 27.07000 21.92200
C  -4.71800 27.09500 23.43000
C  -4.49600 24.52800 21.21900
C  -5.92300 28.16400 21.44400
C  -5.54700 28.95500 20.17400
N  -4.06600 27.20200 26.36200
C  -3.51800 28.09200 25.43000
C  -2.76800 29.09800 26.14800
C  -2.87800 28.79600 27.49000
C  -3.59000 27.59000 27.59200
C  -2.21800 30.32200 25.41900
C  -2.51400 29.17100 28.83200
O  -1.95500 30.12800 29.17700
C  -3.09300 28.07000 29.83500
C  -1.90800 27.55600 30.57000
O  -0.93100 26.96200 30.05900
O  -2.11800 27.74400 31.95900
C  -0.96000 27.37600 32.77400
H  -7.50700 22.87300 28.94000
H  -7.03200 23.67500 22.57500
H  -3.44000 28.78600 23.30800
H  -4.00300 25.12200 30.95500
H  -6.97400 24.55600 30.84900
H  -4.76200 22.62900 30.33200
H  -6.37500 22.35100 31.22500
H  -5.01500 23.08100 31.89900
H  -5.77300 27.51800 31.06300
H  -4.62100 26.75000 32.18100
H  -7.58300 26.15400 31.88400
H  -6.84500 27.19200 33.15100
H  -8.90000 20.37800 26.96600
H  -10.10400 21.76100 26.89900
H  -9.07300 21.59100 28.22500
H  -10.37000 20.40200 23.33000
H  -10.95100 21.58100 24.47600
H  -9.76800 20.23400 24.86700
H  -6.24500 25.62300 21.06700
H  -3.88800 27.06500 21.40900
H  -3.53800 24.93500 20.89700
H  -4.87500 23.94000 20.38300
H  -4.30800 23.80100 22.00900
H  -6.15500 28.92400 22.19100
H  -6.89900 27.77400 21.15500
H  -4.53700 28.67600 19.87400
H  -5.42600 30.00700 20.43300
H  -6.33600 28.88000 19.42500
H  -1.35600 30.06100 24.80500
H  -2.02100 31.13700 26.11500
H  -2.95200 30.64100 24.67900
H  -3.83500 28.64200 30.39100
H  -1.18800 27.52300 33.82900
H  -0.15600 28.05400 32.48700
H  -0.67200 26.35400 32.52500

