158

Mg 47.99400 25.57800 29.98000
C  48.81500 28.03300 32.33000
C  46.77200 23.68200 32.60000
C  47.37700 23.19700 27.79100
C  49.45800 27.50800 27.53200
N  47.83500 25.90000 32.27400
C  48.20400 26.92100 33.00900
C  47.80000 26.77900 34.48500
C  47.35500 25.29100 34.51600
C  47.36000 24.90900 32.99800
C  48.29500 24.40000 35.31900
C  46.81200 27.79600 35.04600
C  47.33000 28.45300 36.39800
H  46.18800 28.60600 37.43400
N  47.12900 23.81100 30.19100
C  46.66800 23.18500 31.29900
C  45.95800 21.96900 30.94500
C  46.04600 21.85500 29.57200
C  46.94300 22.94900 29.12100
C  45.20600 21.12500 32.07000
C  45.43900 20.84800 28.71300
O  45.64100 20.84800 27.48800
C  44.58200 19.78600 29.29700
N  48.19800 25.45200 27.91900
C  48.01600 24.30300 27.27300
C  48.45500 24.38300 25.85900
C  48.81000 25.93900 25.72800
C  48.83200 26.33900 27.14100
C  49.59600 23.45100 25.44700
C  47.73700 26.87300 24.96300
C  48.44700 28.02000 24.19400
N  48.91800 27.37300 29.90500
C  49.55300 28.05600 28.84400
C  50.05700 29.32600 29.31700
C  49.81600 29.31500 30.63800
C  49.09600 28.13700 30.97200
C  50.85300 30.32500 28.45800
C  50.01600 30.10500 31.82200
O  50.52700 31.17600 31.99300
C  49.37000 29.30000 32.97400
C  50.45300 29.04100 34.00500
O  51.53700 28.48300 33.84300
O  50.03300 29.58600 35.22800
C  51.02200 29.71900 36.31500
H  46.65800 22.95200 33.40400
H  47.16000 22.38700 27.09100
H  49.83200 28.20200 26.77600
H  48.72200 26.72300 35.06400
H  46.33200 25.10900 34.84500
H  47.99700 23.35400 35.37400
H  48.50800 24.76800 36.32200
H  49.22600 24.46000 34.75400
H  45.86000 27.26500 35.06700
H  46.59800 28.57700 34.31600
H  47.62500 29.43300 36.02400
H  48.20800 28.01000 36.86800
H  45.61500 20.13400 32.26400
H  44.21800 20.89200 31.67200
H  44.93500 21.74200 32.92700
H  43.56100 20.08100 29.53700
H  45.06200 19.31800 30.15600
H  44.51400 18.99500 28.54900
H  47.60600 24.18300 25.20600
H  49.77700 26.08000 25.24500
H  50.49300 23.93800 25.06300
H  49.24300 22.81400 24.63500
H  49.91600 22.88800 26.32400
H  47.01500 27.37500 25.60800
H  47.24100 26.15000 24.31600
H  48.23100 28.01600 23.12600
H  49.52800 27.89700 24.24500
H  48.17500 28.98500 24.62300
H  50.89800 29.97100 27.42800
H  51.85000 30.50100 28.86200
H  50.34300 31.28400 28.36600
H  48.58500 29.93400 33.38600
H  52.03900 29.58500 35.94700
H  50.80100 28.95600 37.06100
H  50.87900 30.71900 36.72500
Mg -5.94100 24.92000 25.84500
C  -4.67700 26.14700 28.97600
C  -8.15300 22.94300 27.80500
C  -7.04400 23.48500 23.10400
C  -3.36500 26.56600 24.16300
N  -6.20600 24.56000 28.17000
C  -5.66400 25.20300 29.23500
C  -6.31600 24.88500 30.56100
C  -7.37000 23.76300 30.10400
C  -7.23500 23.73500 28.57700
C  -7.32800 22.28800 30.80600
C  -6.99000 26.10700 31.35100
C  -6.57900 26.37600 32.83800
H  -6.01600 25.15500 33.68700
N  -7.33000 23.43900 25.51300
C  -8.18200 22.84700 26.43400
C  -9.11000 21.94300 25.73100
C  -8.66800 21.93300 24.35900
C  -7.67400 23.00700 24.27900
C  -10.09500 21.11200 26.46300
C  -9.22000 20.97900 23.23200
O  -8.76800 21.09500 22.10100
C  -10.24200 19.89300 23.46100
N  -5.24100 25.02900 23.94200
C  -5.94200 24.35400 22.94800
C  -5.29500 24.64300 21.59500
C  -4.09100 25.46200 21.97000
C  -4.17900 25.72500 23.43500
C  -4.88900 23.31700 20.86300
C  -4.01300 26.85300 21.19600
C  -2.64300 27.29900 20.77300
N  -4.43800 26.31900 26.38700
C  -3.42400 26.83000 25.58900
C  -2.60100 27.67800 26.35000
C  -3.06800 27.50500 27.70900
C  -4.15200 26.57500 27.70500
C  -1.45900 28.62900 26.00800
C  -2.82400 27.93600 29.01500
O  -1.98000 28.73900 29.39600
C  -3.82200 26.98800 29.96900
C  -2.84100 26.18100 30.70600
O  -2.35500 25.08100 30.30900
O  -2.60900 26.82000 31.91000
C  -1.45100 26.27700 32.64700
H  -8.91800 22.50000 28.44600
H  -7.40300 22.96300 22.21400
H  -2.51000 26.99100 23.63300
H  -5.50000 24.45500 31.14200
H  -8.36300 24.13400 30.35800
H  -6.38900 22.15400 31.34400
H  -7.20800 21.54400 30.01900
H  -8.18800 22.14800 31.46100
H  -8.07800 26.06000 31.30700
H  -6.66600 27.04600 30.90200
H  -7.51000 26.68500 33.31300
H  -5.86400 27.19600 32.89000
H  -11.07900 21.17700 26.00000
H  -10.30000 21.38700 27.49800
H  -9.74000 20.08300 26.39800
H  -10.18600 19.11700 22.69700
H  -11.27400 20.23100 23.55100
H  -9.98600 19.42100 24.41000
H  -5.93700 25.20200 20.91300
H  -3.16100 24.91000 21.83800
H  -3.84000 23.41700 20.58200
H  -5.49200 23.07600 19.98800
H  -4.94800 22.48000 21.55900
H  -4.50800 27.61500 21.79900
H  -4.71800 26.83500 20.36500
H  -2.50300 28.24700 21.29300
H  -2.54900 27.39700 19.69200
H  -1.92400 26.60900 21.21500
H  -1.84000 29.38700 25.32500
H  -0.59700 28.09000 25.61400
H  -1.10500 29.14300 26.90200
H  -4.39600 27.62900 30.63800
H  -1.15600 26.93100 33.46700
H  -0.59400 26.13600 31.98900
H  -1.65200 25.27600 33.02800

