158

Mg 9.26600 4.12500 26.89000
C  10.75900 2.55000 29.74600
C  7.10800 5.73800 29.12400
C  7.73500 5.40300 24.26400
C  10.86600 1.67500 24.92700
N  9.04200 4.22900 29.25100
C  9.70800 3.47500 30.11100
C  9.38900 3.90300 31.57400
C  8.19900 4.90700 31.42100
C  8.07900 4.95800 29.84800
C  6.91800 4.54500 32.20800
C  10.60400 4.54900 32.38900
C  10.61200 4.17800 33.88000
H  11.05600 5.07900 35.10000
N  7.75300 5.42700 26.71800
C  7.07700 6.13100 27.77500
C  6.10500 7.02700 27.15900
C  6.29600 6.91800 25.75400
C  7.29900 5.89300 25.51200
C  5.24300 7.85100 28.07100
C  5.63500 7.74300 24.57500
O  5.98800 7.65300 23.39100
C  4.47600 8.73200 24.85400
N  9.37000 3.62500 24.90400
C  8.62100 4.32700 24.00600
C  8.81300 3.83500 22.56800
C  9.59000 2.42800 22.87000
C  10.09000 2.59900 24.29100
C  7.55900 3.75100 21.65900
C  10.69300 2.21200 21.82100
C  10.95700 0.83000 21.32600
N  10.56300 2.51900 27.18900
C  11.19100 1.65000 26.30400
C  12.09300 0.77700 27.01900
C  12.01100 1.08500 28.41400
C  11.05800 2.15600 28.42400
C  12.90600 -0.28000 26.41400
C  12.52600 0.81300 29.70700
O  13.43900 0.10100 30.18100
C  11.69300 1.74800 30.70000
C  10.93500 0.88800 31.68200
O  9.98600 0.12900 31.32600
O  11.38200 1.02700 32.95900
C  10.61000 0.27400 33.96300
H  6.42100 6.21800 29.82400
H  7.25900 5.76600 23.35100
H  11.10900 0.87500 24.22400
H  9.09400 3.02700 32.15100
H  8.36400 5.94000 31.72700
H  6.52900 5.51100 32.53000
H  7.06900 3.81600 33.00500
H  6.16900 4.08100 31.56600
H  10.65400 5.62600 32.22700
H  11.44600 3.99700 31.97100
H  11.27300 3.31100 33.90700
H  9.63700 3.86200 34.25000
H  4.49400 8.39600 27.49500
H  5.86700 8.65100 28.46900
H  4.87600 7.24500 28.89900
H  4.76200 9.65100 25.36600
H  3.60800 8.19900 25.24200
H  4.17200 9.17000 23.90300
H  9.60200 4.43600 22.11600
H  8.98200 1.52500 22.93100
H  6.77000 3.99300 22.37100
H  7.35300 2.73600 21.31800
H  7.69600 4.51600 20.89500
H  11.64000 2.47200 22.29500
H  10.59200 2.83000 20.92900
H  10.08900 0.18000 21.42300
H  11.80900 0.32200 21.77900
H  11.25000 0.96100 20.28400
H  12.39900 -1.23400 26.26800
H  13.77100 -0.50800 27.03600
H  13.15600 0.08900 25.41900
H  12.50100 2.25600 31.22700
H  11.33900 -0.35700 34.47200
H  9.86800 -0.42900 33.58500
H  10.14000 0.92600 34.69900
Mg 44.65100 3.05100 47.20600
C  42.26800 5.60400 46.80400
C  41.95300 0.84000 47.21400
C  46.72100 0.42000 46.76500
C  47.19700 5.23600 46.71200
N  42.30400 3.24200 46.79900
C  41.57800 4.41100 46.82500
C  40.10500 4.20100 46.77200
C  40.03900 2.65400 47.06900
C  41.48800 2.17900 47.09700
C  39.24700 2.30600 48.34500
C  39.62700 4.47600 45.33600
C  38.37100 5.43200 45.27200
H  37.83900 5.59700 43.76300
N  44.39000 0.87600 46.94100
C  43.22500 0.21500 47.04500
C  43.48400 -1.21600 46.92200
C  44.89300 -1.37000 46.65000
C  45.40700 0.03800 46.78600
C  42.36200 -2.26600 47.02000
C  45.60100 -2.68400 46.30700
O  45.03600 -3.76100 46.39300
C  47.01100 -2.73000 45.78100
N  46.68000 2.85700 46.67000
C  47.36900 1.68700 46.69700
C  48.87800 1.83100 46.66400
C  49.00100 3.37800 46.32600
C  47.52800 3.89900 46.54800
C  49.66100 1.25200 47.85500
C  49.56800 3.80000 44.95400
C  51.05700 3.55000 44.69200
N  44.81600 5.03200 46.79400
C  45.88900 5.79700 46.61600
C  45.50400 7.18500 46.50000
C  44.08100 7.10100 46.53200
C  43.69200 5.78900 46.68700
C  46.39300 8.40000 46.42100
C  42.91700 7.89300 46.58900
O  42.92900 9.07600 46.59600
C  41.71800 6.99600 46.68800
C  40.88700 7.30700 47.89100
O  40.90800 6.71700 49.00800
O  39.93800 8.40100 47.57600
C  38.91800 8.66800 48.62000
H  41.15100 0.11900 47.38900
H  47.52000 -0.32500 46.77200
H  48.02900 5.94000 46.63900
H  39.58000 4.78500 47.52800
H  39.51100 2.20400 46.22800
H  38.90700 3.21700 48.83900
H  39.82800 1.72800 49.06300
H  38.37900 1.80100 47.92200
H  39.48000 3.58300 44.72900
H  40.25000 5.08900 44.68500
H  38.70200 6.33600 45.78400
H  37.60200 4.89700 45.82900
H  42.68000 -3.14800 46.46400
H  41.53800 -1.67400 46.62100
H  42.08400 -2.39000 48.06700
H  47.80800 -2.55500 46.50300
H  47.10000 -1.89900 45.08100
H  47.20400 -3.68100 45.28400
H  49.17800 1.28000 45.77300
H  49.69500 3.77100 47.06900
H  49.03000 0.93100 48.68400
H  50.39700 1.91600 48.30900
H  50.12900 0.37900 47.39800
H  49.17700 4.79900 44.76200
H  48.93900 3.25800 44.24800
H  51.41800 4.41500 44.13500
H  51.18800 2.61100 44.15400
H  51.53100 3.42600 45.66600
H  47.32400 8.37800 46.98700
H  45.80700 9.25500 46.75800
H  46.65800 8.51500 45.36900
H  40.98000 7.12500 45.89600
H  37.99100 8.40800 48.10900
H  39.00100 9.70300 48.95300
H  38.99100 8.04600 49.51300

