158

Mg 46.79900 45.01000 43.31700
C  43.45700 44.27400 42.84400
C  47.48800 41.65200 42.54900
C  49.90400 45.80000 42.89000
C  45.73500 48.48300 43.52000
N  45.57500 43.14700 42.66300
C  44.24100 43.09200 42.67100
C  43.73600 41.64700 42.43100
C  45.03600 40.74100 42.59800
C  46.12400 41.89700 42.57400
C  45.08700 39.86200 43.80500
C  42.90200 41.32700 41.18300
C  43.19300 42.19100 39.93800
H  43.23400 41.47500 38.58700
N  48.53400 43.86600 42.72000
C  48.62300 42.54700 42.56300
C  50.01300 42.14500 42.59300
C  50.77000 43.37800 42.51100
C  49.75300 44.42600 42.61700
C  50.52900 40.67300 42.63200
C  52.22100 43.53600 42.39400
O  52.90600 42.50900 42.40500
C  52.96400 44.84900 42.31100
N  47.70100 46.85300 43.19700
C  49.05100 46.88500 43.35400
C  49.56400 48.35100 43.44200
C  48.25000 49.17100 43.62600
C  47.14200 48.09300 43.42900
C  50.56000 48.54200 44.55000
C  48.05300 50.35400 42.73100
C  47.66400 50.01700 41.25800
N  44.98100 46.14000 43.34200
C  44.72400 47.46800 43.39800
C  43.30300 47.69300 43.38100
C  42.76700 46.44200 43.12600
C  43.81600 45.55000 43.14600
C  42.61800 49.07300 43.51700
C  41.52000 45.77400 42.85300
O  40.39500 46.18200 42.79700
C  41.95900 44.32000 42.74200
C  41.38400 43.50600 43.81400
O  40.75500 42.44400 43.66400
O  41.62800 44.01900 45.05300
C  41.36500 43.16000 46.16900
H  47.87200 40.63100 42.60100
H  50.91600 46.20900 42.94800
H  45.46700 49.52400 43.71000
H  43.11000 41.49900 43.31100
H  45.14700 40.15600 41.68500
H  45.91900 40.16500 44.44000
H  45.31000 38.83900 43.49800
H  44.14200 39.78200 44.34100
H  41.86700 41.47400 41.49200
H  43.09700 40.27700 40.96700
H  44.13100 42.71500 40.12900
H  42.41000 42.93400 39.78600
H  50.52200 40.39100 41.57900
H  49.85300 40.05400 43.22200
H  51.55700 40.55900 42.97400
H  52.44400 45.53700 41.64400
H  53.96300 44.68900 41.90600
H  53.03700 45.28100 43.30900
H  50.11500 48.38800 42.50200
H  48.06200 49.54200 44.63300
H  51.60400 48.57800 44.23800
H  50.46900 47.63200 45.14300
H  50.29900 49.45800 45.08000
H  49.01700 50.84500 42.60000
H  47.27900 51.05200 43.05000
H  46.80500 50.57700 40.88700
H  47.38400 48.97500 41.10400
H  48.46800 50.23800 40.55600
H  43.12100 49.63200 44.30500
H  41.54000 48.95200 43.62500
H  42.77000 49.70900 42.64500
H  41.64800 43.92500 41.77400
H  41.96700 42.25600 46.07500
H  40.29300 42.98000 46.25200
H  41.71500 43.50800 47.14100
Mg 30.28100 60.15400 39.65500
C  27.33200 58.56600 38.42900
C  31.97400 57.31400 38.59100
C  33.22000 61.79700 40.01900
C  28.50300 63.06400 40.12600
N  29.69200 58.19700 38.48900
C  28.50300 57.78100 38.12900
C  28.61800 56.39100 37.41700
C  29.99700 55.85900 37.91000
C  30.63300 57.22400 38.30200
C  30.04700 54.79600 39.10000
C  28.45400 56.52400 35.89100
C  27.34400 55.71300 35.12900
H  26.53000 56.51300 34.08400
N  32.26800 59.61400 39.37400
C  32.75400 58.33300 38.98300
C  34.16200 58.31100 39.16400
C  34.62700 59.64500 39.44400
C  33.37600 60.44200 39.61900
C  34.99100 57.05900 38.86900
C  36.12800 60.03400 39.69100
O  36.97300 59.19900 39.56900
C  36.51200 61.38600 40.14900
N  30.83600 62.21700 39.77600
C  32.05900 62.59600 40.10600
C  32.01200 64.08200 40.34600
C  30.56700 64.42200 40.74700
C  29.88400 63.13600 40.19900
C  33.10700 64.54900 41.43800
C  30.10500 65.69900 40.04300
C  29.67700 66.83700 41.02500
N  28.31500 60.71100 39.60700
C  27.75700 61.94500 39.76500
C  26.34400 61.86100 39.55500
C  26.13100 60.49900 39.11800
C  27.37300 59.88200 39.06500
C  25.34800 62.85700 39.56200
C  25.16200 59.55700 38.57700
O  23.97600 59.67800 38.30900
C  25.84800 58.20600 38.29400
C  25.49000 57.19700 39.33600
O  25.84000 57.29600 40.51100
O  24.55000 56.38500 38.83100
C  23.76900 55.69400 39.79500
H  32.52100 56.43500 38.24400
H  34.12700 62.39900 40.09900
H  27.92800 63.97700 40.29800
H  27.86400 55.74200 37.86200
H  30.55600 55.33400 37.13500
H  29.04200 54.80600 39.52300
H  30.84500 55.09300 39.78000
H  30.27400 53.81300 38.68800
H  29.39300 56.17900 35.45800
H  28.32200 57.52000 35.46700
H  26.68400 55.31100 35.89800
H  27.85500 54.93700 34.55900
H  35.85300 56.84700 39.50100
H  35.39800 57.00000 37.85900
H  34.51800 56.10300 39.09700
H  37.59300 61.47900 40.25700
H  36.07200 61.40400 41.14600
H  36.17800 62.18200 39.48400
H  32.40100 64.55300 39.44300
H  30.38400 64.22800 41.80400
H  32.69700 65.25900 42.15700
H  33.90600 65.09400 40.93400
H  33.50800 63.77400 42.09000
H  29.34700 65.50900 39.28200
H  30.86500 66.24000 39.48000
H  30.06200 67.73700 40.54700
H  30.12700 66.65200 42.00100
H  28.61100 66.87200 41.24800
H  24.82200 62.81300 38.60800
H  25.78200 63.84800 39.69500
H  24.64000 62.80600 40.38900
H  25.49600 57.87000 37.31900
H  24.28500 54.85300 40.25600
H  22.96600 55.27500 39.18900
H  23.32700 56.43900 40.45700

