158

Mg 47.81200 25.03000 28.06600
C  48.96700 27.27500 30.64800
C  47.35600 22.79600 30.66200
C  46.92100 22.98500 25.67300
C  49.30100 27.17000 25.67400
N  48.23100 25.11600 30.41200
C  48.42600 26.20100 31.20400
C  48.09600 25.94100 32.68100
C  47.58200 24.48100 32.63700
C  47.76300 24.02200 31.11700
C  48.26900 23.57300 33.68700
C  47.07200 26.95300 33.14900
C  46.50400 26.59600 34.55600
H  46.87300 27.43400 35.77200
N  47.23700 23.19200 28.13000
C  46.99200 22.42800 29.25800
C  46.41300 21.15500 28.83100
C  46.19400 21.24000 27.44200
C  46.75200 22.51200 27.01700
C  45.93600 20.06700 29.85900
C  45.43100 20.31100 26.45600
O  45.44600 20.44200 25.22300
C  44.86300 19.06400 27.02700
N  47.90500 25.12300 25.98100
C  47.46600 24.12900 25.12500
C  47.94300 24.35800 23.65700
C  48.47800 25.82300 23.72400
C  48.55300 26.05400 25.19200
C  49.08100 23.46700 23.13100
C  47.61300 26.90600 22.97100
C  48.27800 27.85100 21.87900
N  48.83300 26.81500 28.04900
C  49.49700 27.53700 27.06100
C  50.09200 28.67200 27.55200
C  49.89700 28.64200 28.96000
C  49.13800 27.52100 29.22600
C  50.90900 29.59800 26.73400
C  50.23900 29.35800 30.15900
O  50.84400 30.46500 30.19800
C  49.56300 28.56600 31.31300
C  50.58000 28.25600 32.29100
O  51.45100 27.46100 32.20000
O  50.32300 28.92300 33.42700
C  51.05200 28.48100 34.64500
H  46.96700 22.11600 31.42300
H  46.70600 22.33400 24.82300
H  49.72400 27.74900 24.85000
H  49.04800 26.13300 33.17700
H  46.52000 24.56400 32.87100
H  48.99100 22.87100 33.27000
H  47.59600 22.92500 34.24800
H  48.76800 24.24500 34.38600
H  46.24100 26.83100 32.45400
H  47.46400 27.96900 33.18100
H  46.82200 25.58400 34.80500
H  45.42300 26.47300 34.48500
H  44.88000 19.80700 29.79500
H  45.97100 20.41300 30.89200
H  46.66200 19.26800 29.70700
H  45.57000 18.50100 27.63600
H  44.72600 18.42400 26.15600
H  43.95400 19.31400 27.57400
H  47.12400 24.28700 22.94200
H  49.50600 25.97500 23.39500
H  48.78300 22.53600 22.65000
H  49.74500 23.29000 23.97800
H  49.71100 23.95100 22.38500
H  47.20900 27.55500 23.74900
H  46.84900 26.33300 22.44600
H  47.71700 27.87300 20.94500
H  49.28900 27.47700 21.71200
H  48.51600 28.82700 22.30200
H  50.32900 29.75000 25.82300
H  51.93500 29.29000 26.53100
H  50.98100 30.54800 27.26300
H  48.84500 29.23300 31.78800
H  51.04200 29.30700 35.35600
H  52.06300 28.08400 34.54800
H  50.38700 27.73300 35.07600
Mg -10.87100 16.83500 41.33800
C  -7.58300 15.52000 41.02900
C  -9.67400 19.96300 40.75200
C  -14.04200 17.74400 40.99800
C  -11.90000 13.39600 41.64700
N  -8.83900 17.60900 40.83600
C  -7.63100 16.92600 40.87100
C  -6.49900 17.92700 40.58400
C  -7.14800 19.31200 40.81800
C  -8.60900 18.97500 40.81100
C  -6.68100 20.06600 42.04500
C  -5.81700 17.79100 39.06500
C  -4.29000 17.52000 39.00800
H  -3.78200 16.31600 38.17400
N  -11.77800 18.62800 40.94400
C  -11.15100 19.82300 40.70900
C  -12.13200 20.85300 40.49700
C  -13.40700 20.24200 40.62300
C  -13.14100 18.80100 40.81400
C  -11.79500 22.26400 40.14100
C  -14.80300 20.96800 40.45500
O  -14.79100 22.16500 40.21200
C  -16.17500 20.30000 40.55000
N  -12.67500 15.70300 41.30700
C  -13.86400 16.34000 41.13800
C  -15.07400 15.36100 41.31900
C  -14.30600 13.98300 41.50900
C  -12.83900 14.36400 41.53500
C  -16.11800 15.69500 42.45300
C  -14.74300 12.83500 40.55500
C  -14.98800 11.55100 41.35200
N  -10.01400 14.82300 41.41500
C  -10.54300 13.53700 41.58700
C  -9.53900 12.59800 41.63600
C  -8.29900 13.30500 41.48800
C  -8.67000 14.66300 41.24300
C  -9.80500 11.12300 41.89200
C  -6.89000 13.15800 41.53200
O  -6.24200 12.15500 41.78900
C  -6.39900 14.53000 41.09000
C  -5.37000 14.89700 42.00000
O  -5.45100 15.49400 43.05900
O  -4.16900 14.42600 41.45500
C  -2.98500 14.55700 42.32500
H  -9.33100 20.99800 40.69000
H  -15.03700 18.19200 40.95600
H  -12.17400 12.42600 42.06600
H  -5.65200 17.73800 41.24300
H  -6.98500 20.00000 39.98800
H  -5.68400 19.77700 42.37800
H  -7.36100 19.73100 42.82800
H  -6.71100 21.13700 41.84400
H  -6.09500 18.71900 38.56400
H  -6.26200 16.92800 38.57000
H  -3.87600 17.36800 40.00500
H  -3.78700 18.42000 38.65400
H  -12.17500 22.46800 39.14000
H  -10.73400 22.48600 40.02200
H  -12.14800 22.94400 40.91600
H  -16.14400 19.43700 39.88600
H  -17.02300 20.94900 40.32900
H  -16.26800 19.99600 41.59200
H  -15.67800 15.47400 40.41900
H  -14.48200 13.61100 42.51800
H  -16.12900 15.03200 43.31800
H  -17.09500 15.77000 41.97600
H  -15.84000 16.73200 42.64400
H  -13.94500 12.70000 39.82500
H  -15.65700 13.21500 40.09800
H  -15.84100 11.79000 41.98800
H  -14.15300 11.50100 42.05100
H  -15.09900 10.55300 40.93000
H  -10.58400 10.78600 41.20900
H  -10.04600 10.76400 42.89200
H  -8.93000 10.56700 41.55700
H  -5.89700 14.56400 40.12300
H  -2.57800 15.56700 42.38100
H  -2.18100 13.92100 41.95600
H  -3.17400 14.18400 43.33200

