158

Mg 44.77200 4.12300 47.21400
C  42.90600 7.10700 46.95500
C  41.88300 2.35300 47.42600
C  46.55400 1.45200 46.70100
C  47.64100 6.14300 46.73600
N  42.62700 4.68000 47.01400
C  42.18000 5.94100 46.84800
C  40.70600 5.78800 46.54400
C  40.25700 4.32300 46.99200
C  41.72600 3.75300 47.14100
C  39.46700 4.21500 48.30400
C  40.48200 6.08500 45.05100
C  39.37700 7.06600 44.64100
H  39.83400 8.10700 43.74000
N  44.31700 2.10000 47.12400
C  43.04100 1.58900 47.30800
C  43.10900 0.15300 47.17600
C  44.44800 -0.17200 46.90700
C  45.21500 1.16900 46.90900
C  41.93100 -0.86800 47.17400
C  44.93400 -1.57800 46.73400
O  44.23500 -2.50600 47.11700
C  46.35600 -1.92700 46.42500
N  46.93400 3.78000 47.06700
C  47.32800 2.57800 46.73300
C  48.81400 2.64200 46.34200
C  49.26000 4.14800 46.50600
C  47.84600 4.78300 46.74600
C  49.74600 1.57400 47.13700
C  49.95500 4.88100 45.29500
C  51.28600 5.56700 45.71600
N  45.25500 6.17500 47.11600
C  46.42600 6.86300 46.93000
C  46.23400 8.25800 47.08100
C  44.82200 8.45600 47.21500
C  44.28500 7.12600 47.06600
C  47.27400 9.31600 46.88400
C  43.82100 9.43400 47.32800
O  43.83200 10.63900 47.45700
C  42.48600 8.53200 47.06900
C  41.55600 8.73900 48.19600
O  41.33300 8.01800 49.15000
O  40.89200 9.95800 47.91700
C  39.91500 10.47700 48.85300
H  40.98400 1.75400 47.58700
H  47.06100 0.53900 46.37900
H  48.43000 6.83700 46.43800
H  40.07500 6.45900 47.12600
H  39.70200 3.89600 46.15700
H  40.13600 4.65300 49.04500
H  39.08300 3.22700 48.55700
H  38.55700 4.80000 48.17100
H  40.20000 5.12700 44.61600
H  41.37600 6.31900 44.47300
H  38.92500 7.55500 45.50400
H  38.63700 6.47000 44.10700
H  40.96700 -0.40600 47.38700
H  42.02800 -1.73200 47.83200
H  41.97800 -1.15700 46.12400
H  46.98500 -1.46300 47.18600
H  46.36300 -1.58000 45.39200
H  46.56800 -2.99300 46.50300
H  48.84100 2.33400 45.29700
H  49.88000 4.28900 47.39100
H  49.13600 0.78700 47.58000
H  50.24000 2.09400 47.95700
H  50.43100 1.03500 46.48300
H  49.33800 5.59000 44.74300
H  50.31700 4.08100 44.64900
H  51.28100 6.65600 45.76900
H  52.07300 5.25000 45.03200
H  51.48000 5.05100 46.65600
H  46.82700 10.30600 46.79600
H  47.85200 9.18700 45.96900
H  47.94900 9.15600 47.72500
H  41.94200 8.76700 46.15400
H  40.25700 11.28400 49.50100
H  39.40900 9.68000 49.39800
H  39.06200 10.81900 48.26700
Mg 16.40900 51.73100 26.76900
C  18.29500 50.86200 29.54600
C  13.75500 52.50600 29.04100
C  14.46400 52.73600 24.19500
C  18.79700 50.58400 24.60400
N  16.10100 51.76000 28.99500
C  17.09400 51.42400 29.88900
C  16.50400 51.63400 31.38500
C  15.07800 52.16800 31.19700
C  14.95400 52.18400 29.66300
C  14.01300 51.20100 31.77700
C  17.43900 52.65400 32.21500
C  17.77500 52.37400 33.67000
H  16.93900 53.01700 34.80100
N  14.39300 52.53200 26.64800
C  13.55400 52.84400 27.71000
C  12.38300 53.54700 27.15100
C  12.51300 53.56400 25.71800
C  13.80100 52.91200 25.39700
C  11.41800 54.23100 28.11800
C  11.57100 54.16100 24.63000
O  11.79500 54.15500 23.45700
C  10.17800 54.64700 25.09300
N  16.63300 51.69300 24.68500
C  15.73100 52.19100 23.86900
C  16.26600 52.08400 22.35100
C  17.67500 51.61900 22.55800
C  17.73600 51.25900 24.07800
C  15.39500 51.19900 21.42600
C  18.75900 52.60500 22.14400
C  19.29700 53.61100 23.16500
N  18.20800 50.79400 26.96800
C  19.04800 50.34800 25.98300
C  20.25900 49.81300 26.63600
C  19.94900 49.93000 28.05100
C  18.64900 50.51800 28.19900
C  21.40700 49.27700 25.93500
C  20.39000 49.64300 29.45800
O  21.33200 48.92800 29.77700
C  19.37300 50.27300 30.44900
C  18.84300 49.23800 31.38500
O  18.20000 48.28400 31.03800
O  19.25700 49.54300 32.64900
C  19.10000 48.53500 33.75100
H  13.02200 52.84200 29.77800
H  13.88400 52.99500 23.30700
H  19.63900 50.36500 23.94300
H  16.41800 50.62700 31.79300
H  14.98100 53.17600 31.60000
H  13.15200 51.81300 32.04500
H  14.34500 50.69100 32.68100
H  13.70200 50.41600 31.08700
H  17.02400 53.66000 32.27500
H  18.40100 52.84300 31.74000
H  18.80600 52.72600 33.70900
H  17.82200 51.29900 33.84100
H  11.67800 55.28500 28.02800
H  11.52500 54.03900 29.18500
H  10.38600 53.95900 27.89400
H  9.65100 55.00200 24.20700
H  10.37000 55.45300 25.80200
H  9.68600 53.80200 25.57400
H  16.24200 53.06900 21.88500
H  17.88500 50.74300 21.94300
H  15.85900 50.43700 20.80000
H  14.82400 51.96000 20.89300
H  14.60000 50.71500 21.99300
H  18.47200 53.18700 21.26800
H  19.56800 51.93000 21.86500
H  20.38000 53.55400 23.26500
H  18.89500 53.58600 24.17800
H  18.95100 54.59100 22.83600
H  21.65100 49.97400 25.13300
H  21.19200 48.24500 25.65800
H  22.22500 49.27300 26.65500
H  19.77000 51.10200 31.03500
H  18.48900 48.97000 34.54100
H  20.05000 48.48600 34.28200
H  18.73700 47.56500 33.41000

