158

Mg 25.65700 1.11600 29.58400
C  27.45100 0.71400 32.47400
C  22.84200 1.61300 31.42100
C  23.84400 1.09100 26.67500
C  28.35600 -0.25000 27.78100
N  25.27200 1.11800 31.69300
C  26.12100 1.08200 32.79800
C  25.52900 1.56200 34.13700
C  24.04100 1.71700 33.67100
C  24.01400 1.50100 32.14700
C  23.08200 0.76100 34.49500
C  26.20000 2.90700 34.57600
C  27.00700 2.77500 35.98900
H  26.59100 3.64900 37.19000
N  23.65100 1.53200 29.11500
C  22.61000 1.65000 29.99100
C  21.38400 1.60800 29.32900
C  21.66300 1.50000 27.94500
C  23.16900 1.36000 27.86900
C  20.03500 1.71100 29.94100
C  20.68700 1.49800 26.82200
O  21.06900 1.62000 25.67100
C  19.17900 1.36200 26.96100
N  26.04300 0.57400 27.53000
C  25.21100 0.79100 26.51000
C  25.83200 0.59000 25.09900
C  27.27100 0.14500 25.44700
C  27.24100 0.18100 27.03600
C  24.95800 -0.37500 24.22700
C  28.25700 1.26500 24.92100
C  29.65600 0.87900 24.57100
N  27.57600 0.41900 29.92300
C  28.58000 -0.04100 29.17400
C  29.75700 -0.24000 29.93200
C  29.37400 0.13900 31.23600
C  27.99700 0.42800 31.17900
C  31.12100 -0.72500 29.54900
C  29.78900 0.37500 32.62600
O  30.89700 0.36500 33.12600
C  28.55600 0.76300 33.43900
C  28.39800 -0.21500 34.54400
O  27.51500 -1.07700 34.56500
O  29.36800 -0.01500 35.49100
C  29.22600 -0.83800 36.71400
H  21.97100 1.81300 32.04800
H  23.31000 1.05900 25.72300
H  29.13700 -0.65900 27.13600
H  25.61100 0.77800 34.89000
H  23.77000 2.75100 33.88200
H  22.16600 1.26100 34.81000
H  23.50000 0.27900 35.37800
H  22.61400 0.05700 33.80600
H  25.44400 3.67500 34.73900
H  26.85300 3.26300 33.78000
H  28.08900 2.81000 35.85700
H  26.73000 1.78300 36.34600
H  20.18500 1.76900 31.01900
H  19.59600 0.75800 29.64500
H  19.47600 2.55300 29.53400
H  18.63700 1.18900 26.03100
H  18.81800 2.21800 27.53000
H  19.04200 0.47200 27.57500
H  25.84200 1.57900 24.64100
H  27.47200 -0.82300 24.98800
H  25.62700 -1.10200 23.76500
H  24.49900 0.20200 23.42500
H  24.25500 -0.94800 24.83100
H  28.25100 2.02800 25.69900
H  27.90000 1.68700 23.98100
H  29.87700 1.28600 23.58400
H  29.71200 -0.21000 24.55600
H  30.26700 1.21700 25.40800
H  31.21500 -1.63300 28.95300
H  31.60000 -1.02600 30.48000
H  31.52700 0.09400 28.95400
H  28.53700 1.81300 33.73100
H  28.28100 -0.73400 37.24900
H  30.08600 -0.73800 37.37500
H  29.43800 -1.86000 36.39900
Mg 46.92000 16.96600 28.24200
C  44.94900 16.28900 30.98900
C  48.73400 19.16200 30.13900
C  48.38700 17.94100 25.40100
C  44.48100 15.25500 26.20200
N  46.80800 17.72600 30.39100
C  46.04300 17.11000 31.35600
C  46.44000 17.51400 32.77700
C  47.70300 18.43100 32.49100
C  47.77000 18.47000 30.94900
C  47.59000 19.81900 33.04900
C  46.77200 16.19300 33.61900
C  47.31200 16.29200 35.10600
H  46.74700 17.47600 35.86600
N  48.48600 18.24900 27.82000
C  48.98600 19.19100 28.70900
C  50.04900 19.97300 27.99300
C  50.06600 19.49300 26.59900
C  48.93800 18.53400 26.52500
C  50.76700 21.06000 28.65600
C  51.01100 19.88700 25.45100
O  50.88100 19.43500 24.37800
C  52.24300 20.81400 25.79600
N  46.38400 16.84500 26.04500
C  47.28500 17.15600 25.12200
C  46.91900 16.65500 23.68400
C  45.76200 15.70200 24.01600
C  45.50100 15.92100 25.53100
C  46.40400 17.84900 22.69800
C  46.12900 14.21600 23.60600
C  45.23600 13.38800 22.64400
N  45.10000 15.98500 28.47300
C  44.18700 15.37300 27.58900
C  43.01200 14.83200 28.32300
C  43.28900 15.20900 29.68400
C  44.56600 15.90600 29.70400
C  41.87700 13.95100 27.64000
C  42.77900 15.03200 31.06000
O  41.77800 14.57300 31.51100
C  43.78000 15.77700 31.95400
C  42.99000 16.90300 32.58200
O  42.62900 17.86700 31.94300
O  42.82600 16.73100 33.94100
C  42.05200 17.80400 34.55700
H  49.46100 19.71500 30.73600
H  48.95300 18.16800 24.49500
H  43.82700 14.79800 25.45700
H  45.64600 18.16500 33.14200
H  48.60000 18.08400 33.00300
H  47.22000 20.42000 32.21800
H  48.59000 20.19800 33.26300
H  46.92400 20.06600 33.87600
H  47.50700 15.60100 33.07400
H  45.92000 15.52900 33.76400
H  48.37200 16.53000 35.01400
H  47.06100 15.34900 35.59200
H  50.53500 21.24300 29.70500
H  50.64200 21.99400 28.10700
H  51.80000 20.72100 28.72900
H  52.69400 20.58800 26.76300
H  51.97100 21.86900 25.78800
H  53.00400 20.70300 25.02400
H  47.68500 16.07400 23.17100
H  44.89300 16.05300 23.46000
H  45.34700 17.68000 22.49000
H  47.00100 17.70200 21.79800
H  46.54300 18.81800 23.17700
H  46.29000 13.67500 24.53800
H  47.05400 14.20700 23.02800
H  44.73100 12.58000 23.17300
H  45.64300 12.84800 21.78800
H  44.49000 14.06900 22.23600
H  41.07200 13.67400 28.32100
H  42.34800 12.97700 27.50200
H  41.52900 14.19800 26.63700
H  44.12600 15.09400 32.73000
H  42.40000 17.71600 35.58600
H  40.97400 17.74400 34.40500
H  42.36400 18.80600 34.26300

