158

Mg 35.55800 0.51600 29.02200
C  33.41400 1.77800 31.57900
C  38.13100 0.80300 31.30900
C  37.58500 -0.15000 26.51600
C  32.83500 0.98800 26.80100
N  35.76400 1.24200 31.23600
C  34.76600 1.53600 32.09500
C  35.21000 1.65800 33.55400
C  36.79000 1.48200 33.45000
C  36.91300 1.18300 31.91300
C  37.50500 2.81900 33.71800
C  34.51400 0.57900 34.50000
C  34.56000 0.76600 36.06400
H  35.23200 2.07200 36.54200
N  37.59900 0.36700 28.90000
C  38.46800 0.50600 29.92100
C  39.85200 0.09800 29.43200
C  39.70500 -0.20900 27.98000
C  38.26200 0.04600 27.74900
C  40.98800 -0.00600 30.43200
C  40.63100 -0.68300 26.89200
O  40.28900 -1.08200 25.79900
C  42.01500 -0.90200 27.28900
N  35.17700 0.37900 26.93900
C  36.23500 0.11700 26.15000
C  35.82100 0.12800 24.63300
C  34.26600 0.48300 24.78500
C  34.04600 0.60900 26.29400
C  36.70700 1.18600 23.79700
C  33.33600 -0.57900 24.05700
C  33.05400 -1.89200 24.76500
N  33.51400 1.09200 29.14000
C  32.50600 1.22100 28.14000
C  31.20400 1.62200 28.69800
C  31.53200 1.88800 30.07400
C  32.93300 1.59300 30.24000
C  30.01700 1.81800 27.84300
C  31.01200 2.36900 31.32400
O  29.92000 2.71100 31.62900
C  32.16600 2.23600 32.36600
C  32.33500 3.45000 33.25500
O  33.03600 4.34200 32.90100
O  31.62100 3.27400 34.44800
C  31.73400 4.40300 35.40500
H  38.98600 0.80000 31.98800
H  38.13400 -0.45600 25.62300
H  32.10800 1.22500 26.02200
H  34.98200 2.66100 33.91500
H  37.01100 0.68500 34.15900
H  36.82900 3.67300 33.66300
H  38.31000 2.98400 33.00100
H  38.10000 2.94100 34.62400
H  35.14200 -0.24100 34.15400
H  33.46400 0.41400 34.25900
H  34.97600 -0.07500 36.62000
H  33.51300 0.86600 36.35200
H  41.94800 -0.29300 30.00400
H  40.70600 -0.77800 31.14700
H  41.06600 1.00600 30.82900
H  42.54800 -0.10100 27.80100
H  42.64500 -1.33800 26.51400
H  41.85000 -1.74400 27.96200
H  35.93700 -0.90300 24.29900
H  33.92900 1.45700 24.43000
H  37.07800 0.70500 22.89200
H  37.54900 1.52400 24.40200
H  36.05700 2.03800 23.60100
H  33.64300 -0.76200 23.02700
H  32.43700 0.03600 24.08800
H  32.03300 -1.92500 25.14600
H  33.67500 -2.02600 25.65000
H  33.31600 -2.65900 24.03600
H  30.14300 1.81500 26.76000
H  29.53200 2.74400 28.15200
H  29.23800 1.09100 28.07200
H  31.87000 1.48800 33.10200
H  31.23300 5.24000 34.91900
H  32.75300 4.78900 35.45000
H  31.16900 4.15900 36.30400
Mg 47.21500 35.02400 28.03300
C  45.48200 32.98800 30.22800
C  47.34900 37.52900 30.47900
C  48.21600 37.12900 25.63900
C  46.46100 32.67400 25.39400
N  46.54400 35.25900 30.07300
C  46.05300 34.16400 30.79500
C  46.24200 34.43600 32.31700
C  46.31400 36.01100 32.31100
C  46.68700 36.35300 30.85100
C  45.18700 36.87900 32.88900
C  47.50500 33.66900 32.82600
C  47.63000 33.52500 34.31700
H  46.67500 34.34100 35.23900
N  47.90600 36.95300 28.09100
C  47.82400 37.80200 29.21300
C  48.56900 39.06900 28.83400
C  48.76700 39.05400 27.42000
C  48.27100 37.69700 26.98700
C  49.08500 40.28300 29.84800
C  49.28300 40.10300 26.47500
O  49.31700 39.90800 25.28000
C  49.57900 41.53700 26.86400
N  47.41000 34.84200 25.82800
C  47.87000 35.86900 25.09200
C  47.85600 35.54700 23.62000
C  47.63800 34.03800 23.59600
C  47.01700 33.87200 24.98300
C  46.78100 36.37800 22.90500
C  48.88000 33.12200 23.43500
C  48.58900 31.75000 22.87300
N  46.09000 33.27200 27.81900
C  45.98500 32.41600 26.75000
C  45.42200 31.12300 27.22600
C  45.12600 31.33600 28.58200
C  45.51300 32.65300 28.85900
C  45.17200 29.84200 26.40300
C  44.51300 30.80200 29.78700
O  44.13000 29.65700 30.00700
C  44.49400 31.87200 30.80600
C  45.09300 31.31900 32.02600
O  46.13100 30.71600 32.12100
O  44.28800 31.65300 33.08800
C  44.67800 31.07400 34.44200
H  47.47300 38.32100 31.22100
H  48.45800 37.93600 24.94400
H  46.25100 31.94100 24.61200
H  45.34600 34.09700 32.83500
H  47.15600 36.23900 32.96300
H  44.35200 36.23800 33.17200
H  44.88000 37.53500 32.07500
H  45.56400 37.51400 33.69100
H  48.45700 34.07100 32.48000
H  47.60300 32.65800 32.43200
H  48.62600 33.80500 34.65800
H  47.71300 32.49100 34.65200
H  50.15800 40.47100 29.81600
H  48.97700 39.90700 30.86600
H  48.44900 41.12400 29.57400
H  50.35600 41.61800 27.62400
H  48.59100 41.87500 27.17500
H  49.92200 42.13000 26.01600
H  48.81100 35.77300 23.14600
H  46.90000 33.85800 22.81400
H  47.27700 36.84100 22.05200
H  46.40200 37.30100 23.34300
H  45.94300 35.83600 22.46500
H  49.36500 32.99400 24.40300
H  49.50200 33.58600 22.67000
H  47.56100 31.38700 22.87600
H  49.05000 30.96100 23.46700
H  48.98600 31.64900 21.86300
H  45.66000 29.89200 25.43000
H  44.10800 29.62100 26.31700
H  45.60300 28.98900 26.92800
H  43.49500 32.22900 31.05700
H  44.16000 31.57700 35.25900
H  45.75500 31.18500 34.57300
H  44.40900 30.03100 34.60800

