158

Mg 35.11900 2.25300 29.04400
C  33.16000 3.53000 31.63200
C  37.74400 2.45500 31.27200
C  37.22600 1.38000 26.46900
C  32.51300 2.63400 26.85100
N  35.38300 3.02800 31.20200
C  34.48300 3.33700 32.08200
C  34.95100 3.53100 33.54500
C  36.49400 3.30600 33.33400
C  36.54200 2.92600 31.84700
C  37.40600 4.49100 33.69800
C  34.29100 2.63400 34.59600
C  34.20100 3.29000 36.04400
H  35.40800 4.00000 36.56400
N  37.18300 1.82800 28.86800
C  38.07100 2.03700 29.92600
C  39.36300 1.58100 29.51300
C  39.29300 1.33000 28.13500
C  37.89200 1.49900 27.72200
C  40.44800 1.58900 30.42300
C  40.41100 0.98100 27.15000
O  40.13400 0.88900 25.96600
C  41.78900 0.81200 27.72700
N  34.96700 2.21000 26.95500
C  35.91900 1.72900 26.05100
C  35.48900 1.80600 24.62600
C  33.91500 1.76600 24.86200
C  33.79000 2.34600 26.31800
C  36.10100 2.99700 23.96400
C  33.22000 0.37500 24.76800
C  31.94600 0.26800 24.00600
N  33.25900 2.90600 29.17500
C  32.22800 2.90300 28.23200
C  30.93200 3.25000 28.82800
C  31.26200 3.47700 30.16500
C  32.70000 3.35000 30.29600
C  29.68000 3.30300 28.16500
C  30.72700 3.77100 31.40900
O  29.52800 3.98600 31.62800
C  31.88800 3.81400 32.42200
C  31.92000 5.19900 33.08500
O  32.33400 6.15300 32.55300
O  31.50400 5.14000 34.37300
C  31.62900 6.43100 35.03100
H  38.48800 2.39900 32.06900
H  37.87500 1.36400 25.59100
H  31.60500 2.63300 26.24500
H  34.65700 4.55800 33.76000
H  36.84900 2.41100 33.84500
H  38.13700 4.68700 32.91400
H  38.09700 4.21100 34.49300
H  36.75500 5.32800 33.95400
H  34.94000 1.76700 34.72000
H  33.28900 2.28000 34.35600
H  34.05100 2.49900 36.77900
H  33.42300 4.05300 36.03100
H  40.81400 2.61500 30.40300
H  41.35900 1.03600 30.19100
H  40.21500 1.24500 31.43100
H  41.77600 -0.00800 28.44300
H  42.20700 1.70300 28.19700
H  42.56200 0.46100 27.04300
H  35.75700 0.84700 24.18300
H  33.46200 2.47000 24.16400
H  35.30300 3.46000 23.38300
H  36.87800 2.63400 23.29200
H  36.58700 3.70200 24.63800
H  33.01200 0.07200 25.79400
H  33.90400 -0.45600 24.59600
H  31.64300 1.19100 23.51100
H  31.32600 0.09300 24.88600
H  32.00800 -0.63500 23.39900
H  29.28300 4.31500 28.23300
H  28.99100 2.69700 28.75500
H  29.79900 2.81000 27.20000
H  31.82500 3.10800 33.25000
H  30.76300 6.32700 35.68500
H  31.47300 7.33300 34.44000
H  32.51800 6.55000 35.65000
Mg 5.98800 53.44900 40.74100
C  5.67800 49.87700 40.75300
C  8.87000 52.99600 39.09800
C  5.65500 56.52900 39.52800
C  2.56200 53.49200 41.73100
N  7.07200 51.65900 39.99000
C  6.83300 50.35700 40.16000
C  7.92600 49.47400 39.51700
C  9.08100 50.47300 39.60000
C  8.33200 51.81900 39.56300
C  10.06000 50.37800 40.75800
C  7.64600 48.99400 38.00400
C  6.68200 49.82200 37.15700
H  7.14800 51.04800 36.47700
N  7.20600 54.72800 39.66200
C  8.38500 54.32000 39.01100
C  8.96800 55.36700 38.21400
C  8.00000 56.40200 38.33900
C  6.84300 55.93100 39.17400
C  10.46500 55.33600 37.62900
C  8.14200 57.74700 37.59400
O  9.00700 57.95000 36.75100
C  7.12200 58.81800 37.76300
N  4.26100 54.80500 40.56900
C  4.42200 56.07900 40.13700
C  3.23900 57.02200 40.41900
C  2.23600 55.97100 41.02600
C  3.04600 54.66700 41.14100
C  3.65000 58.25100 41.24300
C  0.96100 55.73200 40.21400
C  -0.29500 55.48800 41.10600
N  4.48500 52.02800 41.46700
C  3.21200 52.25600 41.85400
C  2.70300 51.03900 42.43700
C  3.57800 50.02200 41.90600
C  4.67300 50.70900 41.35100
C  1.38800 50.87700 43.19900
C  3.83300 48.60600 41.77900
O  3.26400 47.66000 42.31700
C  5.19600 48.48700 40.98400
C  4.75600 47.77300 39.80000
O  4.05200 48.20600 38.88200
O  5.28100 46.47900 39.87700
C  4.98500 45.59300 38.76200
H  9.84400 52.83800 38.63100
H  5.50600 57.57100 39.23700
H  1.53100 53.48800 42.09100
H  8.07800 48.61800 40.17400
H  9.63100 50.38100 38.66400
H  11.01700 49.95700 40.45200
H  9.72600 49.71000 41.55100
H  10.30500 51.36300 41.15600
H  7.31300 47.95600 38.01900
H  8.61300 49.06600 37.50500
H  5.82200 50.11700 37.75900
H  6.33600 49.11500 36.40300
H  10.97000 54.37500 37.72700
H  11.02200 56.15000 38.09300
H  10.49500 55.50800 36.55300
H  6.97000 59.04900 38.81700
H  6.20300 58.42600 37.32700
H  7.58800 59.64300 37.22400
H  2.82200 57.25900 39.44000
H  2.14200 56.21300 42.08400
H  2.93900 58.31300 42.06700
H  3.52300 59.08200 40.54900
H  4.70300 58.34900 41.50800
H  1.06200 54.90500 39.51200
H  0.75500 56.55600 39.53000
H  -0.09000 55.30900 42.16100
H  -0.82600 54.62500 40.70700
H  -0.84500 56.41800 40.96000
H  0.95200 51.83100 43.49400
H  1.36100 50.11500 43.97800
H  0.69800 50.53700 42.42600
H  5.87300 47.86500 41.56900
H  5.33800 45.94200 37.79100
H  3.92900 45.32500 38.76800
H  5.51300 44.64600 38.88000

