158

Mg 3.01300 -0.68300 43.66000
C  6.31000 0.39700 43.25900
C  1.90100 2.09400 41.84600
C  -0.07000 -2.10400 43.41500
C  4.18900 -3.60800 45.03800
N  3.95700 0.91700 42.43400
C  5.30500 1.22000 42.56800
C  5.50800 2.63500 42.14600
C  4.18500 3.28700 42.06000
C  3.27400 2.02600 42.17900
C  3.86200 4.37400 43.14600
C  6.33900 2.78800 40.84000
C  5.81700 2.18600 39.54800
H  5.71700 3.16700 38.38300
N  1.08900 -0.02700 42.83600
C  0.85400 1.15400 42.16600
C  -0.54100 1.23100 41.83700
C  -1.17600 -0.05300 42.24700
C  -0.07600 -0.78200 42.94500
C  -1.11800 2.47700 41.21200
C  -2.56100 -0.44000 41.95200
O  -3.28900 0.32400 41.39500
C  -3.08000 -1.85100 42.23400
N  2.22300 -2.69100 44.04300
C  0.92600 -2.99700 43.95900
C  0.65600 -4.47600 44.13800
C  2.01000 -4.94300 44.69900
C  2.89700 -3.69800 44.59600
C  -0.57900 -4.78300 44.97300
C  2.74500 -6.13800 43.85900
C  3.59700 -7.08100 44.67800
N  4.94100 -1.52300 44.13600
C  5.23000 -2.55500 44.86200
C  6.64700 -2.61600 45.10500
C  7.12000 -1.46800 44.48500
C  6.01300 -0.80200 43.94500
C  7.33700 -3.64500 45.84400
C  8.27200 -0.66500 44.24500
O  9.46800 -0.82700 44.55700
C  7.80800 0.64600 43.43600
C  8.16100 1.86800 44.22500
O  8.79700 2.83700 43.83200
O  7.98400 1.64500 45.59400
C  8.56800 2.65400 46.45300
H  1.57000 2.96000 41.26900
H  -1.04400 -2.59900 43.39400
H  4.45000 -4.56200 45.50100
H  6.02600 3.10600 42.98200
H  4.09600 3.86600 41.14100
H  3.40600 5.19600 42.59300
H  4.76100 4.71800 43.65700
H  3.10700 4.05400 43.86400
H  7.28500 2.27600 41.01200
H  6.66400 3.80200 40.60800
H  4.82300 1.77600 39.72400
H  6.44800 1.32400 39.33400
H  -0.87700 2.52200 40.15000
H  -0.75500 3.38800 41.68800
H  -2.19300 2.57800 41.36400
H  -4.04700 -1.92900 41.73700
H  -3.19700 -2.08600 43.29200
H  -2.41500 -2.53300 41.70400
H  0.57500 -4.93700 43.15300
H  1.87600 -5.28200 45.72600
H  -1.16300 -3.92400 45.30200
H  -0.23200 -5.30300 45.86500
H  -1.28500 -5.38100 44.39700
H  3.29500 -5.80200 42.98000
H  2.02800 -6.80200 43.37500
H  3.30300 -8.11900 44.52700
H  3.66800 -6.82600 45.73600
H  4.61700 -7.06100 44.29300
H  7.57300 -4.56200 45.30500
H  6.60000 -3.92400 46.59700
H  8.21300 -3.21600 46.33100
H  8.34600 0.69200 42.48900
H  9.65700 2.68500 46.45300
H  8.28200 2.55500 47.50100
H  8.11500 3.59600 46.14400
Mg 46.44600 44.49800 43.75500
C  43.06100 44.14700 43.47000
C  46.77500 41.10600 43.21100
C  49.79000 44.87200 43.46900
C  45.97500 47.92100 43.77500
N  45.01900 42.75500 43.69300
C  43.72600 42.95000 43.31500
C  43.04100 41.59000 42.96100
C  44.19800 40.52200 43.05200
C  45.41100 41.45000 43.40300
C  43.98200 39.31200 44.05800
C  42.26100 41.56700 41.62200
C  42.88900 42.22600 40.38100
H  42.84500 41.36600 39.07600
N  48.09200 43.19600 43.43400
C  47.97800 41.85000 43.27100
C  49.30900 41.29100 43.17900
C  50.24200 42.33400 43.24700
C  49.36800 43.53700 43.46500
C  49.59300 39.81000 43.02700
C  51.73400 42.13200 43.22700
O  52.27200 40.98500 43.09600
C  52.72400 43.19500 43.30000
N  47.72300 46.12900 43.63900
C  49.08300 46.06900 43.59700
C  49.73200 47.48500 43.54800
C  48.45200 48.43400 43.59200
C  47.28600 47.43900 43.72900
C  50.74100 47.66700 44.75400
C  48.31500 49.29700 42.31100
C  49.32700 50.48300 42.27400
N  44.81500 45.82100 43.87800
C  44.78700 47.17900 43.82800
C  43.42400 47.64800 43.90100
C  42.71200 46.49900 43.72800
C  43.62200 45.41700 43.66400
C  43.02800 49.09300 44.02400
C  41.38700 45.92200 43.66400
O  40.27100 46.44800 43.81400
C  41.53100 44.38600 43.32000
C  40.71700 43.63800 44.33700
O  39.68000 43.06300 44.03300
O  41.22700 43.74200 45.63900
C  40.33500 43.20200 46.64800
H  46.85200 40.04200 42.97800
H  50.87100 44.96600 43.35100
H  45.90400 49.01100 43.80400
H  42.33600 41.31600 43.74600
H  44.35100 40.02600 42.09300
H  42.99000 39.11000 44.46100
H  44.64200 39.55400 44.89100
H  44.33500 38.39400 43.58700
H  41.29400 42.06100 41.72600
H  41.85600 40.57200 41.44000
H  43.95900 42.35200 40.54800
H  42.46800 43.22300 40.24900
H  50.13800 39.63400 42.10000
H  48.73800 39.13500 43.07000
H  50.15600 39.40700 43.86900
H  52.47000 43.92100 42.52800
H  53.68200 42.67700 43.25600
H  52.60300 43.74600 44.23200
H  50.39400 47.56200 42.68600
H  48.49100 48.96600 44.54200
H  51.77300 47.73600 44.41000
H  50.65300 46.77200 45.37000
H  50.57500 48.54000 45.38400
H  47.34300 49.74200 42.09700
H  48.50300 48.68600 41.42800
H  48.75500 51.41000 42.24800
H  49.95300 50.30000 41.40100
H  50.07000 50.42800 43.07000
H  42.34700 49.16200 44.87200
H  42.62600 49.47400 43.08500
H  43.86500 49.73600 44.29600
H  41.28500 44.13700 42.28800
H  40.25500 42.11600 46.59400
H  39.34800 43.66000 46.58200
H  40.70000 43.58000 47.60300

