158

Mg -1.74100 16.77900 26.25100
C  -2.46600 14.34300 28.66400
C  -2.49000 19.19700 28.38400
C  -1.82700 18.92900 23.56400
C  -1.19100 14.09400 23.97200
N  -2.65600 16.70800 28.23400
C  -2.62600 15.67400 29.13100
C  -2.71500 16.21700 30.58700
C  -2.88100 17.76100 30.38700
C  -2.75800 17.89400 28.86400
C  -4.01500 18.46500 30.99100
C  -1.52800 15.79000 31.55000
C  -1.20000 16.64200 32.79100
H  -0.86200 15.76200 34.06400
N  -2.02700 18.77300 25.97500
C  -2.33100 19.63600 26.98700
C  -2.34500 21.02000 26.54000
C  -2.10800 20.91700 25.11100
C  -1.99700 19.54000 24.81900
C  -2.49700 22.19200 27.56800
C  -1.95900 21.97100 24.15100
O  -1.95000 21.74200 22.92900
C  -1.79600 23.32000 24.59400
N  -1.66000 16.51900 24.03000
C  -1.65400 17.58000 23.17600
C  -1.35800 17.20300 21.75000
C  -0.97400 15.65900 21.93300
C  -1.17200 15.37500 23.45700
C  -2.52900 17.48500 20.79600
C  0.49200 15.31700 21.59300
C  1.59300 15.73500 22.59700
N  -1.85200 14.62400 26.22700
C  -1.57900 13.74200 25.28000
C  -1.79600 12.40600 25.72000
C  -2.07200 12.56100 27.09600
C  -2.10800 13.96500 27.36500
C  -1.69700 11.12400 24.84400
C  -2.39900 11.86800 28.33500
O  -2.52600 10.67500 28.60100
C  -2.48300 12.96800 29.45000
C  -1.19800 12.75900 30.20000
O  -0.08600 13.02000 29.80800
O  -1.54700 12.23400 31.41900
C  -0.38000 11.97700 32.28200
H  -2.59200 20.00100 29.11700
H  -1.71900 19.51100 22.64700
H  -0.91100 13.31800 23.25700
H  -3.66500 15.75000 30.84700
H  -2.09800 18.40700 30.78400
H  -3.77000 19.17700 31.77900
H  -4.75500 17.78700 31.41800
H  -4.49100 19.13500 30.27600
H  -0.57200 15.73700 31.02900
H  -1.78600 14.82400 31.98300
H  -1.94400 17.39000 33.06600
H  -0.23400 17.07600 32.53400
H  -2.93300 21.84800 28.50600
H  -3.04800 23.04100 27.16300
H  -1.51100 22.51100 27.90600
H  -1.37500 23.87200 23.75300
H  -1.07500 23.36400 25.40900
H  -2.72200 23.78300 24.93400
H  -0.50900 17.81200 21.44100
H  -1.67600 15.02700 21.38800
H  -3.34200 17.88800 21.39900
H  -2.89300 16.58800 20.29600
H  -2.21000 18.18700 20.02600
H  0.76300 15.80000 20.65400
H  0.61200 14.25100 21.39600
H  2.01800 14.85000 23.07200
H  1.29800 16.42300 23.38900
H  2.39300 16.24100 22.05800
H  -2.62800 10.72600 24.44000
H  -1.15700 10.43600 25.49400
H  -1.05700 11.28700 23.97600
H  -3.32800 12.96600 30.13900
H  -0.87600 11.61100 33.18100
H  0.27700 12.84700 32.28300
H  0.14800 11.07300 31.97900
Mg 36.00200 49.89300 25.84600
C  36.46200 48.05500 28.80800
C  35.11200 52.50400 27.64500
C  35.24000 51.22800 22.86700
C  37.15400 46.89800 24.03600
N  35.66700 50.09500 27.96500
C  35.92200 49.33000 29.02800
C  35.58300 49.93000 30.40100
C  35.03400 51.33700 29.90400
C  35.28000 51.32200 28.40200
C  33.60600 51.68800 30.33000
C  36.80400 50.03700 31.36500
C  36.65800 49.73100 32.86900
H  35.31600 49.50900 33.54100
N  35.32600 51.62600 25.34400
C  35.09800 52.67300 26.22200
C  34.80100 53.81500 25.44400
C  34.74200 53.45800 24.07700
C  35.04500 52.01500 24.06500
C  34.67300 55.14900 26.12900
C  34.51400 54.31500 22.85900
O  34.47000 53.84900 21.71500
C  34.32700 55.77900 22.86200
N  36.08800 49.12600 23.73400
C  35.78000 49.97300 22.74100
C  36.11500 49.33300 21.38600
C  37.08500 48.15700 21.76900
C  36.71900 47.97800 23.25300
C  34.81700 48.90400 20.64300
C  38.63500 48.54200 21.63900
C  39.63600 47.34700 21.76500
N  36.73500 47.90600 26.24500
C  37.14600 46.82500 25.44500
C  37.60000 45.76100 26.29000
C  37.30900 46.21200 27.59500
C  36.80700 47.50300 27.52000
C  38.30300 44.48400 25.88400
C  37.34900 45.77200 29.00600
O  37.60100 44.67100 29.54500
C  36.82000 47.00200 29.85700
C  35.70600 46.57500 30.69400
O  34.57600 46.33200 30.32100
O  36.15600 46.18600 31.95900
C  35.15300 45.52900 32.84700
H  34.92900 53.37600 28.27500
H  35.11000 51.71700 21.89900
H  37.61700 46.10000 23.45100
H  34.81400 49.29700 30.84400
H  35.67600 52.13700 30.27300
H  33.16800 50.84300 30.86100
H  32.99600 51.65900 29.42800
H  33.55300 52.67500 30.79100
H  37.27100 51.01300 31.23900
H  37.57300 49.36800 30.97800
H  37.14100 50.53800 33.42000
H  37.27500 48.87100 33.12900
H  35.53400 55.78800 25.93000
H  34.53300 55.14200 27.21000
H  33.73800 55.62800 25.84000
H  34.83600 56.22500 23.71700
H  33.26500 55.96200 23.02300
H  34.74100 56.18100 21.93700
H  36.52600 50.13800 20.77600
H  36.82900 47.21100 21.29300
H  34.78100 49.51300 19.74000
H  33.92800 49.31100 21.12500
H  34.71700 47.88400 20.27300
H  38.80800 49.25200 22.44800
H  38.81400 49.06900 20.70100
H  39.03000 46.47100 21.53300
H  40.20300 47.43300 22.69200
H  40.26600 47.60900 20.91500
H  38.99600 44.66100 25.06100
H  37.58500 43.73400 25.55200
H  38.88800 44.09700 26.71900
H  37.53100 47.38400 30.58900
H  34.82300 44.56500 32.46100
H  34.23400 46.07600 33.05700
H  35.51100 45.37100 33.86400

