158

Mg 6.79600 55.08400 42.56500
C  6.20000 51.49900 42.00600
C  9.50100 54.73800 40.61300
C  6.79400 58.38800 42.45200
C  3.33100 55.08400 43.70700
N  7.70100 53.20700 41.51000
C  7.25100 51.97400 41.30600
C  8.23200 51.20800 40.45500
C  9.49100 52.11800 40.37700
C  8.89000 53.45500 40.86100
C  10.66200 51.61200 41.18100
C  7.59400 50.89100 39.08600
C  8.05500 49.57300 38.39400
H  7.09600 49.13300 37.27400
N  8.13600 56.39500 41.91200
C  9.15500 56.08200 41.08100
C  9.83000 57.27000 40.75900
C  9.16300 58.34400 41.33200
C  7.97600 57.74000 41.95900
C  11.10300 57.27300 39.93400
C  9.56100 59.83400 41.29800
O  10.48500 60.25900 40.63400
C  8.87400 60.82900 42.26300
N  5.26200 56.51500 42.93800
C  5.57600 57.85400 42.95900
C  4.30000 58.69800 43.17600
C  3.24100 57.67000 43.51200
C  3.96800 56.32100 43.47300
C  4.53100 59.84300 44.24500
C  1.97400 57.64600 42.60000
C  0.65800 57.57600 43.33500
N  5.15900 53.65700 42.99700
C  3.91400 53.79700 43.54800
C  3.44500 52.55800 43.92000
C  4.27800 51.61500 43.33400
C  5.29300 52.32000 42.72600
C  2.15500 52.26000 44.67600
C  4.45800 50.20700 43.11200
O  3.82000 49.26900 43.49600
C  5.74000 50.08200 42.21000
C  5.37900 49.30600 40.99800
O  4.86200 49.66500 40.00300
O  5.77800 48.04900 41.24300
C  5.68200 47.06000 40.23500
H  10.32800 54.75200 39.90000
H  6.76700 59.47700 42.38000
H  2.27800 55.11500 43.99400
H  8.51300 50.23200 40.85200
H  9.90300 52.25200 39.37600
H  11.55800 51.55400 40.56300
H  10.48400 50.72100 41.78300
H  10.95300 52.37900 41.89800
H  7.95000 51.72700 38.48400
H  6.51200 51.01900 39.09900
H  8.15600 48.73100 39.07800
H  9.04400 49.71700 37.96100
H  10.72800 57.36500 38.91500
H  11.68500 56.35700 40.02900
H  11.69700 58.15000 40.19300
H  8.58300 60.39800 43.22000
H  7.96100 61.10800 41.73800
H  9.44700 61.70300 42.57300
H  4.00200 59.10900 42.21200
H  3.02000 57.91500 44.55100
H  5.41600 59.66600 44.85600
H  3.68400 60.01400 44.90900
H  4.51700 60.77000 43.67100
H  2.05800 56.79000 41.93100
H  1.94800 58.62900 42.12900
H  0.10400 58.45500 43.00400
H  0.61800 57.56800 44.42400
H  0.11100 56.67900 43.04400
H  2.12400 51.46200 45.41700
H  1.53700 51.90000 43.85300
H  1.61500 53.12900 45.05200
H  6.39600 49.47100 42.83000
H  6.61000 47.03800 39.66600
H  4.92800 47.29200 39.48200
H  5.50700 46.05100 40.60900
Mg -2.75200 33.99600 26.61100
C  -3.92400 32.16500 29.44200
C  -1.17700 36.07000 28.57400
C  -2.12400 35.71000 23.83700
C  -4.76800 31.77600 24.74400
N  -2.60300 34.09100 28.80000
C  -2.98300 33.20900 29.74600
C  -2.54200 33.57100 31.13800
C  -1.63500 34.83700 30.80700
C  -1.84700 35.07700 29.29900
C  -1.96400 36.15900 31.63400
C  -1.91800 32.32500 31.94400
C  -2.52300 32.10500 33.29600
H  -1.52700 31.96200 34.43300
N  -1.70800 35.60200 26.23500
C  -1.05500 36.37700 27.21000
C  -0.30900 37.43500 26.59200
C  -0.61000 37.40200 25.17500
C  -1.52800 36.23200 25.01500
C  0.60900 38.35700 27.32800
C  -0.28500 38.32800 24.04800
O  -0.79100 38.41900 22.92000
C  0.80400 39.37600 24.34200
N  -3.46200 33.79500 24.61100
C  -2.96200 34.61700 23.59400
C  -3.28000 34.04200 22.15700
C  -3.97300 32.68200 22.54200
C  -4.08300 32.76000 24.06600
C  -4.14700 34.98900 21.26100
C  -3.17900 31.50400 22.04100
C  -1.76500 31.39700 22.71400
N  -4.16300 32.34800 26.95100
C  -4.85400 31.52800 26.13000
C  -5.64000 30.57900 26.86800
C  -5.30800 30.85400 28.15500
C  -4.34400 31.85500 28.16100
C  -6.53000 29.56400 26.28700
C  -5.59600 30.39300 29.46900
O  -6.33400 29.53600 29.95000
C  -4.64700 31.22600 30.35700
C  -5.46700 31.90000 31.38200
O  -6.06600 32.97700 31.24200
O  -5.69700 31.11800 32.48000
C  -6.57800 31.71900 33.47900
H  -0.56100 36.64100 29.27200
H  -1.92600 36.17300 22.86800
H  -5.39500 31.04900 24.22400
H  -3.38400 34.01200 31.67200
H  -0.59200 34.68000 31.08000
H  -2.59100 36.77900 30.99400
H  -1.05700 36.66500 31.96500
H  -2.48300 36.04700 32.58600
H  -0.85400 32.53400 32.04900
H  -1.91200 31.46000 31.28100
H  -3.07600 31.16700 33.24100
H  -3.20300 32.86300 33.68400
H  0.42900 38.44100 28.40000
H  0.43500 39.37700 26.98600
H  1.64500 38.09600 27.11200
H  1.67500 38.86200 24.74700
H  0.54800 40.17600 25.03800
H  1.02100 39.82900 23.37500
H  -2.32200 33.88300 21.66000
H  -5.01100 32.58800 22.22300
H  -3.89300 36.02200 21.49800
H  -5.17700 34.77200 21.54400
H  -3.91500 34.87900 20.20200
H  -2.94700 31.53500 20.97700
H  -3.70700 30.61000 22.37300
H  -1.62900 32.25000 23.37900
H  -1.06700 31.35500 21.87900
H  -1.82500 30.49100 23.31700
H  -6.37600 29.42200 25.21700
H  -7.50100 29.98600 26.54900
H  -6.47300 28.54100 26.66000
H  -3.97100 30.58800 30.92600
H  -7.49500 32.04900 32.99200
H  -6.22900 32.55200 34.08900
H  -6.72500 30.83000 34.09300

