158

Mg 34.95100 3.21700 30.39600
C  32.70500 4.38800 32.75200
C  37.36600 2.97600 32.72100
C  36.97000 2.02700 27.98400
C  32.40200 3.62900 27.92400
N  34.89700 3.49700 32.51900
C  33.91300 3.98900 33.31700
C  34.28200 3.87400 34.80800
C  35.87100 3.76300 34.76800
C  36.06200 3.39000 33.21300
C  36.63500 5.06100 35.11600
C  33.57300 2.69200 35.51700
C  33.74100 2.59900 37.00300
H  34.57800 3.52400 37.82700
N  36.91100 2.71100 30.37100
C  37.74600 2.59800 31.46500
C  39.09400 2.13000 31.01600
C  38.92700 1.86400 29.62500
C  37.56400 2.24400 29.23200
C  40.26500 2.05800 31.97600
C  40.02200 1.32100 28.65000
O  39.88500 1.27900 27.41200
C  41.26800 0.76200 29.14300
N  34.66700 2.72900 28.24500
C  35.65700 2.20400 27.49600
C  35.19500 1.87800 26.07800
C  33.73400 2.51500 26.06200
C  33.55600 3.05300 27.50100
C  35.99900 2.32900 24.93600
C  32.61200 1.56800 25.52600
C  32.10400 1.77200 24.08000
N  32.90700 3.82000 30.32800
C  32.03400 4.02300 29.24100
C  30.77200 4.46000 29.77300
C  30.96400 4.67800 31.14100
C  32.30800 4.29600 31.44100
C  29.60300 4.78000 28.95900
C  30.34800 5.16700 32.36900
O  29.22000 5.48300 32.64400
C  31.48800 4.82800 33.45900
C  31.74500 6.03400 34.26700
O  32.00900 7.14300 33.88400
O  31.45700 5.75900 35.57400
C  31.51700 6.90100 36.59300
H  38.16800 2.84700 33.45100
H  37.57500 1.49100 27.25000
H  31.62100 3.81600 27.18500
H  33.89700 4.76200 35.30900
H  36.24300 2.94000 35.37900
H  35.98200 5.93200 35.06400
H  37.37400 5.19300 34.32600
H  37.22600 4.89700 36.01700
H  34.11600 1.80300 35.19500
H  32.54300 2.59100 35.17500
H  33.96600 1.57400 37.29600
H  32.73700 2.84100 37.35300
H  41.15300 2.49600 31.52100
H  40.58700 1.07000 32.30700
H  40.16500 2.73100 32.82800
H  40.98000 0.01000 29.87800
H  41.91900 1.51100 29.59400
H  41.76300 0.11300 28.42000
H  35.18500 0.79400 26.20000
H  33.74100 3.39600 25.42000
H  36.65200 3.18500 25.10400
H  35.35000 2.53400 24.08400
H  36.68600 1.49400 24.80100
H  31.76300 1.38600 26.18500
H  33.05600 0.57300 25.49400
H  32.45600 0.83400 23.65100
H  32.62900 2.64900 23.70300
H  31.03900 1.92600 23.90500
H  29.02000 3.88800 28.73100
H  29.99700 5.12000 28.00200
H  29.05000 5.67000 29.26200
H  31.21400 4.02600 34.14400
H  30.93300 6.63600 37.47500
H  31.17900 7.84400 36.16500
H  32.52900 7.06000 36.96600
Mg 47.33300 15.81900 27.33300
C  45.56100 16.07600 30.35700
C  49.94500 17.68500 28.90000
C  49.10200 15.89400 24.50400
C  44.68000 14.33400 25.80600
N  47.80100 16.52500 29.56400
C  46.84700 16.56200 30.56100
C  47.49200 17.11400 31.82600
C  48.79000 17.83200 31.23200
C  48.88600 17.31500 29.79000
C  48.84100 19.42500 31.30500
C  47.69700 16.10400 33.01300
C  47.24400 16.54200 34.42600
H  47.23300 18.04600 34.85700
N  49.31600 16.71500 26.77300
C  50.13900 17.40500 27.54800
C  51.37300 17.59700 26.85700
C  51.15100 17.17600 25.50900
C  49.81400 16.60600 25.48500
C  52.53600 18.28700 27.51300
C  52.08900 17.21800 24.31400
O  51.77900 16.72900 23.21800
C  53.40900 17.96500 24.41500
N  46.97800 15.03700 25.45700
C  47.93300 15.20600 24.45300
C  47.33700 14.49100 23.16300
C  45.90500 13.89900 23.54500
C  45.84100 14.38100 25.03500
C  47.16900 15.32600 21.85500
C  45.84200 12.34400 23.54800
C  45.34000 11.71000 22.23600
N  45.50200 15.30300 27.89100
C  44.50500 14.73300 27.14800
C  43.27900 14.68800 27.96000
C  43.67000 15.05500 29.25600
C  45.02100 15.53100 29.15400
C  41.88800 14.24400 27.48600
C  43.25500 15.29600 30.56700
O  42.16200 14.99300 31.04700
C  44.48300 15.80500 31.35200
C  44.10500 16.93200 32.22400
O  44.16600 18.11100 31.92000
O  43.54700 16.46500 33.38300
C  43.36400 17.50100 34.42100
H  50.63900 18.39500 29.35500
H  49.66100 15.86500 23.56600
H  43.78100 13.97600 25.30100
H  46.94200 17.95600 32.24700
H  49.66800 17.60000 31.83500
H  47.97000 19.80700 31.83800
H  48.91600 19.80800 30.28700
H  49.76400 19.79900 31.74700
H  48.74000 15.78800 33.00700
H  47.10400 15.26100 32.66000
H  47.84100 15.98000 35.14400
H  46.25500 16.17900 34.70700
H  52.77600 17.55200 28.28200
H  52.27900 19.27500 27.89500
H  53.43500 18.59200 26.97800
H  53.31300 18.98200 24.79500
H  53.80600 18.04900 23.40400
H  54.14400 17.36200 24.95000
H  47.95000 13.64800 22.84600
H  45.06400 14.39700 23.06200
H  47.87300 16.15800 21.89400
H  46.23200 15.88200 21.85400
H  47.40300 14.77400 20.94400
H  45.22900 11.99300 24.37800
H  46.83900 11.94100 23.72500
H  44.40600 11.18400 22.43400
H  46.07900 11.04300 21.79100
H  45.06900 12.47300 21.50600
H  41.06600 14.50800 28.15100
H  42.03400 13.16400 27.44400
H  41.66100 14.66500 26.50700
H  44.76100 14.96900 31.99400
H  44.20200 17.25800 35.07300
H  42.40900 17.41900 34.94000
H  43.42500 18.56700 34.20100

