158

Mg 46.93500 34.17900 27.25100
C  45.36100 32.58500 29.96200
C  46.96900 37.14900 29.01500
C  47.72900 35.78100 24.46400
C  45.93800 31.38800 25.28300
N  46.20000 34.74400 29.29100
C  45.87000 33.89700 30.32000
C  46.07400 34.55700 31.64700
C  46.16600 36.11400 31.26800
C  46.45700 36.03300 29.75400
C  44.85500 36.93300 31.62400
C  47.32500 33.99400 32.39200
C  47.37100 34.13000 33.91000
H  46.54900 35.26900 34.63300
N  47.39800 36.18200 26.84100
C  47.41500 37.24700 27.66700
C  47.90800 38.45900 27.01000
C  48.27100 38.06100 25.71300
C  47.86000 36.60900 25.62400
C  48.01300 39.75400 27.77100
C  48.77400 38.87800 24.54100
O  49.10500 38.44500 23.51100
C  48.91700 40.38400 24.77800
N  46.77900 33.68000 25.21400
C  47.26300 34.51300 24.23400
C  47.26800 33.90800 22.83100
C  46.86400 32.48100 23.19000
C  46.48400 32.53700 24.63500
C  46.40000 34.47200 21.63300
C  47.91100 31.45100 22.83200
C  47.55500 30.83200 21.52200
N  46.03500 32.26000 27.56100
C  45.63800 31.29500 26.64700
C  45.15900 30.15600 27.39500
C  45.01500 30.63800 28.69600
C  45.47100 31.95600 28.73000
C  44.80700 28.77600 26.86500
C  44.56400 30.27300 29.94200
O  44.26300 29.18400 30.40500
C  44.51300 31.56000 30.84100
C  44.79400 31.53100 32.29400
O  45.75200 30.98100 32.80800
O  43.80800 32.10300 33.01500
C  43.94800 32.01800 34.47800
H  46.98000 38.02700 29.66400
H  47.90600 36.34300 23.54500
H  45.58100 30.52700 24.71500
H  45.21600 34.39500 32.30100
H  47.05700 36.52500 31.74300
H  43.99600 36.35200 31.96300
H  44.47900 37.45900 30.74600
H  45.07800 37.66500 32.39900
H  48.28600 34.41600 32.10000
H  47.22000 32.95000 32.09600
H  48.37600 34.29200 34.30100
H  46.97700 33.14800 34.17300
H  49.08800 39.91300 27.68900
H  47.78000 39.74500 28.83600
H  47.34100 40.44700 27.26500
H  49.24600 40.66100 23.77600
H  49.77200 40.56000 25.43100
H  47.93500 40.81200 24.97800
H  48.31700 33.89600 22.53600
H  45.87700 32.35400 22.74400
H  45.86100 33.71300 21.06500
H  47.13200 35.02300 21.04400
H  45.71300 35.27900 21.88700
H  48.00300 30.67500 23.59200
H  48.87900 31.92500 22.66700
H  47.34200 31.59700 20.77600
H  46.64900 30.22600 21.54200
H  48.37300 30.26600 21.07500
H  45.62400 28.08200 26.66700
H  44.23800 29.03100 25.97000
H  44.11500 28.37500 27.60600
H  43.48600 31.92500 30.83000
H  44.69100 32.76300 34.76300
H  44.36400 31.04600 34.74000
H  42.99400 32.23000 34.96200
Mg 9.02900 48.08200 28.20900
C  6.97200 47.31500 30.92400
C  11.71000 48.29600 30.32900
C  10.91100 48.86500 25.55900
C  6.18200 48.33000 26.22000
N  9.26500 47.89000 30.36600
C  8.33200 47.48500 31.25000
C  8.89300 47.44700 32.72300
C  10.39000 47.96300 32.58600
C  10.46700 48.04800 31.02200
C  10.57200 49.25500 33.41800
C  8.81100 45.95500 33.34000
C  9.85000 45.45200 34.38200
H  9.39300 45.09100 35.83600
N  11.03800 48.45700 27.94100
C  12.01000 48.45300 28.94100
C  13.29900 48.69800 28.36800
C  13.02200 48.84100 26.95600
C  11.61600 48.69100 26.75100
C  14.54300 48.81500 29.24800
C  14.05600 48.89300 25.84000
O  13.79900 48.76300 24.63700
C  15.57200 48.94100 26.13600
N  8.60200 48.69500 26.29300
C  9.54300 48.90900 25.29100
C  8.89400 49.34400 24.02600
C  7.53300 48.74800 24.10400
C  7.42000 48.56200 25.63700
C  8.88400 50.83200 23.62300
C  7.35300 47.42700 23.22700
C  6.26200 47.48500 22.03500
N  6.95000 48.01900 28.49000
C  5.86800 48.08500 27.56900
C  4.63200 47.81300 28.34500
C  5.00600 47.52100 29.63400
C  6.44100 47.63200 29.68300
C  3.23900 47.63000 27.72700
C  4.48800 47.12500 30.93000
O  3.31200 46.91600 31.35500
C  5.71600 46.96800 31.78700
C  5.74100 45.53700 32.29000
O  6.40400 44.60300 31.80300
O  5.12700 45.53100 33.52400
C  5.13800 44.24600 34.25500
H  12.50700 48.29000 31.07500
H  11.51200 49.13200 24.68700
H  5.35900 48.42500 25.50800
H  8.41300 48.12500 33.42900
H  11.06900 47.19600 32.95800
H  10.66000 50.05900 32.68700
H  11.50300 49.28700 33.98500
H  9.80200 49.35800 34.18300
H  8.60300 45.29200 32.50000
H  7.88400 45.82100 33.89700
H  10.54000 46.23800 34.68900
H  10.45400 44.62600 34.00600
H  14.30700 48.87600 30.31000
H  15.08900 49.70900 28.94500
H  15.24000 47.98900 29.10900
H  15.94800 48.94400 25.11300
H  15.86200 48.02300 26.64800
H  15.96700 49.81000 26.66100
H  9.45400 48.97600 23.16700
H  6.84000 49.52300 23.77600
H  8.92600 51.51600 24.47100
H  7.96800 51.09800 23.09600
H  9.74000 51.01100 22.97200
H  7.11100 46.60400 23.89900
H  8.24700 47.11400 22.68800
H  6.82100 47.66900 21.11700
H  5.48400 48.20000 22.30200
H  5.74700 46.52800 21.94800
H  2.61100 48.43800 28.09900
H  2.73600 46.73900 28.10200
H  3.43600 47.57800 26.65600
H  5.52600 47.58200 32.66700
H  4.19300 43.70400 34.20400
H  5.32200 44.49500 35.30000
H  5.92900 43.58700 33.89800

