158

Mg -2.03000 17.02800 25.82800
C  -2.15000 14.75200 28.47100
C  -2.12700 19.63200 28.13500
C  -2.33200 19.11500 23.32100
C  -2.12200 14.28200 23.64100
N  -2.27700 17.16000 28.00000
C  -2.30300 16.07100 28.88200
C  -2.61300 16.53000 30.29800
C  -2.55300 18.12400 30.15000
C  -2.33500 18.37700 28.69400
C  -3.82400 18.94400 30.65000
C  -1.54200 16.09300 31.29700
C  -1.51100 16.83300 32.65800
H  -1.22400 16.06200 33.97100
N  -2.24800 19.16600 25.74700
C  -2.08800 20.01900 26.77300
C  -2.22900 21.39400 26.25500
C  -2.25600 21.31900 24.84500
C  -2.28000 19.86200 24.55000
C  -2.45200 22.62100 27.07900
C  -2.30900 22.35500 23.79000
O  -2.47000 22.12800 22.62300
C  -2.10100 23.73400 24.17300
N  -2.20500 16.76300 23.83600
C  -2.28000 17.82300 22.92000
C  -2.24700 17.27600 21.49200
C  -2.01300 15.72300 21.64200
C  -2.17000 15.54700 23.12100
C  -3.54700 17.59300 20.73600
C  -0.59300 15.23000 21.09000
C  -0.57700 14.23500 19.92800
N  -2.07100 14.94500 25.97500
C  -2.00900 14.03900 25.00700
C  -1.95800 12.74900 25.56400
C  -2.03300 12.99500 26.91200
C  -2.02300 14.36200 27.15100
C  -1.77100 11.44800 24.86800
C  -1.89600 12.38300 28.16000
O  -1.76600 11.22400 28.44700
C  -1.99100 13.45200 29.26500
C  -0.86000 13.29900 30.24100
O  0.23600 13.82900 30.11000
O  -1.26400 12.51600 31.29400
C  -0.25100 12.21900 32.26500
H  -1.85300 20.43800 28.81900
H  -2.44100 19.75900 22.44500
H  -2.18200 13.43300 22.95600
H  -3.58700 16.23900 30.69200
H  -1.69600 18.57800 30.64800
H  -4.21400 19.46900 29.77900
H  -3.57600 19.66700 31.42800
H  -4.66200 18.28300 30.87200
H  -0.58600 16.24100 30.79500
H  -1.71700 15.07300 31.64200
H  -2.43800 17.39900 32.74700
H  -0.61900 17.44000 32.50800
H  -3.44400 22.97500 26.79500
H  -1.67600 23.38600 27.04100
H  -2.49800 22.33300 28.12900
H  -1.16200 23.91700 24.69400
H  -2.91600 24.06900 24.81600
H  -2.02200 24.40300 23.31700
H  -1.44400 17.74200 20.92100
H  -2.73100 15.10300 21.10500
H  -4.35000 18.21100 21.14000
H  -4.05000 16.64500 20.54600
H  -3.19900 17.97700 19.77700
H  -0.06000 14.86900 21.97000
H  -0.10400 16.18400 20.89800
H  0.17600 13.45600 20.05000
H  -0.35500 14.69700 18.96600
H  -1.52800 13.72500 19.78100
H  -1.36900 10.70600 25.55600
H  -1.09800 11.60900 24.02500
H  -2.79900 11.17100 24.63200
H  -2.94100 13.27400 29.76800
H  -0.65900 12.05100 33.26100
H  0.54900 12.95900 32.29500
H  0.36400 11.35300 32.01900
Mg 6.88800 53.64100 42.06500
C  6.27000 50.26700 41.58700
C  10.21600 53.01400 41.06700
C  7.27500 56.89300 41.83300
C  3.42100 54.12900 42.81800
N  8.06000 51.77400 41.27700
C  7.57800 50.52300 41.20900
C  8.65600 49.53600 40.63900
C  9.98000 50.41200 40.91600
C  9.42800 51.80000 41.07200
C  10.89500 50.02100 42.21800
C  8.52700 48.99000 39.20700
C  7.68200 49.79900 38.26300
H  8.20000 50.17400 36.84300
N  8.59500 54.81700 41.62500
C  9.81300 54.35800 41.24000
C  10.63300 55.49600 41.11300
C  9.77700 56.63600 41.22000
C  8.47100 56.20600 41.58300
C  12.06800 55.38500 40.78000
C  10.24400 58.05300 41.11500
O  11.46000 58.19500 41.02700
C  9.37100 59.23900 41.04500
N  5.46100 55.23900 42.06000
C  5.91200 56.53800 42.05100
C  4.70100 57.55500 42.24600
C  3.59300 56.62800 42.76300
C  4.16700 55.25600 42.42000
C  4.95700 58.76000 43.13900
C  2.12800 56.89600 42.29400
C  1.13900 56.94200 43.51000
N  5.24700 52.51400 42.21800
C  3.88400 52.76300 42.67200
C  3.17400 51.53500 42.90700
C  4.11700 50.54800 42.53500
C  5.33800 51.19200 42.07000
C  1.77400 51.38200 43.48300
C  4.25200 49.14100 42.49700
O  3.49000 48.26700 42.81800
C  5.62200 48.86500 41.81100
C  5.48100 48.07600 40.52900
O  4.80000 48.37500 39.57000
O  6.18000 46.86400 40.62800
C  5.98100 45.92400 39.46800
H  11.26400 52.80700 40.84200
H  7.33500 57.97200 41.67900
H  2.38600 54.30200 43.12000
H  8.58200 48.65300 41.27500
H  10.62400 50.34300 40.03900
H  11.95900 50.00600 41.98000
H  10.68100 48.99000 42.49700
H  10.68100 50.67200 43.06600
H  8.25500 47.93900 39.31000
H  9.53200 48.94100 38.78800
H  7.19800 50.61500 38.79900
H  6.81600 49.17300 38.04500
H  12.62000 56.20500 41.23800
H  12.15000 55.22900 39.70400
H  12.57900 54.56800 41.28900
H  9.87000 60.16500 40.75800
H  8.93200 59.49800 42.00800
H  8.75100 58.93000 40.20300
H  4.39900 57.89400 41.25500
H  3.67000 56.61600 43.85000
H  5.79200 58.52000 43.79700
H  4.07500 58.84100 43.77400
H  5.11000 59.67500 42.56600
H  1.86400 56.10600 41.59000
H  2.12800 57.86000 41.78400
H  0.45600 56.09400 43.45000
H  0.58800 57.88200 43.53400
H  1.54800 56.87100 44.51700
H  1.71600 50.43300 44.01600
H  0.98500 51.25400 42.74300
H  1.55600 52.23200 44.13000
H  6.23200 48.21600 42.43900
H  6.13200 46.52300 38.56900
H  4.98600 45.48000 39.47700
H  6.67400 45.08600 39.54300

