158

Mg 29.51000 59.21600 40.79600
C  26.38100 57.87000 39.90600
C  31.04800 56.56700 39.37000
C  32.39500 60.74800 41.38300
C  27.80600 62.14600 41.86800
N  28.77700 57.51700 39.67800
C  27.48800 57.13200 39.51600
C  27.43000 55.83100 38.68400
C  28.87000 55.28400 38.82900
C  29.62200 56.54600 39.35300
C  29.04900 54.08700 39.75400
C  27.04000 56.20100 37.21800
C  25.93100 55.41100 36.45800
H  26.30700 55.00400 34.96400
N  31.51200 58.78700 40.38800
C  31.93800 57.60600 39.78500
C  33.37900 57.52100 39.81000
C  33.81000 58.77500 40.36100
C  32.57800 59.56500 40.70900
C  34.23300 56.43400 39.30600
C  35.27100 59.15100 40.60600
O  36.16100 58.32900 40.36600
C  35.72900 60.43900 41.23600
N  30.03900 61.17100 41.40600
C  31.27500 61.53500 41.69900
C  31.39800 63.02000 42.16800
C  29.88400 63.52800 42.20200
C  29.22400 62.20200 41.82800
C  32.10400 63.17300 43.58800
C  29.54300 64.59100 41.09200
C  28.38000 65.53600 41.48000
N  27.52100 59.92000 40.92800
C  26.99700 61.07400 41.45800
C  25.52800 60.97600 41.45600
C  25.28500 59.82000 40.76400
C  26.53400 59.12100 40.54600
C  24.55000 62.03600 41.93000
C  24.26000 58.91600 40.31100
O  23.09000 59.00100 40.44800
C  24.86700 57.67200 39.64700
C  24.46400 56.39200 40.28600
O  24.65500 56.10200 41.45700
O  23.80500 55.59600 39.43300
C  23.31000 54.25600 39.83300
H  31.50700 55.61400 39.09700
H  33.35000 61.23100 41.60100
H  27.27300 63.00900 42.27300
H  26.62500 55.20100 39.06400
H  29.29100 55.19500 37.82800
H  29.38900 54.19100 40.78400
H  29.68300 53.36100 39.24500
H  28.09300 53.56400 39.70300
H  27.93500 56.25800 36.60000
H  26.66700 57.22300 37.27900
H  25.11100 56.12400 36.37600
H  25.68000 54.55400 37.08300
H  34.53700 55.82100 40.15500
H  35.03700 56.87600 38.71900
H  33.63500 55.84100 38.61400
H  36.81500 60.45400 41.14800
H  35.40700 60.56300 42.27000
H  35.33100 61.26800 40.65100
H  31.92400 63.60300 41.41100
H  29.46900 63.86400 43.15200
H  33.18300 63.01500 43.59200
H  31.60100 62.43900 44.21700
H  32.02600 64.16900 44.02400
H  29.45500 63.99700 40.18200
H  30.37600 65.22400 40.78500
H  28.02400 65.28500 42.47900
H  27.47100 65.51300 40.87900
H  28.77000 66.55200 41.54100
H  24.68600 62.96900 41.38500
H  24.45800 62.23500 42.99800
H  23.57700 61.61200 41.68400
H  24.60300 57.61800 38.59000
H  22.60800 54.51400 40.62500
H  24.10000 53.56800 40.13300
H  22.72800 53.85900 39.00100
Mg 35.66500 49.88200 25.47700
C  35.40100 48.12700 28.51900
C  34.77300 52.75100 27.15100
C  35.73400 51.48800 22.53700
C  36.45600 46.95800 23.79800
N  35.07900 50.26800 27.60800
C  35.13900 49.46600 28.64800
C  34.94400 50.23900 29.99600
C  34.56800 51.65700 29.55400
C  34.82200 51.58300 28.01500
C  33.09700 51.95600 29.89300
C  36.08000 50.09000 30.92500
C  35.91100 49.84900 32.41800
H  34.42700 49.86000 32.95600
N  35.26900 51.81100 24.96400
C  34.99300 52.85000 25.75900
C  34.77200 54.08500 24.97800
C  35.03300 53.78700 23.63400
C  35.29900 52.25100 23.64100
C  34.39600 55.43000 25.51900
C  34.95600 54.67000 22.34200
O  35.08000 54.19500 21.23500
C  34.77000 56.14100 22.53300
N  35.97300 49.29400 23.40100
C  36.02700 50.16600 22.43100
C  36.40600 49.49100 21.05900
C  36.94700 48.08700 21.59900
C  36.43000 48.06800 22.98300
C  35.15300 49.43900 20.13000
C  38.52600 48.01000 21.54300
C  39.09000 46.68400 21.05000
N  35.97200 47.91300 26.02700
C  36.20300 46.81600 25.22200
C  36.14900 45.62600 26.09100
C  35.87300 46.08400 27.37500
C  35.74400 47.50300 27.29400
C  36.49800 44.19200 25.67000
C  35.74400 45.70000 28.77700
O  35.91200 44.65700 29.36200
C  35.45500 47.00700 29.55600
C  34.15400 46.74100 30.27200
O  33.03000 46.95200 29.87200
O  34.46300 46.08700 31.44600
C  33.25700 45.59400 32.14600
H  34.45400 53.54900 27.82500
H  35.90800 52.00500 21.59100
H  36.75600 46.05000 23.27000
H  34.08600 49.77400 30.48100
H  35.13200 52.42600 30.08300
H  32.57100 51.00200 29.90600
H  32.61100 52.60600 29.16600
H  33.04300 52.32800 30.91700
H  36.73800 50.95500 30.84200
H  36.73500 49.28300 30.59800
H  36.46000 50.65700 32.90200
H  36.33800 48.86700 32.62100
H  34.09600 55.41800 26.56700
H  33.51200 55.78500 24.99000
H  35.22600 56.13600 25.54300
H  35.64900 56.49800 23.06900
H  33.81200 56.22300 23.04500
H  34.69900 56.57500 21.53600
H  37.24500 49.91900 20.51000
H  36.46600 47.22100 21.14400
H  35.26200 50.05800 19.23900
H  34.32100 49.92900 20.63500
H  34.79200 48.43900 19.89200
H  38.87000 48.12000 22.57200
H  39.00600 48.91500 21.17100
H  40.16900 46.82600 20.98300
H  38.56900 46.40000 20.13600
H  38.88300 46.01600 21.88600
H  35.64000 43.54200 25.84200
H  37.27300 43.73900 26.28700
H  36.84200 44.30100 24.64100
H  36.34600 47.08800 30.17900
H  32.40000 45.19400 31.60500
H  32.83500 46.51100 32.55600
H  33.53600 44.86900 32.91100

