158

Mg 25.94400 -1.29800 29.03400
C  27.95100 -1.26500 31.95700
C  23.20800 -0.58800 31.26100
C  23.93700 -1.28800 26.37300
C  28.57200 -2.43900 27.16100
N  25.61700 -1.07600 31.38600
C  26.61800 -0.95700 32.31700
C  26.06400 -0.47000 33.73100
C  24.55500 -0.38000 33.45700
C  24.43800 -0.79400 31.93500
C  23.69800 -1.05700 34.53000
C  26.58600 0.88500 34.38800
C  27.32500 0.86900 35.68200
H  26.98800 1.81500 36.85600
N  23.89000 -0.98600 28.82400
C  22.98300 -0.69600 29.83200
C  21.75000 -0.45800 29.12800
C  21.93200 -0.51400 27.76800
C  23.32900 -0.99800 27.57300
C  20.39600 -0.33000 29.78900
C  20.93600 -0.15200 26.66200
O  21.32200 -0.07700 25.48900
C  19.54200 0.27100 26.90500
N  26.15700 -1.95100 27.07700
C  25.26000 -1.69300 26.14100
C  25.74600 -2.12200 24.72300
C  27.24400 -2.35500 24.98500
C  27.36400 -2.19100 26.50800
C  25.03200 -3.33500 24.13200
C  28.23800 -1.44100 24.19700
C  28.00500 0.05200 24.27800
N  27.82800 -1.87600 29.44600
C  28.78200 -2.25600 28.53500
C  30.03500 -2.31500 29.22900
C  29.74100 -1.91200 30.59300
C  28.41000 -1.67100 30.67400
C  31.30500 -2.84400 28.60500
C  30.36000 -1.68900 31.88500
O  31.49700 -1.78800 32.36500
C  29.19100 -1.17300 32.76000
C  29.01300 -2.01600 34.06500
O  28.60000 -3.14400 34.14700
O  29.65100 -1.30500 35.03900
C  29.61200 -1.83300 36.44900
H  22.37100 -0.23000 31.86500
H  23.35200 -1.10800 25.46900
H  29.46200 -2.70900 26.58800
H  26.46500 -1.26800 34.35600
H  24.17800 0.62900 33.62400
H  22.79900 -0.46100 34.69000
H  24.16700 -1.32700 35.47700
H  23.22300 -1.98400 34.20700
H  25.85700 1.68500 34.50800
H  27.26800 1.26100 33.62500
H  28.40200 0.83900 35.51400
H  27.03100 -0.10500 36.07100
H  20.44600 -0.42500 30.87300
H  19.79300 -1.18300 29.47700
H  19.83800 0.55800 29.49100
H  19.03800 -0.57300 27.37600
H  19.08400 0.45100 25.93300
H  19.44000 1.16800 27.51600
H  25.68600 -1.31000 23.99800
H  27.47100 -3.40000 24.77400
H  24.61300 -3.04200 23.17000
H  24.28300 -3.68100 24.84500
H  25.77200 -4.12500 24.00500
H  28.29000 -1.77300 23.16000
H  29.20300 -1.63000 24.66500
H  27.06600 0.29600 24.77400
H  28.10800 0.48900 23.28500
H  28.75600 0.55100 24.89100
H  31.39500 -2.64100 27.53700
H  31.36700 -3.92700 28.71500
H  32.16700 -2.43200 29.12900
H  29.32200 -0.12500 33.03000
H  28.64900 -1.75800 36.95500
H  30.39200 -1.54100 37.15200
H  29.76400 -2.91000 36.38100
Mg 46.28300 24.27300 28.58400
C  46.68200 26.89200 30.93200
C  45.46600 22.11800 31.10300
C  46.19000 21.91600 26.39300
C  47.95700 26.42100 26.19000
N  46.23100 24.53400 30.68300
C  46.32700 25.69200 31.45600
C  46.03600 25.41700 32.91500
C  46.00400 23.82900 33.01200
C  45.84000 23.44000 31.52100
C  47.09700 23.15200 33.87300
C  44.74000 26.10800 33.41400
C  44.92400 26.86200 34.85700
H  44.09300 26.60000 36.07700
N  45.75100 22.29600 28.69500
C  45.43500 21.57500 29.82600
C  45.09000 20.23200 29.43800
C  45.26400 20.20300 28.07700
C  45.74900 21.48800 27.62100
C  44.68200 19.11000 30.39900
C  44.95100 19.09400 27.15100
O  45.23400 19.10000 25.92400
C  44.12200 17.88900 27.62900
N  47.10700 24.19900 26.61300
C  46.83900 23.05800 25.90300
C  47.39800 23.10700 24.50300
C  47.80600 24.54500 24.33700
C  47.67700 25.11600 25.80900
C  48.45800 22.01700 24.14000
C  47.00200 25.34300 23.28100
C  45.60700 25.94600 23.54500
N  47.00400 26.34300 28.43400
C  47.69800 27.03300 27.42900
C  47.80200 28.41700 27.90600
C  47.59200 28.40300 29.30500
C  47.12000 27.11000 29.59500
C  48.27300 29.61300 27.07100
C  47.68700 29.10700 30.59700
O  47.94900 30.25800 30.69200
C  47.22400 28.08700 31.72100
C  48.43900 27.81600 32.49000
O  49.52400 27.40400 32.00200
O  48.25400 28.02700 33.84600
C  49.39800 27.79300 34.71000
H  45.32600 21.48100 31.97900
H  46.29200 21.10300 25.67100
H  48.48200 27.11800 25.53300
H  46.97500 25.72200 33.37800
H  45.09800 23.51700 33.53200
H  47.37700 22.21200 33.39700
H  46.57800 22.90900 34.80100
H  47.90700 23.85200 34.07600
H  43.92800 25.41900 33.64700
H  44.32600 26.83900 32.71900
H  44.80300 27.90700 34.57200
H  45.89900 26.60300 35.26800
H  43.66900 18.80400 30.13700
H  44.82500 19.34800 31.45400
H  45.24900 18.22800 30.10100
H  44.57300 17.41900 28.50300
H  44.04900 17.19100 26.79500
H  43.06300 18.12600 27.73400
H  46.52200 22.91800 23.88200
H  48.86300 24.58800 24.07400
H  48.69900 21.39700 25.00300
H  49.45500 22.39800 23.92300
H  48.06000 21.41700 23.32200
H  46.82400 24.61000 22.49400
H  47.62400 26.14200 22.87800
H  45.02600 25.33100 24.23200
H  44.98200 25.90200 22.65300
H  45.55000 26.99600 23.83400
H  48.03000 30.59500 27.47700
H  48.00600 29.54600 26.01600
H  49.35200 29.53400 27.20500
H  46.47300 28.59200 32.32800
H  50.25400 27.32000 34.23000
H  49.04100 27.25100 35.58600
H  49.70200 28.76800 35.09300

