158

Mg -2.07500 17.44900 27.19400
C  -2.68700 15.15600 29.88900
C  -2.68700 20.03800 29.33200
C  -2.08700 19.41500 24.56600
C  -1.91600 14.57700 25.09300
N  -2.61300 17.58700 29.42000
C  -2.77900 16.50600 30.32100
C  -2.95100 17.07900 31.82000
C  -2.96000 18.65900 31.50300
C  -2.75700 18.83100 29.98400
C  -4.19600 19.39800 32.01600
C  -1.77700 16.60100 32.74700
C  -1.35500 17.55900 33.87000
H  -0.98400 16.73600 35.13300
N  -2.27700 19.46600 26.97200
C  -2.41000 20.37700 27.98800
C  -2.44100 21.73400 27.40700
C  -2.29800 21.62100 25.95300
C  -2.29600 20.10500 25.79200
C  -2.59800 22.99700 28.28900
C  -2.23400 22.55900 24.98500
O  -2.17100 22.25300 23.83100
C  -2.16000 23.93200 25.33400
N  -2.20400 17.00800 25.18800
C  -2.06600 18.04100 24.31700
C  -1.92100 17.49000 22.88300
C  -1.68700 15.98900 23.08400
C  -1.94800 15.81400 24.52600
C  -3.14500 17.81100 21.96700
C  -0.20800 15.57800 22.64000
C  1.02200 16.18300 23.31800
N  -2.13900 15.40000 27.41400
C  -1.99000 14.38200 26.43600
C  -2.02500 13.10500 27.06400
C  -2.45300 13.40000 28.38800
C  -2.34100 14.74500 28.53500
C  -1.97100 11.80600 26.47500
C  -2.74600 12.78000 29.67800
O  -2.92300 11.60100 29.99500
C  -2.74000 13.88300 30.69100
C  -1.50500 13.68900 31.39900
O  -0.36200 13.95200 31.03100
O  -1.78700 13.13500 32.62700
C  -0.64200 12.87100 33.54600
H  -2.91600 20.89100 29.97500
H  -1.80600 19.99500 23.68400
H  -1.80900 13.74800 24.39000
H  -3.82500 16.68300 32.33700
H  -2.10600 19.11400 32.00600
H  -3.95500 19.91900 32.94300
H  -4.80400 18.61500 32.46800
H  -4.70900 20.07500 31.33300
H  -0.86100 16.45000 32.17600
H  -2.07200 15.66700 33.22600
H  -2.12600 18.20900 34.28400
H  -0.48900 18.17700 33.63100
H  -1.69100 23.58500 28.15300
H  -2.72600 22.73400 29.33900
H  -3.41400 23.66200 28.00700
H  -1.19200 24.27200 25.70100
H  -2.99700 24.21100 25.97500
H  -2.18300 24.43800 24.36900
H  -1.12900 17.97900 22.31600
H  -2.40400 15.38200 22.53000
H  -2.93200 17.78200 20.89800
H  -3.42300 18.85500 22.11000
H  -4.08300 17.28800 22.15400
H  -0.08400 15.79300 21.57800
H  -0.06300 14.50200 22.73900
H  1.50300 16.78100 22.54500
H  1.69700 15.51600 23.85500
H  0.68700 16.97800 23.98400
H  -1.10200 11.85600 25.81900
H  -2.89800 11.49900 25.99100
H  -1.62100 11.03800 27.16400
H  -3.62000 13.86200 31.33400
H  -0.95800 13.27300 34.50800
H  0.32600 13.33800 33.36000
H  -0.54600 11.79300 33.67800
Mg 1.03600 8.18300 26.33500
C  1.60300 9.96000 29.36200
C  0.94700 5.32800 28.33900
C  0.71900 6.30700 23.56200
C  1.31300 11.06300 24.60900
N  1.24800 7.75000 28.58900
C  1.31500 8.61900 29.64200
C  1.19200 7.95700 30.94800
C  1.39700 6.48700 30.57600
C  1.14400 6.50100 29.07800
C  2.69100 5.78000 30.90100
C  -0.09400 8.41100 31.69200
C  0.01700 8.51800 33.22800
H  1.25400 7.93600 33.95300
N  0.83900 6.07500 26.02400
C  0.85100 5.11900 26.94400
C  0.55300 3.84500 26.28500
C  0.68300 4.11900 24.92500
C  0.74800 5.53800 24.77800
C  0.35400 2.52600 26.99600
C  0.60200 3.12400 23.66900
O  0.60100 3.53000 22.51200
C  0.57200 1.60900 23.86500
N  0.94000 8.60400 24.43000
C  0.82300 7.71300 23.41600
C  0.76300 8.45100 22.01500
C  0.83400 9.96000 22.39500
C  0.99700 9.85900 23.92100
C  1.71400 7.97000 20.87300
C  -0.46500 10.77400 21.91300
C  -1.73400 10.51600 22.74700
N  1.37700 10.10400 26.78600
C  1.51000 11.17100 25.96400
C  1.81800 12.37600 26.77200
C  1.83100 11.89000 28.06100
C  1.55800 10.53600 28.05200
C  2.04400 13.81900 26.21300
C  2.20000 12.28800 29.39000
O  2.57200 13.39800 29.84200
C  1.93400 11.01300 30.31900
C  3.15600 10.67200 31.07900
O  4.09000 9.87100 30.83900
O  3.17900 11.52100 32.18300
C  4.40600 11.54600 33.08100
H  0.82600 4.38700 28.88000
H  0.66400 5.89700 22.55100
H  1.22200 11.95700 23.98800
H  2.11800 8.15800 31.48600
H  0.60200 5.87500 31.00200
H  2.48100 5.07300 31.70300
H  3.45000 6.39800 31.38100
H  3.09700 5.17400 30.09100
H  -0.91200 7.72200 31.47700
H  -0.42800 9.37800 31.31800
H  -0.88000 8.07900 33.66400
H  0.08700 9.59800 33.35700
H  1.34400 2.08400 26.88100
H  -0.43600 1.95200 26.51200
H  0.01800 2.67100 28.02300
H  1.56500 1.18800 24.02300
H  0.31300 1.15500 22.90900
H  -0.13100 1.24800 24.61600
H  -0.26000 8.16900 21.76500
H  1.77900 10.39400 22.06700
H  2.42300 7.22000 21.22700
H  2.27900 8.88100 20.67800
H  1.23000 7.44200 20.05200
H  -0.54800 10.57000 20.84500
H  -0.27700 11.84200 22.02000
H  -1.58400 9.99900 23.69500
H  -2.40200 9.80800 22.25700
H  -2.18500 11.48900 22.94100
H  2.47100 13.72900 25.21400
H  2.76700 14.29800 26.87200
H  1.14300 14.42200 26.09400
H  1.08000 11.19900 30.96900
H  5.29300 11.02000 32.72900
H  4.13100 11.15700 34.06200
H  4.75800 12.57000 33.20800

