158

Mg 43.31400 2.92700 47.16500
C  41.65400 5.90000 46.49000
C  40.39500 1.16700 46.58900
C  45.10600 0.08600 47.10900
C  46.28300 4.81900 46.89900
N  41.29600 3.46300 46.65800
C  40.84000 4.75500 46.48100
C  39.37800 4.64800 46.00500
C  38.98600 3.25200 46.55100
C  40.30500 2.54200 46.60500
C  38.21200 3.19500 47.93100
C  39.21200 4.71700 44.47600
C  38.49100 6.00700 44.00300
H  39.09900 6.63100 42.70100
N  42.79800 0.87000 46.83500
C  41.59400 0.41200 46.67600
C  41.59600 -1.02800 46.64900
C  42.92200 -1.41600 46.63300
C  43.70200 -0.13500 46.87400
C  40.27400 -1.87200 46.63800
C  43.44700 -2.85000 46.43800
O  42.71500 -3.79700 46.17700
C  44.97000 -3.05400 46.54900
N  45.42500 2.52100 46.64800
C  45.85000 1.29600 47.06400
C  47.43200 1.33300 47.19600
C  47.72900 2.82800 46.80400
C  46.34000 3.41500 46.86100
C  48.00500 0.92200 48.62500
C  48.26500 2.87300 45.34500
C  49.75000 3.45300 45.29700
N  43.94400 5.00200 46.88800
C  45.14400 5.62200 46.83800
C  44.95600 7.02400 46.86000
C  43.58600 7.16000 46.68100
C  43.02800 5.93600 46.69600
C  46.02400 8.10000 46.98500
C  42.53100 8.16200 46.53300
O  42.60200 9.39900 46.42200
C  41.18900 7.32000 46.40000
C  40.36900 7.73800 47.56000
O  40.47400 7.34500 48.72900
O  39.45200 8.69500 47.08300
C  38.65600 9.47300 48.07000
H  39.46800 0.62000 46.40400
H  45.79400 -0.76200 47.09800
H  47.21500 5.38000 46.99300
H  38.74800 5.34400 46.56000
H  38.31600 2.68100 45.90700
H  38.95200 3.15900 48.73100
H  37.74200 2.21300 47.99000
H  37.52000 4.01900 48.10400
H  38.62600 3.84300 44.19000
H  40.23300 4.64100 44.10100
H  38.58900 6.73000 44.81200
H  37.41700 5.85900 43.89300
H  39.70800 -1.62500 45.73900
H  39.68100 -1.55100 47.49300
H  40.52200 -2.93200 46.58400
H  45.35400 -2.40700 45.76000
H  45.30000 -4.06900 46.32600
H  45.21300 -2.72700 47.56000
H  47.74600 0.57300 46.47900
H  48.35600 3.34000 47.53400
H  47.19900 0.49700 49.22400
H  48.41900 1.86000 48.99700
H  48.86400 0.25000 48.62200
H  47.68200 3.59200 44.77000
H  48.19400 1.92700 44.80800
H  49.59100 4.52500 45.18200
H  50.44400 2.97500 44.60600
H  50.14100 3.21000 46.28500
H  45.54500 9.05500 46.77000
H  46.70400 7.89800 46.15700
H  46.55600 7.87200 47.90900
H  40.64500 7.45800 45.46500
H  38.81200 9.26600 49.12800
H  37.59300 9.34400 47.86400
H  38.89500 10.50700 47.82000
Mg 41.12500 8.81600 28.46700
C  42.77700 9.87700 31.35500
C  38.94900 7.01000 30.50900
C  39.52300 7.73000 25.80400
C  43.82200 9.94300 26.61400
N  40.87200 8.55400 30.74800
C  41.79800 8.92700 31.69600
C  41.32500 8.55300 33.11000
C  40.18400 7.49100 32.72800
C  40.01600 7.61300 31.25000
C  40.63500 6.07200 33.20400
C  40.94700 9.69300 34.09200
C  40.13000 9.42300 35.35800
H  40.76700 9.74600 36.73000
N  39.37100 7.64100 28.19600
C  38.58700 7.08800 29.15300
C  37.39800 6.56400 28.51200
C  37.50700 6.77900 27.12300
C  38.85800 7.40100 26.98800
C  36.19200 6.01400 29.32800
C  36.45600 6.60000 26.04400
O  36.74400 6.77200 24.85800
C  35.17400 6.12300 26.41000
N  41.60300 8.75800 26.49100
C  40.78400 8.22100 25.57900
C  41.45600 8.41900 24.26400
C  42.84500 9.10100 24.44000
C  42.75800 9.35100 25.93700
C  41.43900 7.18100 23.24900
C  43.17000 10.31900 23.60600
C  42.65200 11.63800 24.16200
N  42.86800 9.83500 28.80700
C  43.88900 10.21800 27.93800
C  44.91100 10.85800 28.62800
C  44.50300 10.88200 29.99300
C  43.27400 10.18100 29.99800
C  46.17800 11.40100 28.14400
C  44.85900 11.22100 31.34100
O  45.76600 11.93800 31.74600
C  43.75300 10.58900 32.26400
C  44.44700 9.64600 33.21200
O  44.92000 8.54700 32.92500
O  44.60600 10.25100 34.40900
C  45.28000 9.43000 35.43600
H  38.12900 6.63800 31.12700
H  39.10400 7.42000 24.84400
H  44.70500 10.28500 26.06900
H  42.19800 7.98300 33.42900
H  39.23700 7.84500 33.13600
H  40.21100 5.95200 34.20000
H  41.68900 6.10900 33.48000
H  40.52800 5.34800 32.39600
H  40.39800 10.43200 33.50900
H  41.85100 10.20300 34.42500
H  39.76700 8.39600 35.40200
H  39.27400 10.09500 35.29200
H  36.35100 5.90600 30.40100
H  36.01200 5.02600 28.90400
H  35.25600 6.56200 29.22000
H  35.21200 5.07100 26.69100
H  34.48600 6.16800 25.56600
H  34.69300 6.79800 27.11800
H  40.80400 9.13200 23.76000
H  43.60100 8.32600 24.31600
H  40.91700 6.30600 23.63700
H  42.43900 7.00600 22.85000
H  40.96300 7.54200 22.33700
H  42.66100 10.20900 22.64800
H  44.24600 10.22900 23.45700
H  42.25800 12.21200 23.32400
H  43.41700 12.32600 24.52100
H  41.79800 11.56000 24.83500
H  46.11800 12.47900 27.99900
H  46.67100 10.80400 27.37700
H  46.80500 11.41300 29.03600
H  43.28100 11.41600 32.79400
H  44.66200 9.59200 36.31900
H  46.31500 9.68800 35.65800
H  45.28200 8.36000 35.22800

