158

Mg 50.48900 46.37200 41.53400
C  47.42500 47.62400 40.75700
C  49.58400 43.20300 40.54400
C  53.91000 45.30200 41.71000
C  51.70900 49.69300 42.32300
N  48.61800 45.55700 40.90100
C  47.48900 46.20900 40.52000
C  46.44600 45.21900 39.95600
C  47.10300 43.77600 40.34700
C  48.52300 44.15700 40.68400
C  46.38400 43.03200 41.47800
C  45.91300 45.36400 38.42000
C  44.49100 45.01200 38.02500
H  44.42200 43.98900 36.85200
N  51.59900 44.55200 40.94100
C  50.99100 43.38300 40.58100
C  52.00300 42.40400 40.34700
C  53.24000 43.00900 40.67600
C  52.98000 44.38400 41.13900
C  51.65900 40.95700 39.96500
C  54.55200 42.34000 40.43400
O  54.53900 41.17000 40.07500
C  55.85200 42.91300 40.68900
N  52.63100 47.46500 41.70500
C  53.72100 46.71600 41.95900
C  54.89900 47.52600 42.50900
C  54.15400 48.80800 42.89100
C  52.74000 48.68900 42.27600
C  55.65600 46.88900 43.74100
C  54.90900 50.11900 42.40700
C  55.78000 50.86300 43.41900
N  49.69100 48.24000 41.76500
C  50.29300 49.47200 42.09000
C  49.24100 50.45600 42.01100
C  48.11800 49.72600 41.50900
C  48.43000 48.45700 41.31500
C  49.34700 51.88900 42.34100
C  46.68300 49.88300 41.17400
O  45.83500 50.75700 41.37600
C  46.26900 48.51400 40.52300
C  44.99100 47.93300 41.18500
O  45.03300 47.33800 42.20700
O  43.85800 48.06400 40.43500
C  42.61500 47.68300 41.12300
H  49.20900 42.20800 40.29400
H  54.87600 44.93600 42.06500
H  51.96800 50.67500 42.72200
H  45.55400 45.17800 40.58200
H  47.16400 43.09400 39.49900
H  47.11500 42.72700 42.22600
H  45.97200 42.11200 41.06200
H  45.64600 43.60800 42.03700
H  46.49800 44.70800 37.77500
H  46.09100 46.37500 38.05400
H  44.03700 45.95400 37.71500
H  43.92500 44.53400 38.82400
H  51.87100 40.23800 40.75600
H  52.27400 40.64700 39.12000
H  50.61800 40.98100 39.64300
H  56.02100 42.84600 41.76300
H  55.77600 43.95500 40.38000
H  56.61400 42.52300 40.01400
H  55.66400 47.65300 41.74300
H  53.96500 48.86500 43.96300
H  55.77700 47.66700 44.49400
H  56.60900 46.44600 43.45200
H  55.06500 46.08800 44.18600
H  54.10800 50.73600 42.00200
H  55.55000 50.05600 41.52700
H  55.35100 51.80900 43.74700
H  56.73700 51.02000 42.92000
H  55.90000 50.22400 44.29400
H  49.90500 52.49600 41.62800
H  49.83100 52.09000 43.29700
H  48.34400 52.29300 42.48000
H  46.13400 48.71300 39.46000
H  41.81000 47.73600 40.39000
H  42.35300 48.45200 41.85000
H  42.63200 46.69200 41.57700
Mg 6.21200 53.29500 41.23300
C  5.33500 49.85000 40.99000
C  9.04500 52.63400 39.91300
C  6.48300 56.65300 40.72500
C  2.79500 53.86900 41.76100
N  7.00300 51.38400 40.22800
C  6.54300 50.11500 40.40200
C  7.63300 49.20500 39.78900
C  8.94200 50.01800 39.99200
C  8.27900 51.45000 39.96800
C  9.84100 49.74000 41.21600
C  7.27300 48.85700 38.34900
C  7.74200 49.68600 37.12900
H  6.88700 49.76700 35.85800
N  7.60200 54.45000 40.48400
C  8.79200 53.96000 40.05400
C  9.72900 55.07700 39.82300
C  9.05200 56.25200 40.15300
C  7.66100 55.86500 40.49600
C  11.08600 54.91800 39.21800
C  9.66100 57.71300 40.15600
O  10.88800 57.75900 39.85400
C  8.95600 58.93100 40.54200
N  4.81500 55.00600 41.17700
C  5.21900 56.26600 41.04700
C  4.10100 57.27600 41.06500
C  2.88500 56.35400 41.42800
C  3.50300 54.97300 41.36900
C  4.32900 58.42600 42.14200
C  1.68700 56.62200 40.44700
C  1.56100 55.71200 39.27500
N  4.52700 52.12300 41.64200
C  3.19300 52.49200 41.83200
C  2.30200 51.35800 42.13900
C  3.16100 50.25400 41.88600
C  4.43800 50.81300 41.46700
C  0.87300 51.38800 42.63300
C  3.23400 48.81200 41.71600
O  2.38600 47.92400 41.94400
C  4.67000 48.50600 41.23000
C  4.63900 47.61200 39.97300
O  4.08500 47.87000 38.92100
O  5.34100 46.40400 40.25600
C  5.25800 45.47600 39.08900
H  10.08500 52.39600 39.68000
H  6.63600 57.72700 40.59900
H  1.75900 54.19000 41.89100
H  7.88000 48.37200 40.44700
H  9.56100 50.01000 39.09500
H  10.83900 49.68400 40.78000
H  9.59100 48.76100 41.62500
H  9.81300 50.54000 41.95500
H  6.20200 48.66200 38.29500
H  7.75800 47.89500 38.17900
H  8.72100 49.35000 36.78900
H  7.77000 50.74100 37.40300
H  11.23200 55.74300 38.52000
H  11.17700 53.96100 38.70400
H  11.81400 54.93500 40.02900
H  9.60800 59.79600 40.42200
H  8.63800 58.69800 41.55800
H  8.15300 59.02300 39.81100
H  3.88700 57.69100 40.08000
H  2.65200 56.40000 42.49200
H  3.59600 58.48400 42.94600
H  4.19400 59.33500 41.55500
H  5.38300 58.50200 42.40700
H  1.57300 57.67200 40.17800
H  0.83300 56.45500 41.10400
H  2.58300 55.43300 39.01900
H  1.19300 56.26900 38.41400
H  0.90100 54.88500 39.54000
H  0.34100 52.17200 42.09500
H  0.78400 51.36200 43.71900
H  0.40400 50.44100 42.36500
H  5.17500 47.95300 42.02200
H  5.63100 44.50000 39.40000
H  5.91100 45.69400 38.24400
H  4.23200 45.34900 38.74300

