158

Mg 44.34300 5.88300 48.05200
C  42.40400 8.75900 47.31500
C  41.63900 3.91100 47.09300
C  46.33600 3.14200 48.18200
C  47.14600 8.02100 48.22300
N  42.30800 6.31000 47.22100
C  41.68300 7.52900 47.12600
C  40.22800 7.37500 46.93100
C  39.96900 5.84000 46.73500
C  41.40500 5.27100 47.08200
C  38.87600 5.24400 47.62900
C  39.69800 8.23900 45.76700
C  40.52200 8.23600 44.47400
H  39.82800 7.95900 43.13500
N  44.00800 3.79500 47.77000
C  42.82700 3.19000 47.39700
C  42.99700 1.76300 47.49500
C  44.38200 1.50900 47.71800
C  44.96700 2.85600 47.93500
C  41.87400 0.84500 47.49600
C  45.04000 0.07400 47.77800
O  44.31800 -0.90400 47.56500
C  46.49300 -0.14000 48.05300
N  46.41700 5.63300 48.00200
C  46.96100 4.37700 48.18400
C  48.50300 4.42000 48.44100
C  48.77700 5.98000 48.34200
C  47.35000 6.57900 48.24100
C  48.89400 3.62800 49.76000
C  49.66800 6.28200 47.05900
C  51.17400 6.28000 47.31000
N  44.76500 8.04400 47.82600
C  45.93100 8.76100 47.91200
C  45.59200 10.18400 47.82700
C  44.27600 10.25100 47.51500
C  43.80600 8.90900 47.54700
C  46.55300 11.40900 48.07600
C  43.06500 11.11600 47.35700
O  42.90100 12.32700 47.40200
C  41.80400 10.12300 47.28000
C  40.79500 10.50600 48.28800
O  40.34000 9.78600 49.16900
O  40.17000 11.69400 47.93100
C  38.86500 12.10200 48.55700
H  40.82400 3.23900 46.81300
H  46.98000 2.26500 48.28600
H  48.01900 8.67600 48.27200
H  39.69300 7.68300 47.83000
H  39.68200 5.62900 45.70500
H  38.11400 6.02300 47.65000
H  39.28000 5.00800 48.61400
H  38.42500 4.42800 47.06500
H  39.42200 9.25700 46.04200
H  38.75700 7.74500 45.52500
H  41.18200 7.38600 44.64800
H  41.01100 9.21000 44.44100
H  41.82500 0.17800 46.63600
H  40.92400 1.38100 47.49900
H  41.93400 0.29200 48.43300
H  47.07600 0.39100 47.30100
H  46.60000 -1.21400 47.90100
H  46.75000 0.25200 49.03700
H  48.93500 3.86300 47.60900
H  49.30100 6.29900 49.24300
H  48.41700 2.64900 49.73200
H  48.52700 4.20000 50.61200
H  49.96400 3.43300 49.83200
H  49.42900 7.29100 46.72200
H  49.41100 5.57700 46.26900
H  51.75200 5.93000 46.45400
H  51.43500 5.69200 48.19100
H  51.54500 7.27700 47.54700
H  46.34100 12.15600 47.31200
H  47.61600 11.17800 47.99900
H  46.46400 11.83200 49.07700
H  41.28100 10.42100 46.37100
H  37.94800 11.74500 48.08900
H  38.68500 13.17500 48.62000
H  38.84900 11.66600 49.55600
Mg 42.22800 41.23800 26.91900
C  41.45600 43.63100 29.40300
C  43.15600 39.13500 29.27400
C  42.98600 39.05600 24.55800
C  41.50500 43.66500 24.49300
N  42.40700 41.47000 29.21700
C  41.88100 42.44900 30.03100
C  41.93800 42.01900 31.52200
C  42.63700 40.59700 31.45400
C  42.76700 40.39100 29.90700
C  44.05100 40.39800 32.12800
C  40.55700 41.99000 32.16700
C  40.48100 42.80800 33.53200
H  39.83400 42.05600 34.69700
N  43.04800 39.39600 26.97400
C  43.38300 38.69400 28.02000
C  44.02400 37.38000 27.64200
C  43.87300 37.27600 26.27000
C  43.26200 38.59400 25.85900
C  44.57900 36.38300 28.69100
C  44.27500 36.17200 25.35900
O  43.91000 36.15600 24.17500
C  44.94800 34.89200 25.76200
N  42.42000 41.40500 24.81400
C  42.66300 40.31800 24.08300
C  42.74700 40.73900 22.52000
C  42.02200 42.03900 22.55300
C  42.03700 42.39300 24.00800
C  44.18600 40.73900 22.06100
C  40.65700 41.99500 21.79000
C  39.50100 40.91300 22.08300
N  41.66000 43.23900 26.91000
C  41.38500 44.13400 25.84100
C  40.79000 45.32700 26.35800
C  40.82300 45.16000 27.74600
C  41.39900 43.93400 28.06000
C  40.38700 46.48800 25.54500
C  40.53200 45.86000 28.97800
O  40.06100 46.89100 29.28500
C  40.88000 44.83000 30.07400
C  41.73500 45.48800 31.05300
O  42.85800 45.93700 30.76900
O  41.14400 45.64900 32.25400
C  41.82100 46.59400 33.18300
H  43.33100 38.40900 30.07200
H  43.33000 38.45800 23.71100
H  41.26400 44.39100 23.71400
H  42.60300 42.66200 32.09900
H  41.95200 39.82900 31.81300
H  44.85100 40.41300 31.38800
H  44.09800 39.45000 32.66400
H  44.22800 41.17300 32.87500
H  40.17400 40.98300 32.33200
H  39.86500 42.49000 31.48900
H  39.83400 43.67900 33.42200
H  41.42700 43.24800 33.84500
H  44.08200 35.41300 28.66400
H  44.34100 36.69900 29.70700
H  45.62400 36.13900 28.49800
H  45.91600 35.15200 26.19200
H  45.10900 34.21300 24.92500
H  44.30600 34.23300 26.34500
H  42.22200 39.97400 21.94800
H  42.69300 42.81200 22.17700
H  44.83100 41.08900 22.86700
H  44.29900 41.27400 21.11800
H  44.57100 39.80900 21.64100
H  40.85300 41.66000 20.77200
H  40.16500 42.96700 21.82000
H  38.59200 41.32800 22.51800
H  39.94100 40.04000 22.56400
H  39.14500 40.60900 21.09900
H  39.68100 47.05600 26.15100
H  39.75000 46.18200 24.71500
H  41.17200 47.14900 25.17700
H  39.88400 44.72100 30.50300
H  41.67400 47.60900 32.81500
H  42.90600 46.49700 33.21700
H  41.30700 46.37000 34.11800

