158

Mg 47.43300 44.48200 42.87000
C  44.09900 43.38900 42.53300
C  48.41300 41.25500 42.44100
C  50.72500 45.55100 42.38900
C  46.41300 47.75400 42.78700
N  46.40100 42.56800 42.45000
C  45.04200 42.32800 42.50100
C  44.78900 40.77200 42.41700
C  46.15600 40.21800 42.70600
C  47.07700 41.44100 42.57600
C  46.25100 39.46000 44.04000
C  44.04900 40.29800 41.14400
C  44.11600 41.21100 39.82400
H  44.20700 40.54200 38.45300
N  49.26000 43.47000 42.64100
C  49.49600 42.13300 42.55800
C  50.91100 41.86300 42.44600
C  51.59300 43.07500 42.42300
C  50.54000 44.18200 42.47000
C  51.46900 40.50700 42.11200
C  53.11900 43.22700 42.28000
O  53.81600 42.24800 42.03200
C  53.92000 44.49500 42.50100
N  48.34100 46.44900 42.22900
C  49.75000 46.53800 42.31800
C  50.02900 48.07700 42.47000
C  48.68100 48.77800 42.62000
C  47.73500 47.60200 42.54600
C  51.22300 48.57900 43.38200
C  48.29400 49.96000 41.66800
C  47.81700 51.23800 42.30400
N  45.64900 45.42200 42.65900
C  45.33400 46.75600 42.72000
C  43.88900 46.90100 42.80900
C  43.36400 45.61600 42.60100
C  44.48900 44.75300 42.55700
C  43.17800 48.20700 43.11200
C  42.12900 44.86000 42.41800
O  40.96500 45.24200 42.35500
C  42.55300 43.31400 42.55400
C  42.08400 42.89300 43.92500
O  42.16000 43.59100 44.95500
O  41.68700 41.48500 43.95600
C  41.64700 40.94500 45.35700
H  48.65400 40.19200 42.50200
H  51.73300 45.96700 42.45000
H  46.11400 48.77800 43.01700
H  44.14700 40.71400 43.29600
H  46.49600 39.63600 41.84900
H  45.41200 38.80400 44.27100
H  46.66800 40.10000 44.81700
H  47.01700 38.75300 43.72000
H  43.01300 40.33000 41.48100
H  44.25500 39.24500 40.95200
H  45.05600 41.75800 39.89100
H  43.34500 41.97100 39.95100
H  52.20100 40.50700 41.30400
H  50.73300 39.71400 41.98100
H  51.99600 40.26300 43.03400
H  53.74000 45.09000 41.60500
H  54.97200 44.22800 42.60200
H  53.50600 44.84400 43.44700
H  50.33600 48.26200 41.44100
H  48.65300 49.16800 43.63700
H  51.35900 47.75100 44.07700
H  50.94400 49.47500 43.93900
H  52.16500 48.83800 42.89800
H  47.47000 49.59600 41.05400
H  49.12500 50.19700 41.00400
H  48.71900 51.85000 42.32300
H  47.35800 51.02100 43.26900
H  47.02900 51.77200 41.77300
H  43.69900 48.76300 43.89200
H  42.13100 47.92600 43.23200
H  43.28300 48.84700 42.23600
H  42.07000 42.65700 41.83100
H  40.65400 40.54000 45.55400
H  42.19500 41.51500 46.10800
H  42.25700 40.04800 45.25300
Mg 36.44800 49.43500 24.35600
C  36.18300 47.79600 27.58000
C  35.13600 52.20800 25.78800
C  36.11600 50.84700 21.24700
C  37.36200 46.36900 22.97100
N  35.77500 49.95600 26.39900
C  35.91400 49.17200 27.56500
C  35.52000 49.99900 28.83400
C  35.05600 51.34900 28.15700
C  35.25900 51.18600 26.71500
C  33.60600 51.90900 28.62100
C  36.69500 50.22900 29.88100
C  36.30100 50.14000 31.38400
H  34.82600 50.25000 31.76700
N  35.78100 51.29000 23.60800
C  35.31300 52.31400 24.41000
C  35.02300 53.49000 23.57400
C  35.22700 53.05000 22.22600
C  35.70600 51.65300 22.30200
C  34.40800 54.80600 24.13000
C  35.11200 53.79400 20.89900
O  35.46500 53.32700 19.84600
C  34.38500 55.19800 20.88500
N  36.62800 48.70900 22.45900
C  36.48600 49.52100 21.30400
C  36.89800 48.79300 20.04500
C  37.52300 47.49100 20.59600
C  37.11000 47.50000 22.10500
C  35.60700 48.59700 19.22400
C  39.10800 47.43000 20.44400
C  40.07500 48.17200 21.47000
N  36.81600 47.50100 25.02500
C  37.24400 46.32900 24.38900
C  37.46500 45.30200 25.39400
C  37.04800 45.85200 26.56800
C  36.63700 47.15400 26.36200
C  37.82300 43.87600 25.10000
C  36.85000 45.48700 27.98700
O  37.03900 44.43300 28.58700
C  36.24400 46.73900 28.69900
C  34.91100 46.35300 29.37700
O  33.76400 46.57000 28.81300
O  35.11900 45.84900 30.61400
C  33.97800 45.41800 31.29300
H  34.62700 53.10700 26.14300
H  36.15400 51.23000 20.22500
H  37.73800 45.43200 22.55300
H  34.64200 49.49500 29.23800
H  35.73100 52.19500 28.27900
H  33.18000 51.23300 29.36200
H  33.06200 51.88300 27.67700
H  33.68400 52.97100 28.85800
H  37.17100 51.20900 29.89400
H  37.41400 49.51800 29.47500
H  36.92300 50.87800 31.89100
H  36.56900 49.16700 31.79600
H  33.32500 54.76900 24.01500
H  34.97600 55.65700 23.75500
H  34.54400 54.90400 25.20700
H  34.15400 55.45000 19.85000
H  35.09700 55.93900 21.24800
H  33.40700 55.12100 21.36100
H  37.56200 49.36900 19.40100
H  37.19500 46.58900 20.08000
H  34.73000 48.67400 19.86700
H  35.62700 47.61500 18.75100
H  35.48000 49.24900 18.35900
H  39.41600 47.88800 19.50400
H  39.41600 46.38600 20.38300
H  39.42600 48.24400 22.34400
H  40.57000 49.07100 21.10200
H  40.81500 47.43300 21.77700
H  38.85900 43.98500 24.77900
H  37.13400 43.42000 24.38900
H  37.80000 43.40600 26.08400
H  36.82600 47.06500 29.56200
H  34.21200 44.86300 32.20100
H  33.30900 44.83300 30.66100
H  33.26400 46.19500 31.56400

