158

Mg -0.43900 7.72900 27.66200
C  0.27400 9.89100 30.16200
C  -0.55300 5.03500 29.89300
C  -1.34500 5.78700 25.06000
C  0.13200 10.40100 25.38700
N  -0.05500 7.46300 29.74800
C  0.04100 8.53500 30.60200
C  -0.11500 8.06000 32.03600
C  0.17600 6.46700 31.88600
C  -0.26000 6.28100 30.42900
C  1.65400 5.97200 32.18400
C  -1.50400 8.48100 32.63700
C  -1.64400 8.57500 34.20000
H  -0.37900 8.43600 35.01200
N  -0.98300 5.71200 27.48100
C  -0.96600 4.75600 28.55500
C  -1.33700 3.45000 28.00600
C  -1.43900 3.66600 26.56500
C  -1.32100 5.08700 26.30100
C  -1.35200 2.14800 28.83400
C  -1.57200 2.60100 25.48900
O  -1.51700 2.87100 24.27900
C  -1.72800 1.16000 25.80400
N  -0.60000 8.05200 25.49800
C  -1.04600 7.04000 24.67700
C  -0.95300 7.51200 23.20900
C  -0.73100 9.07100 23.41900
C  -0.41500 9.25700 24.85600
C  0.08800 6.71000 22.36900
C  -1.85500 10.06000 22.92800
C  -1.58100 10.88400 21.64600
N  0.30400 9.72700 27.68900
C  0.47400 10.67300 26.73500
C  0.91800 11.92100 27.32500
C  0.83800 11.66200 28.72800
C  0.33400 10.31800 28.87200
C  1.30300 13.22600 26.69100
C  1.09400 12.13400 30.06600
O  1.49400 13.19700 30.39300
C  0.71000 11.00700 31.04400
C  1.90600 10.67200 31.88500
O  2.83900 9.99800 31.51400
O  1.80100 11.25600 33.13600
C  2.89900 11.05600 34.00900
H  -0.41000 4.19300 30.57300
H  -1.69000 5.21900 24.19400
H  0.33600 11.17800 24.64800
H  0.70600 8.51400 32.59200
H  -0.56000 5.91000 32.46600
H  2.07100 6.87900 32.62300
H  2.09600 5.63800 31.24500
H  1.60800 5.16300 32.91200
H  -2.12800 7.63400 32.35400
H  -1.86100 9.39200 32.15700
H  -2.46600 7.99800 34.62300
H  -2.06000 9.56600 34.37400
H  -0.62300 1.49700 28.35200
H  -2.36800 1.75300 28.81300
H  -1.04100 2.37100 29.85400
H  -2.55500 1.25700 26.50700
H  -0.77400 0.68700 26.03800
H  -2.18100 0.59100 24.99200
H  -1.91100 7.36500 22.71000
H  0.24600 9.31300 23.00000
H  -0.29600 6.18000 21.49700
H  0.59700 5.94600 22.95600
H  0.73600 7.43700 21.87900
H  -2.02200 10.84200 23.66800
H  -2.82900 9.57400 22.97500
H  -1.16600 11.85200 21.92600
H  -2.48300 10.83900 21.03500
H  -0.77700 10.39900 21.09200
H  1.39000 13.02400 25.62300
H  2.32800 13.51600 26.92000
H  0.54200 13.94600 26.99200
H  -0.16100 11.20600 31.66800
H  3.84600 10.85300 33.51000
H  2.56100 10.39000 34.80300
H  3.09700 12.05000 34.41100
Mg 44.72800 4.09100 46.51900
C  42.69000 7.06100 46.29900
C  41.60200 2.47400 45.66000
C  46.39700 1.30600 45.97800
C  47.55300 6.11400 46.52900
N  42.41300 4.69200 46.06900
C  41.89400 5.96900 46.04200
C  40.40900 5.96500 45.82400
C  40.03800 4.45800 45.78200
C  41.42100 3.80700 45.84900
C  38.99500 3.97000 46.86900
C  39.96200 6.70900 44.53100
C  40.99700 6.89300 43.36600
H  40.52300 7.21300 41.93100
N  44.11100 2.13900 46.07700
C  42.79300 1.67600 45.76000
C  42.88000 0.23500 45.47600
C  44.28600 -0.17700 45.53800
C  44.98800 1.11600 45.84600
C  41.62300 -0.57300 45.15200
C  44.83000 -1.59400 45.22300
O  44.05900 -2.49200 44.85700
C  46.32700 -1.88400 45.41500
N  46.69300 3.79700 46.47100
C  47.13700 2.49600 46.20300
C  48.68500 2.50300 46.18100
C  49.03700 4.02700 46.34000
C  47.70900 4.70600 46.41200
C  49.31600 1.55600 47.18500
C  49.92100 4.68800 45.15800
C  51.20900 5.44600 45.58300
N  45.16300 6.13300 46.57600
C  46.37200 6.79800 46.55400
C  46.12000 8.24600 46.65700
C  44.72200 8.40200 46.60000
C  44.12400 7.07500 46.49100
C  47.02200 9.44600 46.70600
C  43.66500 9.33900 46.73400
O  43.68700 10.54000 46.93700
C  42.34700 8.58100 46.48900
C  41.51100 8.71600 47.65400
O  41.68900 8.17700 48.75500
O  40.46500 9.56100 47.40600
C  39.55900 9.74800 48.52800
H  40.78900 1.83500 45.30800
H  47.13800 0.51600 45.83800
H  48.42800 6.76300 46.46400
H  40.02800 6.42500 46.73600
H  39.55600 4.22500 44.83300
H  38.55900 4.77900 47.45600
H  39.54200 3.22600 47.44900
H  38.15200 3.53500 46.33200
H  39.78900 7.69300 44.96700
H  39.07000 6.23900 44.11700
H  41.61400 5.99500 43.32500
H  41.71200 7.69100 43.56600
H  40.77700 -0.18700 45.72100
H  41.73100 -1.65200 45.25800
H  41.50800 -0.52000 44.06900
H  46.24200 -2.93500 45.69000
H  46.80600 -1.35500 46.24000
H  46.88600 -1.68900 44.50000
H  48.87000 2.27600 45.13100
H  49.53700 4.24400 47.28500
H  50.27400 2.01500 47.42900
H  49.44100 0.55400 46.77300
H  48.68000 1.50100 48.06800
H  49.31400 5.20100 44.41100
H  50.26300 3.80600 44.61700
H  51.95400 4.81900 45.09500
H  51.58500 5.43200 46.60600
H  51.07800 6.47300 45.24300
H  46.56500 10.25700 46.13800
H  47.94200 9.18800 46.18100
H  47.31400 9.81000 47.69100
H  41.83200 8.90300 45.58500
H  39.71100 10.75700 48.91200
H  39.62400 8.97500 49.29400
H  38.59500 9.56500 48.05300

