158

Mg 46.33000 24.89600 28.41500
C  46.85900 26.91900 31.30800
C  44.71200 22.78400 30.58900
C  46.12300 22.71700 25.91400
C  48.07100 27.20200 26.49700
N  45.79400 24.83800 30.74800
C  46.18300 25.70400 31.77100
C  45.67100 25.30500 33.14500
C  45.12800 23.88300 32.77800
C  45.22600 23.82100 31.24400
C  45.98600 22.78000 33.51000
C  44.59600 26.27600 33.69300
C  44.83600 26.77700 35.10900
H  43.69000 26.85400 36.09500
N  45.48400 23.08400 28.28500
C  44.81800 22.37000 29.28200
C  44.42100 21.10400 28.73300
C  44.90900 21.06900 27.37500
C  45.47300 22.39100 27.11100
C  43.63500 20.11200 29.54600
C  44.85600 19.86300 26.44700
O  45.20000 19.89900 25.27200
C  44.40200 18.40700 27.00600
N  46.89900 24.97300 26.46800
C  46.83400 23.89100 25.63600
C  47.69400 24.18000 24.38300
C  48.27600 25.58600 24.58300
C  47.70100 25.99800 25.94400
C  48.78800 23.14800 24.15300
C  47.99200 26.55700 23.44000
C  46.86400 27.54000 23.54700
N  47.21100 26.63800 28.78600
C  47.89700 27.49800 27.95800
C  48.27200 28.73400 28.60400
C  47.82600 28.51800 29.91400
C  47.25600 27.21000 30.00000
C  48.88500 29.97500 28.00400
C  47.84100 29.14900 31.23900
O  48.22400 30.20400 31.65900
C  47.26700 28.14300 32.22100
C  48.25500 27.65600 33.22200
O  49.45600 27.53000 32.91900
O  47.73700 27.57000 34.50300
C  48.56400 27.22700 35.71700
H  44.14400 22.14800 31.27100
H  46.09700 22.01300 25.07900
H  48.57300 27.96100 25.89300
H  46.51100 25.14000 33.82000
H  44.10700 23.72100 33.12200
H  46.69500 22.18300 32.93600
H  45.27700 22.07000 33.93500
H  46.62000 23.19000 34.29600
H  43.61700 25.79800 33.73000
H  44.49300 27.17500 33.08600
H  45.33700 27.74000 35.00900
H  45.67000 26.17300 35.46600
H  42.87400 19.65700 28.91100
H  43.22300 20.57200 30.44400
H  44.29700 19.25200 29.64500
H  44.94400 17.95400 27.83700
H  44.68700 17.73000 26.20100
H  43.33000 18.22800 27.09100
H  47.08400 24.11000 23.48300
H  49.36300 25.60300 24.66200
H  48.43800 22.57200 23.29600
H  48.93200 22.54700 25.05100
H  49.72800 23.60100 23.83900
H  48.01800 26.06700 22.46700
H  48.87900 27.18800 23.49400
H  47.37100 28.47300 23.79500
H  46.19900 27.34600 24.38900
H  46.28300 27.68000 22.63500
H  48.09400 30.46400 27.43500
H  49.64200 29.67300 27.28000
H  49.22200 30.55400 28.86400
H  46.43600 28.60900 32.75100
H  48.11500 26.39200 36.25600
H  48.90200 28.08600 36.29500
H  49.49400 26.89400 35.25600
Mg 16.37200 51.58100 25.71900
C  18.41700 50.88400 28.41700
C  13.69000 51.53600 28.03200
C  14.21200 51.70000 23.10100
C  18.99500 50.89100 23.59600
N  16.15900 51.28200 27.85800
C  17.14300 51.19200 28.75800
C  16.67900 51.48200 30.19800
C  15.11300 51.19600 30.10300
C  14.98500 51.38100 28.56200
C  14.68600 49.72100 30.45000
C  16.95800 52.94200 30.47600
C  16.89100 53.29400 31.98200
H  16.17700 52.31800 32.94500
N  14.27200 51.69800 25.58000
C  13.34500 51.59800 26.63300
C  12.04300 51.66900 26.09800
C  12.12300 51.70200 24.67600
C  13.58500 51.70500 24.37000
C  10.80800 51.82600 26.87700
C  10.99800 51.64900 23.66100
O  11.23000 51.76500 22.50000
C  9.46700 51.63100 23.99800
N  16.55400 51.31800 23.60200
C  15.53700 51.44800 22.72600
C  16.07800 51.44600 21.22600
C  17.56700 50.84600 21.53300
C  17.76500 51.11700 23.00700
C  15.33200 50.65300 20.13400
C  18.68800 51.34200 20.61400
C  19.03200 52.88100 20.68100
N  18.38800 51.11200 25.89400
C  19.32200 50.88500 24.95700
C  20.57700 50.41900 25.59900
C  20.32600 50.50900 26.99300
C  18.94300 50.84900 27.09800
C  21.78900 49.99700 24.89600
C  20.85000 50.30100 28.27100
O  21.97900 49.90500 28.53900
C  19.64500 50.58500 29.25300
C  19.42700 49.32100 30.05700
O  19.25700 48.19800 29.60600
O  19.46400 49.63700 31.36900
C  19.02600 48.70400 32.36400
H  12.84300 51.51700 28.72000
H  13.61700 51.75800 22.18700
H  19.75400 50.45100 22.94600
H  17.22000 50.79100 30.84400
H  14.52000 51.87000 30.72100
H  15.57100 49.08700 30.50000
H  14.17600 49.28400 29.59100
H  13.98200 49.63400 31.27700
H  16.23000 53.61200 30.01800
H  17.96300 53.14000 30.10200
H  16.45900 54.27700 32.17000
H  17.95500 53.38700 32.19900
H  10.46200 50.79500 26.80300
H  10.15600 52.53100 26.36200
H  11.00400 52.07800 27.91900
H  9.22300 51.16600 24.95300
H  9.01100 51.05700 23.19000
H  9.04600 52.63300 24.07600
H  16.07600 52.50000 20.94700
H  17.46600 49.77300 21.37100
H  14.56700 50.08600 20.66500
H  16.08200 49.97400 19.72900
H  14.96500 51.20000 19.26500
H  18.43500 51.07300 19.58800
H  19.59700 50.77700 20.81900
H  20.08700 52.86000 20.95300
H  18.51600 53.39600 21.49200
H  18.99100 53.35700 19.70100
H  21.90200 50.78600 24.15200
H  21.69600 49.04500 24.37300
H  22.65200 49.76100 25.51800
H  19.78200 51.48200 29.85700
H  18.85500 49.19000 33.32400
H  19.86600 48.01000 32.32500
H  18.12200 48.20100 32.02000

