158

Mg 16.01900 -2.58700 28.32900
C  14.92900 -0.31000 30.80300
C  17.96900 -4.11000 30.69400
C  17.62500 -4.34600 25.88500
C  14.69700 -0.33000 26.05200
N  16.41100 -2.24000 30.49900
C  15.79600 -1.29100 31.30900
C  16.24900 -1.41000 32.76200
C  17.29500 -2.60100 32.76400
C  17.26700 -3.02300 31.21200
C  18.69900 -2.21500 33.20300
C  15.09400 -1.64500 33.83900
C  15.13900 -0.76600 35.17500
H  16.49000 -0.05300 35.57600
N  17.44300 -4.16600 28.26700
C  18.09700 -4.68500 29.35300
C  18.95200 -5.77700 28.95000
C  18.79200 -5.85700 27.58200
C  17.92800 -4.78000 27.15200
C  19.71500 -6.68900 29.94000
C  19.35900 -6.89200 26.63100
O  19.16500 -6.88700 25.40500
C  20.37900 -7.97700 27.11500
N  16.22200 -2.36100 26.29900
C  16.80400 -3.24200 25.48100
C  16.72800 -2.76200 24.01800
C  15.76200 -1.53700 24.08900
C  15.56700 -1.33900 25.60600
C  18.03200 -2.45000 23.27700
C  14.39600 -1.86000 23.34500
C  13.80100 -0.79200 22.39800
N  14.70200 -0.91400 28.37600
C  14.35600 -0.04400 27.31200
C  13.61900 1.09300 27.80500
C  13.70900 0.94400 29.22500
C  14.47500 -0.21700 29.45700
C  13.02100 2.05700 26.96900
C  13.39600 1.65800 30.50600
O  12.71500 2.67100 30.69700
C  14.22900 0.88100 31.63300
C  15.03400 1.86700 32.30900
O  16.20000 2.13000 32.06200
O  14.29000 2.54900 33.16800
C  14.96100 3.69800 33.83800
H  18.63200 -4.56400 31.43400
H  18.00700 -4.89400 25.02100
H  14.36000 0.36100 25.27600
H  16.70400 -0.45500 33.02400
H  16.89400 -3.39600 33.39200
H  19.40400 -2.45900 32.40900
H  18.94100 -2.97100 33.95000
H  18.73900 -1.16100 33.48000
H  15.13800 -2.68100 34.17700
H  14.11500 -1.55500 33.36700
H  14.85200 -1.33400 36.06000
H  14.35500 -0.01400 35.07800
H  19.41500 -7.71500 29.72800
H  19.40500 -6.55400 30.97600
H  20.79900 -6.58200 29.93800
H  21.17900 -7.46100 27.64600
H  20.76000 -8.56500 26.28100
H  19.96100 -8.66200 27.85300
H  16.32800 -3.57000 23.40600
H  16.09100 -0.58400 23.67400
H  17.89600 -2.66400 22.21700
H  18.89400 -3.06800 23.53000
H  18.43300 -1.43700 23.33000
H  13.64100 -2.19800 24.05600
H  14.62100 -2.66400 22.64500
H  12.75200 -0.76500 22.69400
H  14.04800 -1.13500 21.39400
H  14.34400 0.15200 22.40800
H  12.23600 2.58600 27.50900
H  12.61100 1.59800 26.06900
H  13.75600 2.76300 26.58100
H  13.47400 0.58000 32.36000
H  14.96400 4.62700 33.26800
H  15.96800 3.40500 34.13600
H  14.41100 4.03600 34.71600
Mg 40.19400 9.61700 29.55200
C  42.33000 11.23400 31.95000
C  38.17700 8.75000 31.95800
C  38.35600 8.35200 27.08000
C  42.64900 10.38000 27.11200
N  40.43100 9.77300 31.86700
C  41.21700 10.57700 32.55300
C  40.69000 10.81900 33.98900
C  39.51400 9.74000 34.06600
C  39.29900 9.30700 32.55500
C  39.72000 8.50500 35.02200
C  40.22600 12.26100 34.28000
C  39.60700 12.47000 35.64100
H  40.38200 13.32900 36.75200
N  38.50700 8.58000 29.53300
C  37.76400 8.35000 30.67500
C  36.58200 7.62400 30.29500
C  36.68600 7.39700 28.86500
C  37.84300 8.21300 28.42200
C  35.51600 7.22000 31.24800
C  35.83000 6.58800 27.94600
O  35.92400 6.64000 26.73600
C  34.69100 5.80100 28.61400
N  40.54700 9.27400 27.36700
C  39.55900 8.78900 26.55200
C  39.85300 8.98300 25.05600
C  41.33500 9.37800 25.13100
C  41.57400 9.71900 26.60700
C  39.40100 7.76500 24.05200
C  41.72500 10.52300 24.17500
C  41.33400 11.88600 24.63600
N  42.11000 10.53700 29.46600
C  42.93700 10.75900 28.40300
C  44.17300 11.47900 28.91200
C  43.88800 11.68200 30.27900
C  42.62400 11.14000 30.54600
C  45.36700 11.97700 28.15200
C  44.45800 12.29500 31.44400
O  45.53400 12.88600 31.44100
C  43.46700 12.02100 32.63100
C  44.18100 11.32000 33.74800
O  44.78400 10.22000 33.65300
O  43.98700 12.02700 34.92900
C  44.56500 11.31600 36.11700
H  37.36300 8.77800 32.68500
H  37.67900 8.01500 26.29200
H  43.47700 10.50700 26.41200
H  41.52200 10.54000 34.63500
H  38.56800 10.16000 34.40500
H  39.63100 7.59200 34.43300
H  38.93000 8.68300 35.75200
H  40.71600 8.49300 35.46400
H  39.67600 12.63400 33.41700
H  41.15200 12.83100 34.36400
H  39.56200 11.44400 36.00600
H  38.59500 12.84500 35.49100
H  34.56700 7.63300 30.90500
H  35.83500 7.45700 32.26300
H  35.27900 6.15900 31.33600
H  35.08900 5.12300 29.36900
H  34.29300 5.26500 27.75300
H  33.97600 6.46800 29.09400
H  39.27300 9.88200 24.84700
H  41.96200 8.52100 24.88700
H  39.00700 6.87500 24.54200
H  40.24900 7.56000 23.39900
H  38.57600 8.09500 23.42100
H  41.22600 10.38900 23.21500
H  42.79700 10.62700 24.00700
H  40.55400 11.83500 25.39700
H  41.03500 12.49100 23.78000
H  42.26200 12.25200 25.07500
H  45.28700 11.55800 27.14900
H  46.22700 11.45500 28.57100
H  45.52200 13.05600 28.10900
H  43.04900 12.97300 32.95700
H  45.63900 11.45700 36.23700
H  44.42000 10.24100 36.00800
H  44.15400 11.72600 37.03900

