158

Mg 47.68200 24.70400 28.15800
C  48.67500 27.03000 30.73600
C  47.03600 22.48500 30.73200
C  46.88800 22.49000 25.88300
C  49.00700 26.79400 25.86000
N  47.81200 24.81900 30.49100
C  48.08500 25.90300 31.31200
C  47.88600 25.51000 32.75200
C  47.57300 24.00000 32.74500
C  47.57500 23.72300 31.20100
C  48.64600 23.12000 33.46000
C  46.76600 26.37600 33.46100
C  47.30800 27.39600 34.49000
H  46.63400 27.64300 35.85700
N  46.97700 22.77900 28.28500
C  46.82900 22.00600 29.45300
C  46.22800 20.68900 29.01600
C  46.16400 20.68400 27.61000
C  46.65700 22.03500 27.19200
C  45.79300 19.53400 29.99700
C  45.82800 19.62200 26.55600
O  45.96000 19.72100 25.35900
C  45.24100 18.34100 27.09500
N  48.08100 24.60700 26.06800
C  47.44300 23.67600 25.33700
C  47.52300 24.05900 23.82300
C  47.96600 25.54000 23.87600
C  48.28200 25.67200 25.38600
C  48.47700 23.07800 23.06500
C  46.92000 26.56800 23.38200
C  47.31000 27.66900 22.35500
N  48.72600 26.53000 28.24600
C  49.23600 27.20600 27.18500
C  49.66900 28.47200 27.71300
C  49.44700 28.45700 29.07700
C  48.90000 27.24300 29.35000
C  50.19800 29.68600 27.02000
C  49.72900 29.19200 30.34100
O  50.24600 30.28400 30.51500
C  49.12100 28.22900 31.48900
C  50.31000 27.97700 32.35900
O  51.21100 27.24500 32.18200
O  50.20200 28.72200 33.41700
C  51.11200 28.53300 34.52400
H  46.88800 21.84400 31.60300
H  46.59300 21.88200 25.02500
H  49.31800 27.51600 25.10300
H  48.78300 25.73600 33.32800
H  46.59000 23.70300 33.11100
H  48.99000 22.36600 32.75200
H  48.08300 22.58200 34.22300
H  49.47900 23.72200 33.82400
H  45.97700 25.81600 33.96300
H  46.35000 26.90300 32.60100
H  47.36700 28.37000 34.00400
H  48.35700 27.22600 34.73200
H  46.20300 18.55600 29.74600
H  44.71100 19.42800 30.08500
H  46.14200 19.85100 30.98000
H  45.93300 17.76400 27.70800
H  44.91700 17.72700 26.25400
H  44.41000 18.58600 27.75700
H  46.54300 23.89000 23.37600
H  48.90300 25.73300 23.35300
H  48.86500 22.43600 23.85600
H  49.34600 23.56000 22.61700
H  47.92800 22.60800 22.24800
H  46.43200 26.93700 24.28400
H  46.16100 26.06800 22.78100
H  48.37100 27.81400 22.15100
H  46.97200 28.64700 22.69700
H  46.82100 27.45100 21.40500
H  50.47800 29.43500 25.99700
H  51.01700 30.07900 27.62300
H  49.43400 30.46100 26.96100
H  48.32100 28.78600 31.97600
H  51.98800 29.17500 34.42400
H  51.51100 27.52000 34.58000
H  50.55400 28.81100 35.41700
Mg -2.51000 35.05200 27.09600
C  -4.33200 33.29800 29.60000
C  -1.45600 37.23200 29.70100
C  -0.79200 36.81700 24.76000
C  -3.86500 32.96600 24.70700
N  -2.93100 35.28300 29.43000
C  -3.65200 34.38100 30.18700
C  -3.62700 34.76000 31.65300
C  -2.73100 36.15900 31.67000
C  -2.39900 36.28300 30.18100
C  -3.58700 37.43400 32.13700
C  -3.05500 33.49400 32.52300
C  -3.98200 32.78900 33.48200
H  -3.92400 33.20000 34.99800
N  -1.25700 36.65100 27.20400
C  -0.96600 37.47200 28.37400
C  -0.09700 38.56300 28.03200
C  0.00400 38.51900 26.61500
C  -0.63400 37.24400 26.11500
C  0.40400 39.49400 29.06800
C  0.54400 39.68700 25.79800
O  0.50900 39.72000 24.57100
C  1.02600 40.95600 26.39000
N  -2.44300 34.99600 24.89800
C  -1.62100 35.76000 24.21800
C  -1.52400 35.29300 22.78500
C  -2.38500 34.04000 22.78000
C  -2.96100 33.96200 24.23100
C  -1.89900 36.42500 21.69000
C  -1.60100 32.79500 22.33400
C  -2.43300 31.83400 21.53000
N  -3.87700 33.53800 27.07800
C  -4.29000 32.78400 26.02800
C  -5.24800 31.83100 26.51100
C  -5.19800 31.88800 27.87500
C  -4.44000 33.00300 28.14900
C  -6.14100 30.86200 25.63900
C  -5.70900 31.34900 29.05700
O  -6.46700 30.37800 29.21200
C  -5.27900 32.23700 30.27300
C  -6.55100 32.83000 30.81600
O  -6.99600 33.87000 30.40800
O  -6.99100 32.22700 31.97800
C  -8.00100 32.86600 32.85500
H  -0.92000 37.70100 30.52800
H  -0.16700 37.33700 24.03100
H  -4.29400 32.31700 23.94100
H  -4.59500 34.94700 32.11900
H  -1.93200 35.96100 32.38500
H  -3.96800 37.98500 31.27700
H  -2.84900 38.01100 32.69300
H  -4.38600 37.33900 32.87200
H  -2.18200 33.97400 32.96600
H  -2.58200 32.78500 31.84400
H  -3.86200 31.70600 33.51400
H  -5.02100 33.00900 33.23600
H  0.66400 38.93700 29.96800
H  -0.35700 40.20500 29.39200
H  1.27900 40.09700 28.82800
H  0.18200 41.45100 26.87100
H  1.25400 41.53900 25.49800
H  1.92100 40.78600 26.98900
H  -0.49200 35.03400 22.54700
H  -3.26300 34.10200 22.13800
H  -1.75700 37.44300 22.05200
H  -2.95200 36.34600 21.42100
H  -1.15800 36.27000 20.90600
H  -1.11700 32.38600 23.22000
H  -0.74100 33.07100 21.72400
H  -1.88900 30.93600 21.23700
H  -2.81100 32.34100 20.64200
H  -3.28500 31.52500 22.13500
H  -6.66800 31.41300 24.86100
H  -6.81600 30.42900 26.37800
H  -5.59400 30.02000 25.21400
H  -4.76100 31.65400 31.03500
H  -7.44200 33.50100 33.54200
H  -8.64400 32.14300 33.35700
H  -8.70400 33.54100 32.36600

