158

Mg 23.95800 -5.26100 44.98000
C  25.69300 -2.69700 43.17900
C  21.19400 -4.55400 43.15000
C  22.74000 -8.24700 45.88800
C  27.10900 -6.24000 46.35400
N  23.52700 -3.78900 43.45700
C  24.35300 -2.84400 42.85800
C  23.59400 -2.06200 41.77900
C  22.08000 -2.42700 42.07500
C  22.23200 -3.69300 42.98600
C  21.24400 -1.25800 42.71900
C  24.05800 -2.42500 40.30200
C  24.21900 -1.26300 39.37600
H  24.43800 -1.38100 37.82800
N  22.12100 -6.19900 44.73900
C  21.10600 -5.76500 43.96200
C  19.96200 -6.73300 44.07300
C  20.34300 -7.73600 44.98600
C  21.78700 -7.47000 45.24800
C  18.59300 -6.57200 43.38100
C  19.41400 -8.75000 45.55000
O  18.25600 -8.83400 45.14700
C  19.95600 -9.70600 46.52300
N  24.80200 -6.97100 46.08300
C  24.01700 -8.03500 46.30300
C  24.90100 -9.12500 46.93800
C  26.21400 -8.43100 47.31700
C  26.06100 -7.15500 46.50800
C  24.35500 -9.81900 48.22300
C  27.43900 -9.33200 47.17100
C  28.37900 -9.15900 48.32400
N  25.95700 -4.57000 44.97800
C  27.11500 -5.07200 45.58200
C  28.23900 -4.15900 45.26100
C  27.73100 -3.27100 44.33100
C  26.33700 -3.52900 44.18600
C  29.65600 -4.23000 45.80400
C  28.17100 -2.23400 43.37000
O  29.24500 -1.92700 42.94000
C  26.78800 -1.69200 42.66800
C  26.50800 -0.33000 43.17100
O  26.57600 0.01700 44.34600
O  26.21500 0.49300 42.11000
C  25.91000 1.86300 42.51600
H  20.30400 -4.36600 42.54500
H  22.26800 -9.21300 46.07900
H  28.07500 -6.38400 46.84200
H  23.78200 -0.99600 41.90600
H  21.56800 -2.82900 41.20200
H  20.29800 -1.19000 42.18000
H  21.74800 -0.29300 42.65700
H  20.90600 -1.39200 43.74600
H  23.37800 -3.18000 39.90900
H  25.02500 -2.92500 40.34800
H  25.01600 -0.65700 39.80600
H  23.29600 -0.69100 39.47400
H  18.54900 -5.63000 42.83300
H  17.76100 -6.48800 44.08000
H  18.36100 -7.38500 42.69300
H  19.05200 -10.05000 47.02600
H  20.55100 -9.11000 47.21600
H  20.48700 -10.48800 45.98000
H  24.94600 -9.83300 46.11000
H  26.12600 -8.16200 48.37000
H  25.06400 -9.87000 49.04900
H  24.05500 -10.83000 47.94500
H  23.55500 -9.22900 48.67000
H  27.93400 -9.04000 46.24500
H  27.09200 -10.36600 47.17700
H  29.15100 -9.92900 48.31200
H  27.93500 -9.26100 49.31400
H  28.94600 -8.23400 48.22400
H  30.06700 -5.22300 45.62400
H  29.61400 -3.95900 46.85900
H  30.17800 -3.44200 45.26200
H  26.75400 -1.70700 41.57900
H  24.94000 1.84200 43.01100
H  25.77000 2.46900 41.62100
H  26.60800 2.32800 43.21200
Mg 49.51800 35.56600 27.50300
C  47.58800 34.46200 30.17300
C  50.30300 38.35200 29.22900
C  51.21100 36.45000 24.86100
C  48.43600 32.77600 25.64800
N  48.78000 36.44700 29.38000
C  48.10600 35.73600 30.36500
C  48.29800 36.43100 31.74100
C  48.89000 37.85500 31.33500
C  49.35500 37.55700 29.87800
C  47.83100 39.01200 31.27300
C  49.15500 35.74500 32.78600
C  48.83700 35.81000 34.22900
H  48.47000 37.25300 34.56800
N  50.55300 37.17700 27.10100
C  50.84500 38.20800 27.95900
C  51.85800 39.08600 27.34100
C  52.14600 38.52700 26.03600
C  51.25100 37.37900 25.90100
C  52.42400 40.36000 27.99100
C  53.30600 38.96600 25.05400
O  53.46900 38.42800 23.94100
C  54.10700 40.19500 25.37300
N  49.82100 34.64200 25.51100
C  50.53000 35.29700 24.64500
C  50.56200 34.65200 23.30600
C  49.89400 33.28800 23.52700
C  49.33100 33.55300 24.95400
C  49.90800 35.46100 22.09100
C  50.73800 32.03700 23.46100
C  50.04200 30.88900 22.76000
N  48.32300 33.93500 27.78500
C  47.96100 32.86100 27.02200
C  47.05200 31.95700 27.68700
C  46.85000 32.60100 28.92300
C  47.65800 33.77700 28.97000
C  46.49600 30.73200 27.09300
C  46.04400 32.53000 30.12500
O  45.13900 31.81500 30.53100
C  46.47000 33.77800 30.99600
C  46.79200 33.35400 32.38000
O  47.77000 32.65400 32.68100
O  45.73300 33.62300 33.17200
C  45.49200 32.94100 34.50100
H  50.63800 39.20800 29.81900
H  51.73000 36.93500 24.03200
H  48.03900 31.91500 25.10700
H  47.29700 36.61100 32.13300
H  49.81200 38.18400 31.81500
H  48.07700 39.48100 30.32100
H  48.04100 39.70700 32.08600
H  46.87000 38.49700 31.25800
H  50.16600 36.12000 32.62300
H  49.30100 34.71600 32.45800
H  49.56800 35.33900 34.88600
H  47.89600 35.26100 34.27800
H  53.49800 40.22800 28.12500
H  51.95200 40.64800 28.93000
H  52.30000 41.26000 27.38900
H  54.99200 40.23600 24.73800
H  54.49000 39.97700 26.37000
H  53.56000 41.13100 25.26200
H  51.62000 34.44700 23.14600
H  49.10200 33.17600 22.78700
H  49.34900 34.81200 21.41800
H  50.64400 35.91200 21.42600
H  49.31800 36.31000 22.43700
H  51.01000 31.56000 24.40300
H  51.62300 32.26400 22.86600
H  50.07600 30.00300 23.39300
H  50.51200 30.67000 21.80100
H  48.98400 30.97800 22.51300
H  47.18600 30.19500 26.44300
H  45.68600 31.07200 26.44800
H  46.02800 30.04400 27.79800
H  45.68900 34.49100 31.25800
H  46.33700 32.30200 34.76000
H  44.72800 32.16300 34.53700
H  45.15400 33.57500 35.32100

