158

Mg 54.49400 24.18600 45.43600
C  51.71200 26.26500 44.92100
C  52.70900 21.46600 44.25700
C  57.25700 22.43700 45.56500
C  56.28100 27.12900 46.31500
N  52.44200 23.99900 44.59800
C  51.53100 24.96000 44.37800
C  50.25400 24.36200 43.73800
C  50.49700 22.81500 44.01700
C  51.98600 22.75800 44.21700
C  49.94700 22.23600 45.30000
C  50.25700 24.76000 42.19200
C  48.94400 25.13800 41.44000
H  48.44900 24.18000 40.27400
N  54.85000 22.16900 45.02700
C  54.03000 21.22200 44.52000
C  54.78000 19.96100 44.41600
C  56.09000 20.19600 44.93000
C  56.07500 21.64000 45.24000
C  54.04300 18.64100 44.01000
C  57.18400 19.12300 45.13900
O  56.89800 18.00200 44.74400
C  58.51900 19.48900 45.61600
N  56.55200 24.73900 45.79900
C  57.47300 23.73300 45.87500
C  58.82800 24.35300 46.31700
C  58.52900 25.89400 46.31900
C  57.01300 25.87600 46.24400
C  59.33000 23.62700 47.61600
C  59.06200 26.86000 45.08100
C  60.54100 26.63700 44.70800
N  54.17100 26.28300 45.60400
C  54.97400 27.34900 46.03000
C  54.20600 28.50300 46.10900
C  52.94800 28.16000 45.67000
C  52.91700 26.77100 45.40700
C  54.67400 29.79500 46.50100
C  51.62100 28.75400 45.40300
O  51.15800 29.84100 45.61800
C  50.79700 27.51900 44.82300
C  50.35900 27.89700 43.44200
O  51.20500 28.26000 42.60800
O  48.98700 27.81400 43.27400
C  48.49800 28.30200 41.99600
H  52.00500 20.67600 43.98900
H  58.22300 21.94300 45.68400
H  56.80300 28.03200 46.64000
H  49.38200 24.68400 44.30600
H  50.25100 22.18100 43.16600
H  49.08100 22.78400 45.67200
H  50.65300 22.11100 46.12100
H  49.61100 21.22300 45.07600
H  50.66800 23.88700 41.68500
H  50.90800 25.61800 42.02100
H  49.09000 26.05000 40.86100
H  48.18700 25.29400 42.20800
H  53.56700 18.82700 43.04700
H  53.28600 18.15300 44.62500
H  54.74100 17.83100 43.79700
H  59.13000 20.07300 44.92800
H  59.05700 18.58900 45.91700
H  58.34000 20.00000 46.56200
H  59.55100 24.21000 45.51300
H  58.63500 26.34800 47.30500
H  59.74900 24.37400 48.29000
H  60.08200 22.85300 47.46500
H  58.51700 23.21800 48.21600
H  58.77100 27.87300 45.36100
H  58.54900 26.74000 44.12700
H  60.54900 26.14600 43.73500
H  61.00300 26.04700 45.50000
H  61.15000 27.51700 44.49800
H  54.19400 30.01300 47.45500
H  54.36600 30.35500 45.61800
H  55.73600 30.03000 46.55700
H  49.95300 27.27100 45.46600
H  49.09800 28.01900 41.13100
H  48.63400 29.38400 41.99900
H  47.46000 28.14900 41.69900
Mg 41.38900 40.83400 27.38600
C  40.65200 43.32100 29.75700
C  42.41300 38.84900 29.95000
C  42.46500 38.62000 25.11500
C  40.59600 43.18200 24.91000
N  41.51700 41.09100 29.56100
C  41.15100 42.08800 30.30800
C  41.04900 41.69900 31.83300
C  41.82600 40.32400 31.86900
C  41.93400 40.05700 30.33400
C  43.19400 40.14300 32.70500
C  39.56600 41.63500 32.43600
C  39.22800 42.65000 33.54500
H  38.54000 42.04400 34.80800
N  42.21200 38.90900 27.49000
C  42.58000 38.26300 28.62900
C  43.17800 36.99200 28.34400
C  43.19700 36.92100 26.93900
C  42.63900 38.17400 26.45100
C  43.87600 36.19100 29.39700
C  43.78500 35.85500 26.06100
O  43.69700 35.87000 24.81100
C  44.48600 34.66400 26.65700
N  41.67800 40.97200 25.32700
C  42.08500 39.88800 24.58200
C  41.79300 40.18300 23.07200
C  41.01400 41.49700 23.05900
C  41.08700 41.90300 24.53400
C  43.16400 40.16900 22.17000
C  39.61700 41.33700 22.50200
C  38.52800 40.74300 23.43500
N  40.73700 42.84600 27.27800
C  40.40800 43.68400 26.18200
C  39.89900 44.93500 26.64200
C  40.05000 44.85100 28.03900
C  40.48900 43.56300 28.35600
C  39.49000 46.02500 25.73500
C  39.82100 45.60400 29.31500
O  39.53300 46.83500 29.56100
C  40.09500 44.52600 30.45400
C  41.07600 45.10800 31.42000
O  42.25900 45.27700 31.20800
O  40.37900 45.61100 32.48300
C  41.21200 46.43200 33.36000
H  42.71800 38.24900 30.81000
H  42.85300 38.01700 24.29100
H  40.32000 43.82600 24.07200
H  41.61400 42.43400 32.40600
H  41.30600 39.44800 32.25800
H  43.43200 41.14500 33.06400
H  44.05200 39.75200 32.15700
H  43.14800 39.52500 33.60200
H  39.39500 40.69100 32.95200
H  38.80900 41.73800 31.65900
H  38.55800 43.34300 33.03600
H  40.13400 43.19800 33.80600
H  44.90300 36.05500 29.05900
H  43.28400 35.28200 29.50200
H  43.84100 36.65900 30.38100
H  43.95900 34.28400 27.53100
H  45.52000 34.96300 26.82700
H  44.47500 33.95400 25.83000
H  41.11800 39.42300 22.68000
H  41.62400 42.23100 22.53400
H  43.29200 41.15300 21.71900
H  43.01500 39.39500 21.41700
H  44.09100 39.89500 22.67300
H  39.52100 40.77400 21.57400
H  39.25300 42.29700 22.13500
H  37.92400 40.03300 22.87000
H  37.85400 41.52500 23.78300
H  38.95900 40.20700 24.28000
H  39.05700 45.57100 24.84400
H  40.38200 46.60300 25.49000
H  38.79100 46.59500 26.34800
H  39.12500 44.33200 30.91000
H  41.87500 45.80600 33.95800
H  40.65400 47.05300 34.06100
H  41.78600 47.19300 32.83200

