158

Mg 8.87000 4.31900 27.11600
C  9.89400 2.76900 29.95600
C  6.55000 6.05300 29.06000
C  7.66900 5.70100 24.21300
C  10.38600 1.80900 25.17100
N  8.25400 4.31500 29.19200
C  8.97100 3.72500 30.21700
C  8.47700 4.08000 31.58600
C  7.15900 4.85900 31.29100
C  7.32400 5.10100 29.77500
C  5.90300 3.99900 31.62900
C  9.43000 4.92700 32.43000
C  9.30300 4.65100 33.94000
H  10.57100 4.41100 34.80600
N  7.41500 5.80500 26.72400
C  6.56100 6.40000 27.62600
C  5.86000 7.41600 27.00400
C  6.16200 7.32500 25.57300
C  7.16700 6.29200 25.42600
C  4.87000 8.26000 27.78500
C  5.46700 8.03000 24.47400
O  5.74300 7.89900 23.29100
C  4.42200 9.14400 24.80900
N  9.08900 3.88500 24.94700
C  8.50200 4.63100 23.96200
C  8.77000 4.00800 22.53100
C  9.71300 2.83500 22.92400
C  9.72000 2.75900 24.42000
C  7.50700 3.63200 21.83600
C  11.15000 3.09200 22.40700
C  11.97300 1.96200 21.77400
N  10.06500 2.68300 27.42000
C  10.60700 1.77500 26.54000
C  11.32800 0.80400 27.31800
C  11.15400 1.20900 28.71100
C  10.32700 2.32300 28.65400
C  12.20200 -0.28300 26.91300
C  11.44700 0.86500 30.14000
O  12.14400 0.03200 30.64300
C  10.79800 2.04500 31.05600
C  10.15400 1.36900 32.20000
O  9.21500 0.57600 32.11300
O  10.89600 1.53600 33.34300
C  10.20200 0.92400 34.50800
H  5.90300 6.64200 29.71400
H  7.19100 5.99400 23.27600
H  10.86000 0.95200 24.68800
H  8.26500 3.08600 31.98000
H  6.97400 5.74800 31.89400
H  5.49100 4.42200 32.54500
H  6.12100 2.96600 31.89900
H  5.19500 3.94500 30.80200
H  9.14700 5.97800 32.35900
H  10.45100 4.90100 32.05000
H  8.64800 3.78000 33.92900
H  8.64300 5.38500 34.40200
H  3.91100 8.00600 27.33300
H  5.09100 9.32500 27.84500
H  4.91400 8.06300 28.85700
H  4.59100 9.66800 25.74900
H  3.46900 8.61900 24.88300
H  4.24200 9.88600 24.03100
H  9.19900 4.88900 22.05400
H  9.39500 1.92700 22.41000
H  7.53500 2.68100 21.30300
H  7.08700 4.43800 21.23500
H  6.77200 3.61000 22.64000
H  11.68600 3.53500 23.24600
H  11.24700 3.81200 21.59500
H  11.38700 1.17900 21.29300
H  12.56900 1.52700 22.57600
H  12.60300 2.39400 20.99700
H  12.69800 0.04200 25.99800
H  11.66800 -1.19700 26.64800
H  12.96700 -0.41900 27.67700
H  11.66900 2.53700 31.48800
H  10.22800 -0.16500 34.53600
H  9.16300 1.24500 34.57800
H  10.80500 1.26400 35.35100
Mg 44.85800 3.97400 48.58300
C  42.92600 6.87900 47.71200
C  42.22200 2.03700 47.90300
C  46.97200 1.53200 48.37600
C  47.71300 6.25500 48.52000
N  42.86900 4.39800 47.69800
C  42.27800 5.65700 47.62800
C  40.80600 5.50700 47.15600
C  40.50000 3.97700 47.39200
C  41.93300 3.42700 47.71600
C  39.47100 3.72100 48.57100
C  40.65700 6.03100 45.72900
C  39.68000 7.18400 45.58200
H  38.62900 6.72500 44.45000
N  44.59100 2.02000 48.27700
C  43.46600 1.34900 48.04900
C  43.71000 -0.05800 47.96100
C  45.11800 -0.21800 48.14800
C  45.65400 1.13400 48.24600
C  42.70500 -1.01000 47.66600
C  45.82700 -1.52700 48.22400
O  45.30400 -2.61100 47.93900
C  47.40700 -1.65200 48.60900
N  47.03600 3.95500 48.76400
C  47.59600 2.70600 48.61500
C  49.10700 2.79000 48.53500
C  49.36500 4.33000 48.63200
C  47.96600 4.88400 48.66500
C  49.78500 1.89200 49.55000
C  50.30400 4.97600 47.58100
C  51.70400 5.39600 48.02900
N  45.28500 6.12300 48.26600
C  46.44400 6.90100 48.28400
C  46.11900 8.31700 48.12800
C  44.71400 8.33400 47.88500
C  44.28500 7.02500 48.03100
C  47.14100 9.53200 47.99100
C  43.63800 9.22400 47.68300
O  43.59500 10.43300 47.49700
C  42.38900 8.30600 47.56900
C  41.36700 8.67500 48.68300
O  41.53000 8.28500 49.83200
O  40.25800 9.32400 48.23900
C  39.20900 9.75500 49.17100
H  41.34300 1.38900 47.88700
H  47.74200 0.76600 48.26000
H  48.50600 7.00400 48.47200
H  40.14100 6.05600 47.82200
H  40.15500 3.43800 46.50900
H  39.09500 4.60400 49.08700
H  39.97900 3.09600 49.30600
H  38.57500 3.14600 48.33900
H  40.29800 5.18900 45.13700
H  41.59500 6.39000 45.30400
H  40.04900 8.10400 45.13000
H  39.20100 7.45100 46.52400
H  43.06900 -1.81800 47.03100
H  41.77200 -0.65100 47.23000
H  42.47400 -1.53700 48.59100
H  47.60400 -0.96600 49.43300
H  47.97500 -1.42600 47.70600
H  47.80700 -2.62100 48.90800
H  49.41100 2.45300 47.54400
H  49.79400 4.40800 49.63100
H  50.42000 2.39000 50.28300
H  50.47900 1.17400 49.11200
H  49.10600 1.41400 50.25600
H  49.89100 5.77900 46.96900
H  50.54800 4.13000 46.93900
H  51.71800 6.46100 47.79700
H  52.37200 4.83700 47.37300
H  51.90300 5.24700 49.09000
H  48.09700 9.22800 48.41700
H  46.74100 10.42300 48.47500
H  47.22700 9.69400 46.91700
H  41.95400 8.62500 46.62200
H  38.34000 9.10500 49.06600
H  38.92000 10.78700 48.97100
H  39.52500 9.69000 50.21200

