158

Mg 40.04200 9.01400 29.77800
C  41.90300 10.45900 32.42400
C  37.87600 7.91000 32.25600
C  38.42700 7.45500 27.38800
C  42.77000 9.53200 27.72100
N  39.92600 9.10000 32.21100
C  40.71600 9.89900 32.98600
C  40.19900 9.84300 34.41600
C  39.04800 8.69400 34.36500
C  38.91600 8.59000 32.84800
C  39.30600 7.30300 35.04500
C  39.69400 11.26200 34.85300
C  38.92300 11.32900 36.21100
H  39.20300 12.43100 37.25000
N  38.30600 8.01900 29.79100
C  37.54800 7.57900 30.84900
C  36.29000 6.92200 30.36300
C  36.54200 6.67900 28.96400
C  37.81600 7.42400 28.65000
C  35.19700 6.52700 31.28800
C  35.67400 5.90700 27.92400
O  35.97400 5.80600 26.72000
C  34.30500 5.28500 28.33400
N  40.59700 8.31800 27.84300
C  39.70600 7.81900 26.95700
C  40.41000 7.60400 25.56000
C  41.73400 8.34800 25.71000
C  41.73900 8.74400 27.19000
C  40.53200 6.17000 25.15900
C  41.85000 9.60300 24.77100
C  41.21300 10.89900 25.15900
N  41.84800 9.82100 29.93900
C  42.81000 10.10900 29.02200
C  43.77600 11.03900 29.49400
C  43.48900 11.09800 30.86800
C  42.35900 10.35700 31.09700
C  44.95600 11.52900 28.76800
C  43.96800 11.70800 32.03300
O  44.93400 12.40700 32.28100
C  42.97000 11.33700 33.14700
C  43.63200 10.71000 34.40800
O  44.44800 9.81200 34.46600
O  43.12200 11.34100 35.43700
C  43.73600 11.00100 36.76100
H  37.26600 7.54200 33.08300
H  37.97200 6.88900 26.57300
H  43.49200 9.70000 26.91900
H  40.86400 9.44800 35.18400
H  38.11300 9.10600 34.74500
H  39.25400 6.44300 34.37800
H  38.50900 7.19900 35.78000
H  40.26300 7.50700 35.52600
H  39.14000 11.64400 33.99500
H  40.49100 11.99300 34.98600
H  38.99000 10.39400 36.76600
H  37.86900 11.48500 35.98500
H  34.29500 6.96300 30.85900
H  35.20900 6.79500 32.34500
H  35.01300 5.45600 31.20200
H  34.05200 5.31100 29.39400
H  34.58400 4.27400 28.03500
H  33.51000 5.64800 27.68300
H  39.77300 8.18000 24.88900
H  42.62000 7.72600 25.57900
H  41.54300 5.77000 25.23800
H  40.21500 6.07500 24.12100
H  40.04600 5.51800 25.88500
H  41.39700 9.24300 23.84700
H  42.91600 9.70100 24.56400
H  41.91000 11.56300 25.67000
H  40.42900 10.68200 25.88600
H  40.86300 11.42600 24.27200
H  45.34400 10.66200 28.23500
H  45.80800 11.90100 29.33800
H  44.69200 12.20700 27.95600
H  42.63600 12.33100 33.44400
H  44.63500 11.58300 36.96500
H  43.89100 9.92400 36.83300
H  43.01400 11.19900 37.55300
Mg 36.80400 49.29400 25.00700
C  36.73600 47.29300 27.84800
C  35.40100 51.85800 26.96700
C  36.13400 51.08300 22.28200
C  37.71800 46.59800 23.12100
N  36.14900 49.45300 27.13700
C  36.23700 48.56200 28.18300
C  36.01400 49.13600 29.53200
C  35.47900 50.56400 29.14000
C  35.65600 50.64100 27.61600
C  34.04600 50.95000 29.60400
C  37.29700 49.23500 30.47200
C  37.00700 48.72000 31.88000
H  35.68500 49.09400 32.54300
N  36.01000 51.27700 24.65200
C  35.54400 52.12800 25.58400
C  35.06300 53.34400 24.88500
C  35.32600 53.17300 23.48100
C  35.81500 51.82300 23.44000
C  34.42700 54.47400 25.61800
C  35.08800 54.17000 22.38200
O  35.35600 53.98600 21.18500
C  34.51500 55.58800 22.65900
N  36.75200 48.83700 22.99900
C  36.56900 49.77500 22.04900
C  37.01300 49.38900 20.67100
C  37.70800 48.00400 20.99000
C  37.37200 47.79900 22.48700
C  35.75400 49.17200 19.75800
C  39.17900 47.88600 20.59300
C  39.62900 46.59700 19.90400
N  37.07000 47.32200 25.32500
C  37.47000 46.32900 24.45700
C  37.65400 45.03800 25.27300
C  37.42800 45.46400 26.55600
C  37.08900 46.79600 26.55500
C  38.13000 43.72200 24.76600
C  37.41300 44.94300 27.91300
O  37.75800 43.88900 28.40000
C  36.93900 46.13600 28.79700
C  35.78000 45.70800 29.62900
O  34.62800 45.48800 29.28500
O  36.21000 45.46400 30.88900
C  35.19100 45.03500 31.80200
H  34.94100 52.62500 27.59400
H  36.25700 51.73400 21.41400
H  38.05900 45.70000 22.60100
H  35.24100 48.53000 30.00500
H  36.08900 51.40200 29.47700
H  34.15200 51.71200 30.37600
H  33.62800 50.03000 30.01200
H  33.45100 51.45700 28.84400
H  37.75000 50.22400 30.55400
H  38.05400 48.58200 30.03800
H  37.85400 49.05300 32.47900
H  37.11900 47.64500 31.74200
H  35.00300 55.39300 25.72900
H  34.36200 54.21400 26.67400
H  33.44200 54.65400 25.18500
H  33.51500 55.38800 23.04500
H  34.36000 56.14500 21.73500
H  35.17400 56.07800 23.37600
H  37.71500 50.15300 20.33800
H  37.13500 47.20400 20.52000
H  34.87300 49.34300 20.37600
H  35.69500 48.18800 19.29200
H  35.88400 50.01500 19.07900
H  39.83700 47.97700 21.45700
H  39.51800 48.64900 19.89300
H  39.86600 46.84500 18.87000
H  38.95400 45.74100 19.90000
H  40.54200 46.26600 20.39900
H  37.35400 43.15700 24.25000
H  38.47400 43.14500 25.62500
H  38.97100 43.80200 24.07800
H  37.76800 46.14100 29.50400
H  35.59500 44.83300 32.79400
H  34.82800 44.14300 31.29000
H  34.51000 45.87900 31.91200

