158

Mg 46.93500 16.70400 27.85900
C  45.05500 15.99700 30.72900
C  49.08100 18.62100 29.97500
C  48.57400 17.88200 25.18100
C  44.43900 15.49500 26.00700
N  47.25000 17.07800 30.12100
C  46.27200 16.70600 30.99200
C  46.61600 17.20300 32.31300
C  47.74000 18.27700 32.12200
C  47.98600 18.13500 30.67900
C  47.45600 19.76500 32.61800
C  46.95800 15.97500 33.26600
C  46.38300 15.99200 34.73500
H  45.89200 17.34600 35.26700
N  48.72100 17.83600 27.60200
C  49.42800 18.49600 28.60500
C  50.61200 19.07000 27.97600
C  50.38600 19.08700 26.58100
C  49.22000 18.25800 26.39400
C  51.70600 19.61600 28.83800
C  51.23400 19.72300 25.45500
O  51.15600 19.51600 24.23100
C  52.35700 20.49800 25.89900
N  46.47600 16.70600 25.86300
C  47.36900 17.27500 24.95100
C  46.73100 17.06500 23.56700
C  45.38100 16.28600 23.76700
C  45.42700 16.15700 25.29100
C  46.62600 18.40800 22.72000
C  45.50800 14.90900 23.02900
C  46.24500 13.76000 23.72700
N  45.16600 15.87300 28.21200
C  44.23500 15.32100 27.37500
C  43.13000 14.69100 28.06000
C  43.37500 14.89700 29.37200
C  44.60800 15.62600 29.44600
C  41.90500 14.12400 27.39000
C  42.94700 14.69900 30.67000
O  41.97600 14.04600 31.04600
C  43.90900 15.49200 31.64100
C  43.08700 16.58300 32.36900
O  42.75400 17.69900 31.98600
O  42.83800 16.20100 33.73000
C  41.86300 17.06000 34.43400
H  49.61600 19.38800 30.53900
H  49.05200 18.20800 24.25400
H  43.64200 15.18300 25.32900
H  45.70600 17.62000 32.74400
H  48.62300 17.94100 32.66600
H  48.22500 20.04100 33.34000
H  46.50800 19.86200 33.14600
H  47.46200 20.49900 31.81200
H  48.04700 15.93500 33.28100
H  46.67500 15.09000 32.69600
H  47.06600 15.48400 35.41500
H  45.53700 15.30700 34.68300
H  51.72500 19.25000 29.86500
H  51.61500 20.70200 28.87500
H  52.66500 19.37100 28.38300
H  53.22300 20.01200 26.34800
H  51.97800 21.28100 26.55500
H  52.73300 21.03600 25.02900
H  47.42000 16.52300 22.92000
H  44.65100 16.95800 23.31700
H  46.45900 19.16800 23.48300
H  45.82900 18.38000 21.97700
H  47.51800 18.73600 22.18600
H  45.97000 15.06800 22.05500
H  44.48000 14.60500 22.83300
H  46.72200 14.10800 24.64300
H  47.02200 13.35800 23.07800
H  45.60200 12.93700 24.03900
H  41.92800 13.04100 27.26900
H  42.04400 14.49700 26.37500
H  40.92800 14.46900 27.73000
H  44.26600 14.76300 32.36900
H  41.36500 16.31100 35.05000
H  41.12000 17.55900 33.81100
H  42.29900 17.77400 35.13300
Mg -6.18100 26.04300 25.97800
C  -4.78700 27.51300 28.73100
C  -7.81100 23.83800 27.96600
C  -7.65400 24.80000 23.23500
C  -4.17800 28.10100 23.89300
N  -6.17800 25.67100 28.14300
C  -5.67600 26.45700 29.08500
C  -6.06500 26.03700 30.50600
C  -6.88700 24.70700 30.18100
C  -7.00700 24.74800 28.64700
C  -6.27000 23.39500 30.60400
C  -6.77000 27.05700 31.41300
C  -6.56600 26.90100 32.91500
H  -6.07500 25.62300 33.56600
N  -7.50500 24.48600 25.62300
C  -8.06500 23.72500 26.56500
C  -9.10300 22.96200 25.97600
C  -8.98200 23.07400 24.54900
C  -8.06500 24.19700 24.38800
C  -9.95700 22.03500 26.89400
C  -9.65300 22.31600 23.48500
O  -9.64300 22.67500 22.30500
C  -10.50600 21.06600 23.90500
N  -5.71000 26.15300 23.83500
C  -6.59000 25.64000 22.88100
C  -6.49600 26.27400 21.50500
C  -5.49100 27.41600 21.78700
C  -5.09000 27.23800 23.24200
C  -6.19200 25.37400 20.27900
C  -6.06600 28.83400 21.46400
C  -6.50700 29.06500 19.99800
N  -4.74800 27.47900 26.20200
C  -4.02400 28.23700 25.27800
C  -3.19900 29.18300 26.04700
C  -3.51900 28.92200 27.42400
C  -4.39500 27.86100 27.45400
C  -2.32800 30.26900 25.54400
C  -3.09600 29.38700 28.74700
O  -2.41900 30.34900 29.06400
C  -3.95000 28.42300 29.71800
C  -3.01800 27.65400 30.61400
O  -1.97500 27.08200 30.24100
O  -3.43200 27.73200 31.89100
C  -2.50800 27.10100 32.79900
H  -8.39600 23.28200 28.70200
H  -8.02500 24.45200 22.26900
H  -3.60800 28.81200 23.29200
H  -5.09800 25.69800 30.87900
H  -7.88800 24.65300 30.60800
H  -7.05300 22.65800 30.78100
H  -5.66800 23.45800 31.51000
H  -5.70300 22.90300 29.81300
H  -7.84600 26.91300 31.31700
H  -6.50100 28.04600 31.03900
H  -7.46800 27.12600 33.48500
H  -5.94200 27.74200 33.21800
H  -10.84400 21.70400 26.35400
H  -10.39800 22.56500 27.73800
H  -9.45000 21.16300 27.30800
H  -10.44800 20.37500 23.06400
H  -11.53900 21.31300 24.15100
H  -10.10500 20.40500 24.67300
H  -7.50000 26.65800 21.32300
H  -4.54700 27.32000 21.24900
H  -6.29300 24.29300 20.37500
H  -5.12300 25.33500 20.07000
H  -6.71100 25.77200 19.40800
H  -5.27600 29.57700 21.57800
H  -6.86700 29.09500 22.15500
H  -7.53600 29.38300 19.83200
H  -6.27800 28.20100 19.37400
H  -5.88600 29.88200 19.63100
H  -2.95100 31.16100 25.47700
H  -1.77600 29.86700 24.69400
H  -1.65400 30.53700 26.35700
H  -4.44700 29.16600 30.34200
H  -2.16500 26.16300 32.36300
H  -3.08000 26.94100 33.71300
H  -1.70000 27.80900 32.98400

