158

Mg 49.81900 46.51200 40.25100
C  46.70200 47.88600 39.32000
C  48.85600 43.61900 38.83200
C  53.05600 45.41100 40.44200
C  50.90200 49.78400 40.91600
N  47.92000 45.83000 39.20300
C  46.78900 46.52000 38.95700
C  45.70100 45.62300 38.36600
C  46.29000 44.14400 38.48900
C  47.75800 44.50900 38.86300
C  45.47800 43.21500 39.46200
C  45.34700 45.95200 36.86500
C  43.78500 45.93000 36.59600
H  43.36500 44.89200 35.60800
N  50.81900 44.76300 39.72300
C  50.20800 43.68800 39.15000
C  51.13900 42.54700 39.10900
C  52.41300 43.07300 39.47800
C  52.13700 44.44900 39.95200
C  50.75200 41.12300 38.60500
C  53.71000 42.27900 39.54500
O  53.75700 41.07600 39.35100
C  54.96100 42.84700 39.99600
N  51.73200 47.49300 40.53800
C  52.90600 46.76800 40.71300
C  54.03000 47.67700 41.05700
C  53.34100 49.08100 41.00200
C  51.90200 48.77600 40.88100
C  54.68000 47.26300 42.39600
C  53.90700 50.02900 39.93500
C  54.67300 51.31700 40.39400
N  48.93100 48.45600 40.37300
C  49.54100 49.66900 40.54900
C  48.49500 50.72000 40.36600
C  47.29700 50.06500 40.02800
C  47.68700 48.71200 39.89700
C  48.78500 52.14100 40.49700
C  45.94300 50.20700 39.70300
O  45.24100 51.21300 39.77000
C  45.47400 48.86400 39.12000
C  44.22300 48.38800 39.77600
O  43.98900 48.48700 40.94900
O  43.36200 47.87700 38.85700
C  42.02000 47.62000 39.33700
H  48.63000 42.67900 38.32400
H  54.09700 45.10900 40.57100
H  51.15700 50.75100 41.35500
H  44.90600 45.79300 39.09200
H  46.29800 43.52700 37.59100
H  46.01200 42.92200 40.36600
H  45.12200 42.31300 38.96400
H  44.62200 43.74000 39.88400
H  45.87700 45.26600 36.20400
H  45.83200 46.91500 36.70700
H  43.48900 46.93300 36.28700
H  43.29300 45.70800 37.54300
H  50.21800 41.13300 37.65500
H  50.27900 40.53700 39.39200
H  51.64200 40.53200 38.38700
H  54.90700 42.92800 41.08200
H  55.14400 43.77000 39.44500
H  55.76900 42.19700 39.66000
H  54.77100 47.65500 40.25800
H  53.46600 49.54500 41.98100
H  54.09300 46.56400 42.99200
H  54.94100 48.16500 42.94900
H  55.66300 46.90400 42.09100
H  53.13700 50.27300 39.20300
H  54.59000 49.41900 39.34300
H  54.15000 52.25300 40.19600
H  55.65500 51.27900 39.92400
H  54.84800 51.23300 41.46600
H  48.43100 52.46000 41.47700
H  48.24800 52.70800 39.73700
H  49.82800 52.45600 40.53800
H  45.37000 48.87400 38.03500
H  41.89300 47.30100 40.37200
H  41.67400 46.75400 38.77300
H  41.38800 48.48000 39.11700
Mg 6.04700 54.29000 41.40000
C  5.55000 50.73700 41.22700
C  9.25700 53.60300 40.30400
C  6.40900 57.40100 41.14300
C  2.61900 54.60100 42.06400
N  7.15100 52.35600 40.55500
C  6.74500 51.06900 40.64000
C  7.78100 50.12600 40.12800
C  9.06500 50.97700 40.27200
C  8.44800 52.40500 40.37000
C  10.01500 50.53600 41.45400
C  7.42600 49.65000 38.67100
C  6.82700 50.63300 37.63400
H  5.89600 50.00700 36.55500
N  7.67100 55.39900 40.85200
C  8.90000 54.95800 40.44400
C  9.70300 56.15800 40.28000
C  8.95000 57.27900 40.51900
C  7.58700 56.72100 40.79600
C  11.14800 56.09100 39.85900
C  9.45700 58.77200 40.60200
O  10.65500 59.00000 40.39200
C  8.51100 59.91200 40.95100
N  4.65500 55.73500 41.37500
C  5.10400 57.00400 41.44000
C  4.03200 58.01200 41.89200
C  2.80700 57.12900 41.79700
C  3.36800 55.66500 41.76600
C  4.33900 58.60800 43.37400
C  1.82100 57.41200 40.68900
C  1.93600 56.77100 39.30500
N  4.41300 52.94900 41.63500
C  3.12700 53.26000 42.07200
C  2.49100 51.97000 42.47400
C  3.40000 50.99500 42.05900
C  4.55200 51.64200 41.65300
C  1.05300 51.77000 42.96700
C  3.62300 49.60700 42.13900
O  2.90700 48.64900 42.42600
C  5.03000 49.37600 41.50100
C  4.75000 48.50200 40.33500
O  4.05000 48.88900 39.40200
O  5.23400 47.24600 40.63000
C  4.46700 46.24400 39.83500
H  10.30000 53.28300 40.26200
H  6.45600 58.47000 41.36300
H  1.56700 54.74900 42.31800
H  7.84800 49.22600 40.74000
H  9.56600 50.86000 39.31100
H  11.02000 50.40100 41.05400
H  9.66100 49.55000 41.75500
H  10.01000 51.27300 42.25800
H  6.73600 48.80900 38.75200
H  8.35300 49.34400 38.18600
H  7.62600 51.05000 37.02000
H  6.33800 51.44300 38.17500
H  11.52800 55.06900 39.85100
H  11.59500 56.60500 40.71000
H  11.36800 56.62100 38.93200
H  9.02900 60.84700 41.16500
H  8.07200 59.64900 41.91400
H  7.74500 60.05300 40.18900
H  4.01600 58.81500 41.15500
H  2.19900 57.04300 42.69800
H  4.86000 57.91700 44.03700
H  3.35400 58.84600 43.77600
H  4.84300 59.57400 43.33300
H  1.74700 58.48400 40.50800
H  0.87900 57.14600 41.16800
H  1.05600 56.14400 39.16800
H  2.92600 56.33500 39.17300
H  1.87900 57.57600 38.57300
H  1.05600 50.71500 43.24200
H  0.41100 51.78000 42.08600
H  0.66200 52.37800 43.78200
H  5.46500 48.80700 42.32300
H  4.94300 46.24900 38.85400
H  3.41400 46.52300 39.82900
H  4.69200 45.29700 40.32500

