158

Mg 24.46000 -7.98100 47.81000
C  26.84200 -5.42500 46.80200
C  22.28900 -6.62700 45.55600
C  22.54100 -10.50200 48.52000
C  26.96100 -9.34400 49.93500
N  24.58800 -6.32400 46.28800
C  25.64000 -5.39500 46.08000
C  25.22200 -4.34300 45.03400
C  23.66100 -4.55500 44.88900
C  23.52300 -5.92500 45.64700
C  22.66100 -3.51800 45.50600
C  26.03200 -4.55500 43.65400
C  26.80300 -3.39000 43.07900
H  26.09100 -2.69900 41.95000
N  22.66800 -8.55400 47.11300
C  21.85000 -7.82000 46.21800
C  20.66600 -8.57400 46.01900
C  20.71700 -9.69500 46.82800
C  21.98700 -9.64800 47.57900
C  19.51800 -8.08200 45.24200
C  19.65000 -10.77100 46.93100
O  18.57000 -10.65200 46.36000
C  19.83400 -11.91800 47.76300
N  24.69200 -9.64200 49.08500
C  23.71300 -10.47500 49.25800
C  24.13300 -11.66800 50.16100
C  25.42300 -11.18200 50.70300
C  25.78400 -10.03900 49.80200
C  22.97200 -12.09600 51.12000
C  26.50700 -12.29700 50.95500
C  27.21300 -12.36900 52.32700
N  26.51000 -7.52400 48.28700
C  27.37900 -8.23800 49.14800
C  28.65300 -7.45900 49.13700
C  28.48400 -6.35900 48.24400
C  27.17200 -6.45800 47.76600
C  29.86300 -7.78800 49.91500
C  29.11900 -5.21400 47.63600
O  30.22100 -4.70900 47.79600
C  28.09500 -4.60800 46.61300
C  27.94200 -3.17400 46.89100
O  27.52300 -2.58000 47.91500
O  28.45600 -2.41400 45.90200
C  28.45500 -0.97300 45.96700
H  21.56100 -6.14700 44.89900
H  21.97900 -11.41500 48.72500
H  27.69500 -9.73500 50.64200
H  25.52400 -3.42700 45.54100
H  23.45500 -4.65900 43.82400
H  23.01900 -2.49900 45.64700
H  22.15300 -3.83800 46.41600
H  21.91900 -3.29100 44.74000
H  25.34200 -4.81100 42.85000
H  26.75400 -5.37200 43.67700
H  27.78100 -3.72800 42.73600
H  27.01900 -2.68500 43.88200
H  18.80500 -8.04400 46.06600
H  19.26200 -8.84500 44.50700
H  19.59000 -7.14500 44.68900
H  19.90100 -11.70900 48.83100
H  20.61700 -12.51800 47.30100
H  18.93600 -12.53100 47.68700
H  24.37700 -12.48700 49.48300
H  25.27600 -10.62600 51.62800
H  21.97700 -11.68200 50.95500
H  23.19800 -11.65000 52.08900
H  22.85700 -13.17100 51.25600
H  27.18200 -12.31500 50.10000
H  25.98400 -13.24800 50.84900
H  26.88900 -11.50600 52.90900
H  28.29700 -12.41100 52.22300
H  26.94500 -13.26100 52.89200
H  29.65300 -7.92000 50.97700
H  30.51600 -6.91600 49.91700
H  30.43600 -8.65200 49.58000
H  28.42500 -4.69100 45.57700
H  29.00400 -0.41500 45.20800
H  28.86600 -0.56200 46.88900
H  27.40100 -0.69400 45.96100
Mg -5.37800 25.10200 25.58500
C  -3.74500 26.53000 28.42000
C  -7.23800 23.18600 27.78900
C  -6.79400 23.70900 22.86800
C  -3.21300 26.94500 23.58000
N  -5.50600 24.89600 27.84700
C  -4.82100 25.62500 28.80500
C  -5.40100 25.30700 30.19700
C  -6.22200 24.07400 29.92100
C  -6.39300 24.11900 28.41700
C  -5.68700 22.78900 30.57300
C  -6.11300 26.58300 30.73300
C  -5.98800 26.82300 32.25800
H  -5.51300 25.70900 33.16000
N  -6.78500 23.58700 25.38200
C  -7.38000 22.92100 26.41700
C  -8.33200 21.95000 25.79500
C  -8.14400 22.01700 24.33300
C  -7.25000 23.15800 24.12200
C  -9.22300 21.09700 26.72200
C  -8.83600 21.24600 23.23600
O  -8.70000 21.44900 22.03600
C  -9.76700 20.14100 23.62700
N  -5.11600 25.44900 23.60000
C  -5.82400 24.73100 22.62300
C  -5.10700 24.79500 21.21500
C  -4.20200 26.05900 21.41000
C  -4.14000 26.13800 22.92900
C  -4.31300 23.55400 20.91900
C  -4.79300 27.32000 20.77600
C  -4.05600 27.77300 19.57400
N  -3.87700 26.49000 25.87300
C  -3.07700 27.11800 24.95300
C  -2.21200 28.07500 25.67700
C  -2.45600 27.88000 27.01300
C  -3.37600 26.86300 27.08600
C  -1.28600 29.08200 25.03400
C  -2.17100 28.35800 28.28400
O  -1.49500 29.34100 28.61300
C  -2.91800 27.49400 29.29900
C  -1.95000 26.70900 30.17700
O  -0.87500 26.25500 29.84700
O  -2.49700 26.61000 31.42100
C  -1.65400 26.11700 32.55500
H  -7.93200 22.75200 28.51100
H  -7.32300 23.31100 21.99900
H  -2.62500 27.54000 22.87800
H  -4.63400 24.93000 30.87300
H  -7.25200 24.24100 30.23600
H  -4.64600 22.80400 30.89300
H  -5.63900 22.02100 29.80100
H  -6.35100 22.47900 31.38000
H  -7.17600 26.45100 30.53300
H  -5.78700 27.40100 30.08900
H  -6.89500 27.06400 32.81300
H  -5.35700 27.68500 32.47600
H  -8.73400 20.73400 27.62600
H  -9.69100 20.23200 26.25300
H  -10.13200 21.64600 26.96900
H  -9.22100 19.38800 24.19500
H  -10.30200 19.67700 22.79900
H  -10.51100 20.58800 24.28700
H  -5.89500 24.95700 20.47900
H  -3.14800 25.84000 21.23800
H  -4.64700 22.65200 21.43200
H  -3.22700 23.61900 20.98700
H  -4.62400 23.31500 19.90200
H  -5.02800 28.13800 21.45700
H  -5.81600 27.07100 20.49400
H  -3.15500 27.16900 19.47100
H  -3.66600 28.75700 19.83400
H  -4.60900 27.72800 18.63500
H  -0.68100 28.56700 24.28700
H  -0.58600 29.49600 25.75900
H  -1.84000 29.90000 24.57300
H  -3.55200 28.10200 29.94400
H  -0.59300 26.27500 32.35900
H  -1.81100 25.05200 32.72700
H  -2.00200 26.54700 33.49400

