158

Mg 2.20800 -0.96100 43.82300
C  5.62300 -0.54600 43.28200
C  1.72300 1.90000 41.73100
C  -1.08400 -1.56600 43.75600
C  2.77800 -4.03000 45.36400
N  3.56400 0.52300 42.64000
C  4.91000 0.38100 42.47900
C  5.46800 1.41300 41.46800
C  4.18600 2.25600 41.07800
C  3.07800 1.60500 41.87700
C  4.27900 3.81600 41.41300
C  6.12800 0.82400 40.25500
C  7.59800 1.19700 40.17900
H  8.12500 1.85200 38.81300
N  0.54500 0.06100 42.99700
C  0.57600 1.26600 42.29000
C  -0.78400 1.70000 42.06600
C  -1.60900 0.70200 42.64800
C  -0.73200 -0.38500 43.10200
C  -1.04400 3.09600 41.37500
C  -3.16600 0.69100 42.71100
O  -3.73400 1.52700 42.04500
C  -3.98300 -0.26200 43.62900
N  1.01900 -2.61000 44.50000
C  -0.33600 -2.58200 44.36800
C  -0.97200 -3.87900 44.96300
C  0.30100 -4.51400 45.70700
C  1.42000 -3.73700 45.08700
C  -2.21200 -3.73600 45.86300
C  0.41900 -6.09100 45.36300
C  0.64800 -7.01800 46.59200
N  3.82000 -2.07800 44.25500
C  3.90500 -3.26800 44.90600
C  5.28500 -3.67700 44.96100
C  6.00400 -2.59400 44.45200
C  5.03600 -1.57600 44.02600
C  5.83500 -5.02700 45.51000
C  7.31300 -2.10600 44.27200
O  8.37800 -2.59700 44.63300
C  7.14000 -0.67700 43.54700
C  7.59800 0.55100 44.34300
O  7.28800 0.85900 45.47600
O  8.56900 1.24400 43.58300
C  9.08700 2.36400 44.22100
H  1.36300 2.66500 41.04000
H  -2.14000 -1.84100 43.76300
H  2.95600 -5.02400 45.78100
H  6.14000 2.08900 41.99800
H  3.94800 2.16500 40.01800
H  5.28700 4.01200 41.77800
H  3.61100 4.13000 42.21500
H  4.09200 4.30600 40.45800
H  5.74600 1.07500 39.26600
H  6.14800 -0.22700 40.54700
H  8.21100 0.30700 40.32000
H  7.83500 1.92800 40.95300
H  -2.13200 3.14400 41.42900
H  -0.85600 3.16000 40.30400
H  -0.49300 3.87100 41.90900
H  -4.96400 0.16200 43.84400
H  -3.64800 -0.45600 44.64800
H  -4.28200 -1.19000 43.14200
H  -1.38100 -4.49700 44.16400
H  0.36100 -4.32600 46.77900
H  -3.02300 -4.44800 45.70700
H  -2.61900 -2.73400 45.72900
H  -1.98900 -3.83500 46.92600
H  1.16900 -6.21100 44.58100
H  -0.52100 -6.43900 44.93600
H  -0.07100 -7.83400 46.64700
H  0.60500 -6.42400 47.50500
H  1.53200 -7.63700 46.43900
H  5.50400 -5.81500 44.83400
H  5.41000 -5.05900 46.51400
H  6.90600 -4.97900 45.70500
H  7.64500 -0.71200 42.58100
H  10.09500 2.23700 44.61600
H  8.43900 2.75600 45.00600
H  9.10400 3.13300 43.44800
Mg 36.33400 0.94900 29.07300
C  34.20400 1.89400 31.71200
C  39.00300 1.06700 31.22800
C  38.42400 0.83600 26.36800
C  33.66200 1.31400 26.83800
N  36.55700 1.41000 31.25600
C  35.48400 1.57300 32.18900
C  36.07200 1.57200 33.58300
C  37.59300 1.45600 33.35900
C  37.75300 1.28100 31.86700
C  38.47900 2.52400 33.97300
C  35.45700 0.46000 34.51500
C  34.97000 0.96300 35.89800
H  35.72600 2.06400 36.57000
N  38.40000 0.95700 28.85100
C  39.32000 0.93100 29.86700
C  40.64000 0.68300 29.33100
C  40.45800 0.64500 27.93000
C  39.04400 0.87600 27.67900
C  41.90500 0.44200 30.17600
C  41.60100 0.37100 26.89000
O  41.41200 0.30500 25.67200
C  43.04300 0.18100 27.18800
N  36.05700 1.04400 26.87900
C  37.07600 0.89100 25.98800
C  36.53400 0.59400 24.58300
C  34.93400 0.63500 24.72000
C  34.83900 1.01900 26.20900
C  37.11600 1.62500 23.56800
C  34.24000 -0.69600 24.37800
C  34.13000 -1.79100 25.51900
N  34.39700 1.39600 29.15300
C  33.43000 1.55400 28.21300
C  32.15800 2.01900 28.79700
C  32.45000 2.12000 30.13300
C  33.80500 1.77200 30.31900
C  30.91600 2.36200 27.98200
C  31.80500 2.47900 31.41800
O  30.70400 2.91700 31.66100
C  32.96800 2.29100 32.46300
C  33.04100 3.48500 33.27200
O  33.66100 4.51500 32.95300
O  32.22000 3.39100 34.37400
C  32.25700 4.41400 35.43100
H  39.81700 0.81200 31.90900
H  39.04900 0.53500 25.52500
H  32.77800 1.19200 26.20900
H  35.85900 2.55000 34.01500
H  37.98900 0.57100 33.85600
H  37.96300 3.00900 34.80200
H  38.62400 3.36200 33.29100
H  39.38600 2.17100 34.46200
H  36.22800 -0.30300 34.61400
H  34.61600 0.00600 33.99000
H  34.95900 0.16100 36.63500
H  33.92400 1.20600 35.70800
H  42.23400 -0.58400 30.01100
H  41.75000 0.47600 31.25400
H  42.57100 1.25900 29.89700
H  43.63600 0.21900 26.27400
H  43.13100 -0.87200 27.45900
H  43.31500 0.92100 27.94000
H  36.85400 -0.39000 24.23900
H  34.53700 1.51900 24.22000
H  37.65900 0.99000 22.86800
H  37.78300 2.42500 23.89000
H  36.24000 2.02500 23.05800
H  34.58000 -1.31600 23.54800
H  33.18800 -0.50300 24.16600
H  33.11100 -2.00400 25.84200
H  34.63500 -1.46000 26.42600
H  34.77600 -2.60500 25.18900
H  30.96400 3.30500 27.43800
H  30.05500 2.13200 28.61000
H  30.94800 1.47100 27.35500
H  32.70800 1.41100 33.05200
H  31.62900 5.23200 35.07900
H  33.31000 4.68400 35.50700
H  32.01000 3.90900 36.36400

