158

Mg 24.71700 -5.76200 46.17200
C  26.51700 -2.96000 45.09200
C  22.10400 -4.60500 44.02200
C  23.22300 -8.60100 46.67600
C  27.63400 -6.98700 47.82100
N  24.47200 -4.02800 44.65200
C  25.30700 -3.05000 44.38400
C  24.73300 -2.07500 43.32700
C  23.22000 -2.34000 43.52300
C  23.27400 -3.74500 44.11400
C  22.37500 -1.37600 44.45700
C  25.35600 -2.61700 41.98400
C  25.65200 -1.55400 40.88200
H  25.27100 -1.95300 39.46200
N  22.85600 -6.51200 45.50300
C  22.00900 -5.91200 44.63600
C  20.92100 -6.86400 44.40700
C  21.16400 -8.03400 45.16700
C  22.44800 -7.73800 45.87600
C  19.70400 -6.47400 43.65700
C  20.37900 -9.30000 45.12600
O  19.44600 -9.21700 44.32000
C  20.65200 -10.47300 45.92100
N  25.35400 -7.57800 47.05200
C  24.45300 -8.54800 47.23700
C  25.12500 -9.76300 47.91500
C  26.49700 -9.12100 48.40400
C  26.57700 -7.82500 47.64600
C  24.37700 -10.49100 49.04300
C  27.76100 -10.00200 48.23000
C  28.62300 -9.82700 46.94900
N  26.60800 -5.12300 46.51800
C  27.71800 -5.71900 47.18200
C  28.83200 -4.81400 47.05000
C  28.44600 -3.75500 46.21600
C  27.06500 -3.89500 46.00500
C  30.20900 -4.99700 47.70300
C  28.92100 -2.59300 45.50900
O  29.99000 -1.99000 45.56400
C  27.64900 -2.01400 44.76200
C  27.33600 -0.66400 45.17200
O  26.42900 -0.25300 45.81300
O  28.31100 0.10100 44.65100
C  28.15500 1.46100 45.03900
H  21.31800 -4.24400 43.35600
H  22.77800 -9.58200 46.85800
H  28.54000 -7.31300 48.33700
H  25.06500 -1.05100 43.49400
H  22.65900 -2.31500 42.58900
H  21.70100 -1.87300 45.15600
H  21.70100 -0.75200 43.87000
H  23.01900 -0.70500 45.02400
H  24.54500 -3.18000 41.52200
H  26.29800 -3.16500 42.01300
H  26.71700 -1.32500 40.86700
H  25.02200 -0.68400 41.07000
H  18.80900 -6.84600 44.15600
H  19.84600 -6.77900 42.62000
H  19.60100 -5.39200 43.73300
H  19.81300 -11.15500 45.78300
H  20.79100 -10.16200 46.95600
H  21.56700 -10.85200 45.46700
H  25.43000 -10.53200 47.20400
H  26.56100 -8.90000 49.47000
H  24.17900 -11.51600 48.73000
H  23.41400 -10.04700 49.29200
H  24.90700 -10.41200 49.99300
H  27.34300 -11.00600 48.15000
H  28.30700 -9.95800 49.17300
H  28.76500 -10.80400 46.48700
H  29.62200 -9.48800 47.22600
H  28.24400 -9.11300 46.21800
H  30.09400 -5.22500 48.76300
H  30.82300 -4.09900 47.64800
H  30.83500 -5.74200 47.21200
H  27.65100 -2.16400 43.68200
H  28.93500 2.05300 44.56000
H  28.13000 1.48300 46.12800
H  27.22800 1.94700 44.73400
Mg 25.24800 0.69300 30.05000
C  27.27000 0.82100 32.97000
C  22.47300 1.19100 31.99300
C  23.41500 0.78100 27.24400
C  28.11600 0.56200 28.12900
N  24.92900 0.69200 32.22800
C  25.85300 0.86100 33.19600
C  25.21100 1.09100 34.53600
C  23.70700 0.91700 34.19600
C  23.66800 0.85500 32.70000
C  22.97100 -0.22600 34.99900
C  25.49800 2.53900 35.08300
C  26.12300 2.63700 36.51500
H  25.43600 3.58200 37.61200
N  23.22100 0.84500 29.69900
C  22.24900 1.06800 30.60900
C  20.97900 1.15100 29.92000
C  21.23900 0.76800 28.53000
C  22.68300 0.80200 28.44500
C  19.67100 1.45800 30.64300
C  20.36000 0.50800 27.31500
O  20.73300 0.08200 26.23900
C  18.93900 0.67000 27.54100
N  25.65300 0.41900 28.04200
C  24.73500 0.52300 27.00100
C  25.34400 0.69800 25.64900
C  26.84100 0.56500 25.95100
C  26.86400 0.63100 27.48400
C  24.84200 -0.23900 24.49500
C  27.67800 1.71100 25.21800
C  28.04000 2.95800 25.90800
N  27.28100 0.45400 30.40400
C  28.31400 0.51300 29.56000
C  29.55600 0.51000 30.26600
C  29.25700 0.54900 31.60400
C  27.82600 0.60300 31.63200
C  30.97900 0.60100 29.73400
C  29.68800 0.79600 32.99100
O  30.80900 1.04300 33.38800
C  28.44000 0.96300 33.86900
C  28.44300 -0.09400 34.98100
O  28.40100 -1.31100 34.86500
O  28.68600 0.55500 36.14500
C  28.75500 -0.39200 37.28700
H  21.61000 1.47500 32.59800
H  22.90800 1.04700 26.31400
H  28.93900 0.68700 27.42200
H  25.59700 0.39700 35.28300
H  23.06100 1.76900 34.40700
H  22.30600 0.20600 35.74600
H  23.70400 -0.77900 35.58700
H  22.42400 -0.94000 34.38300
H  24.65400 3.22100 34.98400
H  26.13400 3.08300 34.38600
H  27.15500 2.94800 36.35100
H  26.13600 1.62500 36.91700
H  19.02800 2.09500 30.03600
H  19.76700 1.81900 31.66700
H  19.24600 0.45500 30.67800
H  18.33900 0.42600 26.66400
H  18.62400 1.68200 27.79600
H  18.56800 0.02400 28.33600
H  25.02500 1.71000 25.40200
H  27.17600 -0.45000 25.74000
H  24.13200 -0.95700 24.90500
H  25.61600 -0.82300 23.99500
H  24.41800 0.42500 23.74200
H  26.94900 2.04700 24.48000
H  28.58500 1.23000 24.85100
H  27.81300 3.81000 25.26800
H  29.11300 3.01100 26.09200
H  27.56300 3.12600 26.87400
H  31.06000 1.63100 29.38800
H  30.97500 -0.07800 28.88100
H  31.70500 0.20000 30.44000
H  28.57500 1.96200 34.28200
H  27.75700 -0.37700 37.72500
H  29.26000 0.02200 38.15900
H  29.21100 -1.36500 37.10400

