158

Mg 8.82400 3.46100 27.51100
C  10.12200 2.01200 30.35300
C  6.79200 5.40500 29.50600
C  7.28200 4.78500 24.76800
C  10.08300 0.92200 25.60800
N  8.46700 3.62800 29.71000
C  9.15700 2.93900 30.69000
C  8.81200 3.44300 32.07000
C  7.65500 4.42800 31.71900
C  7.58700 4.48400 30.21800
C  6.29800 4.00200 32.34800
C  10.07000 4.05600 32.79600
C  10.38500 3.48400 34.20400
H  9.21600 2.91700 34.88100
N  7.25400 4.94700 27.17700
C  6.69800 5.69500 28.13800
C  5.95400 6.76900 27.58900
C  6.03100 6.59800 26.14900
C  6.90700 5.41500 25.93900
C  5.21300 7.86000 28.32300
C  5.41400 7.43800 25.00100
O  5.52600 7.10700 23.81100
C  4.59600 8.74700 25.39200
N  8.55500 2.87500 25.51700
C  7.99000 3.56900 24.53500
C  8.16700 2.95800 23.10900
C  9.10800 1.70400 23.40600
C  9.29500 1.85300 24.94400
C  6.83300 2.54900 22.51200
C  10.48900 1.60800 22.65600
C  10.66000 0.37000 21.73000
N  9.95400 1.88700 27.81900
C  10.49600 0.95800 26.94000
C  11.33400 0.07900 27.67900
C  11.23300 0.43100 28.99000
C  10.45700 1.61200 29.00300
C  11.92700 -1.17500 27.12900
C  11.71000 0.11000 30.32900
O  12.41000 -0.78400 30.74400
C  11.09500 1.22200 31.22000
C  10.54600 0.46100 32.36500
O  9.52200 -0.22000 32.30100
O  11.34200 0.59600 33.50100
C  11.18800 -0.01500 34.85200
H  6.22800 6.05300 30.18000
H  7.05600 5.32700 23.84700
H  10.40200 0.11600 24.94400
H  8.34000 2.59200 32.56000
H  7.95300 5.42200 32.05300
H  5.56500 3.74500 31.58400
H  5.93500 4.85700 32.91800
H  6.32500 3.10400 32.96500
H  9.98300 5.14200 32.82100
H  10.97800 3.97900 32.19900
H  10.70400 4.39300 34.71400
H  11.24600 2.82800 34.07100
H  5.48900 8.84400 27.94600
H  5.45400 7.87900 29.38600
H  4.14900 7.70200 28.15100
H  3.96000 9.09600 24.57800
H  5.21100 9.57900 25.73300
H  3.93700 8.47000 26.21600
H  8.71100 3.67300 22.49200
H  8.54000 0.81700 23.12800
H  6.72500 1.51500 22.18400
H  6.66100 3.27800 21.72000
H  6.02700 2.71400 23.22800
H  11.24900 1.47000 23.42500
H  10.73800 2.55600 22.18000
H  11.19700 -0.36400 22.33100
H  11.25700 0.58900 20.84500
H  9.65500 0.02800 21.48200
H  11.24500 -1.99900 27.34000
H  12.92700 -1.36300 27.51900
H  11.98100 -1.06800 26.04500
H  11.87200 1.86700 31.63100
H  10.91900 0.85000 35.45900
H  12.06500 -0.49300 35.28800
H  10.30200 -0.64800 34.80900
Mg 6.50700 53.66200 41.82100
C  5.53800 50.19400 41.50400
C  9.17600 52.94100 39.91100
C  6.67200 56.96300 41.03700
C  3.32600 54.27900 43.05700
N  7.27900 51.72800 40.94100
C  6.72600 50.51800 40.83900
C  7.68400 49.49000 40.27900
C  8.95500 50.35500 40.01300
C  8.46000 51.78800 40.31400
C  10.27500 49.93900 40.71400
C  7.16700 48.79700 38.98400
C  6.22200 49.59900 38.05500
H  5.41800 48.82200 36.97400
N  7.88100 54.83000 40.89700
C  8.96100 54.33600 40.14000
C  9.76000 55.38700 39.63600
C  9.12800 56.60500 40.08500
C  7.77200 56.14800 40.66200
C  11.06500 55.33300 38.84700
C  9.68900 58.02100 40.06900
O  10.85400 58.15000 39.62000
C  9.04400 59.27300 40.70000
N  5.09300 55.33300 41.76900
C  5.42100 56.66100 41.57900
C  4.35700 57.70300 41.97000
C  3.37300 56.80400 42.67200
C  3.98900 55.38100 42.58700
C  4.86800 58.87700 42.81300
C  1.90400 56.84500 42.12500
C  0.71000 56.85700 43.15100
N  4.84100 52.51300 42.40800
C  3.65200 52.93100 42.90800
C  2.87500 51.75200 43.23100
C  3.61400 50.66300 42.73700
C  4.75900 51.14300 42.19100
C  1.53500 51.81100 43.92700
C  3.57500 49.19600 42.55700
O  2.70700 48.41100 42.85700
C  4.94800 48.83300 41.82800
C  4.59400 47.89800 40.70400
O  3.84400 48.15600 39.74800
O  5.29300 46.75300 40.91900
C  4.81600 45.62200 40.15600
H  9.96200 52.68700 39.19700
H  6.86100 57.99900 40.75000
H  2.33800 54.44100 43.49300
H  7.85800 48.66900 40.97400
H  9.25000 50.38600 38.96400
H  9.95700 49.42600 41.62100
H  10.85400 50.82300 40.98100
H  10.87600 49.29100 40.07700
H  6.75300 47.81700 39.22300
H  8.05100 48.61700 38.37200
H  6.86600 50.17800 37.39300
H  5.52000 50.18700 38.64700
H  11.20500 54.41800 38.27100
H  11.97600 55.37900 39.44300
H  11.00500 56.01600 37.99900
H  8.51400 58.89300 41.57400
H  8.39600 59.78800 39.99100
H  9.77000 60.02900 40.99700
H  3.94400 58.15200 41.06600
H  3.29300 57.02300 43.73700
H  4.42400 58.82600 43.80700
H  4.78700 59.80700 42.24900
H  5.94500 58.72000 42.88200
H  1.86700 56.02300 41.41000
H  1.84200 57.66600 41.41100
H  1.12000 56.43100 44.06700
H  -0.00700 56.11100 42.80700
H  0.24800 57.83800 43.25700
H  0.93200 52.65100 43.58200
H  1.69800 51.96900 44.99300
H  1.23100 50.80200 43.65100
H  5.58200 48.39200 42.59800
H  5.45100 44.76000 40.35700
H  4.82500 45.89000 39.09900
H  3.77900 45.48500 40.46300

