158

Mg 46.91600 16.74900 28.07000
C  44.82400 16.18700 30.91200
C  49.00500 18.47900 30.32700
C  48.82200 17.85500 25.42000
C  44.75300 15.27100 26.00600
N  46.79700 17.36500 30.38000
C  45.88700 17.02500 31.33800
C  46.28400 17.43500 32.79500
C  47.52100 18.34500 32.41600
C  47.83500 18.07200 30.93700
C  47.28300 19.87400 32.78400
C  46.72200 16.21000 33.58900
C  46.54000 16.17200 35.15300
H  45.98400 17.44900 35.90500
N  48.67900 17.91300 27.89800
C  49.39000 18.45100 28.95600
C  50.60900 18.99100 28.46600
C  50.59300 18.95500 27.02600
C  49.33800 18.18000 26.71600
C  51.73200 19.56300 29.28300
C  51.67600 19.49800 26.03400
O  51.46300 19.48000 24.86000
C  52.96200 20.07700 26.48900
N  46.71600 16.76300 25.90900
C  47.65800 17.22500 25.06000
C  47.16900 16.95100 23.59200
C  45.95400 16.03700 23.82500
C  45.81000 15.95300 25.34200
C  46.85700 18.20800 22.73800
C  46.04900 14.60600 23.20100
C  44.83200 14.05200 22.42100
N  45.18400 15.86000 28.30500
C  44.37500 15.27400 27.39300
C  43.17500 14.74200 28.03200
C  43.33700 14.98500 29.44600
C  44.49000 15.79900 29.57400
C  42.00400 14.12300 27.36100
C  42.77400 14.85100 30.73100
O  41.77500 14.33600 31.09900
C  43.71100 15.64400 31.74600
C  42.85300 16.66500 32.37900
O  42.60400 17.80100 31.94600
O  42.40300 16.19200 33.60500
C  41.61600 17.07000 34.39500
H  49.81400 18.97300 30.87000
H  49.46500 18.26100 24.63700
H  44.08200 14.70000 25.36000
H  45.43700 17.96000 33.23500
H  48.37300 18.04600 33.02800
H  46.30200 20.12200 33.19000
H  47.63800 20.53600 31.99400
H  47.90900 20.14600 33.63400
H  47.78400 16.01200 33.44200
H  46.12200 15.36000 33.26400
H  47.48000 15.99900 35.67700
H  45.94400 15.31600 35.46900
H  51.98800 20.57700 28.97600
H  52.72800 19.17900 29.06200
H  51.51100 19.49500 30.34900
H  52.78900 21.03800 26.97300
H  53.47400 20.18800 25.53300
H  53.51500 19.34200 27.07400
H  47.93100 16.31500 23.14000
H  44.98600 16.39200 23.47200
H  47.19400 19.12300 23.22500
H  45.77500 18.19900 22.60700
H  47.31400 18.06700 21.75800
H  46.24800 13.94100 24.04200
H  46.87000 14.60500 22.48400
H  44.88500 12.96600 22.50100
H  45.02200 14.44700 21.42300
H  43.84300 14.42500 22.68700
H  41.93200 13.03800 27.43600
H  41.95100 14.48200 26.33300
H  41.13400 14.57900 27.83400
H  44.02600 14.94800 32.52300
H  42.01700 18.08300 34.42300
H  41.70700 16.72600 35.42600
H  40.58600 17.04800 34.03900
Mg -11.75200 17.48800 41.84800
C  -8.57500 15.88000 41.59600
C  -10.43800 20.24100 40.39200
C  -14.81600 18.44700 41.21400
C  -13.10400 14.23800 42.73400
N  -9.69900 17.97700 41.21300
C  -8.52600 17.20300 41.15800
C  -7.36400 17.96500 40.40700
C  -8.01500 19.43900 40.29100
C  -9.50300 19.19700 40.64100
C  -7.41000 20.56800 41.22900
C  -7.09700 17.30300 38.97800
C  -5.62800 17.17000 38.68100
H  -5.21000 17.73300 37.29400
N  -12.50300 19.17200 41.17900
C  -11.79100 20.24300 40.63700
C  -12.70200 21.32600 40.25800
C  -14.04300 20.84800 40.40000
C  -13.86400 19.43000 40.92500
C  -12.29700 22.64300 39.70600
C  -15.28500 21.64100 40.27000
O  -15.26200 22.81200 39.87700
C  -16.60600 20.99100 40.50300
N  -13.68200 16.36700 41.83200
C  -14.77700 17.16400 41.78300
C  -16.03200 16.49300 42.25100
C  -15.51800 15.13900 42.75900
C  -13.99700 15.27700 42.45400
C  -16.72200 17.31800 43.35800
C  -16.09800 13.92700 41.94900
C  -17.11600 13.04600 42.76100
N  -10.99700 15.47800 42.19300
C  -11.68100 14.35600 42.59500
C  -10.72700 13.18800 42.62100
C  -9.44700 13.77200 42.31700
C  -9.65200 15.17300 42.05700
C  -10.97500 11.76600 42.90900
C  -8.03800 13.54100 42.07600
O  -7.38500 12.49900 42.10300
C  -7.44800 14.87100 41.68700
C  -6.45000 15.33100 42.69500
O  -6.68600 15.46200 43.89400
O  -5.26900 15.66400 42.09200
C  -4.16400 16.06600 42.97200
H  -9.97000 21.09000 39.89100
H  -15.84000 18.68000 40.91700
H  -13.53200 13.38100 43.25800
H  -6.49700 17.94800 41.06700
H  -8.10900 19.78800 39.26300
H  -7.39800 21.43900 40.57400
H  -6.37800 20.36500 41.51500
H  -8.13000 20.75100 42.02600
H  -7.38900 18.04200 38.23200
H  -7.71100 16.41200 38.84700
H  -5.31600 16.12600 38.69900
H  -4.88800 17.63200 39.33400
H  -11.32800 22.58200 39.21000
H  -12.12200 23.45500 40.41100
H  -12.95300 22.99500 38.91000
H  -17.41700 21.71800 40.46300
H  -16.53700 20.54700 41.49700
H  -16.79000 20.25000 39.72500
H  -16.76600 16.46400 41.44600
H  -15.60800 15.09500 43.84400
H  -17.12900 16.65800 44.12500
H  -17.47700 17.83200 42.76300
H  -15.98100 17.96500 43.82800
H  -15.29500 13.26200 41.63300
H  -16.58400 14.19900 41.01100
H  -17.11500 13.46100 43.76800
H  -16.66600 12.05400 42.81200
H  -18.12100 13.00600 42.34100
H  -10.09600 11.12900 43.01400
H  -11.55300 11.46200 42.03600
H  -11.47800 11.57100 43.85600
H  -7.10000 14.77400 40.65900
H  -3.91800 17.12800 42.97700
H  -3.25300 15.63900 42.55100
H  -4.17700 15.67400 43.98900

