158

Mg 17.31400 -0.52800 27.85300
C  16.10200 1.54000 30.48300
C  19.18700 -2.22300 30.11600
C  18.67100 -2.03900 25.20100
C  15.58100 1.70900 25.64000
N  17.56300 -0.37500 29.96200
C  16.98600 0.47900 30.82600
C  17.47100 0.23400 32.27500
C  18.51900 -0.86900 32.15900
C  18.37600 -1.23100 30.65900
C  19.98300 -0.54400 32.58900
C  16.38000 -0.21400 33.26300
C  16.39500 0.64700 34.54800
H  17.73800 1.04300 35.27400
N  18.73200 -2.03400 27.65200
C  19.34300 -2.62100 28.70700
C  20.02500 -3.78800 28.20700
C  19.94900 -3.73100 26.78800
C  19.18500 -2.52300 26.45100
C  20.90800 -4.75100 28.94600
C  20.65200 -4.55200 25.59700
O  20.49900 -4.31200 24.39000
C  21.44800 -5.76000 25.86800
N  17.31000 -0.00600 25.71300
C  17.96500 -0.87100 24.84500
C  17.48800 -0.60300 23.36900
C  16.43900 0.48100 23.54000
C  16.34000 0.67100 25.12000
C  18.56500 -0.12700 22.37100
C  15.13200 0.36300 22.70300
C  15.00800 1.41800 21.61400
N  16.09400 1.22200 27.99400
C  15.44400 2.03000 27.01600
C  14.61500 3.08500 27.61600
C  14.88300 2.88800 29.02000
C  15.69300 1.73400 29.16500
C  13.72700 4.23200 27.10300
C  14.64900 3.49600 30.39600
O  13.93700 4.42400 30.74100
C  15.43900 2.61600 31.39600
C  16.39500 3.55300 31.90600
O  17.46000 3.88300 31.44600
O  15.83800 4.04600 33.12400
C  16.69700 5.12700 33.67400
H  19.72600 -2.94300 30.73500
H  18.85300 -2.70500 24.35500
H  14.96600 2.25600 24.92300
H  17.96300 1.13100 32.65100
H  18.30700 -1.84900 32.58700
H  20.70100 -0.36500 31.78800
H  20.36500 -1.48500 32.98500
H  19.93900 0.29400 33.28400
H  16.53400 -1.24900 33.57000
H  15.42400 0.01500 32.79200
H  15.68600 0.30000 35.30000
H  15.92600 1.60300 34.31600
H  20.75600 -4.76200 30.02500
H  21.97100 -4.65600 28.72500
H  20.67700 -5.79100 28.72000
H  21.96900 -6.06800 24.96100
H  20.90700 -6.56100 26.37200
H  22.30100 -5.47800 26.48500
H  16.95100 -1.51700 23.11400
H  16.94000 1.40800 23.25900
H  19.52500 -0.03000 22.87900
H  18.29800 0.82700 21.91600
H  18.71300 -0.81000 21.53500
H  14.38300 0.37000 23.49400
H  15.15100 -0.58000 22.15600
H  14.57900 2.24500 22.18100
H  14.41700 1.11100 20.75200
H  15.96600 1.79700 21.25700
H  14.07400 4.67200 26.16800
H  13.66300 4.99300 27.88100
H  12.78900 3.68000 27.03900
H  14.69900 2.28800 32.12600
H  17.73100 4.78800 33.72300
H  16.46000 5.41800 34.69800
H  16.65100 5.97800 32.99500
Mg 25.64700 1.80600 29.30200
C  27.66900 1.42200 32.23500
C  22.95000 2.11300 31.41900
C  23.81900 2.02300 26.68200
C  28.40400 0.75500 27.39300
N  25.37600 2.01200 31.67600
C  26.32100 1.79200 32.57800
C  25.73600 1.93400 34.03100
C  24.19900 2.01800 33.70400
C  24.15500 1.94500 32.16600
C  23.39200 0.93800 34.40600
C  26.36100 3.20900 34.77500
C  26.77600 2.99400 36.31100
H  26.47800 4.04700 37.36200
N  23.63200 2.05900 29.03500
C  22.71700 2.26900 30.02200
C  21.39300 2.47400 29.38100
C  21.55700 2.39100 27.99900
C  23.04700 2.07800 27.87000
C  20.10500 2.76300 30.10300
C  20.53700 2.55000 26.84400
O  20.85900 2.54900 25.65200
C  19.10400 2.61000 27.12500
N  26.12600 1.51000 27.32600
C  25.16500 1.77900 26.42300
C  25.67900 1.63600 24.97800
C  27.21600 1.28500 25.16500
C  27.24700 1.20100 26.70300
C  24.86700 0.57800 24.15400
C  28.24300 2.35900 24.71300
C  29.66900 1.77700 24.27100
N  27.58200 1.13200 29.71300
C  28.60000 0.68100 28.77700
C  29.75700 0.43100 29.58700
C  29.44000 0.76100 30.93300
C  28.08500 1.08200 30.93600
C  30.98800 -0.13700 29.06600
C  29.94300 0.79200 32.31800
O  31.07800 0.56500 32.65400
C  28.80400 1.21900 33.21400
C  28.55200 0.06400 34.05700
O  28.00400 -0.97200 33.81600
O  28.99500 0.34200 35.31500
C  28.75000 -0.63700 36.40300
H  22.07900 2.33000 32.04100
H  23.21600 2.26100 25.80300
H  29.21300 0.24900 26.86300
H  26.03900 1.06100 34.61000
H  23.78300 2.96000 34.06000
H  23.95300 0.13100 34.87900
H  22.76600 0.46800 33.64800
H  22.74700 1.30100 35.20700
H  25.66900 4.03700 34.62600
H  27.25700 3.44800 34.20300
H  27.86300 2.92900 36.26500
H  26.34300 2.08200 36.72300
H  19.75000 3.69000 29.65100
H  20.18500 2.86700 31.18500
H  19.46400 1.89800 29.93000
H  18.76600 1.88900 27.86900
H  18.74100 2.34000 26.13300
H  18.80900 3.62400 27.39200
H  25.70800 2.61000 24.49000
H  27.48300 0.31400 24.74700
H  25.42500 -0.33400 23.94200
H  24.51800 1.03100 23.22600
H  24.04000 0.21900 24.76600
H  28.31700 3.16400 25.44500
H  27.89500 2.79500 23.77600
H  29.74800 2.04800 23.21800
H  29.79200 0.70700 24.43400
H  30.39600 2.28500 24.90400
H  31.39900 0.55000 28.32600
H  30.68700 -1.04500 28.54300
H  31.64500 -0.30900 29.91800
H  29.11500 2.09700 33.78100
H  29.61400 -0.69000 37.06500
H  28.54600 -1.67100 36.12500
H  27.80000 -0.40700 36.88600

