158

Mg 46.48800 35.24600 28.79000
C  45.00300 33.46400 31.11300
C  46.66600 37.92800 31.15000
C  48.10200 37.16200 26.48300
C  46.11100 32.75000 26.42800
N  46.00100 35.63100 30.91900
C  45.43700 34.65200 31.65600
C  45.55200 35.03900 33.11100
C  45.58200 36.60100 33.06000
C  46.15700 36.76200 31.64000
C  44.13000 37.17400 33.29100
C  46.91500 34.43800 33.65300
C  46.86700 34.09200 35.13300
H  45.89900 34.70300 36.09100
N  47.09200 37.23300 28.73900
C  47.07700 38.11600 29.79300
C  47.58700 39.41400 29.29600
C  48.03700 39.21600 27.97600
C  47.74300 37.77700 27.61900
C  47.54300 40.56700 30.20700
C  48.55900 40.24000 26.98600
O  48.94900 39.92300 25.85800
C  48.75700 41.58400 27.40400
N  46.99100 34.95700 26.68500
C  47.73200 35.89900 25.98700
C  48.22300 35.29500 24.64900
C  47.57100 33.89000 24.67000
C  46.81600 33.86100 25.98000
C  47.78800 36.20900 23.54200
C  48.56600 32.67000 24.42400
C  48.26200 31.79300 23.14800
N  45.83200 33.48700 28.74500
C  45.58900 32.54700 27.72300
C  45.09000 31.27400 28.30500
C  44.79800 31.62100 29.64900
C  45.25800 32.95200 29.82400
C  44.86400 29.91600 27.56700
C  44.23900 31.17100 30.85700
O  43.83200 30.06200 31.13100
C  44.27200 32.33000 31.85400
C  44.98100 31.76000 32.97500
O  46.14900 31.41400 33.01800
O  44.12800 31.73000 33.97200
C  44.59100 30.80700 35.01300
H  46.69500 38.74500 31.87400
H  48.76200 37.69800 25.79800
H  45.85500 31.88800 25.80900
H  44.67900 34.64000 33.62800
H  46.29600 36.97400 33.79500
H  43.93500 37.20600 34.36300
H  43.43900 36.55600 32.71800
H  44.11100 38.22100 32.99000
H  47.65800 35.22500 33.52600
H  47.30800 33.64100 33.02100
H  47.84300 34.42900 35.48200
H  46.72100 33.01200 35.11400
H  47.75800 41.53000 29.74500
H  48.19700 40.34000 31.04900
H  46.49500 40.53200 30.50400
H  49.30100 42.12500 26.63000
H  49.38100 41.40100 28.27800
H  47.78800 42.03400 27.62400
H  49.31300 35.29500 24.61000
H  46.77200 33.96200 23.93100
H  47.01700 36.90600 23.87200
H  47.37500 35.57800 22.75500
H  48.54200 36.70200 22.92900
H  48.47400 32.07600 25.33200
H  49.62800 32.91700 24.40700
H  48.12400 30.76100 23.47100
H  49.04100 31.83500 22.38700
H  47.39500 32.15200 22.59400
H  44.95500 29.04700 28.21700
H  45.54900 29.92400 26.71900
H  43.86200 29.92200 27.13800
H  43.24000 32.64600 32.00600
H  44.98700 29.89400 34.56900
H  43.67400 30.61000 35.56900
H  45.29700 31.26200 35.70700
Mg 30.20400 60.20900 41.03100
C  27.18300 58.66900 39.92300
C  31.82700 57.38800 40.30600
C  33.07300 62.02700 41.22700
C  28.38600 63.27200 41.24700
N  29.60700 58.35300 39.91700
C  28.31000 57.88200 39.66500
C  28.32200 56.46700 39.23600
C  29.80000 55.97600 39.56100
C  30.48200 57.29000 39.99700
C  30.01200 54.79600 40.55900
C  27.90200 56.44700 37.75500
C  26.94600 55.32500 37.31200
H  27.02500 54.70200 35.90800
N  32.20200 59.70300 40.76000
C  32.71000 58.51300 40.51100
C  34.14300 58.51900 40.63900
C  34.52100 59.91500 40.92400
C  33.24400 60.62500 40.98300
C  34.98500 57.37600 40.59300
C  36.01300 60.37900 41.03900
O  36.96200 59.63000 40.86900
C  36.32600 61.79000 41.47900
N  30.68100 62.33000 41.14300
C  31.91800 62.77900 41.37600
C  31.93600 64.30600 41.67800
C  30.45300 64.70300 41.69700
C  29.77700 63.35200 41.26700
C  32.71700 64.57700 43.05400
C  30.06300 65.95300 40.84600
C  29.58600 67.18200 41.61700
N  28.22900 60.81100 40.87800
C  27.66500 62.05600 41.00100
C  26.21700 62.00400 40.77600
C  26.00500 60.61500 40.48800
C  27.24200 59.98500 40.45000
C  25.13600 63.11100 40.78100
C  24.96700 59.64500 40.12900
O  23.68300 59.66800 40.05300
C  25.72300 58.32300 39.69600
C  25.21100 57.26100 40.65300
O  25.37100 57.25900 41.87500
O  24.33700 56.44800 39.94900
C  23.41200 55.68600 40.79300
H  32.33100 56.42000 40.25700
H  33.97600 62.63100 41.34100
H  27.86000 64.19300 41.50300
H  27.60000 55.86000 39.78400
H  30.27800 55.65500 38.63500
H  29.26100 54.01900 40.69800
H  30.23800 55.27000 41.51500
H  30.85300 54.15100 40.30400
H  28.76000 56.36600 37.08700
H  27.33600 57.33700 37.47900
H  25.89700 55.57500 37.46800
H  27.17200 54.53500 38.02800
H  35.45500 57.44300 39.61200
H  34.42600 56.44000 40.60600
H  35.64400 57.46700 41.45600
H  36.20600 62.38900 40.57700
H  37.32400 61.84000 41.91300
H  35.69600 62.09600 42.31500
H  32.47400 64.71700 40.82400
H  30.09300 64.86800 42.71200
H  33.42700 65.37000 42.81900
H  33.21600 63.72300 43.51100
H  32.10900 65.03200 43.83600
H  29.32000 65.79900 40.06400
H  30.92700 66.27400 40.26500
H  28.56900 67.43300 41.31600
H  30.11000 68.13800 41.58000
H  29.84800 66.96000 42.65200
H  24.98300 63.50100 41.78700
H  24.27300 62.58300 40.37300
H  25.43500 63.91000 40.10300
H  25.55400 57.96700 38.67900
H  22.61200 56.32200 41.17200
H  23.90000 55.16000 41.61300
H  22.89200 54.89200 40.25700

