158

Mg 46.28300 24.27300 28.58400
C  46.68200 26.89200 30.93200
C  45.46600 22.11800 31.10300
C  46.19000 21.91600 26.39300
C  47.95700 26.42100 26.19000
N  46.23100 24.53400 30.68300
C  46.32700 25.69200 31.45600
C  46.03600 25.41700 32.91500
C  46.00400 23.82900 33.01200
C  45.84000 23.44000 31.52100
C  47.09700 23.15200 33.87300
C  44.74000 26.10800 33.41400
C  44.92400 26.86200 34.85700
H  44.09300 26.60000 36.07700
N  45.75100 22.29600 28.69500
C  45.43500 21.57500 29.82600
C  45.09000 20.23200 29.43800
C  45.26400 20.20300 28.07700
C  45.74900 21.48800 27.62100
C  44.68200 19.11000 30.39900
C  44.95100 19.09400 27.15100
O  45.23400 19.10000 25.92400
C  44.12200 17.88900 27.62900
N  47.10700 24.19900 26.61300
C  46.83900 23.05800 25.90300
C  47.39800 23.10700 24.50300
C  47.80600 24.54500 24.33700
C  47.67700 25.11600 25.80900
C  48.45800 22.01700 24.14000
C  47.00200 25.34300 23.28100
C  45.60700 25.94600 23.54500
N  47.00400 26.34300 28.43400
C  47.69800 27.03300 27.42900
C  47.80200 28.41700 27.90600
C  47.59200 28.40300 29.30500
C  47.12000 27.11000 29.59500
C  48.27300 29.61300 27.07100
C  47.68700 29.10700 30.59700
O  47.94900 30.25800 30.69200
C  47.22400 28.08700 31.72100
C  48.43900 27.81600 32.49000
O  49.52400 27.40400 32.00200
O  48.25400 28.02700 33.84600
C  49.39800 27.79300 34.71000
H  45.32600 21.48100 31.97900
H  46.29200 21.10300 25.67100
H  48.48200 27.11800 25.53300
H  46.97500 25.72200 33.37800
H  45.09800 23.51700 33.53200
H  47.37700 22.21200 33.39700
H  46.57800 22.90900 34.80100
H  47.90700 23.85200 34.07600
H  43.92800 25.41900 33.64700
H  44.32600 26.83900 32.71900
H  44.80300 27.90700 34.57200
H  45.89900 26.60300 35.26800
H  43.66900 18.80400 30.13700
H  44.82500 19.34800 31.45400
H  45.24900 18.22800 30.10100
H  44.57300 17.41900 28.50300
H  44.04900 17.19100 26.79500
H  43.06300 18.12600 27.73400
H  46.52200 22.91800 23.88200
H  48.86300 24.58800 24.07400
H  48.69900 21.39700 25.00300
H  49.45500 22.39800 23.92300
H  48.06000 21.41700 23.32200
H  46.82400 24.61000 22.49400
H  47.62400 26.14200 22.87800
H  45.02600 25.33100 24.23200
H  44.98200 25.90200 22.65300
H  45.55000 26.99600 23.83400
H  48.03000 30.59500 27.47700
H  48.00600 29.54600 26.01600
H  49.35200 29.53400 27.20500
H  46.47300 28.59200 32.32800
H  50.25400 27.32000 34.23000
H  49.04100 27.25100 35.58600
H  49.70200 28.76800 35.09300
Mg 47.72700 44.89000 43.02400
C  44.37000 44.75500 42.24000
C  48.08700 41.61000 42.16800
C  51.16100 45.32500 42.92000
C  47.52000 48.41500 43.29400
N  46.43700 43.38500 42.07900
C  45.01500 43.53900 42.12400
C  44.32600 42.18200 42.16500
C  45.50100 41.14600 42.11900
C  46.76600 42.06800 42.16300
C  45.53600 40.09600 43.31400
C  43.26000 42.02700 41.01000
C  43.44100 42.76300 39.60200
H  43.39700 41.97300 38.29300
N  49.31500 43.62700 42.82900
C  49.27500 42.30600 42.39800
C  50.60300 41.76100 42.29000
C  51.48600 42.85800 42.49600
C  50.67500 44.04700 42.68900
C  50.87500 40.33800 41.79400
C  53.05600 42.80100 42.57700
O  53.58600 41.65500 42.59400
C  53.97500 43.93200 42.75800
N  49.16400 46.64600 43.12000
C  50.47800 46.53200 43.15300
C  51.22000 47.86900 43.51800
C  49.96400 48.84900 43.42300
C  48.83300 47.92500 43.26100
C  51.89900 47.81400 44.97200
C  49.99200 50.08600 42.51100
C  49.41200 51.41500 43.08700
N  46.30800 46.36300 42.76800
C  46.33200 47.72800 43.00600
C  44.98700 48.26200 42.91300
C  44.18200 47.15200 42.62400
C  44.98800 45.96200 42.56500
C  44.55900 49.71900 43.12600
C  42.82600 46.71900 42.39400
O  41.80700 47.41500 42.35900
C  42.90200 45.21800 42.22200
C  42.15600 44.46200 43.37800
O  41.31200 43.58300 43.16300
O  42.37800 45.04400 44.59700
C  41.51200 44.53400 45.73800
H  48.32200 40.54400 42.16400
H  52.22900 45.54900 42.92700
H  47.41700 49.46600 43.57300
H  43.81200 42.21700 43.12600
H  45.45700 40.51600 41.23000
H  45.65300 39.07200 42.95900
H  44.64700 40.23800 43.92800
H  46.34600 40.35400 43.99700
H  42.33300 42.36000 41.47600
H  43.13100 40.94800 40.93200
H  44.37600 43.31500 39.69400
H  42.48700 43.29100 39.61600
H  50.51900 39.79300 40.91900
H  50.53600 39.82900 42.69600
H  51.95600 40.20500 41.75300
H  53.93700 44.62200 41.91400
H  55.00300 43.59300 42.89100
H  53.79500 44.36000 43.74400
H  51.92700 47.98800 42.69700
H  49.78500 49.07400 44.47500
H  51.69800 46.86900 45.47800
H  51.53900 48.61000 45.62500
H  52.95600 48.00100 44.78400
H  49.71700 49.87500 41.47800
H  51.05200 50.27900 42.34800
H  48.60100 51.74800 42.43900
H  50.23500 52.12800 43.09200
H  49.03300 51.12900 44.06800
H  43.51700 49.80700 42.81900
H  45.21000 50.31900 42.49000
H  44.49400 50.01000 44.17400
H  42.39500 44.87400 41.32100
H  41.33900 43.46100 45.81800
H  40.54300 45.02600 45.66400
H  41.95400 44.79000 46.70100

