158

Mg 16.51500 -2.31200 27.46600
C  15.11900 -0.32300 30.11000
C  18.78100 -3.51700 29.78900
C  17.79000 -3.85700 24.95400
C  14.46400 -0.46200 25.26600
N  16.98100 -1.86300 29.75800
C  16.21600 -1.11200 30.62800
C  16.79000 -1.19200 32.13200
C  18.06500 -2.15200 31.89200
C  17.96500 -2.52800 30.40000
C  19.42300 -1.49100 32.40700
C  15.74600 -1.66400 33.17400
C  15.75600 -0.92500 34.46900
H  16.98200 -0.18500 34.84500
N  18.04900 -3.54700 27.40100
C  18.73900 -4.08200 28.44200
C  19.46100 -5.17600 27.99700
C  19.23000 -5.34800 26.58400
C  18.32600 -4.27300 26.27600
C  20.29200 -5.92900 29.02500
C  19.77600 -6.44300 25.64600
O  19.41200 -6.51700 24.49300
C  20.68300 -7.57600 26.21200
N  16.43200 -1.95600 25.41300
C  16.98800 -2.85500 24.54000
C  16.66700 -2.52700 23.07300
C  15.38700 -1.70600 23.19900
C  15.36200 -1.39300 24.76200
C  17.81300 -1.82300 22.28300
C  14.06900 -2.45900 22.91900
C  13.36900 -2.18300 21.55100
N  15.00100 -0.80000 27.60500
C  14.31900 -0.18000 26.60300
C  13.43200 0.81900 27.17000
C  13.66800 0.77900 28.54000
C  14.66300 -0.24800 28.77100
C  12.63200 1.79800 26.48500
C  13.36300 1.41600 29.76700
O  12.55600 2.30600 29.97600
C  14.29100 0.68500 30.88500
C  15.06100 1.64300 31.71900
O  16.21800 1.86300 31.57900
O  14.25700 2.28500 32.67600
C  14.89200 3.42500 33.39200
H  19.45200 -3.94300 30.53700
H  18.18200 -4.42600 24.10900
H  13.80900 -0.04400 24.49900
H  17.15200 -0.19300 32.37200
H  18.02300 -3.08600 32.45200
H  19.68800 -2.06900 33.29300
H  19.28200 -0.45100 32.70200
H  20.18300 -1.49700 31.62700
H  15.83800 -2.72800 33.39100
H  14.79500 -1.62300 32.64300
H  15.64400 -1.63600 35.28700
H  14.95900 -0.21300 34.25200
H  21.08000 -5.35700 29.51500
H  20.66300 -6.88300 28.65100
H  19.73900 -6.31600 29.88100
H  21.02600 -8.21500 25.39700
H  20.03900 -8.20800 26.82300
H  21.53300 -7.16700 26.75800
H  16.52900 -3.43300 22.48300
H  15.41800 -0.81700 22.57000
H  17.67800 -0.90500 21.71100
H  18.13700 -2.43200 21.43900
H  18.63900 -1.62200 22.96500
H  13.32700 -2.28400 23.69800
H  14.22200 -3.53500 23.01000
H  12.40800 -1.70800 21.74800
H  13.22900 -3.08200 20.95000
H  13.97400 -1.52500 20.92700
H  11.70400 2.11500 26.95900
H  12.28500 1.36700 25.54600
H  13.22300 2.70000 26.32500
H  13.59200 0.31000 31.63300
H  15.70300 3.93300 32.87000
H  15.44200 3.07700 34.26600
H  14.20600 4.18900 33.75900
Mg 49.21100 46.54800 42.40400
C  45.86000 47.43600 41.48000
C  48.74000 43.67600 40.74800
C  52.52100 46.19200 42.46600
C  49.61700 49.96200 43.39900
N  47.45800 45.62300 41.36600
C  46.27800 46.16900 41.04700
C  45.40800 45.18600 40.14000
C  46.30300 43.93100 40.08600
C  47.62000 44.43100 40.74200
C  45.76800 42.58400 40.63700
C  45.01900 45.76300 38.73400
C  43.47100 45.68700 38.47000
H  43.08000 45.70100 36.94400
N  50.46400 45.08300 41.78300
C  50.10800 43.93200 41.15000
C  51.19800 43.07700 40.93900
C  52.29500 43.71000 41.60200
C  51.82300 45.07000 41.93100
C  51.04000 41.70400 40.30000
C  53.65900 43.08300 41.73300
O  53.96500 42.00300 41.27900
C  54.65200 43.74900 42.69000
N  50.90000 47.91300 42.98700
C  52.13300 47.47300 42.89100
C  53.12600 48.58600 43.15800
C  52.19500 49.73000 43.62700
C  50.79800 49.19600 43.29300
C  54.31900 48.20000 44.08700
C  52.61200 51.21700 43.26100
C  52.38000 51.70600 41.81500
N  47.90300 48.28100 42.66200
C  48.26400 49.52300 43.02300
C  47.03800 50.36300 43.04300
C  46.07300 49.48300 42.45000
C  46.70000 48.31700 42.16000
C  46.88800 51.80400 43.37900
C  44.70800 49.47300 41.96300
O  43.76900 50.27600 42.01300
C  44.58400 48.09900 41.30000
C  43.56600 47.34100 42.09500
O  43.71500 46.81800 43.18700
O  42.48200 47.07200 41.33100
C  41.61700 45.93300 41.78100
H  48.64300 42.67400 40.32600
H  53.60500 46.08200 42.39400
H  49.69000 50.94200 43.87600
H  44.51600 45.02500 40.74500
H  46.60100 43.69800 39.06400
H  45.60800 41.85200 39.84600
H  44.83500 42.76500 41.17200
H  46.35800 42.19400 41.46600
H  45.37000 45.07100 37.96800
H  45.43100 46.76600 38.62600
H  42.97700 46.60800 38.77900
H  43.04100 44.78300 38.90100
H  51.40800 41.60300 39.27900
H  50.02400 41.33500 40.44200
H  51.69000 40.97700 40.78500
H  54.13400 43.82600 43.64500
H  55.13100 44.68800 42.41000
H  55.41000 42.98900 42.87900
H  53.55400 48.86300 42.19400
H  52.19200 49.70800 44.71700
H  54.05500 47.20300 44.43900
H  54.41500 48.90800 44.91000
H  55.22100 48.09700 43.48300
H  53.70000 51.24400 43.32700
H  52.29000 51.98900 43.96000
H  51.85100 51.00000 41.17500
H  53.27900 52.06900 41.31700
H  51.84600 52.65300 41.89100
H  45.86800 51.92700 43.74300
H  46.95700 52.30900 42.41500
H  47.59800 52.14000 44.13500
H  44.14900 48.18600 40.30400
H  41.14100 45.64500 40.84400
H  40.76000 46.31400 42.33700
H  42.02700 45.02200 42.21800

