158

Mg 24.14600 -4.64300 45.99700
C  26.10700 -2.18400 44.64500
C  21.58500 -3.78200 43.95700
C  22.58500 -7.48600 46.85300
C  27.19600 -5.94500 47.57200
N  23.92700 -3.17700 44.62400
C  24.85300 -2.33300 44.12600
C  24.18400 -1.36200 43.11400
C  22.63800 -1.60700 43.20300
C  22.72800 -2.96000 43.91500
C  21.79200 -0.49100 43.88600
C  24.78600 -1.67600 41.70600
C  25.32100 -0.55400 40.82100
H  25.08700 -0.76200 39.32900
N  22.26200 -5.47300 45.53300
C  21.33100 -4.91900 44.66600
C  20.23800 -5.79200 44.50900
C  20.38800 -6.89900 45.41700
C  21.80800 -6.73100 45.95100
C  19.07800 -5.48500 43.64200
C  19.38600 -8.04600 45.74400
O  18.37000 -8.18900 45.10300
C  19.67700 -9.04800 46.76600
N  24.89500 -6.52200 46.94500
C  23.92500 -7.34200 47.41000
C  24.51900 -8.52100 48.21700
C  26.01800 -8.07500 48.38000
C  26.08400 -6.71500 47.62900
C  23.77000 -8.81500 49.54300
C  27.14100 -9.08000 47.81900
C  28.49100 -9.18300 48.64400
N  26.25900 -4.16200 46.20400
C  27.28900 -4.72400 46.88600
C  28.42400 -3.87600 46.73300
C  28.03800 -2.91700 45.83600
C  26.70000 -3.06800 45.55500
C  29.73400 -4.24700 47.31800
C  28.55500 -1.86600 44.92800
O  29.63700 -1.39900 44.79600
C  27.25500 -1.34300 44.16300
C  27.17000 0.17500 44.55600
O  26.47100 0.71400 45.43800
O  28.16600 0.82700 43.87200
C  28.39200 2.22700 44.15600
H  20.79400 -3.43700 43.28800
H  22.24200 -8.51800 46.95500
H  28.10600 -6.19700 48.12000
H  24.26000 -0.30000 43.34900
H  22.16400 -1.77700 42.23600
H  20.88700 -0.22000 43.34200
H  22.35100 0.43200 44.04000
H  21.62100 -0.88700 44.88600
H  23.96000 -2.21200 41.24100
H  25.57800 -2.42400 41.74000
H  26.36500 -0.52200 41.13300
H  24.68200 0.28200 41.10600
H  18.71200 -6.43200 43.24600
H  19.46700 -4.98200 42.75700
H  18.38400 -4.75700 44.06100
H  20.27900 -9.81800 46.28300
H  18.72100 -9.51900 46.99400
H  20.07000 -8.60100 47.67900
H  24.45100 -9.44900 47.64900
H  26.33500 -7.66900 49.34000
H  24.01700 -9.72400 50.09200
H  22.72400 -8.61300 49.31300
H  24.21100 -8.04400 50.17500
H  27.24600 -8.73100 46.79200
H  26.72700 -10.06700 47.61300
H  28.56700 -10.25100 48.84900
H  28.51200 -8.55800 49.53600
H  29.36900 -8.88400 48.07200
H  29.71500 -4.06700 48.39200
H  30.43800 -3.65400 46.73400
H  30.05200 -5.28000 47.17300
H  27.48900 -1.32000 43.09900
H  29.46000 2.28100 44.36700
H  27.79800 2.62900 44.97600
H  28.26000 2.68500 43.17500
Mg 27.03900 49.32700 26.11900
C  25.01900 50.52300 28.78700
C  29.28800 48.16800 28.41600
C  28.93700 48.44400 23.53600
C  24.78300 50.82600 23.87900
N  27.11000 49.33600 28.41500
C  26.14200 49.77100 29.24400
C  26.52600 49.52500 30.71800
C  27.97300 48.84500 30.57800
C  28.16000 48.74300 29.04300
C  29.14400 49.57300 31.27900
C  25.31400 48.75600 31.49200
C  25.00100 49.03400 33.00200
H  25.96800 49.73000 33.99000
N  28.86300 48.44200 26.01300
C  29.66200 47.99600 27.02300
C  30.88200 47.48300 26.47100
C  30.84700 47.65100 25.07100
C  29.49100 48.19500 24.80200
C  31.98500 46.89700 27.44500
C  31.92400 47.26900 24.07800
O  31.74100 47.41200 22.84800
C  33.31300 46.70800 24.55800
N  27.04200 49.81200 24.00700
C  27.82900 49.18700 23.14200
C  27.41400 49.33100 21.66400
C  26.17400 50.21700 21.75500
C  25.96200 50.24200 23.29700
C  28.52000 49.98500 20.74400
C  25.02200 49.65400 20.86000
C  23.95800 48.81800 21.59600
N  25.26600 50.34800 26.16000
C  24.49100 51.03700 25.21900
C  23.35500 51.74300 25.86700
C  23.64700 51.60200 27.22000
C  24.77000 50.72400 27.36200
C  22.35000 52.44000 25.15200
C  23.14000 52.05500 28.56100
O  22.23500 52.79400 28.83900
C  23.93500 51.19600 29.60100
C  24.26100 52.08900 30.70300
O  25.22800 52.84800 30.64300
O  23.25200 52.15000 31.66700
C  23.43400 53.03500 32.80200
H  29.94900 47.79500 29.20100
H  29.42400 47.93500 22.70100
H  23.97500 51.21200 23.25400
H  26.74200 50.52500 31.09300
H  27.88400 47.83800 30.98600
H  29.91500 49.92400 30.59400
H  29.64700 48.96400 32.03100
H  28.70100 50.40800 31.82200
H  25.38800 47.69200 31.27100
H  24.42400 49.02500 30.92300
H  24.68700 48.10900 33.48600
H  24.13500 49.68800 32.90600
H  31.58500 46.65500 28.43000
H  32.73500 47.68700 27.48700
H  32.32700 45.97400 26.97900
H  33.23800 45.65100 24.81400
H  33.60600 47.30600 25.42100
H  34.02000 46.70300 23.72800
H  27.22600 48.32600 21.28700
H  26.43300 51.22800 21.44200
H  29.34700 50.48200 21.25000
H  28.08700 50.67400 20.01900
H  28.76200 49.13600 20.10500
H  25.37700 49.07600 20.00700
H  24.55400 50.54400 20.44100
H  23.03100 49.37900 21.71900
H  24.17700 48.52400 22.62200
H  23.77500 47.86300 21.10300
H  22.50700 53.47300 25.46300
H  21.34200 52.10900 25.40300
H  22.47300 52.27600 24.08100
H  23.27500 50.43200 30.01000
H  24.40100 53.03500 33.30600
H  22.63900 52.82500 33.51700
H  23.16800 54.07100 32.59300

