158

Mg 24.80200 -7.95900 47.02700
C  27.16200 -5.60500 45.98300
C  22.59900 -6.60700 44.75200
C  22.66700 -10.46500 47.69200
C  27.31600 -9.52600 48.97000
N  24.97000 -6.40600 45.42900
C  25.99100 -5.55900 45.20700
C  25.61700 -4.50200 44.14000
C  24.10200 -4.64000 44.02200
C  23.81300 -5.98100 44.79300
C  23.20100 -3.45400 44.48300
C  26.44400 -4.72400 42.81000
C  27.16200 -3.51400 42.18900
H  26.44600 -2.59500 41.27800
N  22.82000 -8.38000 46.34500
C  22.10600 -7.69700 45.43100
C  20.84800 -8.36800 45.21300
C  20.85900 -9.57600 45.94500
C  22.14100 -9.51000 46.69000
C  19.81800 -7.91500 44.15100
C  19.80200 -10.55500 45.93600
O  18.68200 -10.23200 45.51000
C  19.88300 -11.95900 46.48100
N  24.95100 -9.69900 48.21800
C  23.92700 -10.53900 48.36500
C  24.37100 -11.84100 49.18400
C  25.89700 -11.52800 49.43800
C  26.09300 -10.15800 48.84600
C  23.52300 -11.94100 50.50900
C  26.84900 -12.60500 48.96700
C  26.67000 -12.92800 47.50100
N  26.73800 -7.53900 47.64900
C  27.64700 -8.29400 48.38100
C  28.88700 -7.56400 48.53200
C  28.66200 -6.49200 47.64400
C  27.40300 -6.51900 47.08500
C  30.14200 -7.89400 49.30600
C  29.34900 -5.37000 47.00700
O  30.52100 -4.94200 47.23500
C  28.38500 -4.71000 46.00700
C  28.16100 -3.31900 46.44500
O  27.76800 -2.98500 47.57700
O  28.30600 -2.45700 45.41100
C  28.06500 -1.05700 45.75700
H  21.90500 -6.16200 44.03600
H  21.97300 -11.29000 47.86400
H  28.11500 -9.97800 49.56100
H  25.83700 -3.47100 44.41800
H  23.71200 -4.70400 43.00600
H  22.61200 -3.03500 43.66600
H  23.71400 -2.57300 44.86900
H  22.59900 -3.78600 45.32900
H  25.69500 -5.01900 42.07500
H  27.15600 -5.53500 42.96700
H  27.97600 -3.91100 41.58400
H  27.60200 -2.92900 42.99700
H  20.12300 -7.24300 43.34900
H  19.01800 -7.41300 44.69600
H  19.48100 -8.74800 43.53400
H  19.68900 -11.82900 47.54600
H  20.85100 -12.30700 46.12100
H  19.13200 -12.65300 46.10500
H  24.37000 -12.79300 48.65400
H  26.12400 -11.52900 50.50400
H  23.96400 -11.49700 51.40100
H  23.47100 -13.02100 50.64700
H  22.54100 -11.47300 50.43800
H  26.55300 -13.51600 49.48700
H  27.88900 -12.38200 49.20500
H  27.65400 -13.16700 47.09700
H  26.14800 -12.08600 47.04700
H  26.07900 -13.81400 47.27100
H  30.41500 -8.94900 49.30100
H  29.95300 -7.69000 50.36000
H  30.93300 -7.20800 49.00400
H  28.79500 -4.64700 44.99900
H  27.01700 -0.81400 45.92800
H  28.23100 -0.38100 44.91800
H  28.49400 -0.71500 46.69900
Mg 29.83500 58.50500 40.28400
C  26.81800 57.00400 39.16200
C  31.55100 55.69800 38.95200
C  32.68600 60.47200 39.86800
C  28.02900 61.42000 40.82700
N  29.18700 56.58400 39.16200
C  27.94900 56.17000 38.84700
C  27.90100 54.87000 37.93600
C  29.37700 54.30600 38.23900
C  30.13900 55.61500 38.83300
C  29.33500 53.19400 39.33700
C  27.76500 55.23600 36.40800
C  27.40100 54.15400 35.42900
H  26.60200 54.64100 34.21100
N  31.86600 58.11200 39.68800
C  32.34700 56.93500 39.21300
C  33.79800 57.08200 39.04100
C  34.15100 58.46700 39.27600
C  32.87100 59.05600 39.65700
C  34.63200 55.95200 38.59100
C  35.50100 59.19700 39.07200
O  36.39700 58.64600 38.43500
C  35.80800 60.54800 39.59900
N  30.33300 60.66900 40.35000
C  31.54200 61.19300 40.25400
C  31.60700 62.70600 40.54500
C  30.15900 62.97500 40.90700
C  29.46400 61.63800 40.74400
C  32.68100 63.18800 41.55500
C  29.31500 64.08000 40.07700
C  28.56000 65.13800 40.88300
N  27.75900 59.09400 40.23400
C  27.24300 60.35800 40.48200
C  25.82300 60.23900 40.24500
C  25.60000 58.94600 39.78600
C  26.81600 58.31200 39.74700
C  24.76600 61.34300 40.42800
C  24.54900 58.06400 39.18800
O  23.38800 58.26400 38.92700
C  25.31000 56.66900 38.91400
C  24.89800 55.77300 40.00100
O  24.64700 56.03400 41.11400
O  24.76600 54.49800 39.46200
C  24.06000 53.46400 40.24600
H  32.09200 54.82400 38.58100
H  33.43300 61.24700 39.68500
H  27.50200 62.32100 41.14800
H  27.10200 54.18900 38.22800
H  29.93100 53.96900 37.36400
H  28.33000 52.82700 39.54500
H  29.65600 53.43500 40.35000
H  29.80100 52.30100 38.92000
H  28.71100 55.65800 36.06800
H  26.99500 56.00400 36.33300
H  26.75900 53.45500 35.96400
H  28.34100 53.70000 35.11600
H  34.27300 55.22900 39.32300
H  35.71600 56.05600 38.64000
H  34.37500 55.62600 37.58400
H  36.89400 60.56000 39.70100
H  35.28800 60.44200 40.55000
H  35.43500 61.26900 38.87200
H  31.83300 63.30400 39.66100
H  30.05300 63.21300 41.96500
H  32.17600 63.48300 42.47500
H  33.20800 64.08400 41.22800
H  33.42500 62.45600 41.86900
H  28.66300 63.56000 39.37600
H  30.06500 64.62200 39.50200
H  28.76500 65.05400 41.95000
H  27.49800 64.99400 40.68200
H  28.84700 66.16100 40.64100
H  25.15000 61.94500 41.25100
H  23.80800 60.87900 40.65800
H  24.90900 61.95000 39.53300
H  25.18400 56.24500 37.91800
H  23.53700 52.86400 39.50100
H  23.29300 53.96300 40.83900
H  24.73300 52.84400 40.83900

