158

Mg 35.37900 1.85600 30.06400
C  33.36100 2.99700 32.51900
C  38.05000 1.80500 32.30400
C  37.38500 1.21800 27.48800
C  32.62200 2.24300 27.78500
N  35.64100 2.34500 32.07500
C  34.67300 2.65500 32.94200
C  35.10400 2.47700 34.42100
C  36.65300 2.39000 34.26800
C  36.80600 2.24300 32.77900
C  37.55200 3.57300 34.90200
C  34.44100 1.30800 35.06700
C  34.19000 1.48800 36.59900
H  34.75900 2.72500 37.34500
N  37.48100 1.60200 29.88300
C  38.36300 1.53900 30.94700
C  39.68300 1.34900 30.37000
C  39.47000 1.10500 28.94800
C  38.07800 1.28000 28.63100
C  40.94000 1.62300 31.05900
C  40.50600 0.88300 27.90800
O  40.23500 0.69400 26.74400
C  41.98200 0.71200 28.13300
N  35.01000 1.74300 27.95900
C  36.04100 1.46000 27.17600
C  35.62100 1.41800 25.64800
C  34.09400 1.40600 25.79100
C  33.87800 1.86100 27.24400
C  36.18200 2.58900 24.76200
C  33.36700 0.05400 25.29700
C  32.95100 -0.01500 23.79500
N  33.34800 2.47600 30.05100
C  32.38000 2.61500 29.12000
C  31.22100 3.25200 29.72400
C  31.56900 3.43300 31.07800
C  32.87900 2.92700 31.20800
C  30.07500 3.67200 28.91300
C  31.14500 3.96200 32.29400
O  30.07400 4.49400 32.60900
C  32.26100 3.59700 33.35000
C  32.68500 4.75700 34.18500
O  33.33300 5.70600 33.79400
O  32.03200 4.62900 35.37600
C  32.09600 5.84300 36.21000
H  38.81600 1.69100 33.07300
H  38.06400 1.08200 26.64400
H  31.86300 2.35700 27.00800
H  34.87800 3.38100 34.98700
H  37.01200 1.48200 34.75200
H  36.95700 4.42900 35.22000
H  38.26200 3.94000 34.16000
H  38.23100 3.26300 35.69600
H  35.05600 0.40900 35.03300
H  33.46700 1.18500 34.59500
H  34.58900 0.56200 37.01400
H  33.13600 1.48400 36.87800
H  41.39600 0.66400 31.30500
H  40.72400 2.04000 32.04300
H  41.73300 2.27600 30.69500
H  42.20200 -0.18900 28.70600
H  42.27900 1.59800 28.69500
H  42.52800 0.63000 27.19300
H  35.89500 0.47800 25.16900
H  33.70000 2.10500 25.05400
H  36.68100 3.31000 25.41000
H  35.34500 3.11600 24.30300
H  36.85700 2.23400 23.98300
H  32.49700 -0.06200 25.94500
H  34.03300 -0.80900 25.30500
H  33.21400 0.92600 23.31100
H  31.89200 -0.24500 23.67800
H  33.56900 -0.76100 23.29600
H  29.32400 2.95000 28.59200
H  30.36300 4.16100 27.98200
H  29.65400 4.43100 29.57100
H  31.66400 2.98700 34.02900
H  32.60400 6.67300 35.72000
H  32.59200 5.50700 37.12100
H  31.06100 6.15300 36.35400
Mg -2.25200 35.44700 26.34300
C  -3.85500 33.42700 28.74900
C  -1.30800 37.57100 29.03700
C  -0.73600 37.49200 24.08600
C  -3.45000 33.50400 23.91200
N  -2.70000 35.53200 28.64700
C  -3.16600 34.48500 29.40600
C  -2.90700 34.73500 30.91800
C  -2.32500 36.20800 30.87400
C  -2.17500 36.53900 29.47000
C  -3.04800 37.24700 31.66300
C  -2.05800 33.62600 31.69600
C  -2.65600 33.03700 33.04100
H  -1.73800 33.07900 34.31500
N  -1.06800 37.22100 26.54400
C  -0.77300 37.83300 27.72400
C  0.04300 38.96700 27.36900
C  0.35500 39.04200 25.95800
C  -0.50200 37.86600 25.43100
C  0.45300 39.84200 28.49100
C  1.18300 39.93500 25.12000
O  1.20500 39.92200 23.89000
C  1.99100 40.97800 25.76300
N  -2.01500 35.38600 24.35000
C  -1.37500 36.35800 23.58000
C  -1.85500 36.17500 22.15900
C  -1.97500 34.62600 22.10600
C  -2.53000 34.44100 23.55400
C  -3.03600 36.97300 21.63000
C  -0.65700 33.87200 21.94300
C  -0.52900 33.12000 20.59900
N  -3.56500 33.94200 26.34300
C  -3.97800 33.24500 25.24600
C  -4.89200 32.15800 25.64500
C  -4.80200 32.19900 27.06600
C  -4.04400 33.37800 27.41800
C  -5.61600 31.14500 24.79000
C  -5.21100 31.53200 28.28000
O  -5.98100 30.56700 28.44800
C  -4.57500 32.28300 29.41600
C  -5.54700 32.64400 30.45000
O  -6.42200 33.55200 30.33100
O  -5.34300 31.89300 31.61400
C  -6.19800 32.13400 32.76100
H  -0.91900 38.14900 29.87800
H  -0.35900 38.15700 23.30700
H  -3.71800 32.82900 23.09800
H  -3.89200 34.83700 31.37400
H  -1.37300 36.21000 31.40400
H  -3.69600 37.81100 30.99200
H  -2.31300 37.83500 32.21300
H  -3.80900 36.91400 32.36800
H  -1.06100 33.97600 31.96600
H  -1.88900 32.78000 31.03000
H  -2.89300 31.98100 32.90500
H  -3.58200 33.55000 33.29700
H  0.56100 39.33200 29.44800
H  -0.36100 40.56300 28.56300
H  1.37100 40.42400 28.40600
H  2.63400 41.54500 25.09000
H  2.59300 40.51500 26.54500
H  1.30500 41.74800 26.11800
H  -0.95400 36.49300 21.63500
H  -2.66600 34.25700 21.34900
H  -3.65700 37.34100 22.44700
H  -3.69400 36.43000 20.95200
H  -2.66800 37.82700 21.06200
H  -0.62400 33.18300 22.78700
H  0.16800 34.57200 22.07400
H  -0.74400 32.05800 20.71700
H  0.53600 33.09000 20.36700
H  -1.01700 33.57400 19.73700
H  -6.64800 31.40700 24.55500
H  -5.70900 30.28100 25.44700
H  -5.08600 30.85500 23.88300
H  -3.83000 31.68600 29.94200
H  -6.15700 31.25300 33.40200
H  -7.24700 32.21100 32.47400
H  -5.82200 32.95900 33.36600

