158

Mg -10.65400 16.55800 42.90600
C  -7.15700 17.06900 42.93500
C  -11.17700 19.86800 42.50400
C  -13.91500 15.87700 42.18600
C  -9.90100 13.02300 42.66100
N  -9.31900 18.25700 42.65500
C  -7.92000 18.24000 42.70400
C  -7.39700 19.73700 42.56900
C  -8.72600 20.61100 42.68300
C  -9.81700 19.52000 42.64400
C  -8.85400 21.51400 43.89600
C  -6.52900 19.98900 41.21900
C  -5.03400 20.22100 41.45300
H  -4.13600 19.38500 40.58600
N  -12.29900 17.71200 42.33000
C  -12.36900 19.08100 42.26000
C  -13.70100 19.45400 41.86700
C  -14.51100 18.30900 41.79400
C  -13.55600 17.23000 42.05700
C  -14.16400 20.88300 41.47500
C  -16.04900 18.31200 41.42200
O  -16.62400 19.38000 41.48900
C  -16.78600 17.12200 41.15700
N  -11.65900 14.66300 42.21100
C  -13.05000 14.74700 42.35100
C  -13.57500 13.31200 42.68500
C  -12.30900 12.38000 42.49200
C  -11.21300 13.42100 42.46500
C  -14.38100 13.23700 44.07500
C  -12.40700 11.55200 41.15500
C  -11.92200 10.07200 41.21500
N  -8.89800 15.24600 42.88700
C  -8.77300 13.85200 42.85700
C  -7.43400 13.54500 42.98600
C  -6.70500 14.78500 43.07900
C  -7.69400 15.76100 42.89600
C  -6.99000 12.20700 42.99800
C  -5.39200 15.35400 43.14200
O  -4.29600 14.82400 43.14200
C  -5.62600 16.92000 43.22500
C  -5.27700 17.18700 44.65800
O  -6.03000 17.06300 45.61800
O  -4.03200 17.77400 44.67800
C  -3.58500 18.29600 45.98900
H  -11.16700 20.95500 42.40400
H  -14.97700 15.67000 42.33000
H  -9.77600 11.94100 42.74400
H  -6.83000 20.00100 43.46200
H  -8.85300 21.27900 41.83100
H  -7.86700 21.97000 43.97700
H  -9.21800 20.88300 44.70600
H  -9.51600 22.34200 43.64600
H  -7.00600 20.76100 40.61600
H  -6.71400 19.11400 40.59500
H  -4.80700 19.99900 42.49600
H  -4.87600 21.28200 41.25700
H  -13.19900 21.37200 41.34600
H  -14.80000 21.30700 42.25200
H  -14.69600 20.76200 40.53100
H  -17.77900 17.45800 40.85800
H  -16.85500 16.63000 42.12700
H  -16.18900 16.50400 40.48600
H  -14.34600 12.93200 42.01400
H  -12.19400 11.72400 43.35500
H  -14.41600 14.20100 44.58100
H  -13.61500 12.82800 44.73400
H  -15.30900 12.67100 44.00000
H  -11.82500 12.14300 40.44800
H  -13.46400 11.54300 40.88800
H  -11.66300 9.85000 42.25000
H  -11.07800 9.92700 40.54100
H  -12.70300 9.34900 40.97800
H  -7.65000 11.35300 43.15200
H  -6.22500 12.19900 43.77500
H  -6.40800 12.18200 42.07700
H  -4.92400 17.41900 42.55800
H  -3.06300 19.21200 45.71400
H  -2.94600 17.49900 46.37100
H  -4.33500 18.64600 46.69800
Mg -5.80000 25.05300 26.23500
C  -4.07600 26.72500 28.76800
C  -7.37600 23.21900 28.74100
C  -7.23900 23.21300 23.79000
C  -3.87700 26.74700 23.90900
N  -5.73100 25.00800 28.44600
C  -4.93800 25.77800 29.26000
C  -5.34600 25.46800 30.73200
C  -6.12100 24.10600 30.69500
C  -6.43000 24.09100 29.20400
C  -5.22600 22.88100 31.18500
C  -6.24400 26.53900 31.41700
C  -6.19300 26.61300 32.98700
H  -5.75000 25.36700 33.77900
N  -7.19300 23.62700 26.25300
C  -7.76800 23.00100 27.35300
C  -8.77700 22.05000 26.97100
C  -8.73200 21.99100 25.48200
C  -7.64900 22.94400 25.09300
C  -9.61100 21.18800 27.94300
C  -9.56900 21.08100 24.56300
O  -9.50000 21.06400 23.35500
C  -10.62900 20.09500 25.13700
N  -5.41400 24.76700 24.18800
C  -6.16600 24.00800 23.38900
C  -5.63600 24.09200 21.94300
C  -4.89400 25.45000 21.91900
C  -4.69600 25.72200 23.43500
C  -4.81700 22.86600 21.40400
C  -5.60800 26.64500 21.15800
C  -4.69600 27.51800 20.30500
N  -4.36000 26.51400 26.26800
C  -3.64600 27.15900 25.25700
C  -2.79900 28.16300 25.78500
C  -2.95000 28.05000 27.15200
C  -3.87300 27.00500 27.38200
C  -2.00300 29.24900 25.06000
C  -2.62100 28.61100 28.43300
O  -1.97100 29.63700 28.67900
C  -3.24000 27.74400 29.52800
C  -2.16700 27.32500 30.51400
O  -0.98500 27.17900 30.29500
O  -2.72700 27.37800 31.78600
C  -1.78700 27.17200 32.86700
H  -7.76400 22.58300 29.54000
H  -7.61900 22.49800 23.05700
H  -3.42700 27.35700 23.12400
H  -4.48500 25.34800 31.39000
H  -7.03100 24.30000 31.26400
H  -4.27800 23.27000 31.55500
H  -4.96400 22.18200 30.39100
H  -5.67700 22.28800 31.98100
H  -7.17400 26.34300 30.88400
H  -5.92500 27.49400 31.00000
H  -7.17100 26.96100 33.32000
H  -5.47600 27.42000 33.13500
H  -10.64700 21.24800 27.60900
H  -9.59000 21.59300 28.95500
H  -9.29400 20.14500 27.95100
H  -11.08400 19.50200 24.34300
H  -11.35100 20.72900 25.65200
H  -10.20300 19.34700 25.80600
H  -6.54000 24.16100 21.33700
H  -3.86200 25.34900 21.58300
H  -5.59600 22.14900 21.14800
H  -4.13600 22.36000 22.08800
H  -4.24400 23.11600 20.51100
H  -6.08000 27.35100 21.84100
H  -6.37200 26.22300 20.50500
H  -5.18600 27.51200 19.33200
H  -3.70900 27.07700 20.16700
H  -4.53700 28.47600 20.80000
H  -1.96300 29.08500 23.98400
H  -0.99600 29.37600 25.45700
H  -2.56000 30.18600 25.03100
H  -3.78600 28.45400 30.14900
H  -0.90100 27.79700 32.75800
H  -1.53000 26.12200 33.00500
H  -2.18300 27.44900 33.84400

