158

Mg 47.43300 25.15700 28.21100
C  48.68200 27.25800 30.68900
C  46.53400 22.90400 30.63100
C  46.60600 23.16100 25.73800
C  48.88500 27.25800 25.76900
N  47.54000 25.13000 30.42100
C  48.06200 26.12400 31.19400
C  47.72500 25.79700 32.67100
C  47.10900 24.34800 32.65600
C  47.11700 24.06600 31.12400
C  47.98700 23.31800 33.37800
C  46.86200 26.89300 33.40000
C  47.42000 27.47300 34.70600
H  46.37800 27.95400 35.75200
N  46.56600 23.32300 28.23500
C  46.23200 22.56400 29.30700
C  45.45400 21.38500 28.86600
C  45.45600 21.45800 27.39500
C  46.24200 22.69600 27.03900
C  44.90200 20.35500 29.79000
C  44.86500 20.43800 26.51600
O  44.92400 20.60300 25.30300
C  44.09200 19.25700 27.01100
N  47.49600 25.28600 26.08300
C  47.19000 24.29600 25.32200
C  47.43400 24.55300 23.84500
C  47.87800 26.01500 23.80000
C  48.06800 26.26800 25.30100
C  48.39500 23.52100 23.11900
C  46.79100 27.08600 23.30700
C  47.22300 28.05400 22.29300
N  48.61000 26.90000 28.19400
C  49.14700 27.60200 27.08800
C  49.91200 28.77000 27.59000
C  49.71500 28.69100 28.99400
C  48.93700 27.53600 29.32900
C  50.63300 29.83400 26.85800
C  49.96800 29.35600 30.30800
O  50.63600 30.40000 30.48400
C  49.28900 28.46700 31.44500
C  50.28600 27.94300 32.41400
O  50.97900 26.91500 32.33100
O  50.32800 28.70300 33.54500
C  51.22900 28.35700 34.72500
H  46.29400 22.21700 31.44500
H  46.21600 22.38400 25.07800
H  49.32100 27.92500 25.02100
H  48.60800 25.81300 33.31000
H  46.11400 24.34800 33.09900
H  47.43700 23.06000 34.28200
H  48.92900 23.78200 33.67200
H  48.13900 22.42300 32.77500
H  45.86100 26.54700 33.65600
H  46.76600 27.73800 32.71900
H  48.00000 28.37600 34.51600
H  48.13700 26.73500 35.06400
H  43.83200 20.16600 29.69900
H  44.99200 20.62200 30.84300
H  45.43500 19.43200 29.56400
H  43.29300 19.56300 27.68600
H  44.84500 18.53700 27.33200
H  43.48200 18.81400 26.22400
H  46.45700 24.45000 23.37400
H  48.83800 26.10500 23.29100
H  49.45200 23.78700 23.15200
H  48.01400 23.47100 22.09900
H  48.23500 22.50900 23.49300
H  46.32100 27.65600 24.10800
H  46.02300 26.42800 22.89900
H  46.41100 28.14400 21.57100
H  48.12100 27.56700 21.91300
H  47.52400 28.95500 22.82600
H  50.36300 30.87500 27.03400
H  50.44500 29.64100 25.80100
H  51.70800 29.66600 26.91700
H  48.51100 29.00900 31.98300
H  52.21900 28.05700 34.38100
H  50.74500 27.46400 35.12000
H  51.15400 29.19900 35.41300
Mg -12.50600 38.31000 41.15000
C  -10.24400 35.62800 40.41600
C  -10.44100 40.35300 39.50200
C  -14.96000 40.39000 41.27300
C  -14.54500 35.90500 42.73700
N  -10.71700 38.01200 39.87500
C  -9.95200 36.84100 39.75900
C  -8.71000 37.12200 38.88900
C  -8.66000 38.64400 38.86200
C  -10.00600 39.03600 39.48500
C  -7.48900 39.21100 39.58600
C  -8.72400 36.35200 37.54900
C  -7.71300 35.20400 37.21200
H  -6.57900 35.59400 36.20300
N  -12.67000 40.13700 40.55700
C  -11.67400 40.88300 39.97100
C  -12.11500 42.26700 39.82700
C  -13.39600 42.33700 40.46700
C  -13.77300 40.90000 40.75300
C  -11.38000 43.32900 39.18500
C  -14.13600 43.59100 40.70100
O  -13.71400 44.66600 40.37300
C  -15.40600 43.64700 41.40900
N  -14.52000 38.06600 41.72200
C  -15.32800 39.15500 41.79500
C  -16.66800 38.98900 42.50900
C  -16.51800 37.53700 42.92400
C  -15.06500 37.12000 42.53400
C  -16.84600 40.09000 43.66000
C  -17.41800 36.49700 42.18400
C  -18.68500 36.10400 42.95900
N  -12.46500 36.08000 41.49200
C  -13.34300 35.40700 42.29900
C  -12.76100 34.07700 42.46700
C  -11.58900 34.05300 41.66600
C  -11.47400 35.31100 41.05200
C  -13.38900 32.95900 43.27700
C  -10.43900 33.24500 41.18600
O  -10.24900 32.03200 41.31200
C  -9.44400 34.34900 40.51500
C  -8.12400 34.39500 41.19900
O  -7.29000 33.49600 41.10700
O  -7.98300 35.62300 41.84800
C  -6.71700 35.65800 42.67000
H  -9.88300 41.12200 38.96300
H  -15.69900 41.18500 41.39500
H  -15.13800 35.21100 43.33500
H  -7.94500 36.79400 39.59300
H  -8.76700 38.97800 37.83000
H  -7.51700 38.80800 40.59800
H  -7.35900 40.28400 39.72800
H  -6.66300 38.77200 39.02500
H  -8.57100 37.07500 36.74800
H  -9.71400 35.99300 37.26600
H  -8.23500 34.31400 36.86000
H  -7.14300 34.85200 38.07200
H  -11.82400 43.91400 38.38000
H  -10.46900 43.12400 38.62200
H  -11.20600 44.03500 39.99700
H  -15.48000 44.69100 41.71300
H  -15.37800 43.14300 42.37500
H  -16.29100 43.28700 40.88300
H  -17.28200 39.10500 41.61600
H  -16.53800 37.41000 44.00700
H  -17.13800 39.79300 44.66700
H  -17.67900 40.63000 43.21000
H  -15.97400 40.74300 43.68400
H  -16.96100 35.53700 41.94300
H  -17.87200 36.97400 41.31600
H  -18.76100 35.01900 42.88400
H  -19.57900 36.29100 42.36500
H  -18.74100 36.43300 43.99700
H  -13.00800 31.98600 42.96900
H  -14.46800 33.11100 43.26300
H  -13.03600 33.08900 44.30000
H  -9.17700 34.07000 39.49600
H  -6.72200 36.65300 43.11400
H  -5.88600 35.58800 41.96700
H  -6.63600 35.08400 43.59300

