158

Mg 45.48700 5.26300 47.87000
C  43.07700 7.87200 47.10200
C  42.95100 3.03700 47.13800
C  47.75300 2.82700 48.07100
C  47.95000 7.68400 47.95200
N  43.29900 5.45500 47.22200
C  42.47600 6.57900 47.00500
C  41.08600 6.26200 46.56300
C  41.04000 4.74100 46.92100
C  42.55600 4.32800 47.11100
C  40.24200 4.29900 48.17600
C  40.79700 6.45700 45.02800
C  39.29900 6.29200 44.74600
H  38.66500 7.41200 43.93800
N  45.36500 3.15000 47.73400
C  44.25100 2.44300 47.36500
C  44.66100 0.99200 47.38400
C  46.05100 0.93700 47.84200
C  46.46100 2.36100 47.89900
C  43.68700 -0.19500 47.21500
C  46.83600 -0.36900 48.12300
O  46.21600 -1.42500 48.17500
C  48.25600 -0.34700 48.36200
N  47.53000 5.24200 47.97400
C  48.23200 4.09200 48.19500
C  49.73700 4.39700 48.33400
C  49.81400 5.96500 48.23400
C  48.32300 6.33700 48.04300
C  50.44600 3.69400 49.56200
C  50.75800 6.50500 47.05700
C  50.46300 6.15900 45.57500
N  45.61800 7.27800 47.59600
C  46.65800 8.20400 47.66600
C  46.16200 9.54100 47.38300
C  44.77100 9.44700 47.25600
C  44.48500 8.04900 47.34000
C  47.07400 10.75400 47.38700
C  43.57000 10.18700 47.04700
O  43.47700 11.37000 46.87600
C  42.38700 9.18300 46.82000
C  41.16500 9.39400 47.65500
O  40.97900 9.00800 48.82600
O  40.17500 10.11900 46.95200
C  39.07700 10.59500 47.76600
H  42.21200 2.24000 47.03700
H  48.53700 2.06800 48.03300
H  48.69400 8.46900 48.10400
H  40.33700 6.69300 47.22800
H  40.67300 4.22500 46.03300
H  39.74000 5.12800 48.67400
H  40.86300 3.76500 48.89500
H  39.45900 3.61200 47.85400
H  41.35600 5.66400 44.53300
H  41.16600 7.42000 44.67500
H  38.75300 6.20200 45.68500
H  39.17700 5.30600 44.29800
H  43.41400 -0.73300 48.12300
H  44.23400 -0.99300 46.71300
H  42.81600 0.07700 46.61900
H  48.68800 -1.32100 48.58800
H  48.56300 0.36400 49.12900
H  48.46500 0.02100 47.35800
H  50.19900 3.92600 47.46600
H  50.14700 6.41800 49.16800
H  49.77300 3.20600 50.26800
H  50.94200 4.48600 50.12300
H  51.09900 2.91300 49.17100
H  51.73100 6.10100 47.33700
H  50.84800 7.57800 47.23100
H  49.51600 5.61900 45.56300
H  51.20400 5.47400 45.16200
H  50.28100 7.07100 45.00600
H  46.69500 11.47400 46.66200
H  47.97800 10.43900 46.86600
H  47.45700 11.09100 48.35000
H  41.99200 9.12500 45.80600
H  38.29600 9.83500 47.80500
H  38.61400 11.44800 47.26900
H  39.45700 10.85300 48.75400
Mg 53.38400 25.47800 44.79300
C  50.96100 27.71700 43.54300
C  51.41500 22.86300 43.81800
C  56.10700 23.27700 45.06600
C  55.51200 28.14800 45.36700
N  51.54000 25.41600 43.58900
C  50.67400 26.35600 43.23400
C  49.53300 25.84700 42.41900
C  49.41000 24.36800 43.07800
C  50.90000 24.18200 43.55100
C  48.43200 24.19900 44.28200
C  49.70100 25.68000 40.84500
C  48.70300 26.26300 39.89800
H  49.21300 26.61100 38.49700
N  53.77500 23.30000 44.44200
C  52.77200 22.47400 44.10300
C  53.31000 21.17000 44.20100
C  54.63500 21.21700 44.57500
C  54.94000 22.59500 44.67000
C  52.38600 19.92500 43.98600
C  55.50700 19.97100 44.87300
O  55.03000 18.86200 44.87000
C  57.01800 20.01100 45.17800
N  55.57400 25.62600 45.08300
C  56.42700 24.56900 45.23900
C  57.80400 25.11700 45.74100
C  57.62900 26.67300 45.74900
C  56.17000 26.87200 45.32700
C  58.32400 24.38100 47.01700
C  58.58100 27.41600 44.75500
C  59.70100 28.15300 45.46700
N  53.21600 27.50500 44.72000
C  54.20000 28.48100 45.03800
C  53.46700 29.74800 45.05100
C  52.22200 29.47600 44.35600
C  52.16100 28.12700 44.16600
C  53.98900 31.01700 45.61600
C  51.00800 30.09300 43.80900
O  50.77500 31.30300 43.69300
C  50.06000 28.91400 43.24900
C  49.67700 29.14400 41.89600
O  50.45200 29.08700 40.93300
O  48.35100 29.44900 41.86600
C  47.81000 29.85800 40.55600
H  50.61700 22.12700 43.69700
H  56.95100 22.63500 45.32600
H  56.12000 28.97800 45.73400
H  48.69900 26.50000 42.67500
H  49.28100 23.61900 42.29700
H  47.83700 23.31000 44.07200
H  47.72500 25.02700 44.34000
H  48.98100 24.09200 45.21800
H  49.89700 24.65300 40.53900
H  50.52600 26.34200 40.58300
H  48.28700 27.16800 40.34100
H  47.87200 25.56000 39.85000
H  52.88900 19.00400 43.69100
H  51.59300 20.21100 43.29600
H  51.86700 19.71800 44.92200
H  57.31600 18.98900 45.40900
H  57.29100 20.69600 45.98100
H  57.53400 20.46500 44.33300
H  58.56800 24.90200 44.99400
H  57.71900 27.04600 46.76900
H  58.91200 25.03900 47.65800
H  58.92200 23.47800 46.89600
H  57.44300 24.10200 47.59500
H  58.03800 28.12000 44.12400
H  59.15300 26.69700 44.16800
H  60.58400 27.52800 45.33800
H  59.52200 28.19900 46.54200
H  59.87000 29.14900 45.05600
H  54.99400 30.85600 46.00600
H  53.39000 31.34800 46.46500
H  54.00800 31.76300 44.82300
H  49.25400 28.69900 43.95100
H  47.32900 29.02000 40.05300
H  48.61700 30.32700 39.99200
H  46.96700 30.53100 40.71600

