158

Mg 47.71600 24.88400 28.60100
C  48.43200 27.11400 31.22900
C  47.27100 22.41800 31.09900
C  47.21200 22.59100 26.17500
C  49.04800 27.08200 26.33300
N  47.91200 24.70400 30.85400
C  48.01500 25.86100 31.70100
C  47.87800 25.46600 33.17700
C  47.58200 23.93500 33.12200
C  47.72000 23.60200 31.60000
C  48.59000 23.07700 33.97800
C  46.76600 26.31600 33.91500
C  47.23100 26.87800 35.26200
H  46.16300 26.89600 36.31800
N  47.12300 22.80000 28.64800
C  46.99100 21.96200 29.73200
C  46.55500 20.57800 29.24100
C  46.44200 20.65800 27.86000
C  46.97600 22.00700 27.49300
C  46.26200 19.47100 30.13100
C  45.92100 19.55400 26.93200
O  45.88800 19.72800 25.73100
C  45.31700 18.25000 27.41600
N  47.95200 24.90200 26.54500
C  47.74800 23.82400 25.78300
C  48.26600 24.04200 24.36500
C  48.53300 25.55100 24.33600
C  48.66800 25.83500 25.82500
C  49.55300 23.26400 23.90700
C  47.53600 26.48200 23.54800
C  47.39700 26.21100 22.09900
N  48.67600 26.70300 28.71900
C  49.16800 27.48500 27.72000
C  49.79700 28.68400 28.27500
C  49.58300 28.57800 29.66200
C  48.77900 27.41200 29.86400
C  50.69700 29.64200 27.60900
C  49.80000 29.14800 30.94700
O  50.53600 30.08500 31.23000
C  49.02500 28.33500 32.02400
C  50.08100 27.90300 33.02900
O  51.01800 27.20900 32.87000
O  49.85100 28.67400 34.15500
C  50.80600 28.48400 35.22500
H  47.13700 21.56300 31.76500
H  47.19300 21.90300 25.32700
H  49.36100 27.86600 25.64000
H  48.83700 25.56100 33.68600
H  46.56000 23.65700 33.37700
H  49.37200 22.60700 33.38200
H  48.07400 22.27100 34.49800
H  49.01800 23.74200 34.72900
H  45.77900 25.89200 34.10400
H  46.48300 27.19500 33.33700
H  47.63300 27.89100 35.28100
H  48.06300 26.28200 35.63700
H  46.37700 19.66800 31.19600
H  46.99400 18.70500 29.87100
H  45.25900 19.05800 30.02300
H  46.06300 17.69500 27.98500
H  45.11300 17.70600 26.49400
H  44.45400 18.23000 28.08300
H  47.38200 23.82900 23.76400
H  49.52500 25.68300 23.90300
H  49.69800 22.42400 24.58600
H  50.46000 23.86000 23.81200
H  49.37200 22.64800 23.02600
H  47.76600 27.53600 23.70400
H  46.50800 26.37400 23.89300
H  46.54100 25.58900 21.83800
H  48.33600 25.76000 21.77800
H  47.32500 27.23500 21.73400
H  50.68900 29.60700 26.51900
H  51.71300 29.37400 27.90100
H  50.42000 30.65900 27.88300
H  48.25900 28.96100 32.48100
H  50.66100 29.08100 36.12500
H  51.84000 28.72000 34.97500
H  50.72700 27.42400 35.46700
Mg -12.45600 16.17700 41.27200
C  -9.57900 14.09900 41.11100
C  -10.56100 18.75700 39.84500
C  -15.26700 17.80300 40.90600
C  -14.31200 13.12500 42.03100
N  -10.31900 16.38700 40.52800
C  -9.26300 15.47300 40.76400
C  -7.92700 16.09100 40.39000
C  -8.30300 17.59300 40.25500
C  -9.84700 17.55000 40.13200
C  -7.88600 18.60900 41.30300
C  -7.25000 15.51500 39.08900
C  -5.71400 15.28600 39.09500
H  -4.90600 16.09800 38.02800
N  -12.85100 18.06800 40.58100
C  -11.96500 18.99900 39.97500
C  -12.67300 20.15300 39.68900
C  -14.05600 19.88200 39.97400
C  -14.13800 18.56800 40.55900
C  -11.98700 21.38400 39.06600
C  -15.26400 20.82500 39.65600
O  -15.07700 21.82200 38.95200
C  -16.66700 20.63500 40.13400
N  -14.52200 15.56200 41.44200
C  -15.48700 16.46600 41.30500
C  -16.88300 15.88600 41.41700
C  -16.54300 14.34700 41.63000
C  -15.01500 14.34200 41.75400
C  -17.62700 16.46300 42.61600
C  -17.12800 13.47600 40.48900
C  -18.19900 12.45500 40.94100
N  -12.11600 14.02500 41.57600
C  -12.90900 12.92600 41.80200
C  -12.08700 11.73600 42.03800
C  -10.78700 12.22100 41.73600
C  -10.83900 13.53800 41.43300
C  -12.63400 10.41300 42.38800
C  -9.43600 11.75900 41.55600
O  -8.97400 10.63600 41.56300
C  -8.59200 12.96200 41.18700
C  -7.67800 13.23800 42.25500
O  -7.95000 13.43000 43.44700
O  -6.47100 13.43900 41.70100
C  -5.46800 13.72200 42.71300
H  -10.03700 19.64800 39.49300
H  -16.16200 18.42500 40.98100
H  -14.86800 12.18900 42.10700
H  -7.28600 16.01200 41.26900
H  -7.84700 17.91900 39.32000
H  -8.71900 18.81900 41.97400
H  -7.47800 19.57300 41.00000
H  -7.08700 18.17000 41.90000
H  -7.42900 16.13400 38.21000
H  -7.67000 14.51100 39.02200
H  -5.52400 14.21600 39.00600
H  -5.45300 15.54100 40.12200
H  -12.58600 22.21000 38.68300
H  -11.34600 21.05600 38.24700
H  -11.21800 21.84200 39.68900
H  -17.22500 19.80800 39.69500
H  -17.18000 21.48300 39.68000
H  -16.69200 20.70600 41.22100
H  -17.39800 16.13200 40.48900
H  -16.89200 13.98200 42.59600
H  -17.17000 17.38100 42.98300
H  -17.57900 15.68700 43.38000
H  -18.67700 16.65500 42.39400
H  -16.31400 12.91100 40.03400
H  -17.52900 14.16300 39.74400
H  -17.71300 11.48900 40.80500
H  -19.06100 12.52200 40.27700
H  -18.56900 12.54500 41.96300
H  -11.80700 9.80200 42.75000
H  -13.22200 10.13100 41.51500
H  -13.28500 10.58500 43.24500
H  -8.06700 12.89300 40.23500
H  -5.35600 12.77800 43.24600
H  -5.64900 14.54200 43.40700
H  -4.50700 14.00100 42.27900

