158

Mg 35.31700 0.21800 29.12800
C  33.05700 1.43500 31.36400
C  37.88400 0.31200 31.37900
C  37.45300 -0.69300 26.66700
C  32.70800 0.53700 26.70800
N  35.45600 0.88300 31.13000
C  34.39800 1.24200 31.91100
C  34.84900 1.49500 33.39400
C  36.36100 1.18200 33.33300
C  36.58100 0.69300 31.83200
C  37.24600 2.35600 33.76000
C  34.02200 0.64200 34.42100
C  34.05200 0.85700 35.89300
H  35.00500 1.94100 36.46300
N  37.41700 -0.15300 29.09200
C  38.27800 -0.13200 30.12800
C  39.57800 -0.53500 29.65600
C  39.46500 -1.00100 28.33400
C  38.06900 -0.59600 27.94200
C  40.78800 -0.56600 30.58200
C  40.47200 -1.74200 27.48000
O  40.25700 -2.13600 26.35100
C  41.84000 -2.12000 27.97900
N  35.11500 -0.01100 26.96100
C  36.21600 -0.41800 26.19100
C  35.73400 -0.60100 24.70700
C  34.17700 -0.61500 24.95900
C  33.95200 0.11000 26.21700
C  36.19600 0.49800 23.83800
C  33.59500 -1.99500 25.03400
C  32.57000 -2.24200 23.89300
N  33.28500 0.89700 28.94400
C  32.36000 0.97400 27.92800
C  31.08700 1.50800 28.37600
C  31.27700 1.68200 29.74900
C  32.64000 1.22000 30.05800
C  29.76700 1.58500 27.63700
C  30.65400 2.02400 30.98400
O  29.50200 2.41000 31.18500
C  31.76800 1.86800 32.08000
C  31.79900 3.13500 32.89400
O  32.25800 4.23300 32.59100
O  31.26000 2.88800 34.17200
C  31.15500 4.06700 35.03600
H  38.77100 0.35200 32.01500
H  38.07800 -0.93800 25.80600
H  31.85800 0.48000 26.02500
H  34.67200 2.54800 33.61100
H  36.54600 0.35200 34.01400
H  37.74100 2.16200 34.71200
H  36.72300 3.30600 33.86900
H  37.98200 2.51100 32.97200
H  34.41100 -0.36600 34.27200
H  32.98500 0.67600 34.08500
H  34.20300 -0.05900 36.46500
H  33.08900 1.24500 36.22500
H  41.07800 -1.57400 30.87700
H  40.62800 0.06800 31.45400
H  41.60100 -0.06000 30.06100
H  42.47700 -1.29300 28.29200
H  42.32400 -2.66200 27.16700
H  41.63000 -2.80400 28.80100
H  36.10100 -1.52600 24.26300
H  33.64900 -0.05300 24.18800
H  36.57900 0.03800 22.92700
H  37.03500 1.03000 24.28700
H  35.32200 1.07000 23.52500
H  33.17800 -2.18400 26.02300
H  34.37300 -2.75800 24.99800
H  31.63800 -2.60000 24.33000
H  32.91800 -3.01400 23.20600
H  32.36900 -1.37000 23.27200
H  29.09200 0.79100 27.95600
H  30.04100 1.75300 26.59500
H  29.23800 2.51100 27.86000
H  31.57200 1.03700 32.75800
H  31.99100 4.08900 35.73400
H  30.18100 4.11500 35.52200
H  31.23300 5.02800 34.52700
Mg 40.75300 7.14300 28.90800
C  42.37900 8.43100 31.69900
C  38.43000 5.78100 31.15600
C  39.42900 5.74700 26.25000
C  43.24600 8.47400 26.99800
N  40.45900 7.12200 31.24900
C  41.21200 7.79500 32.10600
C  40.53800 7.91400 33.44700
C  39.37100 6.83100 33.30500
C  39.42300 6.47600 31.81300
C  39.57400 5.58100 34.17000
C  40.01200 9.33400 33.69200
C  39.94600 9.75400 35.16300
H  40.99500 10.69100 35.80800
N  39.17800 5.79300 28.70200
C  38.32800 5.43500 29.74800
C  37.22900 4.65400 29.13700
C  37.52300 4.59400 27.70500
C  38.70500 5.40100 27.47400
C  36.09600 4.10000 29.94300
C  36.71100 4.02100 26.54300
O  37.08000 3.95500 25.37900
C  35.49000 3.34900 26.93000
N  41.48600 6.75300 26.93200
C  40.61400 6.40700 25.98700
C  41.11200 6.57400 24.54600
C  42.11100 7.70600 24.84300
C  42.34100 7.67400 26.33700
C  41.69800 5.30500 23.89200
C  41.87500 9.09900 24.27200
C  40.64900 9.81300 24.79000
N  42.47800 8.15800 29.18300
C  43.42800 8.65000 28.34300
C  44.50300 9.34300 29.07000
C  44.11200 9.27600 30.42000
C  42.84900 8.60000 30.41400
C  45.72200 9.93000 28.48100
C  44.47200 9.68600 31.77100
O  45.35900 10.40400 32.19100
C  43.37000 9.15500 32.61700
C  43.94700 8.17000 33.57300
O  44.37500 7.07800 33.29500
O  43.78700 8.52800 34.90800
C  44.15600 7.58300 35.97100
H  37.65800 5.32800 31.78100
H  39.05500 5.34600 25.30600
H  43.92900 9.01700 26.34100
H  41.25600 7.51100 34.16200
H  38.36500 7.25000 33.29100
H  39.26700 4.71600 33.58300
H  39.05100 5.61700 35.12600
H  40.64300 5.56800 34.38500
H  38.95700 9.40600 33.42800
H  40.59000 10.10300 33.18000
H  39.90800 8.82100 35.72400
H  38.98500 10.25800 35.27500
H  35.23400 4.71300 29.68300
H  36.23200 3.96500 31.01600
H  35.86100 3.05200 29.75400
H  35.76400 2.72700 27.78200
H  35.03800 2.79300 26.10800
H  34.78000 4.12000 27.22800
H  40.19800 6.78800 23.99100
H  43.09600 7.40300 24.48800
H  42.73300 5.31100 23.55100
H  41.15100 5.14600 22.96300
H  41.55800 4.46200 24.56800
H  41.57800 8.84600 23.25400
H  42.79700 9.67200 24.37000
H  40.29600 9.37400 25.72300
H  39.85000 9.83400 24.05000
H  40.97700 10.84500 24.91900
H  46.05900 10.70400 29.17000
H  45.44900 10.48600 27.58400
H  46.54800 9.27000 28.21800
H  42.79600 9.96300 33.07200
H  44.59000 6.70400 35.49400
H  43.40800 7.19800 36.66400
H  44.98500 8.06200 36.49100

