158

Mg 23.46100 -5.13200 45.74000
C  25.61300 -2.72200 44.21700
C  20.83600 -3.82700 43.84700
C  21.71500 -7.70900 46.67900
C  26.31400 -6.38800 47.38800
N  23.31800 -3.54700 44.15100
C  24.28600 -2.67400 43.75400
C  23.68300 -1.55400 42.84800
C  22.15200 -1.75000 43.04800
C  22.05700 -3.13800 43.67300
C  21.39800 -0.73700 43.98400
C  24.09000 -1.73500 41.34200
C  24.77900 -0.62500 40.58700
H  25.42000 -0.96300 39.21800
N  21.50800 -5.75500 45.21900
C  20.59400 -5.08100 44.51100
C  19.34300 -5.79800 44.65900
C  19.56100 -6.99600 45.36100
C  20.99300 -6.86000 45.79400
C  18.16700 -5.26700 44.07800
C  18.59900 -8.14100 45.54000
O  17.49000 -8.01300 45.07600
C  18.94400 -9.50100 46.17800
N  24.03600 -6.93500 46.78600
C  23.09000 -7.82500 47.02800
C  23.71200 -8.97100 47.85200
C  25.04500 -8.42300 48.36900
C  25.14400 -7.15500 47.46200
C  22.75900 -9.52600 48.91900
C  26.21600 -9.49600 48.23900
C  27.43600 -9.46300 49.19300
N  25.58900 -4.71800 45.86300
C  26.66000 -5.32200 46.52200
C  27.83700 -4.57100 46.30600
C  27.47900 -3.54100 45.46300
C  26.07200 -3.68700 45.11900
C  29.21800 -4.89800 46.88700
C  28.03100 -2.34800 44.75200
O  29.13500 -1.83200 44.63000
C  26.74500 -1.76100 43.94500
C  26.53000 -0.28400 44.20200
O  25.46400 0.22600 44.67200
O  27.59000 0.41700 43.73600
C  27.57300 1.89200 43.68500
H  19.92700 -3.35200 43.47400
H  21.15400 -8.62400 46.88100
H  27.15300 -6.68100 48.02300
H  24.03500 -0.54100 43.04200
H  21.60200 -1.83200 42.11100
H  22.16100 -0.16100 44.50800
H  20.69800 -1.26600 44.63200
H  20.80400 -0.18300 43.25700
H  23.30100 -2.14000 40.70700
H  24.76200 -2.59000 41.27200
H  25.49000 -0.08800 41.21500
H  23.99300 0.11100 40.41700
H  18.09200 -5.65200 43.06100
H  18.14500 -4.17800 44.03200
H  17.31200 -5.73300 44.56700
H  19.89800 -9.85400 45.78500
H  18.24000 -10.29500 45.92800
H  19.10300 -9.42400 47.25300
H  23.99800 -9.75800 47.15400
H  24.94600 -8.06300 49.39300
H  21.70000 -9.28200 49.00600
H  23.15200 -9.39700 49.92800
H  22.72500 -10.60800 48.79000
H  26.59000 -9.33600 47.22700
H  25.72600 -10.46900 48.23000
H  28.28700 -9.00700 48.68600
H  27.81300 -10.47600 49.33900
H  27.20800 -9.12900 50.20500
H  29.42300 -5.96600 46.96200
H  29.12500 -4.62200 47.93700
H  30.01500 -4.38600 46.34900
H  26.80100 -1.75400 42.85700
H  27.83000 2.23200 44.68800
H  26.61600 2.19600 43.26100
H  28.38600 2.13300 43.00000
Mg 35.96200 48.63400 24.62500
C  36.41500 46.83700 27.58500
C  34.77600 51.32600 26.44100
C  35.65200 50.32200 21.81500
C  37.31200 45.94500 22.92100
N  35.52600 48.93400 26.80900
C  35.85800 48.10100 27.84200
C  35.59600 48.77500 29.14700
C  34.90400 50.11700 28.74800
C  35.06900 50.17800 27.27200
C  33.36600 50.25900 29.02100
C  36.86000 48.98800 30.04000
C  36.76000 48.73800 31.53500
H  35.43700 48.82200 32.29600
N  35.24100 50.47000 24.19000
C  34.82700 51.42800 25.06500
C  34.54800 52.65700 24.33700
C  34.70300 52.28600 23.00100
C  35.18200 50.95200 22.94000
C  34.18900 53.92600 25.07300
C  34.39900 53.21200 21.78800
O  34.59300 52.89600 20.62200
C  34.02100 54.60500 21.98600
N  36.44600 48.23100 22.67000
C  36.09400 49.04800 21.67900
C  36.46800 48.49900 20.33600
C  37.00500 47.07100 20.66600
C  36.90800 47.06400 22.17600
C  35.40200 48.53900 19.25700
C  38.45800 46.59300 20.13200
C  39.67300 47.05300 20.93300
N  36.72700 46.77700 25.05700
C  37.10800 45.72400 24.29100
C  37.59200 44.64000 25.07600
C  37.31600 45.03600 26.38200
C  36.71800 46.36600 26.30200
C  38.24600 43.41700 24.50200
C  37.44300 44.56500 27.73700
O  37.86700 43.52300 28.16200
C  36.72800 45.66600 28.60500
C  35.46100 45.27600 29.15900
O  34.43800 44.86000 28.57400
O  35.62100 45.35200 30.56400
C  34.54300 44.68000 31.33000
H  34.46000 52.16900 27.05900
H  35.73500 50.95400 20.92800
H  37.72600 45.10500 22.36000
H  35.04600 48.00300 29.68600
H  35.44500 50.97600 29.14700
H  32.86900 49.43600 29.53400
H  32.74300 50.42300 28.14200
H  33.25000 51.03200 29.78100
H  37.27400 49.98500 29.88600
H  37.59400 48.26500 29.68400
H  37.47900 49.41500 31.99700
H  37.03200 47.70300 31.74300
H  33.37400 54.48000 24.60600
H  35.13300 54.45100 25.21900
H  33.75400 53.78200 26.06200
H  34.56700 55.14400 22.76000
H  33.01500 54.57900 22.40400
H  34.00200 55.17100 21.05500
H  37.32900 49.10300 20.04800
H  36.22000 46.42200 20.27800
H  34.43600 48.53800 19.76000
H  35.31900 47.66000 18.61800
H  35.58900 49.44200 18.67500
H  38.54800 46.94900 19.10600
H  38.62500 45.52100 20.02700
H  39.40200 48.00200 21.39600
H  40.59200 47.35100 20.42900
H  39.99900 46.36600 21.71400
H  38.28200 42.52100 25.12200
H  39.10500 43.78500 23.94200
H  37.55300 42.97200 23.78800
H  37.34100 46.03200 29.42900
H  34.86500 44.79600 32.36400
H  34.50400 43.62800 31.04700
H  33.58900 45.18400 31.17700

