158

Mg 54.69700 23.75900 44.49600
C  52.15800 25.87100 43.35800
C  52.78300 21.07600 43.57500
C  57.40000 21.90400 45.01100
C  56.33100 26.56900 45.81700
N  52.73100 23.56900 43.39900
C  51.90400 24.54300 43.07100
C  50.59200 23.93400 42.47300
C  50.60000 22.40900 43.11800
C  52.10800 22.32000 43.35700
C  49.76600 22.21900 44.40800
C  50.54800 23.97700 40.85100
C  49.12700 24.05700 40.35700
H  48.74600 23.71800 38.93300
N  55.06000 21.83000 44.07500
C  54.15800 20.83000 43.71200
C  54.72000 19.47800 43.79300
C  56.07000 19.68100 44.31000
C  56.26600 21.19300 44.45100
C  53.89000 18.22800 43.38700
C  57.00800 18.50000 44.71600
O  56.70400 17.30800 44.71200
C  58.49400 18.86400 45.06400
N  56.69700 24.26500 45.09900
C  57.61200 23.33100 45.28700
C  58.90700 23.95300 45.84300
C  58.44800 25.37400 46.29000
C  57.07600 25.43300 45.75900
C  59.54600 23.16100 46.97400
C  59.42400 26.52800 45.87700
C  59.84900 27.41200 47.02400
N  54.40700 25.83700 44.57900
C  55.11900 26.85800 45.15700
C  54.37100 28.07400 45.10500
C  53.22300 27.78600 44.29300
C  53.29700 26.39600 44.01900
C  54.75700 29.36400 45.59200
C  51.99400 28.31900 43.82100
O  51.49800 29.47900 43.94000
C  51.29900 27.13800 43.14100
C  51.02200 27.45500 41.70400
O  51.87500 27.54200 40.83800
O  49.69700 27.60300 41.41500
C  49.53500 27.96500 40.00100
H  52.06800 20.25500 43.49100
H  58.30100 21.34400 45.27200
H  56.94200 27.36600 46.24600
H  49.74500 24.57200 42.72500
H  50.38300 21.63300 42.38400
H  50.45700 22.10100 45.24400
H  49.13500 21.33100 44.43700
H  49.10400 23.08000 44.49700
H  50.97800 23.03200 40.52100
H  51.14500 24.81400 40.49100
H  48.91400 25.12600 40.35900
H  48.58600 23.48900 41.11400
H  53.42700 18.48700 42.43500
H  53.07400 17.90400 44.03300
H  54.48300 17.36600 43.08000
H  58.90000 19.54000 44.31100
H  59.15000 18.00000 44.96700
H  58.49900 19.13000 46.12100
H  59.56300 24.02100 44.97500
H  58.36900 25.38500 47.37700
H  60.28200 22.45800 46.58300
H  58.83200 22.51300 47.48300
H  59.95300 23.87500 47.69000
H  58.85900 27.03700 45.09600
H  60.39100 26.08900 45.63100
H  60.65200 27.00100 47.63600
H  58.94400 27.59900 47.60200
H  60.12400 28.37100 46.58600
H  55.81600 29.31600 45.84700
H  54.29700 29.78800 46.48500
H  54.68300 30.15000 44.84100
H  50.35800 26.92200 43.64700
H  49.66000 29.03700 39.84800
H  48.50800 27.70100 39.74900
H  50.17500 27.35700 39.36300
Mg 41.24100 41.36900 26.67300
C  40.74700 44.11800 29.01900
C  41.87100 39.31700 29.35900
C  42.06500 39.10400 24.52000
C  41.14300 43.77200 24.19000
N  41.27500 41.73900 28.92600
C  40.91900 42.80900 29.64100
C  40.96600 42.55500 31.10700
C  41.43700 41.02600 31.32500
C  41.63600 40.70700 29.80200
C  42.74500 40.60500 32.12800
C  39.64700 42.86300 31.92500
C  39.81400 43.78900 33.19400
H  39.32100 43.25900 34.54800
N  41.80500 39.48300 26.93000
C  42.00500 38.80600 28.08700
C  42.41300 37.45800 27.82800
C  42.38400 37.33000 26.42300
C  42.07600 38.70300 25.88200
C  42.90200 36.42200 28.90400
C  42.58400 36.14000 25.53000
O  42.46600 36.17500 24.31700
C  43.12900 34.89700 26.08000
N  41.69200 41.39000 24.65000
C  41.85600 40.31200 23.94900
C  41.67800 40.56600 22.43500
C  41.35700 42.10600 22.35000
C  41.41600 42.48000 23.82900
C  42.90400 40.10300 21.57500
C  40.01100 42.48300 21.69700
C  38.69300 42.26200 22.46500
N  40.94900 43.53400 26.56500
C  41.00500 44.31700 25.45000
C  40.83100 45.66500 25.90600
C  40.78000 45.62500 27.31500
C  40.84100 44.32300 27.66700
C  40.79200 46.85300 25.09700
C  40.70600 46.40800 28.46600
O  40.69100 47.61900 28.62500
C  40.68600 45.42300 29.65800
C  41.81700 45.79500 30.52900
O  42.96600 45.34000 30.40400
O  41.42100 46.79900 31.37600
C  42.56200 47.30500 32.17500
H  42.06300 38.79000 30.29600
H  42.11900 38.45200 23.64600
H  41.05200 44.57000 23.45000
H  41.77400 43.09500 31.60000
H  40.67700 40.33200 31.68300
H  42.69300 39.60800 32.56500
H  42.70700 41.36100 32.91200
H  43.59500 40.70600 31.45200
H  39.26800 41.92100 32.32100
H  38.89300 43.39400 31.34300
H  39.15900 44.64900 33.05800
H  40.86100 43.98700 33.42400
H  43.92300 36.07400 28.74100
H  42.32200 35.50500 29.01100
H  42.89500 36.87400 29.89600
H  42.41600 34.49600 26.80000
H  44.01000 35.08700 26.69400
H  43.38000 34.22100 25.26200
H  40.76300 40.02000 22.20500
H  42.15900 42.62000 21.82000
H  43.64400 39.53700 22.14000
H  43.57300 40.77500 21.03700
H  42.52200 39.33300 20.90500
H  39.85400 42.01000 20.72800
H  40.06500 43.52700 21.38700
H  38.80100 42.03500 23.52600
H  38.17300 41.48800 21.90000
H  38.15800 43.20300 22.34300
H  40.04300 47.57100 25.42900
H  40.57100 46.69100 24.04200
H  41.75800 47.34700 24.98800
H  39.69700 45.61000 30.07500
H  43.34900 47.72400 31.54800
H  43.06900 46.48900 32.69000
H  42.28500 48.11200 32.85300

