158

Mg 16.57900 -0.75500 27.83000
C  15.77400 1.30900 30.51000
C  18.68800 -2.55700 29.94200
C  17.99500 -2.34200 24.99200
C  15.28700 1.65000 25.61300
N  17.00600 -0.73700 29.98900
C  16.51900 0.15200 30.87100
C  16.89600 -0.17900 32.36200
C  17.81700 -1.47800 32.12400
C  17.98200 -1.53400 30.56100
C  19.24400 -1.39900 32.79100
C  15.72900 -0.49100 33.36900
C  15.67700 0.19700 34.71600
H  17.00600 0.55200 35.50500
N  18.06600 -2.31200 27.52000
C  18.70400 -2.98600 28.56000
C  19.59400 -3.93000 27.90700
C  19.34100 -3.95500 26.49200
C  18.38600 -2.85400 26.23500
C  20.51800 -4.80600 28.66300
C  19.95900 -4.83300 25.42800
O  19.73800 -4.72300 24.21700
C  21.00500 -5.83100 25.76600
N  16.68600 -0.37100 25.58700
C  17.29000 -1.19700 24.69200
C  17.16200 -0.56700 23.22700
C  16.13900 0.55700 23.55600
C  16.00300 0.62100 25.03100
C  18.50700 0.06500 22.68200
C  14.69500 0.35900 22.87500
C  14.19700 1.59500 21.97300
N  15.63000 1.06700 27.98600
C  15.18600 1.92300 27.01200
C  14.35200 2.89200 27.68600
C  14.63600 2.74500 29.06600
C  15.41500 1.59000 29.14700
C  13.58100 3.98000 27.08800
C  14.40300 3.37500 30.35900
O  13.73400 4.37200 30.64300
C  15.17400 2.40000 31.40200
C  16.09100 3.12600 32.26800
O  17.23000 3.39800 32.01100
O  15.58400 3.55200 33.49700
C  16.48300 4.41900 34.28600
H  19.18000 -3.32200 30.54600
H  18.33700 -2.76400 24.04500
H  14.70300 2.41100 25.09000
H  17.62300 0.57200 32.67000
H  17.31600 -2.35000 32.54400
H  20.06400 -1.28700 32.08200
H  19.29700 -2.28300 33.42500
H  19.31200 -0.50800 33.41500
H  15.72800 -1.55100 33.62200
H  14.74700 -0.36800 32.91100
H  14.99300 -0.35400 35.36200
H  15.12900 1.12400 34.55000
H  21.49400 -4.95400 28.20000
H  20.06100 -5.78800 28.78400
H  20.60800 -4.34700 29.64700
H  20.47200 -6.63200 26.27900
H  21.75700 -5.24000 26.28700
H  21.41700 -6.29000 24.86700
H  16.71400 -1.30800 22.56500
H  16.64500 1.45800 23.21100
H  19.21500 0.08500 23.51000
H  18.51300 1.07300 22.26800
H  18.93500 -0.64400 21.97300
H  13.91200 0.23100 23.62300
H  14.63100 -0.52600 22.24200
H  13.31200 2.06100 22.40700
H  13.87000 1.40100 20.95200
H  14.99000 2.33800 21.89700
H  14.21800 4.49400 26.36900
H  13.39600 4.74200 27.84600
H  12.73400 3.49900 26.59900
H  14.30300 2.04700 31.95400
H  16.47600 5.31500 33.66600
H  17.44300 3.94400 34.48600
H  15.99600 4.62800 35.23900
Mg -2.66900 34.31300 26.44500
C  -4.46200 33.09200 29.12100
C  -1.80300 37.09400 28.29200
C  -1.04800 35.61100 23.69900
C  -3.79300 31.76400 24.48200
N  -3.13900 34.94100 28.46500
C  -3.70700 34.17000 29.44700
C  -3.49500 34.78100 30.85100
C  -2.99400 36.25400 30.48000
C  -2.53600 36.10500 28.92400
C  -3.99800 37.47500 30.67000
C  -2.46700 33.94200 31.65100
C  -2.51200 34.46100 33.17700
H  -2.72400 33.34400 34.25100
N  -1.60200 36.12900 26.10300
C  -1.45100 37.13800 26.93200
C  -0.73300 38.19800 26.31400
C  -0.43700 37.81700 25.00200
C  -1.05800 36.44300 24.89100
C  -0.37900 39.47100 27.06400
C  0.27200 38.50400 23.88100
O  0.22800 38.02500 22.75700
C  0.94400 39.91400 24.06000
N  -2.55100 33.89000 24.31600
C  -1.73500 34.46700 23.43300
C  -1.72700 33.71500 22.12600
C  -2.56400 32.47900 22.37100
C  -3.01500 32.72600 23.83200
C  -2.27400 34.59000 20.99500
C  -1.73500 31.19900 22.19300
C  -2.49900 30.02600 21.52400
N  -4.06900 32.81800 26.62900
C  -4.33500 31.84700 25.80500
C  -5.22800 30.90800 26.41700
C  -5.33200 31.36300 27.71400
C  -4.56200 32.53100 27.82000
C  -5.94600 29.77800 25.80200
C  -5.87900 31.09300 29.02600
O  -6.59900 30.16300 29.41400
C  -5.28400 32.18400 29.94300
C  -6.44800 32.96800 30.51800
O  -6.91700 33.98600 30.07700
O  -6.95400 32.34800 31.64700
C  -7.88300 33.08300 32.55800
H  -1.47300 37.98100 28.83600
H  -0.35600 35.85800 22.89100
H  -4.05200 30.90600 23.85700
H  -4.47400 34.80800 31.32900
H  -2.13300 36.51500 31.09500
H  -4.80100 37.25700 31.37500
H  -4.20000 37.80900 29.65300
H  -3.42600 38.26800 31.15200
H  -1.52900 33.96300 31.09700
H  -2.76600 32.89400 31.63000
H  -3.27700 35.22300 33.32600
H  -1.58900 34.98500 33.42600
H  -0.84800 39.69300 28.02200
H  -0.48600 40.28000 26.34100
H  0.68300 39.42100 27.30100
H  1.65600 39.80300 24.87800
H  0.06900 40.52800 24.27200
H  1.29100 40.25200 23.08400
H  -0.69300 33.41900 21.94800
H  -3.50500 32.45400 21.82200
H  -3.04200 35.21900 21.44500
H  -2.80100 34.00500 20.24100
H  -1.47900 35.15500 20.51000
H  -1.31800 30.88300 23.14900
H  -0.94900 31.35300 21.45400
H  -3.38800 30.44600 21.05400
H  -2.89800 29.31100 22.24300
H  -1.88100 29.51300 20.78700
H  -6.30100 29.95500 24.78700
H  -6.81400 29.49600 26.39900
H  -5.20600 28.98300 25.70100
H  -4.80300 31.65200 30.76400
H  -8.88300 33.28800 32.17800
H  -7.51000 34.10100 32.67400
H  -7.94100 32.53400 33.49800

