158

Mg 46.89900 16.72900 28.74900
C  44.90300 16.50200 31.72600
C  49.23900 18.34100 30.61700
C  48.30900 17.70500 25.94900
C  44.10200 15.63300 26.93700
N  47.16900 17.12700 30.95100
C  46.21700 16.97100 31.96400
C  46.76100 17.46600 33.31100
C  48.12000 18.16500 32.92900
C  48.24400 17.84500 31.41100
C  48.21200 19.62300 33.32100
C  47.01400 16.32700 34.30300
C  46.43700 16.64200 35.70400
H  46.39300 18.08900 36.17100
N  48.75400 17.68700 28.31300
C  49.49100 18.35800 29.25400
C  50.51200 19.11000 28.48200
C  50.33300 18.78400 27.12400
C  49.13000 17.95700 27.03900
C  51.44900 20.16600 29.10300
C  51.15500 19.19600 25.91800
O  50.93000 18.78400 24.77400
C  52.30400 20.17300 26.09800
N  46.28400 16.61300 26.77900
C  47.06700 17.10800 25.77100
C  46.47500 16.93400 24.40900
C  45.23400 16.17400 24.68500
C  45.18000 16.11200 26.23900
C  46.18000 18.26900 23.73500
C  45.18400 14.76900 24.05700
C  44.89600 14.63900 22.51800
N  44.89800 16.07300 29.23000
C  43.92600 15.58300 28.39600
C  42.82700 15.07400 29.14300
C  43.14800 15.46800 30.48100
C  44.41400 16.08400 30.46300
C  41.71400 14.40700 28.65400
C  42.66500 15.44400 31.82500
O  41.60500 14.99000 32.32300
C  43.81800 16.10700 32.72600
C  43.24800 17.26400 33.56300
O  43.21500 18.42000 33.15800
O  42.75600 16.80800 34.70800
C  42.07700 17.77400 35.58500
H  49.93200 19.01000 31.13200
H  48.79700 17.95700 25.00600
H  43.23600 15.22900 26.40800
H  46.06100 18.20200 33.70600
H  48.93500 17.70500 33.48800
H  49.20400 19.77400 33.74700
H  47.51900 19.88000 34.12200
H  48.10700 20.30100 32.47500
H  48.07100 16.08800 34.42600
H  46.48900 15.48800 33.84700
H  47.08700 16.20400 36.46100
H  45.46600 16.15100 35.77400
H  51.16800 20.51300 30.09800
H  51.40200 21.08000 28.51000
H  52.43000 19.69100 29.11000
H  53.04300 19.83000 26.82200
H  51.92700 21.18100 26.27600
H  52.83500 20.15300 25.14600
H  47.14900 16.41100 23.72900
H  44.26300 16.62100 24.46800
H  45.13600 18.49900 23.52300
H  46.69600 18.34600 22.77800
H  46.42900 19.07000 24.43100
H  44.41000 14.18900 24.56100
H  46.13200 14.29500 24.31300
H  43.87600 14.25600 22.49400
H  45.55900 13.90300 22.06300
H  45.03300 15.59000 22.00200
H  40.95100 15.12800 28.36100
H  41.25000 13.87800 29.48600
H  41.90500 13.71100 27.83700
H  44.05500 15.36300 33.48700
H  41.51200 18.48300 34.97900
H  42.87700 18.23700 36.16400
H  41.26700 17.38200 36.19900
Mg 48.67300 35.41400 28.25800
C  46.78400 33.82200 30.91000
C  48.44900 38.33400 30.27100
C  49.97900 37.14400 25.86700
C  48.15100 32.56400 26.30600
N  47.80400 35.85900 30.41800
C  47.27000 35.04700 31.34100
C  47.16700 35.70700 32.71100
C  47.26300 37.23600 32.35500
C  47.97600 37.17700 30.87500
C  45.88900 37.99400 32.23200
C  48.14800 35.02700 33.76700
C  49.35800 35.85900 34.17200
H  49.36000 36.41100 35.54000
N  49.34400 37.40500 28.17000
C  49.19800 38.45400 29.09900
C  49.98400 39.51900 28.56500
C  50.38500 39.24600 27.26000
C  49.84600 37.91300 27.01400
C  50.20400 40.79700 29.32000
C  51.20500 39.96900 26.12100
O  51.25400 39.59000 24.93500
C  51.89900 41.17000 26.49700
N  48.99500 34.93100 26.38100
C  49.49100 35.87300 25.52400
C  49.67600 35.26000 24.05400
C  49.38200 33.75700 24.34500
C  48.73600 33.72800 25.74000
C  48.68300 35.92500 23.04000
C  50.67000 32.86000 24.26400
C  51.05400 32.46000 22.79800
N  47.67800 33.57700 28.53100
C  47.70400 32.44000 27.66500
C  47.01200 31.35000 28.32800
C  46.60800 31.87100 29.58500
C  46.95400 33.19500 29.68900
C  46.64800 29.99100 27.75000
C  45.85000 31.57300 30.77300
O  45.11700 30.62500 31.08200
C  45.88400 32.89000 31.55000
C  46.05100 32.63200 32.99900
O  46.90900 31.98300 33.55000
O  44.86800 33.02900 33.63400
C  44.64800 32.67200 35.04100
H  48.31300 39.31200 30.73700
H  50.28300 37.59900 24.92200
H  47.98600 31.64800 25.73600
H  46.21900 35.56200 33.22800
H  47.90700 37.77800 33.04800
H  45.56900 38.22300 33.24800
H  45.22300 37.31900 31.69400
H  46.24500 38.83500 31.63700
H  48.42000 34.07200 33.31800
H  47.63400 34.82500 34.70600
H  49.55500 36.56200 33.36300
H  50.27500 35.27200 34.12100
H  50.70400 40.49100 30.23800
H  49.27300 41.31400 29.55300
H  50.78900 41.56000 28.80700
H  52.59400 41.46800 25.71200
H  52.48200 40.90300 27.37900
H  51.14700 41.94700 26.63700
H  50.68600 35.44600 23.68800
H  48.61900 33.37800 23.66500
H  49.15800 36.25800 22.11700
H  48.17000 36.80700 23.42400
H  47.99000 35.27700 22.50300
H  50.58100 31.99600 24.92300
H  51.43100 33.52800 24.66800
H  50.32500 32.90900 22.12400
H  51.19400 31.39300 22.62600
H  52.06800 32.82200 22.62600
H  47.32300 29.83100 26.90900
H  45.66500 30.11900 27.29800
H  46.52300 29.22000 28.51100
H  44.89700 33.34200 31.45800
H  43.57800 32.65200 35.25100
H  45.12300 33.42400 35.67100
H  45.20500 31.77200 35.30100

