158

Mg 53.43100 24.58700 45.00200
C  50.76000 26.91700 44.22300
C  51.35400 22.05900 43.73600
C  56.01800 22.56500 44.60100
C  55.43800 27.24100 45.75800
N  51.37200 24.56000 44.16500
C  50.41900 25.57700 43.96300
C  49.10900 25.06900 43.30900
C  49.21000 23.61300 43.67500
C  50.76900 23.38400 43.85700
C  48.43500 23.16800 44.90700
C  49.01200 25.39600 41.79200
C  47.59200 25.13800 41.22100
H  47.39800 24.95200 39.73300
N  53.66700 22.53600 44.51800
C  52.70000 21.68400 44.02600
C  53.26500 20.35300 43.84200
C  54.58500 20.45300 44.24200
C  54.80400 21.87900 44.44900
C  52.38700 19.18500 43.35800
C  55.55100 19.26500 44.29100
O  55.17800 18.10900 44.09700
C  57.04400 19.35400 44.56400
N  55.48900 24.86400 45.21100
C  56.34400 23.85300 45.00400
C  57.77900 24.33200 45.32000
C  57.55100 25.80800 45.82200
C  56.06100 26.02500 45.44400
C  58.65700 23.48400 46.24600
C  58.57500 26.86900 45.23900
C  59.27300 27.80800 46.27400
N  53.24900 26.70300 45.07100
C  54.11700 27.60300 45.48200
C  53.35700 28.82800 45.71900
C  52.07600 28.61300 45.14100
C  52.04100 27.32500 44.75900
C  53.74500 30.16500 46.27000
C  50.76600 29.22500 44.86900
O  50.38900 30.36700 45.22300
C  49.91900 28.19500 44.10300
C  49.79200 28.69800 42.74700
O  50.73600 28.91200 42.01500
O  48.45800 28.77600 42.40300
C  48.19300 29.30400 41.05500
H  50.70700 21.21200 43.49700
H  56.92800 21.97900 44.45700
H  56.16200 27.94600 46.17200
H  48.23200 25.49800 43.79400
H  48.94500 22.94500 42.85600
H  48.02100 22.20800 44.60000
H  47.61300 23.87800 44.99900
H  49.03000 23.09200 45.81800
H  49.70700 24.73300 41.27600
H  49.17400 26.44600 41.55000
H  47.06100 26.05400 41.47900
H  47.14600 24.26500 41.69900
H  51.64700 19.46000 42.60600
H  51.65500 18.89700 44.11300
H  53.01700 18.40700 42.92800
H  57.42400 18.34300 44.71200
H  57.05600 19.92600 45.49200
H  57.49100 19.89000 43.72700
H  58.35800 24.31600 44.39600
H  57.68800 25.85400 46.90300
H  59.63200 23.44100 45.76100
H  58.28900 22.47000 46.40000
H  58.82200 24.00700 47.18800
H  58.07500 27.42900 44.44800
H  59.35000 26.24100 44.80000
H  60.33200 27.67700 46.05500
H  58.91500 27.72000 47.30000
H  58.91700 28.78100 45.93400
H  53.29000 30.21700 47.25900
H  53.45800 30.93800 45.55700
H  54.81500 30.27100 46.44900
H  48.91700 28.02700 44.49900
H  48.01400 30.36700 41.21100
H  47.21800 28.99700 40.67600
H  48.97800 29.15400 40.31400
Mg 42.45600 41.83500 26.17100
C  41.42400 44.19100 28.57500
C  43.47900 39.77600 28.77700
C  43.74500 39.83400 23.87600
C  42.20600 44.40100 23.84700
N  42.44300 41.99300 28.44200
C  41.81900 42.94700 29.14600
C  41.78200 42.61900 30.68800
C  42.54800 41.22900 30.72800
C  42.83000 40.99000 29.21900
C  43.70100 41.03700 31.72600
C  40.35500 42.64000 31.44400
C  40.30400 43.69700 32.58400
H  39.43900 43.32800 33.76800
N  43.47700 40.10100 26.33500
C  43.67600 39.34600 27.43500
C  44.12100 37.99100 26.98800
C  44.15400 38.01400 25.57800
C  43.76500 39.37100 25.15400
C  44.64000 36.94000 27.90500
C  44.56200 36.85600 24.67600
O  44.45100 36.89300 23.43600
C  45.09700 35.62600 25.17800
N  42.78800 42.00700 24.18500
C  43.27200 41.06200 23.44600
C  43.52100 41.49600 21.96700
C  42.98000 42.97900 21.94900
C  42.61900 43.12000 23.42200
C  45.05800 41.35300 21.58400
C  41.85200 43.21400 20.92500
C  40.55300 42.42100 21.20400
N  41.80400 43.83500 26.11800
C  41.74500 44.76900 25.08800
C  41.09000 45.98200 25.46300
C  41.02500 45.86200 26.84800
C  41.46100 44.49700 27.17100
C  40.90800 47.19100 24.61900
C  40.63400 46.49800 28.06800
O  40.30000 47.65100 28.24900
C  40.93700 45.47200 29.23100
C  41.86500 46.15500 30.04100
O  43.07700 46.22500 29.82600
O  41.22600 46.48900 31.25300
C  42.21600 46.94200 32.24700
H  43.68200 39.06600 29.58100
H  44.14800 39.13200 23.14300
H  41.97500 45.00000 22.96400
H  42.42600 43.35300 31.17200
H  41.80100 40.54600 31.13300
H  43.95900 42.08200 31.89900
H  44.52200 40.47900 31.27500
H  43.37400 40.45900 32.59000
H  40.10900 41.66000 31.85300
H  39.65300 42.91600 30.65700
H  39.89200 44.58300 32.10100
H  41.30200 43.98100 32.91700
H  44.63800 37.35700 28.91200
H  45.68300 36.67700 27.72600
H  44.00800 36.05500 27.96900
H  44.50800 35.18300 25.98100
H  46.06600 35.82900 25.63600
H  45.34600 34.87900 24.42400
H  42.86400 40.86200 21.37300
H  43.77500 43.67100 21.67200
H  45.14500 40.39300 21.07300
H  45.64400 41.38700 22.50200
H  45.32600 42.16800 20.91200
H  42.31000 42.93800 19.97600
H  41.65300 44.28400 20.99200
H  40.29500 42.06000 20.20800
H  39.78700 43.15000 21.46600
H  40.77300 41.56500 21.84100
H  40.13200 46.72700 24.01000
H  41.77400 47.38000 23.98500
H  40.41400 48.01300 25.13700
H  39.99100 45.30700 29.74700
H  42.37700 46.15200 32.98200
H  41.77100 47.72600 32.85900
H  43.24100 47.27200 32.08000

