158

Mg 8.51100 3.36700 27.77700
C  9.91000 1.80700 30.51900
C  7.09900 5.62400 29.64700
C  6.85600 4.44400 24.95800
C  9.88400 0.75700 25.73100
N  8.54200 3.72500 29.88400
C  9.07100 2.89300 30.85300
C  9.06500 3.55700 32.28500
C  7.93400 4.71100 31.97300
C  7.88500 4.73600 30.40500
C  6.54800 4.40000 32.57700
C  10.43600 4.18800 32.70400
C  10.76100 3.89300 34.21600
H  11.28800 4.97900 35.12900
N  7.15400 4.86800 27.34600
C  6.73400 5.77000 28.28700
C  5.75600 6.67500 27.73900
C  5.64700 6.32900 26.34600
C  6.56200 5.20600 26.14000
C  5.05000 7.82800 28.40500
C  4.81600 6.87400 25.20900
O  4.76300 6.43500 24.03300
C  3.85200 8.09200 25.49200
N  8.34200 2.69800 25.65700
C  7.57600 3.30800 24.73400
C  7.81900 2.70700 23.29100
C  8.95500 1.66800 23.52700
C  9.08200 1.69700 25.05400
C  6.64000 2.22800 22.42500
C  10.30700 1.91300 22.85700
C  11.12300 0.75900 22.24300
N  9.77600 1.64100 28.00300
C  10.22100 0.67900 27.13200
C  11.02400 -0.32200 27.80700
C  11.03300 0.11400 29.13000
C  10.21900 1.28300 29.20000
C  11.68400 -1.53000 27.23600
C  11.45900 -0.20000 30.51100
O  12.21600 -1.05300 30.99300
C  10.77900 0.92000 31.45500
C  10.01100 0.23300 32.59200
O  8.97900 -0.36300 32.36300
O  10.51100 0.38800 33.90500
C  9.76300 -0.26200 35.01600
H  6.51800 6.26100 30.31700
H  6.47500 4.85700 24.02200
H  10.41400 0.05200 25.08600
H  8.70300 2.76800 32.94400
H  8.27200 5.66600 32.37500
H  6.68200 3.61600 33.32200
H  5.84800 4.18400 31.77000
H  6.16800 5.27900 33.09700
H  10.45500 5.22900 32.38100
H  11.23800 3.75400 32.10600
H  11.53800 3.13100 34.27700
H  9.86800 3.45800 34.66400
H  5.36000 8.70100 27.83100
H  5.22000 7.95100 29.47500
H  3.96600 7.77900 28.30000
H  3.15100 7.93300 26.31100
H  3.29800 8.25400 24.56700
H  4.49700 8.91800 25.79100
H  8.20800 3.43100 22.57600
H  8.58800 0.64800 23.41400
H  5.77700 2.18800 23.09100
H  6.88000 1.25800 21.99000
H  6.28500 2.86700 21.61700
H  10.94000 2.31200 23.64900
H  10.15100 2.78000 22.21600
H  10.59300 -0.14500 22.54100
H  12.09600 0.80700 22.73400
H  11.06400 0.69800 21.15700
H  11.30000 -1.75600 26.24100
H  11.42000 -2.39500 27.84400
H  12.72900 -1.22200 27.22400
H  11.49800 1.49900 32.03500
H  8.75900 -0.61500 34.78100
H  9.64900 0.39400 35.87800
H  10.37000 -1.10900 35.33700
Mg 16.76900 52.79300 26.66200
C  18.53800 51.41700 29.27800
C  14.31300 53.67000 28.81100
C  15.00700 53.92500 24.02300
C  19.11600 51.40100 24.42800
N  16.36800 52.36900 28.77900
C  17.29900 51.96600 29.71600
C  16.85200 52.26000 31.15600
C  15.29600 52.47900 30.94500
C  15.30400 52.81200 29.42300
C  14.37800 51.24200 31.28200
C  17.65500 53.47200 31.76700
C  17.66400 53.44300 33.27100
H  16.65000 52.52300 34.05100
N  14.93500 53.76200 26.44000
C  14.08300 54.08700 27.50800
C  12.97200 54.85300 26.95600
C  13.02100 54.74400 25.53600
C  14.34000 54.07000 25.26300
C  11.90300 55.33400 27.87100
C  11.99200 55.21600 24.58400
O  12.12600 54.97600 23.35300
C  10.77400 55.77400 25.13500
N  17.04300 52.67100 24.55000
C  16.23200 53.32200 23.68100
C  16.72500 53.06600 22.22400
C  18.15000 52.55000 22.39500
C  18.10700 52.13900 23.81800
C  15.70200 52.26700 21.38000
C  19.38200 53.50700 22.05900
C  20.48100 52.83000 21.18200
N  18.46500 51.63900 26.77900
C  19.32500 51.10900 25.80600
C  20.39000 50.47700 26.42200
C  20.16200 50.60900 27.78800
C  18.95600 51.25900 27.98200
C  21.53300 49.83600 25.70400
C  20.68600 50.23200 29.08100
O  21.73500 49.70400 29.43600
C  19.63300 50.78800 30.11900
C  19.17700 49.70200 31.07200
O  18.74700 48.59300 30.78400
O  19.38800 50.08600 32.39800
C  19.20700 49.00700 33.33800
H  13.41400 53.97900 29.34800
H  14.36800 54.36100 23.25200
H  19.95000 51.03500 23.82500
H  16.89500 51.34500 31.74600
H  15.06500 53.33100 31.58400
H  13.92500 50.99800 30.32100
H  13.68800 51.44100 32.10100
H  14.92900 50.32600 31.49400
H  17.24100 54.38600 31.34100
H  18.71100 53.46800 31.49600
H  17.43500 54.43600 33.65700
H  18.61400 53.21000 33.75300
H  12.41400 55.66500 28.77400
H  11.21800 54.55000 28.19400
H  11.30800 56.15400 27.46800
H  10.08300 55.90500 24.30300
H  10.97300 56.75400 25.56900
H  10.27900 55.15100 25.87900
H  16.80200 54.04400 21.74900
H  18.23900 51.68600 21.73600
H  16.20400 51.31900 21.18900
H  15.47400 52.77000 20.44000
H  14.78200 52.17700 21.95900
H  19.85300 53.92300 22.94900
H  19.01100 54.28800 21.39300
H  20.72300 53.42400 20.30100
H  20.15800 51.84600 20.84200
H  21.32900 52.76200 21.86400
H  21.07700 49.14800 24.99200
H  22.05500 49.26500 26.47200
H  22.05400 50.63100 25.17100
H  20.12900 51.53100 30.74300
H  18.22200 48.56300 33.19000
H  19.17200 49.35400 34.37100
H  20.04100 48.31000 33.26200

