158

Mg 9.00800 3.02100 27.51000
C  10.19600 1.27600 30.26100
C  7.17700 5.03800 29.54900
C  7.55400 4.48500 24.76300
C  10.13100 0.45400 25.45900
N  8.74200 3.08100 29.66900
C  9.40500 2.35800 30.64200
C  9.04700 2.82700 32.07900
C  7.92300 3.85900 31.77200
C  7.93300 4.02400 30.21200
C  6.41500 3.61100 32.31000
C  10.34200 3.24400 32.81100
C  10.19800 4.25000 34.00200
H  11.08900 4.15500 35.22100
N  7.59900 4.64500 27.22500
C  6.90000 5.36600 28.20900
C  6.09100 6.44600 27.62300
C  6.22100 6.25200 26.19900
C  7.19400 5.09700 25.97100
C  5.35400 7.57100 28.35600
C  5.56400 7.05700 25.08000
O  5.66900 6.73500 23.86200
C  4.71400 8.23700 25.43000
N  8.78000 2.53400 25.43200
C  8.21200 3.27600 24.53200
C  8.36000 2.65800 23.12800
C  9.19400 1.41100 23.44300
C  9.36400 1.45000 24.86100
C  7.01500 2.24000 22.44100
C  10.55400 1.29700 22.70500
C  10.94800 -0.09400 22.14000
N  10.03300 1.30000 27.75800
C  10.37600 0.34200 26.85300
C  11.02200 -0.71400 27.47800
C  11.09900 -0.31700 28.80500
C  10.37900 0.86200 28.94500
C  11.68500 -1.89800 26.80800
C  11.59900 -0.69500 30.08200
O  12.39100 -1.59100 30.42900
C  11.02500 0.34900 31.10700
C  10.15200 -0.17800 32.11700
O  8.97300 -0.54200 31.89900
O  10.75600 -0.09900 33.33200
C  9.87700 -0.29000 34.45600
H  6.63800 5.61600 30.30300
H  7.24500 4.92700 23.81300
H  10.47200 -0.37100 24.83000
H  8.53800 2.06700 32.67300
H  8.24000 4.84600 32.11000
H  5.74100 3.49900 31.46100
H  5.96400 4.47200 32.80400
H  6.38300 2.60200 32.72100
H  11.13900 3.62600 32.17200
H  10.75900 2.38200 33.33100
H  9.17600 4.21400 34.37800
H  10.31900 5.21200 33.50300
H  5.78000 8.51900 28.02900
H  5.39200 7.34700 29.42200
H  4.31700 7.64800 28.02800
H  3.86600 7.77200 25.93400
H  4.37600 8.78000 24.54800
H  5.28300 9.02400 25.92400
H  8.99800 3.33800 22.56300
H  8.59100 0.50400 23.39400
H  6.12600 2.39700 23.05100
H  6.95700 1.18800 22.16300
H  6.77100 2.73200 21.49900
H  11.37800 1.49400 23.39000
H  10.62000 1.93700 21.82500
H  11.80600 -0.40400 22.73600
H  11.33100 -0.16900 21.12200
H  10.09700 -0.77600 22.14600
H  11.17300 -2.18600 25.89000
H  11.60100 -2.68700 27.55600
H  12.67000 -1.54700 26.50100
H  11.76600 0.85800 31.72300
H  8.96800 -0.88600 34.37600
H  9.56000 0.72500 34.69700
H  10.46500 -0.58000 35.32700
Mg 17.08800 -2.99200 27.57900
C  16.24900 -1.02400 30.24400
C  18.65700 -5.19000 29.68900
C  17.88600 -4.76600 24.89000
C  15.55500 -0.56100 25.42100
N  17.37600 -3.10800 29.69000
C  16.93000 -2.18600 30.60600
C  17.27200 -2.68900 32.06900
C  18.09500 -3.98900 31.81600
C  18.01500 -4.13400 30.29700
C  19.54200 -4.04400 32.45300
C  16.01100 -2.92100 32.93900
C  16.11800 -2.54200 34.48600
H  17.43500 -1.91800 35.07600
N  18.05300 -4.83000 27.34300
C  18.72100 -5.51700 28.32300
C  19.34200 -6.73400 27.70400
C  19.04900 -6.67200 26.27400
C  18.29400 -5.40300 26.11800
C  20.00000 -7.80400 28.55100
C  19.42000 -7.72300 25.25000
O  19.16200 -7.61400 24.01100
C  20.17600 -8.95100 25.55400
N  16.81200 -2.73100 25.42800
C  17.25300 -3.55500 24.52500
C  17.00000 -3.07500 23.03600
C  16.21700 -1.70200 23.27900
C  16.22400 -1.63400 24.82000
C  18.23100 -2.92700 22.11000
C  14.67000 -1.71300 22.88200
C  13.52200 -2.19600 23.79600
N  15.99300 -1.18200 27.77200
C  15.43300 -0.30700 26.82500
C  14.78700 0.79700 27.50400
C  15.05700 0.53200 28.89200
C  15.83300 -0.64800 28.96800
C  14.01200 1.94400 26.84400
C  14.91400 1.06900 30.16100
O  14.43300 2.08200 30.48900
C  15.61400 0.09000 31.17700
C  16.60400 0.80800 31.93300
O  17.77500 1.08000 31.59400
O  15.95400 1.19200 33.07700
C  16.79100 2.08000 33.95900
H  19.18800 -5.84500 30.38300
H  18.14900 -5.29100 23.97000
H  15.11300 0.20800 24.78500
H  17.96100 -2.00900 32.56900
H  17.53800 -4.85800 32.16600
H  19.80200 -3.06800 32.86300
H  20.28600 -4.28800 31.69500
H  19.66900 -4.78700 33.24100
H  15.66000 -3.95100 32.88200
H  15.19900 -2.34000 32.50000
H  15.85100 -3.37600 35.13500
H  15.36900 -1.75700 34.58400
H  19.41400 -8.72200 28.53700
H  20.13100 -7.45500 29.57500
H  20.98100 -8.01400 28.12400
H  21.11000 -8.90200 26.11300
H  20.40900 -9.43600 24.60600
H  19.43700 -9.55400 26.08200
H  16.22900 -3.74700 22.66200
H  16.64900 -0.76100 22.93700
H  18.49200 -1.88000 21.95600
H  18.14900 -3.59400 21.25200
H  19.16700 -3.15400 22.62000
H  14.62800 -2.24900 21.93300
H  14.45300 -0.66800 22.66200
H  12.68300 -2.45200 23.14900
H  13.16300 -1.33200 24.35600
H  13.83600 -2.98400 24.48100
H  13.94800 1.80300 25.76500
H  14.41200 2.89800 27.18800
H  12.99500 1.89300 27.23200
H  14.82100 -0.27400 31.83100
H  17.80400 1.71600 34.12800
H  16.39700 2.13000 34.97300
H  16.96700 3.06000 33.51500

