158

Mg 0.41100 7.56800 26.63200
C  1.20200 9.29200 29.55300
C  0.59300 4.56800 28.53300
C  -0.01500 5.81300 23.81700
C  1.34400 10.39900 24.77000
N  0.82400 7.07400 28.78700
C  0.91100 7.97900 29.79900
C  0.72400 7.36300 31.18100
C  0.93200 5.81900 30.88500
C  0.84600 5.80500 29.29500
C  2.12500 4.97700 31.45900
C  -0.67600 7.74300 31.75300
C  -0.78500 8.04000 33.23900
H  0.31700 7.63200 34.23900
N  0.15600 5.51400 26.26100
C  0.09800 4.47900 27.14400
C  -0.16800 3.19400 26.50300
C  -0.28800 3.52700 25.10400
C  0.02400 4.99000 24.99400
C  -0.07000 1.85800 27.28700
C  -0.50700 2.63400 23.93100
O  -0.44000 3.06800 22.75100
C  -0.89500 1.24000 24.06700
N  0.59100 8.05600 24.62600
C  0.21700 7.18800 23.64900
C  0.30600 7.81600 22.24600
C  0.58600 9.32300 22.62200
C  0.83300 9.30100 24.13200
C  1.39300 7.22700 21.28900
C  -0.77100 10.31900 22.40200
C  -0.56400 11.64400 21.69300
N  1.00600 9.49900 27.00300
C  1.36500 10.53200 26.17400
C  1.74600 11.62200 26.94200
C  1.63600 11.22300 28.26000
C  1.25400 9.87800 28.26900
C  2.14900 12.99400 26.42100
C  1.82500 11.66400 29.62400
O  2.17500 12.75200 29.98800
C  1.45900 10.44400 30.51700
C  2.61000 10.26600 31.39000
O  3.58100 9.49500 31.25000
O  2.56500 11.26300 32.33300
C  3.76900 11.51900 33.11000
H  0.55100 3.68900 29.18000
H  -0.29900 5.33800 22.87600
H  1.49900 11.33000 24.22100
H  1.49600 7.83500 31.78900
H  0.06700 5.31400 31.31500
H  1.70000 4.06100 31.87000
H  2.67900 5.53200 32.21700
H  2.76900 4.81000 30.59600
H  -1.42100 6.95900 31.61900
H  -0.88600 8.59200 31.10200
H  -1.70400 7.48600 33.42600
H  -1.11500 9.06900 33.37400
H  0.96900 1.67700 27.56200
H  -0.55600 0.97700 26.86700
H  -0.63400 2.11400 28.18300
H  -1.83200 1.16700 24.61800
H  -0.17700 0.65900 24.64500
H  -1.13200 0.76000 23.11700
H  -0.64000 7.75800 21.70700
H  1.46200 9.73500 22.12200
H  1.99200 7.96400 20.75400
H  1.10100 6.46500 20.56500
H  2.18000 6.76700 21.88500
H  -1.20600 10.48400 23.38800
H  -1.55400 9.84900 21.80700
H  -0.81100 11.41500 20.65600
H  0.44900 12.03400 21.79200
H  -1.29400 12.39700 21.99000
H  1.84300 13.72700 27.16700
H  1.51400 13.17700 25.55400
H  3.18500 13.15900 26.12700
H  0.61100 10.70700 31.14900
H  3.45900 11.74400 34.13100
H  4.34000 12.36700 32.73400
H  4.40400 10.63500 33.16800
Mg 36.49300 49.19000 24.45400
C  36.42300 47.22000 27.56200
C  34.95800 51.71800 26.30600
C  36.17700 50.82600 21.68900
C  37.37200 46.26600 22.85300
N  35.83200 49.41600 26.73600
C  36.10500 48.57000 27.79900
C  35.59400 49.18300 29.10400
C  34.81300 50.47200 28.59200
C  35.22900 50.59300 27.14800
C  33.27100 50.68900 28.90100
C  36.72900 49.46300 30.20100
C  36.50000 48.85700 31.56900
H  35.01600 48.90200 32.24700
N  35.89800 51.12800 24.07500
C  35.28800 52.00900 25.00200
C  34.97800 53.22300 24.20400
C  35.42500 53.09500 22.83400
C  35.84600 51.68100 22.81500
C  34.34100 54.50400 24.83300
C  35.48900 54.00000 21.71700
O  35.88000 53.66900 20.61900
C  35.05500 55.45000 21.88900
N  36.87000 48.61200 22.55700
C  36.65500 49.51700 21.57900
C  36.88600 48.85100 20.21500
C  37.30100 47.45400 20.58600
C  37.04600 47.41200 22.06200
C  35.82800 48.88600 19.05200
C  38.82600 47.07300 20.22400
C  39.97200 47.61000 21.03000
N  36.85600 47.20200 25.02600
C  37.30200 46.10800 24.23300
C  37.53400 44.92900 24.99700
C  37.20200 45.40000 26.29800
C  36.75700 46.70900 26.26100
C  38.03000 43.62500 24.46600
C  37.17800 44.94600 27.70500
O  37.45400 43.89200 28.21800
C  36.68900 46.09900 28.47600
C  35.50300 45.62300 29.24900
O  34.34800 45.54500 28.84300
O  35.90200 45.17000 30.50000
C  34.87500 44.58400 31.36900
H  34.47400 52.59400 26.74200
H  35.97600 51.30700 20.72900
H  37.68500 45.38500 22.29000
H  34.96100 48.35100 29.41200
H  35.18900 51.26400 29.23900
H  32.72500 50.88600 27.97800
H  33.09400 51.42500 29.68500
H  32.89500 49.84100 29.47300
H  36.97300 50.52300 30.26500
H  37.66100 49.03500 29.83300
H  37.20400 49.42600 32.17500
H  36.87800 47.83500 31.59400
H  35.00000 55.36400 24.70500
H  34.15400 54.53600 25.90600
H  33.40800 54.70600 24.30700
H  33.97200 55.43000 22.00400
H  35.36400 55.98400 20.99000
H  35.63000 55.84200 22.72800
H  37.76600 49.34400 19.80000
H  36.56000 46.76000 20.18900
H  35.62100 49.94600 18.90100
H  34.94500 48.43900 19.50800
H  36.22700 48.40800 18.15700
H  39.07300 47.22000 19.17200
H  38.92900 45.98800 20.24600
H  39.68400 48.61100 21.35000
H  40.93700 47.71800 20.53600
H  40.29500 46.95900 21.84200
H  38.78800 43.84600 23.71400
H  37.20400 42.98400 24.15600
H  38.50500 43.05600 25.26500
H  37.48900 46.54900 29.06500
H  35.27600 44.13100 32.27600
H  34.24900 43.86400 30.84200
H  34.15300 45.33200 31.69600

