158

Mg 17.39600 -1.13100 28.11300
C  16.20000 0.81100 30.80700
C  19.18000 -2.95200 30.38100
C  18.85900 -2.73900 25.57400
C  15.82800 1.06300 25.91300
N  17.61800 -0.98600 30.24700
C  17.02000 -0.25800 31.18400
C  17.52500 -0.50100 32.61600
C  18.60300 -1.54300 32.33700
C  18.44800 -1.85700 30.86300
C  20.10400 -1.31800 32.74000
C  16.43100 -0.98800 33.55500
C  16.72200 -0.52100 35.00600
H  18.09400 0.10400 35.39400
N  18.67500 -2.68600 28.00000
C  19.22500 -3.35000 29.01000
C  19.87700 -4.49100 28.53300
C  19.72100 -4.52100 27.09800
C  19.02100 -3.26600 26.83200
C  20.56400 -5.58500 29.51500
C  20.24100 -5.52500 26.08500
O  20.09500 -5.38200 24.88200
C  21.01300 -6.81600 26.61000
N  17.53100 -0.78300 26.02000
C  18.07600 -1.68100 25.17100
C  17.82800 -1.28100 23.71000
C  16.80300 -0.06400 23.82300
C  16.82300 0.18400 25.36400
C  19.10100 -1.03200 22.90700
C  15.43100 -0.24400 23.11300
C  14.13700 -0.79700 23.80400
N  16.18300 0.58700 28.27800
C  15.58200 1.31800 27.26700
C  14.83200 2.36500 27.89200
C  14.97100 2.22800 29.23600
C  15.86700 1.15200 29.45200
C  14.14800 3.49800 27.23400
C  14.58900 2.78200 30.54800
O  13.84900 3.73900 30.87000
C  15.55200 1.95600 31.62200
C  16.54900 2.80400 32.30500
O  17.73500 2.60100 32.15100
O  15.99600 3.71400 33.23800
C  16.97400 4.45600 34.06100
H  19.69800 -3.60200 31.08900
H  19.27000 -3.27900 24.71800
H  15.22300 1.58800 25.17100
H  17.99400 0.42100 32.95700
H  18.36800 -2.48400 32.83500
H  20.44600 -2.23200 33.22700
H  20.14400 -0.39500 33.31700
H  20.66400 -1.23700 31.80800
H  16.43700 -2.07700 33.49800
H  15.50000 -0.56000 33.18300
H  16.39900 -1.30100 35.69500
H  15.94300 0.23400 35.11700
H  20.02800 -5.68900 30.45800
H  21.63100 -5.38600 29.61800
H  20.40100 -6.55500 29.04600
H  21.39100 -7.26400 25.69100
H  20.22100 -7.44300 27.01900
H  21.86700 -6.61300 27.25700
H  17.31000 -2.06300 23.15500
H  17.29000 0.80600 23.38200
H  19.36800 0.02400 22.94100
H  18.92500 -1.44100 21.91200
H  19.97400 -1.52100 23.34100
H  15.46400 -0.85000 22.20800
H  15.22600 0.77400 22.78000
H  13.69300 -1.50000 23.10000
H  13.30400 -0.12200 24.00200
H  14.37300 -1.37300 24.69900
H  13.08400 3.27900 27.13500
H  14.60800 3.81600 26.29900
H  14.35400 4.27900 27.96600
H  14.85500 1.63800 32.39700
H  17.78100 4.95700 33.52600
H  17.48400 3.90800 34.85300
H  16.40500 5.21400 34.59900
Mg 41.63200 40.58500 27.03400
C  40.95200 43.23300 29.49900
C  42.52700 38.69700 29.54200
C  42.68200 38.60600 24.65500
C  40.98100 43.17500 24.46500
N  41.83000 41.02600 29.34400
C  41.41500 42.03000 30.09700
C  41.40000 41.71800 31.61900
C  42.04100 40.21000 31.55600
C  42.06500 39.91000 30.03800
C  43.43200 40.09600 32.29600
C  39.92400 41.87900 32.23300
C  39.74200 42.68500 33.50800
H  39.07000 42.04900 34.82400
N  42.49000 38.83700 27.14300
C  42.79100 38.16800 28.26200
C  43.31200 36.88600 27.91100
C  43.20500 36.75900 26.48700
C  42.78100 38.10800 26.03100
C  43.81500 35.91900 28.90900
C  43.45800 35.55700 25.57300
O  43.58400 35.66100 24.33000
C  43.53800 34.22400 26.25900
N  41.81700 40.88500 24.90900
C  42.15900 39.79600 24.16200
C  42.09200 40.09500 22.63300
C  41.58400 41.56000 22.60800
C  41.47300 41.91200 24.09700
C  43.51100 39.95200 22.00400
C  40.27500 41.64100 21.70400
C  40.32200 42.53500 20.55500
N  41.20400 42.77300 26.96900
C  40.86300 43.59900 25.85500
C  40.56300 44.93300 26.41800
C  40.52700 44.80400 27.84100
C  40.93600 43.51600 28.09300
C  40.11100 46.18600 25.60500
C  40.17700 45.47500 29.03100
O  39.78200 46.64700 29.16600
C  40.37600 44.48300 30.16700
C  41.33100 45.18300 31.13300
O  42.53900 45.26200 30.97500
O  40.71700 45.80600 32.14300
C  41.59900 46.55400 33.03000
H  42.62900 37.94000 30.32300
H  43.10700 37.90900 23.93000
H  40.67900 43.85900 23.66900
H  42.05500 42.45100 32.09200
H  41.31700 39.56600 32.05400
H  43.74900 41.04300 32.73300
H  44.10400 39.61400 31.58600
H  43.43500 39.38600 33.12300
H  39.39400 40.95100 32.44800
H  39.24100 42.29300 31.49100
H  39.06300 43.44600 33.12300
H  40.67500 43.10500 33.88400
H  43.11200 35.08600 28.90400
H  43.95900 36.28500 29.92600
H  44.76100 35.53000 28.53100
H  44.49900 33.97800 26.71100
H  43.30200 33.49100 25.48800
H  42.67500 34.15500 26.92200
H  41.38700 39.33500 22.29500
H  42.40400 42.11600 22.15400
H  44.19800 40.44700 22.69000
H  43.55900 40.41500 21.01900
H  44.01400 38.98700 21.93900
H  39.38900 41.91000 22.28000
H  39.95900 40.64900 21.38000
H  39.29600 42.88700 20.44100
H  40.59900 41.88800 19.72200
H  41.03900 43.32600 20.77200
H  39.02400 46.12000 25.54900
H  40.46800 46.24700 24.57700
H  40.33200 47.12200 26.11800
H  39.39900 44.33100 30.62600
H  41.96700 46.01400 33.90200
H  41.00900 47.36300 33.46000
H  42.45000 47.01200 32.52600

