158

Mg 46.98100 24.86100 28.44500
C  47.68500 27.17000 30.98900
C  45.59500 22.87400 30.75100
C  46.79800 22.57000 25.94900
C  48.91400 26.85400 26.23800
N  46.72400 25.07600 30.67800
C  46.95400 26.13100 31.46300
C  46.47700 25.93100 32.88200
C  45.92400 24.44300 32.79800
C  46.07800 24.09200 31.31400
C  46.56200 23.48100 33.72300
C  45.44600 27.08500 33.30400
C  45.67800 27.74000 34.69700
H  46.32700 26.86200 35.86800
N  46.24500 23.04800 28.35400
C  45.66200 22.39600 29.39500
C  45.20900 21.09300 28.89400
C  45.46900 20.99400 27.45000
C  46.21900 22.29000 27.20400
C  44.64500 20.19400 29.82200
C  45.22000 19.86400 26.54300
O  45.65300 19.83800 25.33000
C  44.19400 18.87000 26.95300
N  47.87000 24.66800 26.44900
C  47.54900 23.63400 25.57700
C  47.97100 23.93800 24.15100
C  48.54200 25.42500 24.17400
C  48.52800 25.63000 25.70800
C  49.07000 22.95900 23.73300
C  47.78000 26.48100 23.26600
C  48.67100 27.33300 22.35700
N  47.91700 26.68800 28.50500
C  48.71000 27.33400 27.50500
C  49.14300 28.58100 28.09600
C  48.79800 28.47800 29.43600
C  48.07200 27.34800 29.67700
C  49.89500 29.73700 27.33100
C  48.90800 29.25200 30.65500
O  49.29800 30.37600 30.90000
C  48.25000 28.36900 31.69600
C  49.26900 28.13600 32.76800
O  50.16800 27.30900 32.73500
O  49.05400 28.99500 33.79100
C  49.96300 28.91600 34.92500
H  44.97900 22.28900 31.43700
H  46.78200 21.84400 25.13400
H  49.58500 27.36800 25.54700
H  47.35800 25.95500 33.52300
H  44.84600 24.47600 32.95500
H  47.43000 23.78600 34.30800
H  46.79300 22.55500 33.19700
H  45.76100 23.23000 34.41800
H  44.43400 26.68000 33.29900
H  45.36600 27.76000 32.45200
H  44.74300 28.08400 35.14000
H  46.37000 28.58100 34.64200
H  45.31100 19.98300 30.65800
H  44.47800 19.20200 29.40200
H  43.67800 20.44000 30.26000
H  43.93900 18.26400 26.08400
H  43.39000 19.38000 27.48400
H  44.87300 18.30000 27.58700
H  47.23900 23.82600 23.35100
H  49.55900 25.32100 23.79600
H  48.68800 21.94800 23.59200
H  50.03600 22.88900 24.23300
H  49.30800 23.38600 22.75900
H  47.26900 27.22600 23.87600
H  47.03100 25.91000 22.71800
H  48.42700 27.29900 21.29500
H  49.73100 27.15800 22.54000
H  48.37700 28.34100 22.65200
H  49.42400 29.98600 26.38100
H  50.91300 29.38900 27.15300
H  49.76100 30.61800 27.95800
H  47.44200 28.98800 32.08500
H  50.52100 27.98200 34.99200
H  49.35100 29.05500 35.81600
H  50.61400 29.78300 34.81300
Mg 48.02500 35.29100 27.06700
C  46.23900 33.41800 29.57700
C  48.14700 37.80100 29.33000
C  49.11700 37.07100 24.49600
C  47.00600 32.69500 24.83000
N  47.33300 35.50800 29.24800
C  46.74000 34.60600 30.04800
C  46.72100 35.08500 31.52700
C  46.98900 36.64200 31.33300
C  47.54000 36.67500 29.90400
C  45.73500 37.55900 31.60000
C  47.97100 34.43900 32.26400
C  47.95000 34.37000 33.81900
H  47.02300 35.34800 34.51500
N  48.68800 37.14500 26.96600
C  48.79000 38.04400 28.03500
C  49.51100 39.22800 27.55200
C  49.73300 39.01200 26.11100
C  49.16400 37.68400 25.74700
C  49.78600 40.46100 28.40400
C  50.51400 39.90700 25.11200
O  50.66600 39.58700 23.97100
C  51.01400 41.23300 25.63600
N  48.05900 34.89000 25.01100
C  48.61600 35.81900 24.14600
C  48.66000 35.37100 22.75200
C  47.97600 33.93900 22.86500
C  47.66500 33.80000 24.34600
C  47.85900 36.31800 21.81300
C  48.98400 32.82500 22.42900
C  50.13600 32.44500 23.30700
N  47.08500 33.32900 27.18900
C  46.75600 32.40400 26.15300
C  46.11200 31.23700 26.78200
C  45.81900 31.55900 28.02800
C  46.41000 32.85000 28.27300
C  45.74700 29.95600 26.03300
C  45.11700 31.14100 29.23700
O  44.52400 30.16800 29.54100
C  45.39100 32.32100 30.26400
C  45.74500 31.94100 31.62600
O  46.82700 31.36000 31.83300
O  44.96900 32.30800 32.66500
C  45.17500 31.63800 33.94700
H  48.13500 38.62400 30.04800
H  49.57200 37.59800 23.65400
H  46.58000 31.95400 24.15200
H  45.75000 34.90600 31.99000
H  47.83800 37.00500 31.91100
H  44.95700 37.06900 32.18500
H  45.34100 38.00100 30.68400
H  46.00100 38.36200 32.28700
H  48.88700 34.96100 31.98600
H  48.13800 33.44300 31.85500
H  48.92400 34.42100 34.30600
H  47.59700 33.39100 34.14100
H  49.37400 40.17900 29.37300
H  49.22200 41.30900 28.01600
H  50.83600 40.60100 28.66100
H  50.24400 41.87600 26.06500
H  51.33800 41.77100 24.74500
H  51.79800 41.08500 26.37900
H  49.68200 35.43100 22.37900
H  47.07800 33.89900 22.24900
H  47.53700 37.12000 22.47800
H  47.00900 35.80900 21.36000
H  48.52800 36.65100 21.01900
H  49.38300 33.25500 21.51100
H  48.38300 31.94100 22.21400
H  51.11300 32.61900 22.85600
H  50.00200 31.36700 23.40300
H  50.14200 32.94400 24.27600
H  46.53900 29.29600 26.38700
H  45.71100 30.12200 24.95600
H  44.84100 29.46700 26.39100
H  44.37600 32.70000 30.38400
H  44.77600 30.62300 33.94200
H  44.70900 32.27300 34.70100
H  46.22700 31.51100 34.20200

