158

Mg 55.94100 23.89000 44.78800
C  53.76100 26.52500 44.27400
C  53.53000 21.71600 43.85600
C  58.34900 21.51400 44.70500
C  58.49000 26.38800 45.46400
N  53.91600 24.09400 44.12100
C  53.16300 25.24100 43.97400
C  51.78500 24.97200 43.43900
C  51.56800 23.46000 43.81600
C  53.09100 23.04700 43.83400
C  50.92300 23.27500 45.22400
C  51.76200 25.19400 41.90700
C  50.36200 25.28600 41.34900
H  49.94800 24.47000 40.05800
N  55.92300 21.83500 44.28000
C  54.78400 21.10800 44.04100
C  55.16800 19.70000 43.76700
C  56.56400 19.59400 43.99700
C  57.01700 21.03100 44.34700
C  54.24100 18.66000 43.43500
C  57.36200 18.26700 44.01900
O  56.81400 17.19100 43.78000
C  58.79500 18.27000 44.38100
N  58.09700 23.98700 45.16300
C  58.84800 22.81300 44.98100
C  60.32000 23.06100 45.32600
C  60.44900 24.61400 45.32500
C  58.97000 25.07900 45.36900
C  60.86800 22.34200 46.66100
C  61.19600 25.21300 44.10800
C  62.35700 26.14200 44.43900
N  56.05700 26.04100 45.06200
C  57.15000 26.82800 45.33500
C  56.65200 28.23200 45.33100
C  55.32100 28.11300 45.00200
C  55.01400 26.75900 44.78600
C  57.54100 29.52400 45.49700
C  54.08800 28.87200 44.79400
O  53.78300 30.06400 44.84500
C  53.13300 27.92300 44.17200
C  52.86300 28.30600 42.80500
O  53.66900 28.31600 41.87300
O  51.49500 28.41000 42.62500
C  50.99700 28.87900 41.34100
H  52.69900 21.03500 43.66000
H  59.20600 20.83800 44.66300
H  59.19800 27.21900 45.44600
H  51.14500 25.67800 43.96900
H  50.98600 22.94500 43.05200
H  50.08300 22.60300 45.05000
H  50.55000 24.24600 45.55000
H  51.54600 22.79900 45.98100
H  52.20900 24.35000 41.38200
H  52.33500 26.05900 41.57200
H  50.25900 26.34600 41.11600
H  49.63400 24.99800 42.10700
H  54.62900 18.27500 42.49200
H  53.20600 18.99600 43.38000
H  54.14100 17.84100 44.14800
H  59.39200 18.90100 43.72200
H  59.30900 17.31300 44.47300
H  58.93000 18.68100 45.38200
H  60.88200 22.61300 44.50700
H  60.99000 24.95000 46.21000
H  60.38300 21.38600 46.85700
H  60.70500 22.92300 47.56800
H  61.88300 22.03500 46.40900
H  60.50800 25.86600 43.57100
H  61.61000 24.44200 43.45800
H  62.44000 26.96000 43.72300
H  63.33600 25.67600 44.32500
H  62.25100 26.66400 45.39000
H  57.04400 30.40700 45.09500
H  58.52100 29.44400 45.02700
H  57.63700 29.64300 46.57700
H  52.15500 27.98800 44.65000
H  51.43000 29.86800 41.19700
H  49.94100 29.14000 41.41500
H  51.22300 28.26400 40.47000
Mg 26.09700 50.27600 27.03600
C  23.92800 51.68500 29.43500
C  28.29400 49.44700 29.65100
C  28.20900 49.13800 24.73100
C  23.92500 51.45400 24.58100
N  26.11500 50.57200 29.29800
C  25.08300 51.11000 30.00900
C  25.31000 50.76300 31.52500
C  26.76800 50.30500 31.59900
C  27.07500 50.11100 30.10000
C  27.83000 51.25900 32.30700
C  24.29000 49.64400 32.05900
C  23.70100 49.86600 33.46800
H  24.62500 50.55700 34.53400
N  28.01900 49.39100 27.13900
C  28.75000 49.15200 28.30900
C  30.04800 48.49500 27.94400
C  29.97500 48.29300 26.51900
C  28.70200 48.95600 26.06500
C  31.14200 48.08500 29.02200
C  30.89000 47.50300 25.61400
O  30.62500 47.30200 24.46400
C  32.27800 46.96000 26.13600
N  26.05400 50.23000 24.94000
C  27.00300 49.65000 24.24500
C  26.71400 49.80500 22.69300
C  25.22000 50.29800 22.66500
C  25.04800 50.72500 24.11600
C  27.81100 50.62000 21.93900
C  24.03400 49.28300 22.38200
C  22.98500 49.84200 21.45600
N  24.30900 51.46700 26.98700
C  23.59900 51.87100 25.88700
C  22.39700 52.50100 26.30800
C  22.49100 52.48000 27.75700
C  23.68200 51.83800 28.06600
C  21.31800 53.11300 25.39700
C  21.78800 52.82800 29.00900
O  20.65500 53.31600 29.21400
C  22.72500 52.22100 30.14900
C  23.03700 53.26600 31.16900
O  23.68400 54.22500 30.88000
O  22.46400 53.08900 32.36300
C  22.71500 54.00700 33.43300
H  29.02000 49.12700 30.40200
H  28.95100 48.94100 23.95500
H  23.33000 51.66900 23.69100
H  25.24900 51.67500 32.12000
H  26.78900 49.30800 32.03900
H  28.45100 51.69300 31.52300
H  28.35700 50.72000 33.09400
H  27.29400 52.04200 32.84400
H  24.62200 48.61200 32.17100
H  23.45900 49.62900 31.35500
H  23.44200 48.90000 33.90000
H  22.78400 50.45500 33.44000
H  31.33500 47.03100 28.82300
H  30.80100 48.00300 30.05500
H  31.99700 48.73000 28.81900
H  32.97400 46.53200 25.41500
H  32.04300 46.04000 26.67200
H  32.81600 47.59600 26.83800
H  26.75400 48.79100 22.29600
H  25.05000 51.21600 22.10200
H  27.35600 51.54900 21.59400
H  28.21000 50.03400 21.11100
H  28.59500 50.91800 22.63500
H  23.61100 48.90000 23.31100
H  24.47500 48.42000 21.88300
H  21.96700 49.53000 21.68900
H  23.13100 49.46300 20.44400
H  22.97800 50.93200 21.43200
H  20.50100 52.49600 25.77200
H  21.50300 52.83500 24.36000
H  21.14700 54.17000 25.60100
H  22.33400 51.36700 30.70100
H  22.69900 55.03700 33.07600
H  23.73700 53.99900 33.81200
H  21.90300 53.86800 34.14700

