158

Mg 17.25800 50.88000 25.99100
C  19.07900 49.48400 28.64600
C  14.91600 51.91000 28.24400
C  15.34400 51.93100 23.36700
C  19.49700 49.53800 23.81000
N  16.99300 50.60800 28.17000
C  17.93200 50.17200 29.04800
C  17.57700 50.54100 30.46600
C  16.06800 50.98300 30.29300
C  16.01700 51.23100 28.85000
C  14.98400 50.03100 30.83800
C  18.43400 51.76400 30.96400
C  18.26000 52.11400 32.49500
H  17.28800 51.19800 33.37100
N  15.40800 51.82100 25.87200
C  14.62600 52.17500 26.91500
C  13.48900 53.00500 26.48000
C  13.69000 53.06800 25.01400
C  14.87800 52.28100 24.68700
C  12.49400 53.65600 27.48800
C  12.90400 53.82100 24.01300
O  13.18700 53.91900 22.79600
C  11.65300 54.50400 24.41400
N  17.33600 50.68900 23.84000
C  16.45200 51.14100 22.96500
C  17.08300 51.19400 21.59000
C  18.51400 50.45700 21.73600
C  18.45500 50.33300 23.22500
C  16.23800 50.43800 20.53000
C  19.77000 51.30000 21.28700
C  20.87200 50.43300 20.68200
N  19.02800 49.88800 26.13900
C  19.81100 49.26700 25.18100
C  20.95000 48.59700 25.75700
C  20.75400 48.70000 27.11400
C  19.54400 49.40900 27.32500
C  21.94700 47.78100 24.97200
C  21.14700 48.24100 28.38800
O  22.05100 47.51700 28.69300
C  20.23700 48.89600 29.42500
C  19.68000 47.90200 30.32700
O  18.72800 47.15700 30.01400
O  20.36800 47.88200 31.54000
C  19.76300 47.06800 32.66200
H  14.34400 52.43900 29.00900
H  14.83900 52.45300 22.55100
H  20.27300 49.17400 23.13300
H  17.74200 49.61200 31.01100
H  15.90400 51.85300 30.92900
H  15.30500 49.21300 31.48300
H  14.62600 49.45500 29.98500
H  14.11900 50.59700 31.18600
H  18.10600 52.61600 30.36900
H  19.48400 51.61700 30.71100
H  17.72500 53.05100 32.34000
H  19.19400 52.25900 33.03700
H  11.60800 53.86200 26.88800
H  12.88000 54.59000 27.89600
H  12.33000 52.94700 28.30000
H  11.04800 54.79800 23.55700
H  11.94800 55.41800 24.92900
H  11.16100 53.74000 25.01600
H  17.16300 52.21900 21.23100
H  18.44200 49.44400 21.34000
H  15.22200 50.26400 20.88500
H  16.69100 49.50200 20.20400
H  16.26600 51.15500 19.70900
H  20.21700 51.74900 22.17300
H  19.46300 52.04000 20.54700
H  21.81900 50.51500 21.21600
H  21.04600 50.90900 19.71700
H  20.59700 49.40100 20.46800
H  22.20700 48.18500 23.99400
H  21.41100 46.84000 24.84100
H  22.80800 47.59800 25.61500
H  20.79000 49.62900 30.01200
H  18.68900 47.25100 32.69100
H  20.16200 47.39100 33.62300
H  20.07000 46.03800 32.48100
Mg 1.69100 41.66800 24.85500
C  3.62800 41.71900 27.84700
C  -1.00500 40.80700 26.92400
C  -0.02800 41.04100 22.17900
C  4.46300 42.19700 23.00800
N  1.32700 41.23000 27.18300
C  2.24600 41.38500 28.15700
C  1.55300 41.15200 29.57100
C  0.20500 40.61600 29.23700
C  0.13900 40.89500 27.69400
C  -0.01000 39.06400 29.50400
C  1.52500 42.45000 30.49500
C  1.98300 42.37500 31.91200
H  0.80000 42.45400 32.87800
N  -0.27400 41.13200 24.56600
C  -1.21600 40.95000 25.53700
C  -2.46500 40.71600 24.88000
C  -2.22200 40.77600 23.46200
C  -0.80700 41.00000 23.34100
C  -3.84800 40.39300 25.56900
C  -3.21300 40.58300 22.33900
O  -2.85000 40.68200 21.15100
C  -4.72900 40.24300 22.56900
N  2.16200 41.57900 22.90100
C  1.25000 41.33000 21.95200
C  1.82600 41.67100 20.51300
C  3.25100 42.28500 20.82100
C  3.32500 42.01000 22.30900
C  1.80700 40.44200 19.59300
C  3.40400 43.78800 20.39000
C  4.63100 44.09000 19.42000
N  3.64800 41.88800 25.26600
C  4.64600 42.11600 24.38800
C  5.93000 42.24800 25.11100
C  5.51200 42.09100 26.50900
C  4.14100 41.91400 26.53400
C  7.29200 42.28100 24.45100
C  5.99500 42.02300 27.84900
O  7.13900 42.17700 28.33900
C  4.80700 41.85700 28.79000
C  5.09200 40.73300 29.67800
O  5.10400 39.57900 29.31800
O  5.23200 41.11600 31.00000
C  5.27500 39.92900 31.88200
H  -1.78600 40.58600 27.65500
H  -0.53200 40.96600 21.21400
H  5.29000 42.56000 22.39400
H  2.15800 40.42900 30.11800
H  -0.58000 41.14900 29.77400
H  -0.40700 38.62700 28.58800
H  -0.82500 39.04600 30.22800
H  0.86800 38.59900 29.95400
H  0.49000 42.79200 30.49500
H  2.11300 43.22400 30.00100
H  2.68400 43.13700 32.25000
H  2.26300 41.33700 32.09400
H  -3.78900 40.72900 26.60500
H  -3.93700 39.31000 25.65000
H  -4.68400 40.83400 25.02600
H  -4.91200 39.52500 23.36800
H  -5.21600 39.97600 21.63100
H  -5.12200 41.23600 22.78400
H  1.11900 42.37400 20.07200
H  4.01100 41.66200 20.35100
H  2.71900 40.32600 19.00700
H  1.03700 40.55300 18.83000
H  1.68600 39.50500 20.13600
H  3.42200 44.43700 21.26500
H  2.48100 44.03700 19.86500
H  4.37600 44.41600 18.41200
H  5.34800 43.28400 19.26100
H  5.28500 44.90100 19.74000
H  7.21000 42.50000 23.38600
H  7.73400 41.29900 24.61500
H  7.90800 43.04700 24.92100
H  4.83700 42.74000 29.43000
H  6.28200 39.91300 32.29900
H  4.90700 38.96200 31.54000
H  4.59400 40.12900 32.70900

