158

Mg 53.65800 24.82400 45.52700
C  51.17400 27.03500 44.41700
C  52.02800 22.20200 43.88200
C  56.54400 22.86400 45.78100
C  55.51600 27.62800 46.49800
N  51.80300 24.74600 44.18100
C  50.95800 25.72500 43.89800
C  49.79700 25.10200 43.03500
C  49.89100 23.57200 43.30800
C  51.32400 23.53600 43.84700
C  48.78400 22.95100 44.26500
C  49.70400 25.52800 41.53300
C  50.99300 25.52700 40.69200
H  52.17300 24.59700 41.03500
N  54.12900 22.77200 44.95900
C  53.27900 21.85200 44.35000
C  53.96000 20.54500 44.41800
C  55.27200 20.74300 44.99500
C  55.35500 22.19600 45.25600
C  53.31500 19.39600 43.70900
C  56.31700 19.66400 45.25000
O  56.10600 18.51500 44.91500
C  57.58500 19.83900 45.95400
N  55.73900 25.19500 45.92500
C  56.70000 24.24200 46.03400
C  58.02700 24.76300 46.59600
C  57.74300 26.32600 46.51700
C  56.20800 26.40500 46.33100
C  58.29100 24.22800 48.00900
C  58.55600 27.13600 45.48900
C  58.69700 28.64200 45.71100
N  53.36700 26.88800 45.60700
C  54.19400 27.85600 46.17400
C  53.41400 29.02100 46.32400
C  52.26700 28.82300 45.57400
C  52.32100 27.48700 45.07600
C  53.79500 30.23100 47.05200
C  51.04800 29.41900 45.11800
O  50.57400 30.55500 45.28000
C  50.29500 28.30500 44.29600
C  50.03500 28.72400 42.90400
O  50.88800 28.93800 42.03800
O  48.65000 28.82800 42.71900
C  48.28900 29.18400 41.31600
H  51.56500 21.37200 43.34400
H  57.49000 22.33600 45.91600
H  56.02200 28.53600 46.83300
H  48.88200 25.54100 43.43400
H  49.88800 22.92600 42.43000
H  47.86800 23.54200 44.23000
H  49.12600 22.76400 45.28300
H  48.69700 21.96200 43.81600
H  49.18100 26.47100 41.37400
H  49.08400 24.80200 41.00800
H  51.33700 26.55200 40.55300
H  50.67500 25.32500 39.67000
H  53.11000 19.64800 42.66800
H  52.29800 19.18100 44.03800
H  53.84500 18.44400 43.73900
H  57.81400 18.83700 46.31500
H  57.50700 20.44000 46.86100
H  58.36700 20.25900 45.32200
H  58.81500 24.46700 45.90400
H  58.05300 26.78300 47.45700
H  58.05200 23.17500 48.15800
H  57.83600 24.86800 48.76500
H  59.37800 24.21900 47.93800
H  58.07200 27.02900 44.51800
H  59.54500 26.67800 45.45300
H  59.73900 28.70500 46.02400
H  57.99800 28.98000 46.47600
H  58.53100 29.17600 44.77600
H  54.37000 30.08200 47.96600
H  52.89200 30.78700 47.30400
H  54.45100 30.85900 46.45100
H  49.34000 28.10800 44.78400
H  48.76800 28.55200 40.56800
H  48.37600 30.24800 41.09300
H  47.27200 28.96500 40.98900
Mg 10.36200 46.41000 25.40800
C  8.23300 46.80800 28.11800
C  12.69400 48.37300 27.09700
C  12.24700 46.18000 22.71000
C  7.37900 45.67000 23.48100
N  10.39400 47.57100 27.27500
C  9.50800 47.37800 28.33200
C  10.01100 48.03900 29.64400
C  11.19200 48.93700 29.06200
C  11.46100 48.23200 27.75000
C  10.85700 50.38200 28.74200
C  10.48300 46.99700 30.62900
C  9.93900 47.14800 32.12500
H  9.93000 45.90000 33.10400
N  12.31300 47.05000 25.07000
C  13.10400 47.84400 25.84800
C  14.43700 48.01900 25.07100
C  14.27600 47.36900 23.81300
C  12.89900 46.86900 23.80100
C  15.58700 48.79500 25.67500
C  15.25700 47.21200 22.70500
O  15.06700 46.53100 21.66800
C  16.60800 47.86500 22.81900
N  9.92000 45.97400 23.41700
C  10.88800 45.81600 22.49200
C  10.24300 45.34300 21.06300
C  8.71200 45.21700 21.34600
C  8.64100 45.67300 22.86100
C  10.72600 46.22600 19.94800
C  8.17800 43.79200 21.02900
C  6.79300 43.60800 20.30300
N  8.23900 46.16300 25.67500
C  7.18400 45.84200 24.87800
C  5.96400 45.70500 25.60900
C  6.35500 46.05900 26.86400
C  7.73200 46.30500 26.89900
C  4.57700 45.43200 25.07100
C  5.85200 46.27500 28.23500
O  4.72400 46.20800 28.66800
C  7.03400 46.76300 29.08000
C  7.22600 45.93300 30.16700
O  7.88600 44.88800 30.14800
O  6.43500 46.19900 31.29800
C  6.41600 45.09600 32.30600
H  13.26400 49.14100 27.62500
H  12.90100 45.89200 21.88400
H  6.59200 45.23100 22.86500
H  9.20200 48.61800 30.08900
H  12.00000 48.93200 29.79400
H  9.76800 50.36000 28.69700
H  11.25100 50.49400 27.73200
H  11.32100 51.14100 29.37300
H  11.57000 47.05100 30.57900
H  10.17200 46.00800 30.29000
H  8.98200 47.66800 32.14000
H  10.67400 47.89100 32.43600
H  15.29200 49.33300 26.57500
H  15.90800 49.47600 24.88700
H  16.46200 48.20000 25.94000
H  17.09700 47.48800 23.71700
H  16.34900 48.91700 22.93800
H  17.19000 47.73700 21.90700
H  10.78100 44.42000 20.84800
H  8.20700 45.96300 20.73200
H  11.00300 47.23800 20.24300
H  10.06900 46.27000 19.07900
H  11.63200 45.82700 19.49300
H  8.07700 43.28300 21.98800
H  8.90400 43.40400 20.31400
H  6.88600 43.72700 19.22400
H  6.16800 44.43700 20.63400
H  6.35000 42.65400 20.58800
H  3.95300 46.31700 24.95000
H  4.09400 44.72500 25.74600
H  4.71300 44.86600 24.15000
H  6.76100 47.71100 29.54400
H  5.42000 44.65400 32.31300
H  6.44400 45.57100 33.28700
H  7.07200 44.23000 32.21900

