158

Mg 48.99000 46.03000 43.27300
C  45.67500 47.26000 42.21400
C  48.38900 43.32400 41.25200
C  52.24700 45.61100 43.36300
C  49.43800 49.36500 44.63700
N  47.25800 45.48200 41.80200
C  46.01100 46.08900 41.58500
C  45.15900 45.22000 40.69900
C  45.99100 43.88700 40.60300
C  47.31300 44.30800 41.20600
C  45.37300 42.55700 41.16100
C  44.92100 45.91200 39.32000
C  43.39400 45.84600 38.95700
H  42.95500 45.61400 37.53000
N  50.18000 44.60200 42.51200
C  49.80500 43.47700 41.78400
C  50.90700 42.60800 41.63300
C  52.05100 43.25400 42.19400
C  51.56100 44.53400 42.70100
C  50.77000 41.34400 41.05100
C  53.53800 42.70000 42.20900
O  53.67600 41.58800 41.66200
C  54.70100 43.48100 42.73100
N  50.61300 47.29000 43.99600
C  51.87300 46.85000 43.98200
C  52.89300 47.84800 44.44000
C  51.94800 48.97800 44.94300
C  50.57800 48.60200 44.46900
C  54.04800 47.38900 45.39900
C  52.49000 50.36500 44.56100
C  52.54700 51.35600 45.69900
N  47.80100 47.93700 43.51400
C  48.13200 49.05400 44.24500
C  46.98600 49.95200 44.24000
C  46.06200 49.26100 43.54000
C  46.51700 47.98900 43.10800
C  46.91000 51.27700 44.88900
C  44.62700 49.26300 43.16500
O  43.74900 50.11600 43.44200
C  44.32400 47.91900 42.31000
C  43.44300 47.00600 43.04400
O  43.56700 46.58900 44.19100
O  42.29700 46.83600 42.27800
C  41.36000 45.90200 42.89000
H  48.27600 42.43200 40.63200
H  53.33100 45.47500 43.35600
H  49.58600 50.36400 45.05100
H  44.21800 45.10900 41.23900
H  46.28600 43.66800 39.57700
H  44.31400 42.57400 41.41900
H  45.94200 42.45600 42.08500
H  45.52700 41.69300 40.51400
H  45.52600 45.47100 38.52900
H  45.36800 46.90700 39.30000
H  42.97600 46.78600 39.31800
H  42.83800 45.11400 39.54200
H  51.25500 41.40300 40.07700
H  49.72600 41.03000 41.06000
H  51.29600 40.59500 41.64300
H  55.60200 42.86900 42.67500
H  54.52400 43.81800 43.75200
H  54.95500 44.39600 42.19500
H  53.33400 48.14900 43.49000
H  51.80300 49.02900 46.02200
H  53.96400 47.90200 46.35700
H  54.99700 47.68600 44.95200
H  54.06500 46.32700 45.64500
H  51.87100 50.91200 43.85100
H  53.39700 50.30800 43.95800
H  52.26200 50.91900 46.65600
H  51.74400 52.05500 45.46500
H  53.45300 51.95600 45.60200
H  47.70400 51.33500 45.63300
H  45.91400 51.41500 45.31200
H  47.12200 52.06600 44.16700
H  43.92900 48.28900 41.36300
H  40.52100 45.71400 42.22000
H  40.95700 46.26900 43.83400
H  41.76700 44.92800 43.15900
Mg 36.32900 49.47500 24.95700
C  36.18800 47.57600 27.98900
C  34.98300 52.10800 26.64000
C  36.12700 51.25100 22.12800
C  37.38200 46.63900 23.31300
N  35.79800 49.73900 27.04800
C  35.94500 48.89900 28.10200
C  35.59300 49.60800 29.38500
C  34.95800 50.93900 28.91400
C  35.34300 50.96600 27.46000
C  33.36200 51.04300 29.27700
C  36.80200 49.77300 30.39400
C  36.62400 49.64900 31.89300
H  35.18600 49.72100 32.40000
N  35.47800 51.40600 24.42500
C  35.06500 52.38200 25.28900
C  34.79400 53.61600 24.58200
C  35.18600 53.37200 23.23300
C  35.58100 51.95800 23.20700
C  34.04200 54.78500 25.15500
C  35.11900 54.41100 22.00800
O  35.41500 54.04700 20.88300
C  34.63100 55.85700 22.15900
N  36.69000 48.97200 22.98400
C  36.54800 49.90600 21.99900
C  36.79800 49.22300 20.61800
C  37.41200 47.79600 21.01400
C  37.17500 47.76100 22.54400
C  35.54900 49.22500 19.72300
C  38.95700 47.61300 20.69900
C  39.97300 48.61000 21.45500
N  36.80100 47.51000 25.48400
C  37.18100 46.46600 24.67200
C  37.27700 45.27700 25.50800
C  36.82500 45.66600 26.76000
C  36.49300 46.97400 26.72000
C  37.73100 43.85300 24.98200
C  36.63900 45.22900 28.13700
O  36.83400 44.12500 28.59700
C  36.29100 46.48900 29.00600
C  35.01400 46.14900 29.67600
O  33.86700 46.26100 29.20000
O  35.33400 45.49400 30.85000
C  34.21600 45.04700 31.71400
H  34.60400 52.96300 27.20500
H  36.13000 51.82000 21.19600
H  37.60900 45.69600 22.81100
H  34.93300 49.03200 30.03300
H  35.47000 51.78200 29.37800
H  32.76100 51.10500 28.36900
H  33.20300 51.96100 29.84300
H  33.05900 50.16900 29.85300
H  37.35800 50.70400 30.28600
H  37.55200 49.03600 30.10700
H  37.22900 50.50200 32.20400
H  37.16400 48.82900 32.36700
H  32.96400 54.76400 24.99800
H  34.37500 55.77600 24.84700
H  34.16300 54.84300 26.23700
H  34.57700 56.43600 21.23700
H  35.29400 56.40000 22.83200
H  33.71400 55.78700 22.74500
H  37.56200 49.77200 20.06700
H  36.94300 46.97900 20.46500
H  35.62400 49.79200 18.79500
H  34.68800 49.68100 20.21100
H  35.27100 48.23200 19.37000
H  39.11900 47.84600 19.64700
H  39.10700 46.55300 20.90200
H  40.06200 48.42600 22.52600
H  39.62700 49.63800 21.34500
H  40.96000 48.56500 20.99400
H  38.53500 43.97200 24.25600
H  36.84700 43.39500 24.53800
H  38.11600 43.36600 25.87700
H  37.05500 46.72000 29.74800
H  33.39100 45.75600 31.78800
H  34.67100 44.93000 32.69700
H  33.93300 44.09700 31.26200

