158

Mg 16.78700 -1.48800 27.83800
C  15.79700 0.65600 30.55700
C  18.47600 -3.44200 30.34800
C  18.06800 -3.26000 25.44100
C  14.99800 0.51800 25.77300
N  17.28100 -1.24800 30.13500
C  16.68900 -0.34600 30.98200
C  17.16300 -0.66000 32.46200
C  18.04600 -1.95400 32.34300
C  17.96200 -2.22300 30.78600
C  19.52200 -1.76700 32.89100
C  15.95300 -0.87900 33.47300
C  16.04500 -0.05600 34.78400
H  17.34100 0.44100 35.38700
N  18.06900 -3.10000 27.86400
C  18.58700 -3.83000 28.97500
C  19.15400 -5.09100 28.45700
C  19.05300 -5.03700 27.01500
C  18.43200 -3.73100 26.72300
C  19.81100 -6.14800 29.29200
C  19.72500 -6.00700 25.92600
O  19.48700 -5.83900 24.74700
C  20.53700 -7.20200 26.45700
N  16.78200 -1.19900 25.88300
C  17.40700 -2.11300 25.03400
C  17.11300 -1.69500 23.49800
C  16.03500 -0.56000 23.63700
C  15.90700 -0.41000 25.17100
C  18.39800 -1.38100 22.68300
C  14.69600 -0.84000 22.80100
C  14.42800 0.16400 21.66900
N  15.45700 0.16600 28.10700
C  14.66300 0.78500 27.14400
C  13.95700 1.94800 27.77100
C  14.33800 1.86800 29.12800
C  15.26500 0.82700 29.26000
C  13.00700 2.87000 27.07500
C  14.17900 2.48600 30.34300
O  13.48900 3.47500 30.55500
C  15.03100 1.66800 31.38000
C  15.80600 2.62300 32.25500
O  16.93900 3.00900 32.09800
O  14.90400 3.03500 33.25300
C  15.47200 4.00200 34.26700
H  19.04500 -4.11100 30.99600
H  18.36900 -3.79700 24.53900
H  14.40000 1.13600 25.10100
H  17.71400 0.20300 32.83600
H  17.81900 -2.89600 32.84200
H  20.17300 -1.58400 32.03600
H  19.84600 -2.69200 33.36700
H  19.64700 -0.94200 33.59200
H  15.95100 -1.94100 33.72000
H  15.04400 -0.60300 32.93800
H  15.53800 -0.81700 35.37700
H  15.35200 0.77200 34.63500
H  20.88100 -6.19200 29.08800
H  19.34900 -7.06200 28.91800
H  19.60800 -6.03100 30.35600
H  21.30800 -6.85300 27.14400
H  20.87700 -7.84300 25.64300
H  19.82000 -7.81000 27.00900
H  16.64200 -2.59700 23.10500
H  16.49200 0.33800 23.22100
H  18.33300 -0.31200 22.47900
H  18.29000 -1.91600 21.74000
H  19.31100 -1.64800 23.21500
H  13.85900 -0.52800 23.42500
H  14.64800 -1.90200 22.56200
H  14.46200 -0.43700 20.76000
H  15.19300 0.94000 21.64600
H  13.36800 0.40900 21.73500
H  12.92900 2.74800 25.99400
H  13.34900 3.87100 27.33500
H  11.98300 2.65000 27.37700
H  14.37900 1.20400 32.12000
H  16.54300 3.88000 34.42600
H  14.91400 3.95000 35.20200
H  15.39000 4.96400 33.76100
Mg 40.98400 9.10600 29.43700
C  43.06500 10.08700 32.04800
C  38.71700 7.83600 31.69600
C  39.14000 7.92200 26.83400
C  43.63400 9.52400 27.26800
N  40.95300 8.77700 31.57800
C  41.84600 9.40300 32.49300
C  41.24000 9.33500 33.95600
C  39.97800 8.48700 33.78300
C  39.88100 8.34700 32.24600
C  39.85500 7.22100 34.64600
C  40.91000 10.79000 34.58700
C  40.21200 10.79600 35.98800
H  40.90400 11.56400 37.05200
N  39.07200 8.18200 29.38100
C  38.26200 7.74000 30.38900
C  37.08300 7.27100 29.86400
C  37.12100 7.44100 28.51000
C  38.55100 7.82700 28.15800
C  36.01100 6.77400 30.76900
C  36.08000 7.23400 27.42000
O  36.19500 7.22900 26.20800
C  34.62300 6.96000 27.94900
N  41.42200 8.60000 27.35800
C  40.44900 8.20500 26.44100
C  40.90200 8.36900 24.98600
C  42.34200 8.90000 25.16800
C  42.52900 9.06200 26.71700
C  40.82400 7.16600 23.99900
C  42.62900 10.17600 24.32500
C  42.03400 11.49800 24.92600
N  42.97200 9.71300 29.56500
C  43.94000 9.95000 28.61500
C  45.04800 10.64300 29.21700
C  44.71300 10.74200 30.54300
C  43.48200 10.05600 30.75000
C  46.19700 11.25900 28.50000
C  45.16800 11.27500 31.79600
O  46.17800 11.84900 32.07800
C  44.09400 10.83500 32.88500
C  44.65900 9.89300 33.85300
O  45.22500 8.84400 33.56500
O  44.59300 10.42400 35.09600
C  44.83700 9.50800 36.21800
H  38.06200 7.43000 32.47000
H  38.53900 7.48700 26.03300
H  44.32900 9.81000 26.47600
H  41.96700 8.90300 34.64400
H  39.10000 9.09700 33.99600
H  40.81900 6.97000 35.08900
H  39.63400 6.31600 34.07900
H  39.05600 7.38100 35.37000
H  40.23200 11.32900 33.92600
H  41.81300 11.40100 34.55700
H  40.12400 9.72800 36.18500
H  39.20200 11.16600 35.81000
H  36.25500 6.79900 31.83100
H  35.71100 5.74200 30.58500
H  35.07400 7.31300 30.62800
H  33.94200 7.07900 27.10700
H  34.34200 7.70000 28.69900
H  34.44700 5.95600 28.33700
H  40.36400 9.26100 24.66500
H  43.13100 8.22400 24.83700
H  41.76800 6.93000 23.50800
H  40.15800 7.40000 23.16800
H  40.48100 6.28100 24.53500
H  42.15000 10.05000 23.35400
H  43.68800 10.31300 24.10700
H  42.78300 12.08100 25.46100
H  41.30500 11.19400 25.67600
H  41.51800 11.94500 24.07600
H  46.56500 12.13000 29.04400
H  45.81400 11.48400 27.50500
H  47.08600 10.63200 28.42900
H  43.78900 11.75000 33.39300
H  45.20500 8.50800 35.99100
H  43.88600 9.40500 36.74100
H  45.53000 9.93500 36.94300

