158

Mg 47.37600 25.04900 29.06500
C  48.00400 27.47100 31.46000
C  45.96000 23.07200 31.35200
C  46.90800 22.69700 26.67900
C  49.01500 26.95200 26.69100
N  46.96500 25.35000 31.15700
C  47.38000 26.37700 31.99700
C  46.92000 26.14100 33.43200
C  46.36300 24.66300 33.39100
C  46.44500 24.29500 31.88900
C  47.13400 23.58100 34.16300
C  45.76300 27.08100 33.92900
C  45.81100 27.64900 35.33000
H  46.34200 26.76100 36.54700
N  46.48900 23.22300 28.98900
C  45.86200 22.59300 30.06400
C  45.28500 21.42100 29.68100
C  45.55800 21.33000 28.24100
C  46.32600 22.45300 27.90900
C  44.50500 20.46700 30.67300
C  45.18600 20.21200 27.29400
O  45.46500 19.99200 26.08900
C  44.13800 19.20900 27.82900
N  48.04200 24.79300 27.00900
C  47.72700 23.67300 26.24400
C  48.17600 23.86300 24.79200
C  48.53600 25.37100 24.67400
C  48.63300 25.69100 26.18700
C  49.33600 22.87600 24.53000
C  47.59700 26.34100 23.84800
C  48.25700 27.50500 23.00900
N  48.25900 26.84000 29.06700
C  48.93000 27.43300 28.00400
C  49.42700 28.74200 28.48600
C  49.06500 28.81800 29.84800
C  48.36800 27.61900 30.17100
C  50.09200 29.78000 27.56800
C  49.06400 29.61300 31.09000
O  49.52700 30.71300 31.29000
C  48.45000 28.71700 32.23200
C  49.51700 28.42300 33.17800
O  50.60000 27.94200 32.92800
O  49.12300 28.82300 34.43000
C  50.15100 29.07200 35.48300
H  45.59600 22.55900 32.24500
H  46.65900 22.04200 25.84100
H  49.53000 27.64600 26.02300
H  47.76000 26.11700 34.12600
H  45.32100 24.52000 33.67900
H  46.33600 23.16300 34.77700
H  47.80400 24.02200 34.90100
H  47.48800 22.76800 33.53000
H  44.77600 26.63300 33.81200
H  45.68400 27.92200 33.24000
H  44.93600 28.23000 35.62100
H  46.63400 28.36100 35.39200
H  44.40400 20.80100 31.70500
H  45.05500 19.52800 30.74000
H  43.54200 20.27600 30.19900
H  44.37400 18.61200 28.71000
H  43.87500 18.59000 26.97100
H  43.25800 19.78000 28.12600
H  47.47900 23.59300 23.99900
H  49.52300 25.34500 24.21300
H  49.09100 21.95800 25.06500
H  50.29500 23.18500 24.94700
H  49.41000 22.63300 23.47000
H  46.90800 26.78200 24.56900
H  47.00000 25.72300 23.17800
H  47.88800 27.53600 21.98400
H  49.34000 27.38900 22.99100
H  47.97500 28.46700 23.43700
H  51.17200 29.63300 27.52300
H  49.85000 30.73000 28.04300
H  49.65200 29.80200 26.57100
H  47.61100 29.27300 32.65000
H  51.17800 29.12900 35.12300
H  50.06700 28.48100 36.39500
H  50.07000 30.11900 35.77800
Mg -1.80300 33.72300 25.45500
C  -3.46000 32.10700 28.20200
C  -0.44000 35.85400 27.84900
C  -0.36600 35.34600 23.01700
C  -3.22500 31.47100 23.33900
N  -1.96100 33.94000 27.81500
C  -2.60800 33.09400 28.69300
C  -2.40600 33.59300 30.13100
C  -1.53600 34.90600 29.95900
C  -1.30400 34.92800 28.42100
C  -2.15800 36.24900 30.51000
C  -1.89300 32.64200 31.23100
C  -2.75600 32.63300 32.52400
H  -2.03600 32.52400 33.88200
N  -0.49700 35.38000 25.42200
C  -0.08300 36.12500 26.47500
C  0.88300 37.21800 25.99300
C  0.96800 37.00200 24.52300
C  0.01800 35.90800 24.23700
C  1.73300 38.02000 26.93200
C  1.82300 37.65800 23.51300
O  1.75800 37.32900 22.31300
C  2.77000 38.84200 23.83600
N  -1.75200 33.39700 23.48900
C  -1.15800 34.25200 22.63700
C  -1.45700 33.95800 21.16200
C  -2.24300 32.61500 21.26100
C  -2.40600 32.44800 22.77900
C  -2.23800 35.10900 20.45000
C  -1.53500 31.36200 20.61700
C  -0.47200 30.65400 21.47800
N  -3.10300 32.13800 25.66700
C  -3.61500 31.30500 24.65300
C  -4.56000 30.40800 25.26800
C  -4.49200 30.64500 26.62000
C  -3.59700 31.75100 26.88500
C  -5.44300 29.41700 24.53000
C  -5.05200 30.29600 27.93800
O  -5.95600 29.50200 28.18400
C  -4.37100 31.25700 28.96500
C  -5.38700 31.95100 29.84200
O  -5.74200 33.14200 29.63800
O  -5.78500 31.15300 30.94500
C  -6.35200 31.89900 32.06000
H  -0.06700 36.50100 28.64600
H  0.04500 35.77300 22.10000
H  -3.89800 30.96100 22.64700
H  -3.35400 34.01400 30.46400
H  -0.56300 34.77500 30.43300
H  -1.40300 36.83200 31.03700
H  -3.08600 36.03700 31.04100
H  -2.49700 36.88700 29.69400
H  -0.85300 32.90400 31.42400
H  -1.85400 31.60000 30.91600
H  -3.12000 31.60900 32.44100
H  -3.53700 33.39300 32.56200
H  2.78100 37.91100 26.65400
H  1.56800 37.65700 27.94700
H  1.54500 39.09300 26.89200
H  3.04400 39.39500 22.93700
H  3.74800 38.47800 24.14900
H  2.32700 39.46300 24.61400
H  -0.44300 33.68100 20.87400
H  -3.26500 32.75200 20.90700
H  -2.19400 35.97400 21.11200
H  -3.27700 34.78800 20.38200
H  -1.73200 35.31500 19.50700
H  -1.09400 31.72300 19.68800
H  -2.42900 30.76400 20.44000
H  -0.08700 31.20300 22.33800
H  0.41900 30.62000 20.85000
H  -0.71800 29.61800 21.70800
H  -4.92300 28.87700 23.74000
H  -6.37800 29.94000 24.32900
H  -5.79000 28.69600 25.27100
H  -3.83800 30.59000 29.64100
H  -6.71500 31.27300 32.87500
H  -7.22000 32.36400 31.59300
H  -5.60700 32.62600 32.38300

