158

Mg -0.10700 7.95300 27.46800
C  0.75400 10.19900 30.04300
C  0.28400 5.38400 29.86200
C  -0.63200 5.82000 25.00300
C  0.24500 10.65400 25.22400
N  0.43500 7.76000 29.71800
C  0.53000 8.90100 30.56600
C  0.52500 8.50900 32.02400
C  0.79800 6.94600 31.94700
C  0.52500 6.64600 30.42900
C  2.22800 6.49600 32.33400
C  -0.86300 8.84600 32.66900
C  -0.83100 9.17700 34.22300
H  0.43400 8.86100 34.97500
N  -0.28200 5.88900 27.50000
C  -0.09200 5.01600 28.51700
C  -0.27000 3.63300 27.97500
C  -0.62800 3.75100 26.59700
C  -0.55900 5.20900 26.28800
C  -0.20300 2.41600 28.85700
C  -1.00000 2.60900 25.60300
O  -1.32400 2.80700 24.43700
C  -0.92500 1.17700 26.04200
N  -0.16600 8.23100 25.46800
C  -0.44300 7.19500 24.56200
C  -0.30300 7.68900 23.07600
C  -0.47100 9.22400 23.27400
C  -0.10700 9.41200 24.75500
C  1.02300 7.21500 22.31500
C  -1.91100 9.86000 22.85700
C  -1.98400 10.95400 21.77200
N  0.37400 9.94700 27.56100
C  0.48600 10.94000 26.54800
C  0.89400 12.14400 27.16800
C  0.93300 11.87800 28.50000
C  0.64200 10.55600 28.71900
C  1.18300 13.53300 26.49000
C  1.16500 12.52700 29.76400
O  1.42600 13.71100 29.97500
C  1.00300 11.41700 30.82800
C  2.23300 11.45700 31.64000
O  3.24600 10.86100 31.34300
O  2.06500 12.23300 32.75300
C  3.26400 12.42800 33.60300
H  0.27400 4.61500 30.63700
H  -0.74400 5.11400 24.17800
H  0.26400 11.55900 24.61400
H  1.34700 9.01000 32.53500
H  0.01500 6.54800 32.59100
H  2.92800 7.28800 32.60200
H  2.67500 6.00500 31.47000
H  2.27400 5.69900 33.07700
H  -1.64500 8.16500 32.33200
H  -1.17200 9.77000 32.18000
H  -1.73100 8.68400 34.58800
H  -1.11200 10.22400 34.33800
H  -1.18900 2.07900 29.17600
H  0.27800 2.67600 29.80000
H  0.35100 1.64300 28.32600
H  -1.68300 0.90000 26.77400
H  0.10900 1.00100 26.33900
H  -1.05300 0.50200 25.19600
H  -1.18100 7.24800 22.60300
H  0.30600 9.82400 22.80100
H  0.81300 6.58900 21.44700
H  1.61900 6.62800 23.01400
H  1.59600 8.11700 22.10400
H  -2.36600 10.26200 23.76200
H  -2.53500 9.02300 22.54600
H  -2.52100 10.56000 20.90900
H  -1.00700 11.34200 21.48200
H  -2.48300 11.83800 22.16900
H  0.54800 13.84000 25.66000
H  2.20400 13.60200 26.11500
H  0.97200 14.24300 27.28900
H  0.22600 11.75300 31.51400
H  3.06200 12.08200 34.61700
H  3.55000 13.47300 33.72100
H  4.14300 11.85800 33.30100
Mg 49.15600 46.16600 42.60000
C  45.71300 46.77200 41.85700
C  48.93300 43.28800 40.97700
C  52.56200 45.95100 42.73300
C  49.32300 49.51000 43.83400
N  47.53300 45.11800 41.64300
C  46.16600 45.48900 41.44100
C  45.40100 44.39900 40.61900
C  46.44600 43.22800 40.56400
C  47.74300 43.90700 41.11400
C  46.02200 41.98300 41.49700
C  45.06200 44.93100 39.20300
C  43.69100 44.36900 38.59600
H  43.86600 43.78000 37.15900
N  50.55600 44.77500 41.92300
C  50.25900 43.64700 41.31500
C  51.42000 42.79400 41.07000
C  52.52500 43.58500 41.55400
C  51.94700 44.84800 42.14500
C  51.32000 41.51100 40.31000
C  54.02400 43.10700 41.50600
O  54.35700 42.01000 41.11200
C  55.12600 44.00900 41.92300
N  50.76700 47.52700 43.26300
C  52.05800 47.21800 43.12500
C  53.00700 48.31000 43.68600
C  51.95800 49.48300 43.91700
C  50.61300 48.87900 43.53200
C  53.78900 47.78100 44.92900
C  52.28300 50.81900 43.25100
C  52.99400 51.87900 44.19500
N  47.82200 47.80300 42.81000
C  48.04400 49.08600 43.35700
C  46.81300 49.84600 43.29900
C  45.86800 48.95900 42.82500
C  46.55800 47.73100 42.47600
C  46.67400 51.35200 43.76200
C  44.42700 48.79400 42.52900
O  43.54600 49.61700 42.66300
C  44.30900 47.33300 41.81700
C  43.48700 46.40400 42.72300
O  43.78700 45.95500 43.81300
O  42.36700 45.95100 42.06500
C  41.42700 45.03100 42.64400
H  48.89500 42.33500 40.44500
H  53.64300 46.00200 42.88000
H  49.42000 50.54800 44.15600
H  44.53700 44.11700 41.22000
H  46.65200 42.80400 39.58100
H  44.96300 42.10800 41.72300
H  46.61300 41.98500 42.41200
H  46.12900 41.08700 40.88600
H  45.89500 44.65100 38.55900
H  44.91400 46.00800 39.12400
H  43.07500 45.26700 38.54200
H  43.19400 43.63200 39.22700
H  52.32200 41.18000 40.03700
H  50.71900 41.53600 39.40100
H  50.72700 40.74900 40.81600
H  54.97200 44.08000 43.00000
H  54.98100 44.97100 41.43300
H  56.12800 43.58300 41.87300
H  53.66600 48.53000 42.84500
H  51.76200 49.75400 44.95500
H  53.67500 48.46300 45.77100
H  54.83900 47.57000 44.72400
H  53.30900 46.87100 45.28600
H  51.35000 51.12100 42.77600
H  52.97400 50.55100 42.45200
H  53.20100 51.39800 45.15100
H  52.48600 52.83900 44.28100
H  53.99100 51.98900 43.76800
H  47.39500 51.75600 44.47200
H  45.68800 51.44000 44.21800
H  46.75400 52.04500 42.92500
H  43.84200 47.41800 40.83600
H  40.46000 44.97400 42.14400
H  41.38400 45.14600 43.72700
H  41.81700 44.02600 42.48700

