158

Mg 40.06400 9.56700 29.56400
C  42.17300 11.03200 32.03700
C  37.92800 8.61600 32.17600
C  38.22300 8.07800 27.29500
C  42.51000 10.36900 27.10100
N  40.14100 9.77800 31.85600
C  41.01900 10.50000 32.58100
C  40.64000 10.40600 34.07800
C  39.36800 9.47400 34.13100
C  39.12300 9.23400 32.63900
C  39.63700 8.20800 35.05000
C  40.34500 11.88700 34.64600
C  39.53400 11.95100 35.99500
H  40.13200 12.83800 37.13100
N  38.43500 8.41000 29.74000
C  37.61400 8.20500 30.80900
C  36.51200 7.39700 30.43200
C  36.49000 7.33700 29.01900
C  37.72000 8.02600 28.66300
C  35.56800 6.67600 31.43300
C  35.42700 6.67200 28.03500
O  35.51200 6.64300 26.80300
C  34.16300 6.13200 28.70900
N  40.55500 8.97300 27.55200
C  39.45100 8.53300 26.82500
C  39.69500 8.73200 25.32700
C  41.04300 9.48000 25.18200
C  41.45800 9.62300 26.65300
C  39.61100 7.42700 24.46100
C  40.98700 10.76100 24.37100
C  40.60600 12.08000 25.05700
N  41.92600 10.55200 29.45500
C  42.83100 10.74400 28.42800
C  43.99100 11.57100 28.86200
C  43.74900 11.65900 30.26000
C  42.49000 11.05000 30.58100
C  45.18300 12.03500 28.08600
C  44.33100 12.17900 31.46700
O  45.43100 12.67600 31.69000
C  43.47700 11.66900 32.69800
C  44.15200 10.63200 33.58400
O  44.08800 9.44000 33.44000
O  44.78700 11.24700 34.65900
C  45.34600 10.27100 35.62300
H  37.20100 8.51800 32.98400
H  37.62400 7.69500 26.46600
H  43.04300 10.95200 26.34600
H  41.36700 9.89700 34.71100
H  38.47600 9.96400 34.51900
H  38.68100 8.09300 35.56100
H  40.37700 8.50600 35.79200
H  39.99800 7.32200 34.52800
H  40.05400 12.64300 33.91700
H  41.32100 12.35500 34.77700
H  39.17200 11.00400 36.39500
H  38.67600 12.49200 35.59600
H  36.03300 6.61700 32.41700
H  35.35800 5.62400 31.23700
H  34.63400 7.22600 31.54600
H  33.86600 6.98600 29.31700
H  34.40400 5.25100 29.30500
H  33.42000 5.96400 27.93000
H  38.97700 9.49800 25.03300
H  41.78100 8.81200 24.73900
H  39.81700 6.56100 25.09100
H  40.32700 7.38900 23.63900
H  38.64700 7.33900 23.96100
H  40.21800 10.65500 23.60600
H  41.96700 10.88500 23.91000
H  40.47300 12.03000 26.13800
H  39.69800 12.48300 24.60900
H  41.44700 12.73700 24.83300
H  45.08900 13.07800 27.78100
H  45.23500 11.38600 27.21100
H  46.02200 11.98800 28.78000
H  43.19700 12.47200 33.38000
H  44.50900 9.70600 36.03400
H  45.94000 10.86800 36.31500
H  45.95300 9.57200 35.04700
Mg 16.66500 52.22700 26.39500
C  18.52500 50.79500 29.06700
C  14.13000 52.93100 28.65900
C  14.81700 53.31000 23.80200
C  19.14400 51.21000 24.29200
N  16.44700 51.95200 28.67900
C  17.31100 51.38600 29.51800
C  16.81200 51.54900 30.96400
C  15.31500 51.91400 30.71100
C  15.25100 52.33300 29.21000
C  14.30400 50.80100 30.99900
C  17.62300 52.68300 31.63300
C  18.36400 52.15500 32.95600
H  17.61300 52.35100 34.23000
N  14.75200 53.13400 26.24300
C  13.93000 53.41700 27.32300
C  12.79300 54.20700 26.86300
C  12.99900 54.30900 25.44800
C  14.24100 53.56500 25.09000
C  11.58300 54.64900 27.75000
C  12.19100 55.05100 24.37400
O  12.56200 55.08200 23.18100
C  10.87500 55.69300 24.74300
N  16.98000 52.36700 24.37600
C  16.00100 52.74400 23.51500
C  16.45200 52.55600 22.06100
C  17.86300 51.96800 22.26900
C  18.04300 51.82900 23.75600
C  15.44800 51.68800 21.23400
C  18.90500 52.73700 21.48800
C  19.85000 51.81400 20.66100
N  18.47800 51.20000 26.56300
C  19.39100 50.82500 25.59600
C  20.44000 49.99800 26.22400
C  20.10100 49.94700 27.58700
C  18.95500 50.72300 27.73600
C  21.71700 49.59200 25.56400
C  20.55300 49.50700 28.86500
O  21.47000 48.78200 29.21200
C  19.60200 50.09000 29.87800
C  19.21000 49.04000 30.84300
O  18.61800 48.03500 30.45000
O  19.76500 49.17300 32.07500
C  19.38500 48.20300 33.12400
H  13.39100 53.10500 29.44400
H  14.20600 53.61100 22.94900
H  19.83700 50.88300 23.51300
H  16.83000 50.57700 31.45800
H  14.94500 52.82900 31.17300
H  13.45200 51.35200 31.39600
H  14.74400 50.01900 31.61800
H  13.92100 50.33300 30.09200
H  16.95900 53.50700 31.89200
H  18.48100 53.02000 31.05100
H  19.23000 52.81400 33.02600
H  18.58100 51.09100 32.86200
H  11.75700 54.53600 28.82000
H  10.67300 54.09100 27.53000
H  11.40500 55.71800 27.63200
H  10.45300 56.05500 23.80500
H  11.09800 56.56600 25.35600
H  10.24700 54.93500 25.21100
H  16.52800 53.56300 21.65100
H  17.91400 50.95600 21.86700
H  14.71900 51.21800 21.89400
H  15.84800 51.04300 20.45100
H  14.82900 52.38900 20.67500
H  19.52100 53.15400 22.28400
H  18.54400 53.60100 20.93000
H  20.21100 52.40900 19.82100
H  19.35100 50.97000 20.18600
H  20.69000 51.40700 21.22500
H  22.39800 50.42500 25.74400
H  21.61500 49.55800 24.48000
H  22.11300 48.67300 25.99700
H  20.20400 50.79600 30.45000
H  19.53400 48.59800 34.12900
H  19.84700 47.21600 33.16000
H  18.32200 47.97900 33.03800

