158

Mg 47.02500 16.13300 28.07000
C  44.75200 15.84800 30.74100
C  49.22100 17.99700 30.09800
C  48.81700 17.04200 25.36200
C  44.44700 15.12100 25.94100
N  47.00600 16.88000 30.20200
C  46.05300 16.49100 31.10900
C  46.38400 17.00500 32.49300
C  47.76000 17.70500 32.29900
C  48.03000 17.60500 30.73300
C  48.01700 19.21800 32.61200
C  46.47700 15.83700 33.49900
C  45.76200 15.95600 34.83500
H  45.25400 17.40900 35.32400
N  48.92100 17.13800 27.79700
C  49.73200 17.73300 28.73800
C  50.96000 18.06600 28.17300
C  50.88700 17.83800 26.74300
C  49.49200 17.28200 26.56800
C  52.16900 18.62200 28.92100
C  51.92100 18.07000 25.61500
O  51.72900 17.81800 24.43000
C  53.22300 18.63400 25.95900
N  46.70000 16.06700 25.95000
C  47.56900 16.51400 25.04100
C  46.96900 16.47600 23.61900
C  45.77000 15.59600 23.82800
C  45.62700 15.57100 25.32200
C  46.61200 17.90900 23.13700
C  45.98100 14.20800 23.25200
C  44.76100 13.69900 22.52400
N  45.00200 15.63700 28.18700
C  44.11500 15.16500 27.29500
C  42.93700 14.59300 27.98100
C  43.16100 14.84500 29.27900
C  44.44100 15.47000 29.40800
C  41.70100 14.09200 27.36900
C  42.49700 14.80200 30.55300
O  41.38600 14.35700 30.87300
C  43.50900 15.42200 31.57800
C  42.87700 16.57600 32.25500
O  42.72700 17.66300 31.69100
O  42.37800 16.22700 33.47300
C  41.39400 17.14600 34.05700
H  49.95000 18.46600 30.76300
H  49.48100 17.25600 24.52100
H  43.63000 14.77700 25.30300
H  45.59900 17.59200 32.97100
H  48.60600 17.29200 32.84900
H  47.16100 19.64800 33.13200
H  48.23500 19.88300 31.77600
H  48.89100 19.30600 33.25800
H  47.50000 15.46200 33.53700
H  45.96000 15.00800 33.01700
H  46.34400 15.40200 35.57200
H  44.81300 15.42900 34.74000
H  53.06400 18.07300 28.62600
H  51.97800 18.58200 29.99400
H  52.29000 19.70100 28.83300
H  53.79000 17.84300 26.45100
H  53.07500 19.53500 26.55400
H  53.67600 18.94500 25.01800
H  47.75300 16.10700 22.95700
H  44.85900 15.95400 23.34700
H  45.55000 18.05600 22.94400
H  47.24200 18.19800 22.29500
H  46.98500 18.52300 23.95600
H  46.20200 13.52600 24.07300
H  46.84000 14.09100 22.59100
H  43.85300 13.98500 23.05500
H  44.59300 12.62300 22.57300
H  44.80600 14.00900 21.48000
H  41.02100 13.83200 28.18100
H  41.74200 13.20500 26.73800
H  41.07000 14.84800 26.90200
H  43.88600 14.69000 32.29300
H  40.40000 16.88600 33.69300
H  41.60900 18.15400 33.70100
H  41.28900 17.09000 35.14000
Mg 8.72500 47.93100 26.56500
C  6.73500 48.03700 29.37700
C  11.45300 49.13000 28.57100
C  10.70500 48.09200 23.80900
C  5.98900 47.03200 24.67600
N  9.06900 48.51200 28.76100
C  8.08200 48.45700 29.69600
C  8.63300 48.69600 31.08800
C  10.01900 49.35800 30.64500
C  10.25200 48.86700 29.32100
C  10.06600 50.94700 30.70800
C  8.84300 47.37600 31.92200
C  8.98900 47.55600 33.46500
H  8.67800 46.46900 34.39800
N  10.81500 48.47500 26.26200
C  11.76900 48.91400 27.16700
C  13.00200 49.15600 26.45200
C  12.83100 48.93300 25.09900
C  11.38000 48.52800 25.00500
C  14.25400 49.55900 27.12600
C  13.76900 49.02300 23.96400
O  13.49600 48.78600 22.80300
C  15.19800 49.18400 24.31100
N  8.41200 47.69600 24.51600
C  9.39500 47.67300 23.56300
C  8.81200 47.27400 22.21300
C  7.35300 46.88400 22.51700
C  7.19800 47.24700 24.01600
C  9.08400 48.36100 21.11400
C  6.98800 45.44200 22.20500
C  6.04500 45.25200 20.99100
N  6.79600 47.71900 26.91900
C  5.74900 47.33500 26.04300
C  4.53700 47.33900 26.71500
C  4.84700 47.58200 28.08000
C  6.24400 47.72600 28.15900
C  3.23200 46.83700 26.14400
C  4.30800 47.66000 29.42000
O  3.10600 47.57900 29.79100
C  5.55500 47.80200 30.36300
C  5.65900 46.47700 30.98100
O  5.77200 45.42900 30.39000
O  5.49800 46.65800 32.35600
C  5.55400 45.33200 32.98700
H  12.23600 49.56600 29.19500
H  11.31900 48.08800 22.90600
H  5.15500 46.68800 24.06100
H  7.97500 49.39900 31.60000
H  10.82100 49.02600 31.30400
H  10.77700 51.14200 31.51000
H  9.07400 51.29200 31.00000
H  10.47700 51.42600 29.81900
H  9.75200 46.86800 31.60100
H  8.07500 46.63100 31.71600
H  8.47100 48.48400 33.71100
H  10.06700 47.65700 33.59200
H  14.13200 49.72800 28.19600
H  14.56300 50.50500 26.68100
H  15.03500 48.80800 27.01000
H  15.47200 48.31100 24.90300
H  15.27100 50.18100 24.74600
H  15.76900 49.30900 23.39100
H  9.31600 46.34800 21.93500
H  6.60900 47.47700 21.98400
H  8.16000 48.86300 20.82400
H  9.52400 47.81400 20.28000
H  9.83000 49.12200 21.34300
H  6.59900 44.98000 23.11200
H  7.87100 44.81600 22.08000
H  6.59000 44.71100 20.21700
H  5.85100 46.20400 20.49600
H  5.18100 44.62800 21.21800
H  2.90900 47.27900 25.20200
H  2.46300 46.94500 26.91000
H  3.27100 45.75500 26.01700
H  5.43600 48.65500 31.03100
H  5.39800 45.36500 34.06500
H  6.49900 44.88400 32.68000
H  4.69600 44.82900 32.54000

