158

Mg 5.94300 52.94100 40.56700
C  5.88300 49.33400 40.12300
C  9.21200 52.93400 39.75100
C  5.67700 56.22200 40.31300
C  2.34700 52.67200 41.08900
N  7.29500 51.27400 39.82000
C  7.16800 49.87900 39.93500
C  8.56400 49.21500 39.86600
C  9.54300 50.42700 40.14500
C  8.63300 51.68900 39.99200
C  10.15000 50.49100 41.62400
C  8.86500 48.54300 38.48000
C  8.76100 49.47500 37.20200
H  7.65700 49.14900 36.23000
N  7.25500 54.39500 39.96700
C  8.56500 54.16100 39.65700
C  9.17100 55.40100 39.29600
C  8.17900 56.43900 39.54400
C  6.95500 55.75000 39.90400
C  10.52200 55.53800 38.67500
C  8.39000 57.85500 39.31800
O  9.47700 58.25500 38.91600
C  7.34300 58.91400 39.66900
N  4.20900 54.29000 40.77300
C  4.44000 55.62200 40.66800
C  3.12800 56.31200 40.84200
C  2.02900 55.20100 41.02000
C  2.87200 53.94100 40.97200
C  3.15200 57.43100 41.98900
C  0.85900 55.23100 39.97300
C  -0.54600 55.69000 40.53400
N  4.42600 51.42900 40.72100
C  3.03500 51.44900 40.86800
C  2.48200 50.08400 40.88200
C  3.58400 49.27900 40.58700
C  4.74200 50.07900 40.48900
C  0.95400 49.82000 40.99800
C  3.92300 47.83000 40.32800
O  3.20400 46.83400 40.47900
C  5.44100 47.86400 39.95000
C  5.53000 47.32000 38.64100
O  5.11400 47.87000 37.65300
O  6.19500 46.12100 38.61000
C  6.33100 45.55300 37.27800
H  10.29900 52.83300 39.70900
H  5.55700 57.30600 40.26400
H  1.27000 52.51100 41.17500
H  8.58300 48.41400 40.60500
H  10.48900 50.44000 39.60500
H  10.52100 49.57900 42.09200
H  9.46700 51.00600 42.30000
H  11.03500 51.12800 41.63700
H  8.11400 47.75300 38.49800
H  9.83900 48.05400 38.50500
H  9.74100 49.18400 36.82400
H  8.85100 50.53700 37.42800
H  10.46500 56.36000 37.96200
H  10.69100 54.59600 38.15300
H  11.25200 55.68300 39.47100
H  7.67900 59.93000 39.46400
H  7.09600 58.77900 40.72200
H  6.42600 58.69500 39.12200
H  3.04200 56.80100 39.87200
H  1.64900 55.26300 42.04000
H  3.59500 58.36900 41.65400
H  3.68700 57.00900 42.84000
H  2.19100 57.71200 42.42100
H  0.66700 54.25000 39.53900
H  1.13200 55.85500 39.12200
H  -0.43700 56.02200 41.56600
H  -1.20800 54.82500 40.49300
H  -0.81800 56.54900 39.92000
H  0.46800 49.93400 40.02900
H  0.47100 50.52900 41.67000
H  0.82700 48.85000 41.47700
H  5.90000 47.17600 40.66000
H  7.19100 45.96000 36.74600
H  5.51900 45.61000 36.55300
H  6.46100 44.50600 37.55000
Mg 9.61600 47.87300 26.27500
C  7.63300 47.89700 29.20800
C  12.23900 49.05600 28.09600
C  11.36100 47.44100 23.52100
C  6.63000 46.96800 24.46900
N  9.78500 48.48200 28.44000
C  8.95200 48.28300 29.49400
C  9.59900 48.58400 30.80300
C  10.80900 49.38400 30.30900
C  11.03100 48.97500 28.83800
C  10.69900 50.94100 30.42900
C  10.09500 47.33100 31.57800
C  10.82300 47.61300 32.85700
H  10.57900 46.60000 33.99600
N  11.52500 48.35200 25.89500
C  12.52500 48.81400 26.75000
C  13.78700 48.86800 26.00700
C  13.50700 48.45200 24.68500
C  12.11100 47.99400 24.68500
C  15.04200 49.40400 26.56400
C  14.45800 48.42900 23.58700
O  14.02300 47.96100 22.56800
C  15.84800 48.85400 23.67500
N  8.99600 47.32900 24.20900
C  10.01200 47.19200 23.33700
C  9.53800 46.61500 21.99700
C  7.94500 46.43800 22.22100
C  7.82900 46.89300 23.75500
C  9.94000 47.43600 20.76000
C  7.49300 44.93000 21.91100
C  7.62900 43.96900 23.01200
N  7.52700 47.57100 26.64300
C  6.44600 47.27600 25.82200
C  5.23700 47.24400 26.63000
C  5.70500 47.39800 27.96600
C  7.06300 47.66300 27.91500
C  3.79800 46.88800 26.16600
C  5.35200 47.35500 29.35800
O  4.35800 47.05500 29.90900
C  6.55300 47.73500 30.14700
C  6.76200 46.57700 31.07100
O  6.87800 45.42000 30.78600
O  6.68500 47.04600 32.32000
C  6.21900 46.11900 33.34500
H  13.06700 49.28400 28.77200
H  11.92600 47.11600 22.64600
H  5.71400 46.75700 23.91300
H  8.89200 49.13900 31.41900
H  11.76600 49.15000 30.77600
H  9.95000 51.34000 31.11400
H  10.45600 51.41700 29.47900
H  11.70300 51.23400 30.73700
H  10.74900 46.78600 30.89700
H  9.31600 46.58600 31.73900
H  10.27600 48.49400 33.19000
H  11.84300 47.99100 32.79300
H  14.99900 49.58000 27.63900
H  15.44400 50.31500 26.12000
H  15.89300 48.73100 26.45900
H  16.47100 48.35800 24.42000
H  15.99300 49.91800 23.86200
H  16.34900 48.55400 22.75500
H  10.00700 45.64700 21.82000
H  7.36700 47.11400 21.59000
H  9.08400 48.08400 20.57500
H  10.08300 46.76100 19.91500
H  10.75000 48.13300 20.97400
H  8.14300 44.59700 21.10300
H  6.47000 45.01400 21.54400
H  8.34200 44.34800 23.74400
H  8.15700 43.09300 22.63500
H  6.62700 43.76600 23.39200
H  3.74300 47.32900 25.17000
H  3.00300 47.33000 26.76700
H  3.63700 45.81000 26.17800
H  6.41700 48.63500 30.74700
H  5.48600 46.69600 33.90900
H  7.07100 45.99300 34.01300
H  5.88400 45.13600 33.01200

