158

Mg 8.65200 3.54900 27.77900
C  9.81300 1.98500 30.84300
C  6.66000 5.56000 29.73900
C  7.27100 4.61600 24.95100
C  10.24100 0.83200 26.05700
N  8.12800 3.59000 29.96300
C  8.81700 2.95700 31.03700
C  8.29100 3.61100 32.38000
C  7.18500 4.56900 31.95600
C  7.33600 4.58200 30.44500
C  5.72300 4.15600 32.45700
C  9.43600 4.27500 33.10800
C  9.42800 4.02400 34.67600
H  10.79600 3.94300 35.38400
N  7.30500 5.04800 27.42100
C  6.60100 5.81500 28.31400
C  5.81700 6.82800 27.58200
C  6.07400 6.56700 26.18000
C  6.92300 5.35100 26.11300
C  4.92000 7.92900 28.17100
C  5.58900 7.36300 24.98500
O  5.80500 7.02600 23.80500
C  4.73900 8.52900 25.13700
N  8.82300 2.91100 25.79500
C  7.99900 3.42800 24.81700
C  8.22400 2.69200 23.40300
C  9.35400 1.66400 23.75800
C  9.50900 1.79300 25.33600
C  6.82100 2.19500 22.94800
C  10.80800 1.87800 23.22700
C  11.56400 0.58100 22.86500
N  9.79700 1.76000 28.30700
C  10.45200 0.85500 27.44600
C  11.25600 -0.05300 28.24100
C  11.15800 0.46000 29.56200
C  10.12100 1.43500 29.55300
C  12.06700 -1.19500 27.80200
C  11.61500 0.30500 30.96700
O  12.52300 -0.30400 31.45900
C  10.74800 1.31400 31.82700
C  10.18400 0.50100 32.93100
O  9.62200 -0.55600 32.81900
O  10.42300 1.06800 34.13300
C  10.03400 0.40400 35.36300
H  6.14600 6.31800 30.33400
H  6.83700 4.96100 24.01000
H  10.71000 0.03000 25.48300
H  8.00100 2.74900 32.98000
H  7.39700 5.61400 32.18300
H  5.37700 4.98900 33.06900
H  5.69200 3.30300 33.13500
H  5.09800 3.89800 31.60200
H  9.32100 5.35600 33.02100
H  10.42600 4.08200 32.69500
H  8.72000 3.22300 34.88800
H  8.85000 4.78400 35.20200
H  5.10100 8.00200 29.24300
H  3.89900 7.58300 28.00600
H  5.17000 8.86800 27.67600
H  5.44600 9.20600 25.61700
H  3.85700 8.32800 25.74500
H  4.45400 8.92700 24.16400
H  8.61100 3.34800 22.62300
H  8.95400 0.70700 23.42300
H  6.05300 2.69200 23.54000
H  6.74600 1.11100 23.03600
H  6.66900 2.52700 21.92100
H  11.34100 2.58400 23.86400
H  10.79900 2.44000 22.29400
H  11.63900 0.38500 21.79500
H  11.20500 -0.37600 23.24400
H  12.59900 0.75800 23.15600
H  12.14100 -1.25100 26.71600
H  11.61600 -2.11900 28.16400
H  13.06100 -1.01000 28.20900
H  11.42500 2.03100 32.29200
H  10.79500 -0.35400 35.55300
H  9.05500 -0.07300 35.34000
H  9.97600 1.03900 36.24800
Mg -8.56100 40.71900 43.11800
C  -7.54300 37.43500 42.40500
C  -5.53700 41.68100 41.46300
C  -9.67500 43.82500 43.05700
C  -11.53100 39.53300 44.34600
N  -6.73300 39.65000 42.17100
C  -6.56600 38.29600 42.00700
C  -5.39200 37.91000 41.12200
C  -4.54700 39.15000 41.12800
C  -5.64200 40.30700 41.56200
C  -3.43200 39.21000 42.14800
C  -5.67600 37.45900 39.64600
C  -4.85500 36.24200 39.13000
H  -3.84900 36.52100 37.95100
N  -7.71200 42.51000 42.39600
C  -6.47800 42.68000 41.80100
C  -6.35000 44.06200 41.48000
C  -7.44300 44.78300 42.05000
C  -8.34000 43.70400 42.56100
C  -5.10300 44.62900 40.82400
C  -7.60300 46.29600 42.16700
O  -6.82600 47.01900 41.56600
C  -8.82400 46.92200 43.00100
N  -10.40400 41.51700 43.52300
C  -10.59000 42.83800 43.47000
C  -11.96700 43.24000 44.05300
C  -12.49800 41.92300 44.62300
C  -11.42500 40.90300 44.12900
C  -11.96600 44.30900 45.24700
C  -13.92800 41.61800 44.16800
C  -14.69700 41.01500 45.31400
N  -9.47300 38.79700 43.32900
C  -10.66800 38.48300 43.94700
C  -10.74100 37.02700 43.99400
C  -9.52000 36.53300 43.38700
C  -8.79700 37.68800 43.05200
C  -11.80000 36.17400 44.52000
C  -8.76100 35.38300 42.94100
O  -9.03800 34.19200 43.05600
C  -7.49600 35.96000 42.22500
C  -6.24400 35.25100 42.60800
O  -5.53400 35.36100 43.64200
O  -6.06000 34.23000 41.70000
C  -4.93000 33.38200 42.11800
H  -4.55200 41.87400 41.03200
H  -10.17300 44.78800 43.19100
H  -12.48800 39.23500 44.78000
H  -4.87700 37.09700 41.63400
H  -4.03600 39.39100 40.19600
H  -3.76300 39.93500 42.89200
H  -2.47700 39.47600 41.69600
H  -3.32800 38.24400 42.64200
H  -5.49200 38.27000 38.94100
H  -6.71700 37.14700 39.56800
H  -5.57100 35.42300 39.05800
H  -4.30400 36.03400 40.04700
H  -5.45000 45.44400 40.18800
H  -4.63600 43.90400 40.15700
H  -4.35800 45.02200 41.51500
H  -8.44500 47.93100 43.16200
H  -8.98100 46.42300 43.95800
H  -9.74400 47.00500 42.42300
H  -12.49800 43.74900 43.24700
H  -12.32000 41.83800 45.69500
H  -11.90500 45.31800 44.83900
H  -11.17700 44.14200 45.98100
H  -12.80900 44.14500 45.91800
H  -13.91400 40.83500 43.41100
H  -14.40800 42.51400 43.77400
H  -14.31100 41.31800 46.28800
H  -14.60500 39.92900 45.29800
H  -15.75100 41.28600 45.26800
H  -12.61900 35.98100 43.82600
H  -12.29000 36.71900 45.32700
H  -11.37300 35.22900 44.85200
H  -7.71400 35.80600 41.16800
H  -4.61100 32.60700 41.42200
H  -5.11500 32.86300 43.05900
H  -4.02900 33.98600 42.22300

