158

Mg 35.27000 2.53600 30.55700
C  32.68500 3.36100 32.72900
C  37.53800 2.95100 33.20200
C  37.84400 2.00200 28.35800
C  33.14400 2.48200 27.84600
N  35.12400 3.13400 32.72700
C  33.94300 3.29500 33.40000
C  34.20800 3.31100 34.94800
C  35.73800 3.74700 34.93900
C  36.16800 3.20600 33.53400
C  36.26300 5.16100 35.14700
C  33.96900 1.97100 35.65500
C  33.77400 1.94200 37.16500
H  34.60500 3.00700 37.92200
N  37.37000 2.39100 30.72800
C  38.13100 2.51700 31.94600
C  39.50100 2.26200 31.65500
C  39.50200 1.81700 30.28700
C  38.21600 2.06700 29.68800
C  40.63300 2.20200 32.66300
C  40.64000 1.27300 29.48900
O  40.48600 0.68800 28.41500
C  42.03300 1.25500 30.08000
N  35.46900 2.30500 28.42500
C  36.58100 2.02900 27.75500
C  36.40100 1.71300 26.28000
C  34.84500 1.66300 26.20100
C  34.45100 2.17900 27.57900
C  37.13100 2.72900 25.41400
C  34.17200 0.31700 25.83000
C  33.25100 0.31100 24.60500
N  33.31100 2.90100 30.25100
C  32.55000 2.90400 29.13100
C  31.21000 3.21100 29.44200
C  31.16000 3.40900 30.86000
C  32.48600 3.11900 31.27700
C  30.15700 3.32100 28.37500
C  30.35500 3.72100 32.04400
O  29.15300 3.91700 32.14600
C  31.30300 3.65800 33.30200
C  31.32000 4.84100 34.14400
O  31.52800 5.95100 33.69200
O  30.94400 4.57300 35.43400
C  30.85400 5.69400 36.43100
H  38.24300 2.99600 34.03500
H  38.62500 1.97300 27.59500
H  32.47700 2.34500 26.99200
H  33.51700 4.04000 35.37100
H  36.13600 3.07800 35.70200
H  37.05400 5.26400 35.89100
H  35.48800 5.91100 35.30400
H  36.71800 5.57800 34.24900
H  34.73700 1.24800 35.37900
H  32.99400 1.67900 35.26500
H  34.17400 0.97900 37.48300
H  32.71900 2.07100 37.40600
H  40.19400 2.72200 33.51400
H  41.44500 2.83900 32.31300
H  40.93300 1.18600 32.92000
H  42.03300 0.63300 30.97600
H  42.37900 2.27100 30.27000
H  42.70500 0.81000 29.34800
H  36.86400 0.72600 26.28100
H  34.65600 2.38100 25.40300
H  36.45600 2.81600 24.56300
H  38.15900 2.50700 25.12700
H  37.21500 3.70400 25.89400
H  33.80400 -0.06300 26.78300
H  34.95500 -0.36800 25.50700
H  33.71500 -0.26900 23.80700
H  32.82100 1.23900 24.22900
H  32.36100 -0.27400 24.83500
H  29.36700 2.60400 28.59600
H  30.48400 2.88700 27.43100
H  29.94400 4.38900 28.31400
H  31.02100 2.83000 33.95300
H  31.50400 5.50100 37.28400
H  29.88500 5.80400 36.91900
H  31.09500 6.67200 36.01400
Mg 0.88100 44.02200 23.92600
C  2.73400 43.77400 26.89700
C  -2.00800 43.64000 25.90400
C  -0.89400 43.90200 21.14200
C  3.87200 43.75400 22.07200
N  0.40800 43.83000 26.24900
C  1.37900 43.75300 27.22200
C  0.66600 43.50500 28.58800
C  -0.83800 43.43600 28.23200
C  -0.83500 43.61400 26.74000
C  -1.55900 42.14000 28.80100
C  0.88100 44.52900 29.75700
C  1.38200 44.03300 31.07600
H  1.04500 42.61500 31.63900
N  -1.17200 43.86700 23.57900
C  -2.17300 43.83400 24.49200
C  -3.44800 43.94600 23.79900
C  -3.17700 44.12900 22.43400
C  -1.69100 44.02000 22.32600
C  -4.87700 43.80800 24.42100
C  -4.03100 44.33900 21.29700
O  -3.62900 44.44900 20.15100
C  -5.55200 44.60800 21.46200
N  1.41900 43.88400 21.91100
C  0.50100 43.79900 20.95700
C  1.13000 43.68300 19.62000
C  2.63700 44.01900 19.84700
C  2.65400 43.84800 21.35700
C  0.86300 42.23100 19.13900
C  3.11100 45.51100 19.45000
C  3.97500 45.52700 18.11000
N  2.89800 43.87800 24.33300
C  4.02200 43.83400 23.49300
C  5.22300 43.83800 24.29400
C  4.75300 43.86600 25.59100
C  3.36300 43.85900 25.58700
C  6.67400 43.63000 23.73200
C  5.10700 43.77700 26.98000
O  6.20800 43.76600 27.49700
C  3.82600 43.71500 27.89100
C  3.93300 42.35900 28.56200
O  3.75000 41.24500 28.00800
O  4.20300 42.57600 29.89000
C  4.65300 41.45900 30.61200
H  -2.95300 43.59500 26.45000
H  -1.44200 43.77700 20.20600
H  4.75900 43.70900 21.43700
H  1.13100 42.57200 28.90400
H  -1.39300 44.29500 28.60800
H  -0.96700 41.61700 29.55200
H  -1.64100 41.41500 27.99000
H  -2.52000 42.30700 29.28700
H  0.06700 45.23000 29.94100
H  1.64900 45.16000 29.31000
H  0.92600 44.76300 31.74500
H  2.41300 44.35100 31.22500
H  -5.70500 44.47500 24.18100
H  -4.77400 43.93200 25.49900
H  -5.19300 42.78200 24.23000
H  -6.04900 43.65600 21.64900
H  -5.91300 44.95100 20.49200
H  -5.69300 45.36600 22.23200
H  0.73200 44.36800 18.87100
H  3.34100 43.29800 19.43200
H  0.15600 41.58700 19.66100
H  1.73800 41.63900 18.87100
H  0.37600 42.28200 18.16500
H  3.74300 45.99200 20.19600
H  2.27300 46.20400 19.37800
H  3.57600 46.22200 17.37200
H  3.91900 44.57200 17.58800
H  5.00200 45.84800 18.28300
H  7.32100 43.78500 24.59500
H  6.83100 44.40900 22.98600
H  6.72700 42.64500 23.26700
H  3.76600 44.47000 28.67400
H  5.70600 41.22100 30.45800
H  4.03200 40.61900 30.29900
H  4.67000 41.57300 31.69500

