158

Mg 1.18200 -1.23400 44.15200
C  4.44800 -0.65600 43.59000
C  0.32500 1.48300 42.21400
C  -2.10100 -2.20100 44.20200
C  2.08500 -4.41300 45.48200
N  2.26500 0.25300 42.99200
C  3.62900 0.30000 42.92900
C  4.05800 1.55600 42.13000
C  2.67700 2.30500 41.93700
C  1.67200 1.30100 42.36000
C  2.51100 3.67100 42.75600
C  4.81600 1.12400 40.79600
C  6.06500 1.92300 40.35500
H  5.86100 2.98500 39.28300
N  -0.61700 -0.37600 43.45500
C  -0.74700 0.73700 42.71300
C  -2.15700 1.08700 42.62700
C  -2.99200 0.08400 43.30800
C  -1.90000 -0.87600 43.74200
C  -2.61700 2.40600 41.92600
C  -4.49100 0.02300 43.38900
O  -5.19100 0.91400 42.97400
C  -5.14400 -1.02000 44.18300
N  0.10600 -3.08300 44.64200
C  -1.21500 -3.22900 44.63600
C  -1.68500 -4.66500 44.90300
C  -0.42800 -5.17100 45.70800
C  0.68100 -4.22500 45.21500
C  -3.04000 -4.95300 45.67400
C  -0.27800 -6.73000 45.65800
C  -0.41400 -7.50200 47.01700
N  2.89400 -2.33600 44.54400
C  3.14800 -3.56000 45.14700
C  4.55400 -3.75900 45.26000
C  5.11200 -2.61000 44.69600
C  4.00800 -1.82600 44.24100
C  5.27500 -4.91100 45.94800
C  6.37800 -1.91900 44.32800
O  7.54700 -2.14600 44.43000
C  5.96700 -0.57900 43.65200
C  6.37100 0.46800 44.52100
O  6.00400 0.42400 45.67000
O  7.36700 1.35300 44.03300
C  7.88300 2.33100 44.99800
H  0.15800 2.43800 41.71200
H  -3.13700 -2.47300 43.98700
H  2.38100 -5.40600 45.82800
H  4.69300 2.21300 42.72400
H  2.59100 2.60500 40.89200
H  2.23000 4.44300 42.03900
H  3.45400 3.83600 43.27500
H  1.69800 3.61700 43.47900
H  4.03700 1.28900 40.05100
H  5.04100 0.05900 40.83800
H  6.80900 1.19700 40.02800
H  6.39800 2.41000 41.27200
H  -2.67600 2.28200 40.84500
H  -1.95000 3.25200 42.09200
H  -3.57700 2.70600 42.34800
H  -5.99700 -0.66000 44.75900
H  -4.51500 -1.17500 45.06000
H  -5.39800 -1.89800 43.59000
H  -1.71200 -5.12100 43.91300
H  -0.70100 -4.97200 46.74400
H  -3.57400 -5.66800 45.04900
H  -3.77800 -4.15100 45.63900
H  -2.78800 -5.33000 46.66500
H  0.75400 -6.91500 45.35900
H  -1.02200 -7.12500 44.96600
H  -1.04000 -8.34900 46.73600
H  -1.01000 -6.95800 47.75000
H  0.58500 -7.71200 47.39800
H  6.34200 -4.83100 46.15900
H  5.17200 -5.82400 45.36200
H  4.73600 -5.07500 46.88100
H  6.40500 -0.37100 42.67600
H  8.33900 1.76500 45.81000
H  6.98200 2.86600 45.30000
H  8.60200 2.98300 44.50300
Mg 53.52500 23.09400 44.89500
C  50.95600 25.21500 43.92900
C  51.36400 20.35900 43.98000
C  56.11800 20.87100 44.85000
C  55.55400 25.69100 45.29600
N  51.43000 22.80000 43.84300
C  50.56100 23.86600 43.66700
C  49.16600 23.38400 43.09400
C  49.25900 21.89700 43.59800
C  50.78000 21.63900 43.86900
C  48.56300 21.63000 44.99000
C  49.03400 23.64500 41.63800
C  48.81400 22.46200 40.68600
H  48.45600 22.82500 39.18600
N  53.74000 20.95600 44.45700
C  52.68300 20.03200 44.18200
C  53.28000 18.72400 44.13200
C  54.67600 18.83500 44.25800
C  54.94200 20.28100 44.47900
C  52.44500 17.49600 43.83000
C  55.72700 17.70100 44.04100
O  55.32900 16.60100 43.72400
C  57.23600 17.79700 44.19100
N  55.57900 23.28700 44.80800
C  56.39000 22.19700 45.09500
C  57.71500 22.69300 45.68100
C  57.63100 24.23400 45.68700
C  56.17800 24.44100 45.23000
C  58.09000 22.09500 47.06600
C  58.51300 24.95800 44.67900
C  59.46800 26.10400 45.05900
N  53.34600 25.06800 44.77400
C  54.23300 26.11000 45.04300
C  53.59200 27.43700 45.01800
C  52.26900 27.08200 44.60600
C  52.12800 25.64100 44.46400
C  54.20000 28.85500 45.25900
C  50.99600 27.65900 44.32300
O  50.60600 28.81100 44.50100
C  50.16000 26.54200 43.71500
C  49.93600 26.72800 42.25000
O  50.79200 26.62700 41.40600
O  48.63200 26.99600 41.99100
C  48.26200 27.30500 40.56500
H  50.65800 19.55800 43.75200
H  57.04200 20.32300 45.04400
H  56.16200 26.53100 45.63800
H  48.42700 24.02000 43.58200
H  48.76700 21.17900 42.94200
H  47.50200 21.40100 44.89400
H  48.64400 22.52700 45.60400
H  49.11300 20.79500 45.42400
H  49.90800 24.20900 41.31200
H  48.23500 24.38500 41.59300
H  47.90600 21.93800 40.98500
H  49.67600 21.79600 40.71000
H  51.42700 17.70800 44.15800
H  52.81600 16.60400 44.33500
H  52.34900 17.26100 42.77000
H  57.64100 18.53700 43.50100
H  57.54800 16.82000 43.82300
H  57.51300 17.88100 45.24200
H  58.38000 22.37600 44.87800
H  57.75900 24.67600 46.67500
H  58.01000 22.82600 47.87100
H  59.10900 21.72700 47.18300
H  57.42900 21.25900 47.29400
H  57.93800 25.39500 43.86200
H  59.17900 24.19700 44.27300
H  60.48100 25.85800 44.74000
H  59.44800 26.34300 46.12300
H  59.14100 26.98800 44.51100
H  53.84700 29.53700 44.48500
H  55.28700 28.77000 45.26300
H  53.87800 29.10100 46.27100
H  49.14800 26.51000 44.11800
H  47.20900 27.03100 40.63700
H  48.89200 26.75700 39.86400
H  48.42300 28.36300 40.35700

