158

Mg 0.84200 43.05200 25.89000
C  3.19500 43.33000 28.53600
C  -1.39300 42.03500 28.27000
C  -1.13200 42.42000 23.41300
C  3.50800 43.72600 23.61900
N  0.90800 42.92900 28.22800
C  1.93700 43.12000 29.04400
C  1.57800 42.93200 30.55800
C  0.08000 42.56000 30.42800
C  -0.18300 42.41200 28.87800
C  -0.34500 41.32200 31.19900
C  1.80800 44.22700 31.35500
C  1.14200 44.46800 32.72000
H  0.94000 43.11900 33.59000
N  -1.03100 42.39600 25.83100
C  -1.78200 41.93100 26.92900
C  -3.05500 41.34700 26.42100
C  -2.96900 41.43800 24.94500
C  -1.68600 42.12700 24.67200
C  -4.06900 40.74400 27.36100
C  -3.98100 41.02000 23.88100
O  -3.90700 41.27700 22.63100
C  -5.23200 40.21600 24.25800
N  1.19100 42.90000 23.78000
C  0.15000 42.66000 22.96500
C  0.48100 42.72400 21.43900
C  1.92700 43.46100 21.56800
C  2.26400 43.37600 23.07400
C  0.58900 41.33400 20.66400
C  1.86700 44.84900 20.88200
C  1.26200 45.98500 21.65200
N  2.91700 43.53700 25.95100
C  3.89200 43.71000 24.96900
C  5.16600 43.80800 25.62500
C  4.96900 43.63700 26.98900
C  3.61000 43.51300 27.18000
C  6.50300 43.84500 24.83600
C  5.63600 43.49900 28.24000
O  6.86200 43.40800 28.43400
C  4.51600 43.43900 29.36800
C  4.83600 42.30000 30.27100
O  5.21800 41.17300 29.99700
O  4.69800 42.77500 31.56700
C  5.09900 41.95200 32.70300
H  -2.12500 41.64000 28.97700
H  -1.82700 42.24000 22.59100
H  4.37800 44.06200 23.05000
H  2.17700 42.09300 30.91200
H  -0.59700 43.35200 30.74700
H  -1.03000 41.71000 31.95300
H  0.51300 41.01600 31.79800
H  -0.76100 40.54000 30.56300
H  1.50300 45.07000 30.73500
H  2.87400 44.44200 31.42800
H  0.23900 45.04600 32.52400
H  1.69500 45.19600 33.31300
H  -5.08000 40.87600 26.97400
H  -4.03500 41.25600 28.32300
H  -3.93600 39.67000 27.48900
H  -4.94700 39.42200 24.94900
H  -5.46800 39.64100 23.36300
H  -6.01600 40.93400 24.49700
H  -0.31600 43.29000 20.95700
H  2.71800 42.88100 21.09300
H  0.18400 40.55500 21.31100
H  1.59900 41.04200 20.37400
H  0.04700 41.35600 19.71900
H  1.42000 44.78400 19.89000
H  2.89200 45.18900 20.73200
H  0.87000 45.72000 22.63400
H  0.53300 46.38300 20.94600
H  2.04800 46.74000 21.68200
H  6.50000 43.43800 23.82500
H  7.16200 43.17100 25.38400
H  6.89500 44.86200 24.84900
H  4.56500 44.32300 30.00400
H  6.14300 42.18600 32.91600
H  4.87000 40.89100 32.60200
H  4.43000 42.19800 33.52800
Mg -5.55500 25.94400 26.24900
C  -4.30800 27.60900 29.02400
C  -7.00000 23.68800 28.29900
C  -6.53600 24.21800 23.38900
C  -3.72500 28.06500 24.13200
N  -5.66300 25.80500 28.35600
C  -5.20300 26.61600 29.33900
C  -5.61000 26.15100 30.73300
C  -6.13200 24.72200 30.46900
C  -6.28200 24.70800 28.90200
C  -5.27900 23.59700 31.08800
C  -6.66600 27.12300 31.27400
C  -6.65700 27.00600 32.83200
H  -6.04700 25.76900 33.65200
N  -6.63300 24.26700 25.93500
C  -7.17900 23.43100 26.90500
C  -7.95600 22.43500 26.31300
C  -7.95000 22.61600 24.92700
C  -6.97300 23.70500 24.66000
C  -8.37100 21.20800 27.11100
C  -8.65900 21.81500 23.87400
O  -8.43500 22.00300 22.70000
C  -9.71200 20.68000 24.09700
N  -5.22000 26.15200 24.07100
C  -5.78300 25.37900 23.09300
C  -5.42100 25.80800 21.68100
C  -4.64300 27.10000 21.90500
C  -4.61200 27.19300 23.40500
C  -4.60900 24.74900 20.89100
C  -5.35900 28.43900 21.32500
C  -5.21500 28.70400 19.72000
N  -4.14000 27.44700 26.46000
C  -3.50400 28.25200 25.57500
C  -2.68600 29.21800 26.29200
C  -2.91500 29.00600 27.63300
C  -3.89400 27.94800 27.68300
C  -1.85800 30.35500 25.65800
C  -2.62500 29.42300 28.98900
O  -1.97500 30.33600 29.46900
C  -3.55900 28.60900 29.93000
C  -2.68400 27.96200 30.82300
O  -1.87400 27.13600 30.52900
O  -2.96000 28.37700 32.14900
C  -2.34400 27.46000 33.13400
H  -7.55600 23.04600 28.98500
H  -6.85400 23.66100 22.50500
H  -3.30700 28.77300 23.41300
H  -4.71600 26.10700 31.35500
H  -7.16900 24.69400 30.80300
H  -5.92700 22.93500 31.66200
H  -4.43600 24.04100 31.61700
H  -4.77800 22.99300 30.33100
H  -7.63200 26.83500 30.85900
H  -6.57300 28.17300 30.99600
H  -7.67000 27.11400 33.22000
H  -6.01500 27.79000 33.23300
H  -8.48700 20.34700 26.45400
H  -9.44200 21.27000 27.29900
H  -7.77400 21.10500 28.01700
H  -10.34100 20.40100 23.25200
H  -10.39500 20.98100 24.89200
H  -9.27000 19.72700 24.38600
H  -6.30800 25.91400 21.05500
H  -3.61400 27.02600 21.55300
H  -4.31000 23.88000 21.47700
H  -3.70900 25.21900 20.49500
H  -5.20000 24.39100 20.04800
H  -4.97500 29.30000 21.87200
H  -6.42700 28.27000 21.46400
H  -4.97200 29.76700 19.70400
H  -6.15500 28.43900 19.23700
H  -4.43100 28.04000 19.35700
H  -2.43700 31.27500 25.74400
H  -1.92700 30.26000 24.57400
H  -0.81000 30.38500 25.95400
H  -4.28500 29.28000 30.38900
H  -2.57500 26.40100 33.02500
H  -2.67700 27.87500 34.08500
H  -1.27600 27.63800 33.00600

