158

Mg 1.47900 42.89700 26.09400
C  3.53400 43.11600 28.91900
C  -0.99100 41.63400 28.39500
C  -0.46600 41.67600 23.54700
C  4.20200 43.09700 23.94900
N  1.29400 42.39900 28.45600
C  2.25700 42.66000 29.34500
C  1.70500 42.50100 30.79900
C  0.23400 41.87100 30.64800
C  0.15200 42.00300 29.08300
C  -0.10900 40.47600 31.30800
C  1.72700 43.84500 31.49100
C  1.84800 43.97000 33.04100
H  1.88400 42.58700 33.80100
N  -0.51900 42.01200 25.96100
C  -1.32500 41.61100 27.02600
C  -2.58800 41.17100 26.48000
C  -2.51600 41.13800 25.04800
C  -1.12500 41.62000 24.74300
C  -3.79900 40.86200 27.30500
C  -3.47200 40.63100 24.02100
O  -3.30100 40.62900 22.81300
C  -4.65600 39.99600 24.52800
N  1.77200 42.57600 24.07100
C  0.81500 42.11500 23.25100
C  1.31000 42.13200 21.77800
C  2.74000 42.82200 21.83100
C  2.96800 42.76600 23.35400
C  1.18500 40.71800 21.02800
C  2.77700 44.35500 21.24200
C  2.51500 45.62200 22.08800
N  3.46500 43.19400 26.31900
C  4.42500 43.33000 25.36700
C  5.68800 43.76800 25.99000
C  5.41200 43.62500 27.37200
C  4.02300 43.25800 27.54100
C  6.99100 43.83300 25.32200
C  6.04300 43.62500 28.61400
O  7.21300 43.71400 28.90700
C  4.89200 43.36300 29.69600
C  5.31500 42.26200 30.55200
O  5.26600 41.06400 30.32400
O  5.65100 42.81300 31.73600
C  6.09900 41.94600 32.83000
H  -1.74300 41.35800 29.13700
H  -0.98000 41.42200 22.61800
H  4.94100 43.39500 23.20300
H  2.36500 41.81600 31.33100
H  -0.53000 42.49000 31.11700
H  0.87500 40.15900 31.65300
H  -0.55300 39.72600 30.65300
H  -0.71500 40.54700 32.21100
H  0.82100 44.42800 31.32400
H  2.57000 44.41500 31.10100
H  1.00200 44.51500 33.45800
H  2.76900 44.52300 33.22300
H  -4.71300 41.30000 26.90600
H  -3.65500 41.36000 28.26400
H  -3.82400 39.78200 27.45300
H  -4.94600 39.34900 23.70100
H  -5.42200 40.76000 24.66000
H  -4.57800 39.35900 25.40900
H  0.60100 42.73200 21.20700
H  3.49400 42.16100 21.40300
H  2.09100 40.11100 21.02900
H  0.91900 40.93400 19.99400
H  0.35200 40.14500 21.43500
H  1.94900 44.40700 20.53600
H  3.74300 44.49900 20.75900
H  1.95000 46.36500 21.52600
H  3.44200 46.04900 22.47200
H  1.87000 45.45000 22.95000
H  6.91300 44.38500 24.38500
H  7.36600 42.82500 25.14600
H  7.72900 44.28400 25.98500
H  4.76400 44.23600 30.33600
H  5.36500 42.10800 33.61900
H  7.03900 42.38200 33.17000
H  6.13900 40.89800 32.53100
Mg -1.97100 34.67500 26.12000
C  -3.73500 32.49800 28.42700
C  -0.60800 36.26900 28.80800
C  -0.58900 36.77700 23.92300
C  -3.86300 33.16200 23.54000
N  -2.18700 34.38400 28.42600
C  -2.86800 33.42800 29.08900
C  -2.61000 33.46900 30.61900
C  -1.68900 34.73500 30.75800
C  -1.50700 35.24100 29.25500
C  -2.05300 35.75000 31.84100
C  -1.97200 32.10900 31.09700
C  -2.63300 31.60100 32.40900
H  -1.83500 31.76100 33.69500
N  -0.72900 36.22100 26.32200
C  -0.27100 36.70600 27.50100
C  0.71600 37.67500 27.20200
C  0.81500 37.83700 25.77300
C  -0.16100 36.87900 25.26700
C  1.52100 38.44700 28.29300
C  1.70300 38.76100 24.89600
O  1.57400 38.82200 23.69300
C  2.76600 39.42700 25.51600
N  -2.31100 34.99600 24.04300
C  -1.58700 35.92900 23.32300
C  -1.77600 35.82600 21.82600
C  -2.49300 34.47800 21.79200
C  -2.89900 34.16100 23.22400
C  -2.48000 37.03000 21.12100
C  -1.72500 33.38800 21.12100
C  -0.50900 32.68400 21.74900
N  -3.42200 33.21600 25.97400
C  -4.01700 32.64900 24.86700
C  -4.81700 31.54700 25.24200
C  -4.76700 31.44900 26.66200
C  -3.86500 32.52300 27.02100
C  -5.66500 30.63600 24.30800
C  -5.21500 30.76800 27.84400
O  -5.94600 29.78200 28.00600
C  -4.60900 31.46500 29.07000
C  -5.66000 32.08600 30.05000
O  -6.31700 33.05800 29.77800
O  -5.58300 31.43500 31.25600
C  -6.49500 31.75800 32.37400
H  -0.16600 36.70000 29.70900
H  0.02200 37.22400 23.13600
H  -4.30300 32.75500 22.62700
H  -3.60900 33.67200 31.00400
H  -0.65300 34.51200 31.01600
H  -2.66200 36.58400 31.49400
H  -1.10800 36.07400 32.27800
H  -2.57500 35.24200 32.65200
H  -0.91700 32.23700 31.33800
H  -2.03000 31.34200 30.32500
H  -2.87600 30.54600 32.28400
H  -3.55000 32.15500 32.61200
H  1.36200 39.52300 28.22700
H  2.58300 38.23900 28.16100
H  1.35000 38.13200 29.32200
H  3.44800 39.71200 24.71500
H  3.25400 38.75700 26.22400
H  2.38300 40.28400 26.06900
H  -0.84100 35.77500 21.26800
H  -3.46200 34.69800 21.34500
H  -3.45600 37.11900 21.59700
H  -2.55900 37.03600 20.03400
H  -1.81300 37.85500 21.37300
H  -1.31700 33.76100 20.18100
H  -2.39300 32.56500 20.87000
H  -0.47700 33.04400 22.77700
H  0.41500 32.71700 21.17100
H  -0.64700 31.60300 21.77800
H  -5.51700 29.58800 24.56800
H  -5.47500 30.75900 23.24200
H  -6.71000 30.86800 24.51300
H  -4.13000 30.66100 29.62900
H  -5.94900 32.22800 33.19300
H  -6.94800 30.84700 32.76400
H  -7.18900 32.57800 32.18700

