158

Mg 16.74900 -1.87500 27.92200
C  15.81200 0.08400 30.71200
C  19.28200 -3.16600 29.89500
C  18.17000 -3.20300 25.18600
C  14.56500 0.05900 25.87900
N  17.46500 -1.48500 30.00500
C  16.85800 -0.80200 30.98700
C  17.28000 -1.18000 32.45700
C  18.59400 -2.01600 32.12000
C  18.50100 -2.21100 30.58000
C  19.85500 -1.27600 32.45400
C  16.14000 -1.73500 33.35900
C  16.07200 -1.17200 34.72300
H  17.31600 -0.46500 35.41100
N  18.35600 -3.06600 27.61100
C  19.20500 -3.62500 28.57000
C  20.14000 -4.57500 27.90400
C  19.80800 -4.57400 26.55600
C  18.73800 -3.58800 26.42900
C  21.19800 -5.34300 28.67700
C  20.46700 -5.27800 25.38500
O  20.16800 -5.09500 24.24400
C  21.56500 -6.31000 25.69700
N  16.41700 -1.56500 25.83100
C  17.10400 -2.33100 24.89300
C  16.68300 -1.93200 23.45300
C  15.33100 -1.10000 23.72600
C  15.41500 -0.86500 25.24700
C  17.66100 -1.16800 22.50600
C  14.00900 -1.87800 23.45500
C  13.57400 -1.72100 21.99900
N  15.39900 -0.34000 28.19400
C  14.60600 0.37700 27.26400
C  13.84800 1.39600 27.98300
C  14.28900 1.30300 29.32800
C  15.24600 0.27400 29.40600
C  12.83100 2.34700 27.43900
C  14.02200 1.86600 30.63600
O  13.16700 2.73600 31.00300
C  15.02500 1.03700 31.63800
C  15.81300 1.98900 32.44900
O  16.91800 2.53000 32.14100
O  15.14700 2.28300 33.62300
C  15.73400 3.25800 34.51700
H  20.11800 -3.56100 30.47600
H  18.37700 -3.70500 24.23900
H  13.99800 0.76000 25.26400
H  17.57200 -0.21700 32.87800
H  18.59800 -3.01100 32.56500
H  19.57900 -0.68700 33.32900
H  20.13000 -0.60400 31.64100
H  20.67500 -1.93800 32.73400
H  16.32700 -2.80700 33.42800
H  15.18900 -1.69800 32.82800
H  15.77100 -2.01300 35.34800
H  15.16300 -0.57700 34.80300
H  20.89600 -6.38800 28.60200
H  21.12300 -5.34900 29.76500
H  22.17300 -5.04500 28.29200
H  21.32800 -6.88500 26.59300
H  22.44500 -5.67300 25.78000
H  21.57200 -6.93600 24.80500
H  16.35400 -2.87500 23.01600
H  15.31800 -0.14900 23.19300
H  17.99300 -1.70100 21.61600
H  18.55600 -1.07600 23.12100
H  17.25800 -0.18700 22.25100
H  13.28400 -1.69400 24.24800
H  14.28100 -2.93200 23.50200
H  12.49900 -1.56300 21.91500
H  13.70500 -2.64900 21.44100
H  14.01800 -0.81000 21.59700
H  12.84400 3.25500 28.04200
H  11.89400 1.81300 27.59400
H  13.14900 2.62700 26.43400
H  14.34600 0.38200 32.18400
H  15.48300 4.25800 34.16400
H  16.79000 3.11900 34.74700
H  15.18800 3.03200 35.43300
Mg 24.91500 1.29400 29.40000
C  27.15900 0.93900 32.13100
C  22.31500 1.23400 31.58600
C  23.10300 1.84000 26.69900
C  27.70500 1.15100 27.20200
N  24.77300 0.92100 31.65700
C  25.81300 1.05200 32.56800
C  25.24200 1.16300 33.98800
C  23.71500 1.12300 33.83300
C  23.54700 1.07500 32.24000
C  22.96100 -0.04800 34.57000
C  25.66100 2.46600 34.72400
C  26.09000 2.35900 36.21700
H  25.84200 3.55300 37.14300
N  23.01600 1.37900 29.17300
C  22.07800 1.39400 30.17400
C  20.81900 1.67900 29.60200
C  20.98300 1.70300 28.17300
C  22.42500 1.66700 27.95700
C  19.50700 1.92200 30.35600
C  19.95300 1.93600 27.05300
O  20.20100 1.83000 25.87400
C  18.53300 2.26000 27.43400
N  25.28200 1.29000 27.15200
C  24.37900 1.68800 26.35500
C  24.91400 2.02200 24.95700
C  26.46800 1.94500 25.14900
C  26.53000 1.48200 26.62700
C  24.39000 1.06600 23.86500
C  27.36800 3.23500 24.86600
C  26.98800 4.57400 25.39700
N  26.97100 0.87100 29.56200
C  27.94200 0.92300 28.60300
C  29.13200 0.47900 29.21000
C  28.91400 0.53700 30.63100
C  27.56200 0.80200 30.76100
C  30.45700 0.21300 28.46800
C  29.54800 0.49400 31.92900
O  30.71900 0.28200 32.13200
C  28.40900 0.73100 32.96200
C  28.43900 -0.30000 33.98200
O  28.16700 -1.50800 33.72200
O  28.96500 0.13200 35.12100
C  29.11800 -0.72600 36.29000
H  21.56500 1.39500 32.36400
H  22.46300 1.90600 25.81700
H  28.62800 1.10900 26.62000
H  25.66800 0.32000 34.53200
H  23.28400 2.08100 34.12200
H  23.67100 -0.75500 34.99900
H  22.24000 -0.60600 33.97200
H  22.27200 0.37100 35.30400
H  24.78500 3.11400 34.75000
H  26.49500 3.01500 34.28700
H  27.15700 2.14900 36.29600
H  25.51000 1.55900 36.67600
H  19.13400 2.88800 30.01600
H  19.61300 2.04700 31.43300
H  18.75200 1.15600 30.18100
H  17.98700 1.49200 27.98100
H  17.93000 2.43500 26.54300
H  18.48500 3.23400 27.92200
H  24.70700 3.07300 24.75600
H  26.98200 1.20300 24.53800
H  23.69700 0.30400 24.22200
H  25.20400 0.56300 23.34200
H  23.89200 1.65300 23.09300
H  27.49200 3.26400 23.78400
H  28.39900 3.15300 25.21300
H  26.85300 5.30300 24.59900
H  27.71200 4.97900 26.10500
H  26.16400 4.55500 26.11000
H  31.11000 1.08500 28.48800
H  30.37400 -0.15600 27.44600
H  31.06100 -0.58500 28.89900
H  28.71000 1.67100 33.42400
H  29.93500 -0.32000 36.88600
H  29.24700 -1.79900 36.14800
H  28.27500 -0.54900 36.95800

