158

Mg 45.46800 5.48200 48.69000
C  43.36100 8.12800 47.79400
C  42.97900 3.32200 47.95200
C  47.88300 3.01600 48.42800
C  48.20400 7.79600 48.66800
N  43.37900 5.76900 48.16500
C  42.70900 6.91500 47.69500
C  41.30200 6.56100 47.18700
C  41.06700 5.12500 47.79600
C  42.55000 4.65800 48.01300
C  40.11800 4.96900 49.17300
C  41.23400 6.78700 45.67600
C  39.90600 7.40400 45.15100
H  39.29700 6.73400 43.92300
N  45.43700 3.45200 48.35000
C  44.24000 2.77000 48.12600
C  44.51900 1.40200 47.93800
C  45.93800 1.24700 47.92000
C  46.49800 2.57800 48.31200
C  43.44300 0.40000 47.56700
C  46.75200 0.00300 47.72300
O  46.18100 -1.02000 47.41400
C  48.26700 -0.02000 47.84800
N  47.76900 5.42500 48.60400
C  48.44400 4.26800 48.56100
C  49.92200 4.44000 48.78600
C  50.06300 5.99300 48.71200
C  48.60500 6.43500 48.73200
C  50.51400 3.74800 50.12500
C  50.98700 6.44200 47.49700
C  52.12400 7.34800 47.94800
N  45.73800 7.56300 48.45600
C  46.87000 8.34500 48.47200
C  46.53300 9.71500 48.30300
C  45.17500 9.70200 48.09500
C  44.71700 8.32600 48.14000
C  47.41900 10.95200 48.22000
C  43.96600 10.54900 47.70400
O  43.81300 11.77200 47.55700
C  42.80600 9.54100 47.55800
C  41.69200 9.99100 48.56700
O  41.52900 9.52400 49.65100
O  40.92100 10.97600 48.00100
C  39.81800 11.50600 48.88200
H  42.08700 2.69500 47.99900
H  48.67000 2.26600 48.52500
H  48.94300 8.58800 48.52400
H  40.54200 7.23300 47.58600
H  40.65600 4.45200 47.04400
H  39.99900 5.95300 49.62500
H  40.54100 4.33900 49.95600
H  39.13900 4.60300 48.86500
H  41.19100 5.82200 45.17200
H  42.08500 7.37800 45.33700
H  40.08900 8.46600 44.99100
H  39.12700 7.36800 45.91300
H  43.70400 -0.21800 46.70800
H  42.50100 0.89600 47.33500
H  43.31900 -0.33200 48.36500
H  48.79600 0.57300 47.10200
H  48.51800 -1.04000 47.55900
H  48.58200 0.18800 48.87100
H  50.38700 4.00200 47.90300
H  50.57800 6.35700 49.60100
H  49.78900 3.72900 50.93900
H  51.38000 4.26200 50.54300
H  50.74000 2.70800 49.89000
H  50.33900 6.96300 46.79300
H  51.47300 5.58700 47.02900
H  52.20800 8.12900 47.19300
H  53.08000 6.83400 48.05100
H  51.85900 7.84800 48.88000
H  48.35800 10.62800 47.77100
H  47.54000 11.45700 49.17900
H  47.10700 11.71300 47.50500
H  42.43600 9.52200 46.53300
H  39.06000 11.92400 48.22000
H  40.32500 12.24700 49.50000
H  39.33900 10.79700 49.55700
Mg 6.33000 54.13900 41.31600
C  5.93800 50.55200 41.00300
C  9.39700 54.03100 39.97300
C  6.28400 57.47800 41.27400
C  2.94000 54.13100 42.44700
N  7.41200 52.44100 40.55100
C  7.14400 51.07600 40.48400
C  8.38700 50.30500 39.93100
C  9.54000 51.40000 39.90400
C  8.74500 52.72000 40.17400
C  10.71200 51.25200 40.92600
C  8.21600 49.58800 38.54400
C  7.50000 50.34100 37.37600
H  6.81800 49.53300 36.19100
N  7.71400 55.62600 40.72600
C  8.94500 55.38300 40.18500
C  9.59700 56.58600 39.98900
C  8.70200 57.60400 40.31700
C  7.48900 56.91100 40.80500
C  11.00700 56.60100 39.44200
C  8.93500 59.12500 40.17600
O  9.98700 59.60800 39.70500
C  7.86800 60.22300 40.37500
N  4.71500 55.59200 41.66300
C  5.04200 56.90400 41.69500
C  3.81200 57.78600 41.94100
C  2.67900 56.64800 42.12500
C  3.49000 55.39600 42.09900
C  3.97500 58.77500 43.16400
C  1.59500 56.79900 41.00300
C  0.38000 57.59500 41.43500
N  4.71300 52.66800 41.60000
C  3.50600 52.82300 42.19500
C  2.95300 51.50900 42.59900
C  3.85600 50.54900 42.01200
C  4.90200 51.37400 41.43300
C  1.68900 51.26800 43.40400
C  4.17100 49.14500 41.89800
O  3.52000 48.22600 42.42100
C  5.55400 49.09700 41.21100
C  5.43300 48.17100 40.00600
O  4.88800 48.47500 38.89900
O  5.90200 46.89800 40.26700
C  5.50400 45.97000 39.21100
H  10.42600 54.01700 39.60900
H  6.29200 58.55300 41.46500
H  1.89700 54.06500 42.76300
H  8.66000 49.56800 40.68700
H  9.98500 51.40900 38.90900
H  11.70500 51.26600 40.47600
H  10.60400 50.24500 41.32800
H  10.63000 52.11200 41.59100
H  7.88000 48.56900 38.73700
H  9.20400 49.40000 38.12500
H  8.19800 51.04600 36.92500
H  6.73500 50.94000 37.87000
H  11.67300 56.08800 40.13600
H  11.28500 57.65000 39.34000
H  11.12500 56.20500 38.43400
H  8.21400 61.17000 39.96300
H  7.54000 60.27700 41.41300
H  7.03300 59.98400 39.71500
H  3.52700 58.36300 41.06100
H  2.24200 56.88000 43.09600
H  3.73900 59.82900 43.01200
H  5.03900 58.81400 43.39700
H  3.50800 58.56900 44.12700
H  1.28400 55.80900 40.66800
H  2.01600 57.33800 40.15400
H  0.15300 58.31400 40.64800
H  0.58800 58.18800 42.32500
H  -0.50000 56.97400 41.60400
H  1.71900 51.87100 44.31100
H  1.77700 50.26500 43.82300
H  0.78000 51.41200 42.82100
H  6.34100 48.60600 41.78400
H  4.41900 45.98900 39.10900
H  5.68400 44.93400 39.49900
H  5.97500 46.08000 38.23400

