158

Mg 1.36700 -1.90100 45.19500
C  4.81900 -0.53800 44.45800
C  0.18800 0.80600 43.39000
C  -1.61600 -3.28400 45.37200
C  3.08100 -4.80800 46.17800
N  2.38900 -0.12300 43.93800
C  3.74400 0.29000 43.92000
C  3.81700 1.62300 43.20800
C  2.38600 2.19200 43.23900
C  1.56500 0.92600 43.54300
C  2.23500 3.39600 44.15800
C  4.41300 1.59300 41.75800
C  5.56200 2.58000 41.50100
H  6.91100 2.03300 40.95100
N  -0.42600 -1.31700 44.54300
C  -0.71200 -0.23400 43.78100
C  -2.17700 -0.04200 43.67200
C  -2.70200 -1.15500 44.31900
C  -1.55700 -2.01000 44.76600
C  -2.83800 1.19400 42.90500
C  -4.21700 -1.42400 44.55800
O  -5.07000 -0.76000 44.07200
C  -4.77300 -2.54900 45.47200
N  0.79900 -3.78400 45.55100
C  -0.49300 -4.18600 45.61900
C  -0.65500 -5.60400 46.27900
C  0.83200 -6.03700 46.32800
C  1.61900 -4.79800 46.00400
C  -1.40900 -5.78100 47.62200
C  1.15100 -7.18700 45.37400
C  1.38200 -8.60600 45.98000
N  3.38900 -2.46700 45.49000
C  3.91100 -3.72700 45.90200
C  5.37400 -3.63500 46.01100
C  5.67700 -2.33800 45.41600
C  4.49500 -1.71500 45.10600
C  6.24700 -4.83500 46.38200
C  6.88000 -1.59800 45.04000
O  8.09000 -1.74200 45.09200
C  6.33700 -0.26500 44.45600
C  6.80100 0.96400 45.25000
O  6.98100 1.06500 46.45900
O  6.91200 2.01700 44.41200
C  7.45100 3.23600 45.07000
H  -0.25000 1.61800 42.80600
H  -2.60000 -3.72300 45.55400
H  3.62800 -5.55200 46.76000
H  4.34400 2.38500 43.78300
H  2.05300 2.49600 42.24700
H  1.72400 4.19600 43.62400
H  3.17300 3.81900 44.51700
H  1.78600 3.08100 45.10100
H  3.68200 1.94500 41.02900
H  4.75000 0.58700 41.51000
H  5.92700 2.99300 42.44200
H  5.22400 3.48200 40.99000
H  -2.63500 2.03700 43.56600
H  -3.92300 1.09700 42.94100
H  -2.48100 1.45100 41.90800
H  -4.21500 -2.60400 46.40700
H  -4.76900 -3.43400 44.83600
H  -5.81900 -2.31000 45.66100
H  -1.15300 -6.26800 45.57300
H  1.10100 -6.41600 47.31400
H  -0.71200 -6.21600 48.33900
H  -2.31000 -6.34100 47.37200
H  -1.67000 -4.77500 47.95000
H  2.01100 -6.95000 44.74700
H  0.36700 -7.38400 44.64200
H  0.89600 -9.39800 45.41000
H  1.01700 -8.69000 47.00400
H  2.46200 -8.74100 45.92700
H  6.47600 -5.43000 45.49800
H  5.80700 -5.47600 47.14600
H  7.16000 -4.33200 46.70100
H  6.72300 -0.20900 43.43900
H  8.53700 3.14400 45.07100
H  7.13700 3.46900 46.08800
H  7.35200 4.12200 44.44300
Mg 26.38000 50.05400 26.20600
C  24.47100 51.02700 28.91000
C  28.59800 48.72100 28.47100
C  28.44000 49.31300 23.55100
C  24.31400 51.72200 24.02700
N  26.50900 49.83400 28.40300
C  25.58600 50.29400 29.28600
C  25.91300 49.92800 30.75200
C  27.32200 49.31500 30.59000
C  27.53200 49.32100 29.05800
C  28.37200 50.06500 31.54700
C  24.86900 48.94100 31.26800
C  24.53300 48.95100 32.74700
H  25.36300 49.60500 33.87200
N  28.22800 49.13300 26.02300
C  28.99900 48.66700 27.08700
C  30.17400 48.01500 26.53400
C  30.14700 48.13700 25.09300
C  28.88800 48.84300 24.80400
C  31.23100 47.38300 27.44800
C  31.18900 47.65200 24.08300
O  31.08000 47.81000 22.90000
C  32.50500 47.08400 24.57900
N  26.35700 50.40300 24.11500
C  27.29900 49.99000 23.19600
C  26.93200 50.36600 21.73000
C  25.48700 50.94800 21.90300
C  25.40100 51.08100 23.45200
C  27.99400 51.34500 21.02600
C  24.33300 50.00600 21.48700
C  23.14400 50.67100 20.78000
N  24.76700 51.16400 26.39800
C  24.03400 51.78700 25.41200
C  22.92800 52.43500 25.99000
C  23.09700 52.19100 27.38900
C  24.21300 51.47100 27.58800
C  21.94200 53.28000 25.18400
C  22.53000 52.61300 28.66500
O  21.54500 53.31800 28.89000
C  23.48300 51.89500 29.73800
C  24.01600 52.92100 30.62600
O  25.04600 53.60000 30.33100
O  23.29500 53.03400 31.77700
C  23.62000 54.13300 32.71600
H  29.27300 48.20100 29.15300
H  29.04400 49.16500 22.65400
H  23.71000 52.28100 23.31000
H  25.94200 50.89400 31.25600
H  27.26900 48.28800 30.95000
H  29.12100 50.33900 30.80300
H  28.90000 49.38300 32.21400
H  27.94500 50.94000 32.03600
H  25.21600 47.92200 31.09800
H  23.89800 48.96500 30.77300
H  24.50100 47.95800 33.19700
H  23.50900 49.29300 32.89900
H  32.13100 47.99500 27.38900
H  31.51800 46.42700 27.00900
H  30.81100 47.28000 28.44900
H  33.18600 46.94200 23.74000
H  32.39400 46.15600 25.13900
H  32.87200 47.89300 25.21000
H  26.88800 49.40900 21.21000
H  25.52800 51.92400 21.42000
H  28.85800 51.66500 21.60800
H  27.43800 52.17300 20.58700
H  28.35400 50.72700 20.20300
H  23.85100 49.58600 22.37000
H  24.75400 49.21900 20.86100
H  23.24600 51.73900 20.58600
H  22.26800 50.43900 21.38700
H  23.11800 50.10400 19.84900
H  21.42300 52.50200 24.62500
H  22.39800 54.02400 24.53000
H  21.25200 53.84100 25.81400
H  22.91000 51.25400 30.40800
H  23.85200 55.02800 32.13900
H  24.46200 53.70900 33.26400
H  22.82800 54.36600 33.42900

