158

Mg 2.79300 -1.31300 43.87800
C  6.08300 -0.40900 43.31600
C  1.83100 1.42100 42.13800
C  -0.22000 -2.72100 43.74800
C  3.92200 -4.37300 45.45800
N  3.86500 0.39200 42.98900
C  5.22400 0.59200 42.88600
C  5.60100 1.90100 42.19300
C  4.16400 2.50700 41.83100
C  3.15900 1.48400 42.50300
C  3.84100 3.99100 42.10900
C  6.41800 1.59000 40.85400
C  7.32900 2.68200 40.34900
H  7.27500 3.02700 38.86300
N  0.99700 -0.65400 43.03800
C  0.79600 0.48200 42.31800
C  -0.64000 0.53100 41.99100
C  -1.26300 -0.58800 42.60500
C  -0.16400 -1.41400 43.12000
C  -1.20800 1.72200 41.14600
C  -2.74100 -0.87400 42.46700
O  -3.46600 -0.02800 41.95600
C  -3.45200 -2.03900 42.94600
N  2.00900 -3.40000 44.44900
C  0.69500 -3.58800 44.37700
C  0.24300 -4.98400 45.03500
C  1.59900 -5.42800 45.60400
C  2.53900 -4.32400 45.26200
C  -0.92000 -4.83000 46.07000
C  2.23600 -6.88000 45.18100
C  2.83800 -7.71100 46.29100
N  4.63500 -2.32500 44.31600
C  4.97400 -3.53600 45.01100
C  6.42400 -3.65300 45.00800
C  6.89600 -2.45800 44.38400
C  5.76200 -1.68200 43.99600
C  7.22200 -4.72500 45.60700
C  8.15600 -1.72900 43.98200
O  9.34900 -1.93700 44.20500
C  7.64500 -0.38600 43.28500
C  8.28500 0.78500 43.97300
O  8.19300 0.96300 45.16600
O  8.99600 1.66600 43.11500
C  9.54300 2.77900 43.87700
H  1.48500 2.17400 41.42600
H  -1.19900 -3.20400 43.74200
H  4.25200 -5.18200 46.11300
H  6.16800 2.50100 42.90500
H  3.91500 2.34900 40.78200
H  3.07400 4.00100 42.88300
H  3.45900 4.36700 41.15900
H  4.72800 4.54800 42.41100
H  5.64400 1.62700 40.08700
H  6.83200 0.58700 40.95200
H  8.35700 2.59500 40.70000
H  6.80900 3.48400 40.87200
H  -1.20000 1.49100 40.08100
H  -0.54500 2.55300 41.38700
H  -2.23800 2.02200 41.33500
H  -4.52300 -1.84900 43.01700
H  -3.06600 -2.15200 43.95900
H  -3.12000 -2.83800 42.28300
H  -0.10600 -5.66900 44.26200
H  1.56700 -5.38700 46.69300
H  -1.78500 -5.34000 45.64500
H  -1.34600 -3.83100 46.16700
H  -0.71900 -5.19700 47.07600
H  2.98900 -6.70500 44.41300
H  1.49800 -7.43700 44.60300
H  2.32600 -8.66500 46.41700
H  2.75000 -7.20800 47.25400
H  3.90800 -7.90300 46.21400
H  7.42400 -5.56600 44.94300
H  6.69700 -5.07200 46.49700
H  8.21200 -4.43300 45.95900
H  7.98200 -0.27400 42.25400
H  10.35400 3.22500 43.30000
H  9.92400 2.47500 44.85300
H  8.74800 3.47100 44.15300
Mg 30.74300 58.44000 40.65100
C  27.97300 56.49500 39.81800
C  32.80900 55.97400 39.48000
C  33.25700 60.69500 40.65700
C  28.43100 61.24100 41.26800
N  30.39200 56.53100 39.62000
C  29.19800 55.87400 39.44100
C  29.40900 54.56800 38.69500
C  30.80400 54.21800 39.16200
C  31.40000 55.62100 39.38100
C  31.04400 53.28600 40.45100
C  29.24700 54.67100 37.16400
C  28.08600 53.81300 36.64400
H  27.24600 54.50500 35.58200
N  32.80000 58.28300 40.28400
C  33.43100 57.20300 39.82900
C  34.84900 57.38500 39.91100
C  35.03300 58.84900 40.14600
C  33.65400 59.34500 40.30500
C  35.97700 56.28400 39.58900
C  36.28600 59.60000 39.99000
O  37.36200 58.97600 39.86700
C  36.39300 61.06600 39.94600
N  30.72500 60.69700 40.82800
C  31.96800 61.35100 40.90000
C  31.76300 62.77600 41.05500
C  30.23000 62.93500 41.27500
C  29.77700 61.59800 41.10700
C  32.53500 63.35500 42.29000
C  29.48300 63.97900 40.32300
C  28.76900 65.11300 41.06000
N  28.63000 58.77500 40.68800
C  27.82100 59.92500 41.00200
C  26.48000 59.47700 40.98000
C  26.48300 58.20400 40.47000
C  27.80300 57.77500 40.33700
C  25.36100 60.37900 41.34800
C  25.67400 57.11600 40.11400
O  24.44500 57.03900 40.07700
C  26.57400 55.95400 39.66500
C  26.31200 54.77200 40.49500
O  26.89800 54.61900 41.53200
O  25.26400 54.04900 40.01400
C  24.79400 52.95100 40.90400
H  33.47400 55.11800 39.34900
H  34.09100 61.40000 40.65100
H  27.69800 61.99700 41.55900
H  28.82200 53.79800 39.19600
H  31.35300 53.73900 38.35000
H  30.17900 52.62300 40.49000
H  31.31300 53.94100 41.27900
H  31.82100 52.56400 40.19700
H  30.11600 54.32700 36.60200
H  29.04800 55.71000 36.90300
H  27.53400 53.54500 37.54400
H  28.46300 52.85400 36.28900
H  35.51100 55.34500 39.88600
H  36.84000 56.32800 40.25400
H  36.18700 56.29200 38.52000
H  36.27900 61.46800 40.95300
H  35.61900 61.53400 39.33900
H  37.41400 61.27100 39.62400
H  32.11600 63.14600 40.09300
H  29.99100 63.21200 42.30100
H  33.52900 62.91700 42.37400
H  31.86300 63.26300 43.14400
H  32.67100 64.43500 42.22700
H  28.86800 63.37400 39.65800
H  30.24700 64.52200 39.76600
H  29.07900 65.13500 42.10500
H  27.68500 65.03900 40.97600
H  29.15700 66.09000 40.77000
H  25.72700 60.93300 42.21200
H  24.47400 59.77100 41.53300
H  25.23700 61.01700 40.47400
H  26.30800 55.67800 38.64500
H  23.94200 53.29400 41.49100
H  25.57400 52.56800 41.56200
H  24.48300 52.23900 40.13800

