158

Mg 26.01700 0.82000 29.19100
C  27.92200 0.58100 32.14000
C  23.25700 0.93200 31.16200
C  24.18700 1.16100 26.32500
C  28.81500 0.13900 27.26200
N  25.72700 0.93800 31.44700
C  26.63300 0.83100 32.49800
C  26.07800 1.15600 33.83600
C  24.52100 1.07600 33.51400
C  24.46000 0.92800 31.95600
C  23.75400 -0.08600 34.16200
C  26.59500 2.50200 34.41400
C  27.13800 2.55500 35.90000
H  26.42200 3.40000 36.88800
N  24.03400 0.98400 28.77100
C  23.03200 0.94600 29.74000
C  21.70700 0.99500 29.12600
C  22.04100 1.23800 27.70100
C  23.51400 1.19000 27.55800
C  20.42000 0.93600 29.92800
C  21.05800 1.25800 26.61000
O  21.38000 1.48600 25.39700
C  19.63400 1.01100 26.90200
N  26.46200 0.52000 27.09600
C  25.55100 0.88900 26.12000
C  26.09300 0.81300 24.72300
C  27.60700 0.41600 25.04500
C  27.64800 0.36300 26.52700
C  25.43500 -0.17200 23.73500
C  28.60100 1.41400 24.29300
C  29.53500 0.76300 23.28600
N  28.00900 0.45100 29.58400
C  29.03900 0.21900 28.68100
C  30.24600 0.09700 29.43200
C  29.85400 0.30300 30.80300
C  28.47500 0.45900 30.82800
C  31.60300 -0.15800 29.00900
C  30.34000 0.33600 32.15300
O  31.46700 0.19600 32.57800
C  29.12600 0.64200 33.03100
C  29.12000 -0.16200 34.24700
O  28.48200 -1.21200 34.38200
O  29.94100 0.45700 35.16700
C  29.96500 -0.21800 36.46600
H  22.33900 0.84500 31.74700
H  23.56300 1.44400 25.47400
H  29.76700 -0.10000 26.78300
H  26.26900 0.30900 34.49500
H  24.05400 2.01900 33.79800
H  23.53900 0.41800 35.10400
H  24.47100 -0.89300 34.31500
H  22.91100 -0.48900 33.60100
H  25.75000 3.18900 34.37500
H  27.42600 2.86300 33.80800
H  28.20000 2.79000 35.97200
H  27.00800 1.50700 36.17200
H  19.65900 1.51200 29.40000
H  20.54800 1.29200 30.95000
H  20.07900 -0.09900 29.92100
H  19.54500 0.11200 27.51200
H  19.13800 0.97300 25.93200
H  19.28100 1.85000 27.50200
H  26.02400 1.80900 24.28500
H  27.93700 -0.55100 24.66600
H  25.08000 0.50300 22.95600
H  24.57900 -0.67800 24.18200
H  26.14400 -0.90400 23.34800
H  29.22300 1.99200 24.97600
H  28.05500 2.23200 23.82400
H  30.59900 0.73100 23.52300
H  29.44000 1.26200 22.32200
H  29.12500 -0.23500 23.13200
H  31.97100 0.84100 28.77400
H  31.55700 -0.80900 28.13700
H  32.00800 -0.49100 29.96400
H  29.27000 1.69000 33.29400
H  29.77300 -1.28800 36.54200
H  29.15100 0.11800 37.10700
H  30.93400 -0.04800 36.93500
Mg 46.20900 24.76900 28.53000
C  46.39700 27.21900 31.10900
C  45.06300 22.51500 30.85500
C  46.21700 22.52600 26.13000
C  48.00900 26.95500 26.48000
N  45.58600 24.93100 30.70300
C  45.83100 25.99600 31.58200
C  45.45500 25.58700 33.00500
C  45.28300 24.01300 32.88400
C  45.37000 23.78400 31.37100
C  46.29500 23.20700 33.73800
C  44.31200 26.42600 33.57500
C  44.71100 27.09100 34.86900
H  45.11700 26.28900 36.20100
N  45.63200 22.90000 28.48900
C  45.12800 22.13900 29.53000
C  44.75200 20.85200 28.96200
C  45.02500 20.82600 27.55800
C  45.64700 22.10000 27.34900
C  44.13200 19.71400 29.77000
C  44.75500 19.82800 26.52100
O  45.03100 19.95500 25.33600
C  43.87700 18.58600 26.87500
N  46.95800 24.79000 26.60500
C  46.84700 23.68500 25.77800
C  47.31500 23.99800 24.27900
C  47.98500 25.41800 24.42600
C  47.56600 25.80700 25.88000
C  48.20000 23.01600 23.46200
C  47.58800 26.49900 23.39200
C  46.08000 26.95400 23.21100
N  47.04600 26.74100 28.67400
C  47.73600 27.45300 27.75500
C  48.13700 28.72600 28.31600
C  47.65500 28.62400 29.63400
C  46.98400 27.40900 29.84300
C  49.04300 29.76700 27.72800
C  47.62900 29.34800 30.92700
O  48.02100 30.45500 31.17400
C  46.86300 28.42200 31.95900
C  47.93200 28.00000 32.86700
O  48.62300 26.94500 32.78100
O  47.94800 28.71600 34.06200
C  48.95400 28.31000 35.06600
H  44.68300 21.97100 31.72300
H  46.17400 21.85700 25.26800
H  48.56200 27.51200 25.72100
H  46.32500 25.69800 33.65400
H  44.29900 23.76200 33.27700
H  47.19100 23.75400 34.03200
H  46.62600 22.54700 32.93600
H  45.84900 22.72200 34.60600
H  43.48700 25.78400 33.88200
H  44.07300 27.20300 32.84800
H  43.84500 27.67400 35.17900
H  45.62400 27.67800 34.76400
H  44.60500 18.73500 29.69200
H  43.05800 19.71300 29.58300
H  44.33800 19.92900 30.81800
H  44.41100 17.91300 27.54600
H  43.59800 18.20200 25.89400
H  42.99000 18.92200 27.41200
H  46.33400 24.12600 23.82000
H  49.06300 25.28400 24.33300
H  49.00500 23.58500 22.99800
H  47.66200 22.36500 22.77300
H  48.78700 22.37500 24.12100
H  47.90000 25.98800 22.48100
H  48.20200 27.38700 23.54000
H  45.64600 26.50600 22.31700
H  46.03800 28.03100 23.04600
H  45.40500 26.64900 24.01000
H  49.95500 29.27000 27.39800
H  49.36400 30.42400 28.53600
H  48.54300 30.25500 26.89100
H  46.06700 28.87300 32.55300
H  48.38600 27.56900 35.62800
H  49.03900 29.24800 35.61500
H  49.88600 27.94200 34.63600

