158

Mg 42.01400 41.39300 26.72300
C  41.58400 43.76300 29.19200
C  43.71500 39.41100 28.99000
C  42.81800 39.26800 24.15200
C  41.67000 43.96100 24.15200
N  42.47600 41.47100 28.92700
C  42.08600 42.55500 29.68300
C  42.33500 42.20100 31.19400
C  43.31300 40.89400 31.14200
C  43.22700 40.58500 29.60100
C  44.71800 41.16400 31.76000
C  40.95000 42.15800 31.99200
C  40.74700 42.90200 33.25800
H  40.23800 42.06300 34.40500
N  42.96600 39.52500 26.55800
C  43.58000 38.91800 27.63600
C  43.93300 37.53600 27.19200
C  43.73100 37.47900 25.77500
C  43.13100 38.80400 25.39900
C  44.42600 36.46200 28.19200
C  44.01000 36.35000 24.83500
O  43.82000 36.40200 23.58100
C  44.79600 35.15200 25.33200
N  42.35300 41.63900 24.44100
C  42.50400 40.51100 23.72400
C  42.25200 40.76100 22.27000
C  42.14700 42.34900 22.21000
C  42.05100 42.69000 23.64400
C  43.25200 40.06600 21.30100
C  40.89900 42.82600 21.30400
C  41.20500 43.97400 20.46200
N  41.48700 43.37500 26.60700
C  41.41400 44.29100 25.56100
C  40.94100 45.60000 26.11900
C  40.97300 45.37200 27.53900
C  41.33400 44.05600 27.82300
C  40.49500 46.86300 25.45500
C  40.73600 46.04900 28.85700
O  40.30900 47.12400 29.24400
C  41.05100 44.97000 29.98100
C  42.17300 45.59700 30.79500
O  43.31400 45.71500 30.50100
O  41.65100 45.86100 32.10600
C  42.58300 46.42200 33.09500
H  44.21700 38.82200 29.76100
H  42.85600 38.48000 23.39700
H  41.63100 44.75600 23.40400
H  42.98000 43.01300 31.53100
H  42.93000 39.99600 31.62800
H  45.35600 40.57200 31.10300
H  44.73800 40.89400 32.81600
H  45.05800 42.19300 31.64600
H  40.79600 41.08100 32.06900
H  40.13400 42.27300 31.28000
H  40.11400 43.76000 33.03300
H  41.66400 43.41000 33.55500
H  45.42800 36.33700 27.78000
H  43.90800 35.50400 28.17200
H  44.47000 36.84800 29.21100
H  44.27400 34.63200 26.13500
H  45.75600 35.53300 25.67800
H  44.97500 34.52800 24.45700
H  41.24900 40.47200 21.95700
H  43.08200 42.76500 21.83500
H  43.03600 38.99700 21.31600
H  44.26600 40.29300 21.63000
H  43.21400 40.57000 20.33600
H  40.02900 43.03300 21.92700
H  40.67400 41.98400 20.64900
H  40.50700 44.68600 20.90200
H  41.03500 43.82400 19.39600
H  42.25100 44.27100 20.52900
H  39.88300 46.57000 24.60200
H  41.30500 47.54500 25.19800
H  39.76500 47.30600 26.13300
H  40.26900 44.67300 30.67900
H  42.08400 47.34900 33.37700
H  43.56600 46.73800 32.74500
H  42.47700 45.79700 33.98200
Mg 9.20000 47.56100 25.24700
C  6.94600 48.23300 27.87100
C  11.67700 49.09000 27.24700
C  11.23600 47.46500 22.65900
C  6.51400 46.88700 23.25900
N  9.35200 48.49500 27.36900
C  8.31700 48.47700 28.31500
C  8.78700 48.91400 29.71900
C  10.27800 49.39000 29.45500
C  10.46500 49.03000 27.97500
C  10.74000 50.79600 29.89100
C  8.54200 47.82300 30.80000
C  9.36000 47.73500 32.04100
H  8.77100 47.05100 33.29700
N  11.15000 48.06100 25.00800
C  12.00200 48.60600 25.95000
C  13.34100 48.66000 25.37400
C  13.25900 48.02500 24.15400
C  11.86300 47.83000 23.86900
C  14.64300 49.16000 26.11400
C  14.37800 47.71100 23.14500
O  14.17000 47.11700 22.10300
C  15.80900 48.17300 23.42000
N  8.95500 47.19300 23.23000
C  9.93200 47.10700 22.33800
C  9.49000 46.57300 20.97600
C  7.96100 46.28600 21.25600
C  7.77300 46.83500 22.63200
C  9.86600 47.54400 19.74300
C  7.49100 44.81400 21.11500
C  7.88700 43.76600 22.18600
N  7.12200 47.36000 25.53300
C  6.16500 47.20900 24.56400
C  4.85500 47.18100 25.19700
C  5.11000 47.52500 26.54300
C  6.52700 47.75700 26.66600
C  3.60100 46.80000 24.47500
C  4.50200 47.77100 27.82700
O  3.33500 47.69200 28.17400
C  5.61600 48.27700 28.71600
C  5.47100 47.42200 29.93900
O  5.96600 46.36400 30.08200
O  4.64500 48.13000 30.84500
C  4.65700 47.49800 32.18200
H  12.45100 49.36100 27.96900
H  11.84800 47.28500 21.77200
H  5.75200 46.74400 22.49000
H  8.24700 49.82300 29.98400
H  10.87500 48.72500 30.08000
H  9.94900 51.38600 30.35300
H  11.07100 51.34200 29.00700
H  11.52000 50.80800 30.65300
H  8.50900 46.83400 30.34200
H  7.61700 48.20100 31.23400
H  9.67700 48.71100 32.40900
H  10.25700 47.14900 31.84200
H  14.38400 49.73100 27.00500
H  15.30800 49.94600 25.75700
H  15.20100 48.27200 26.41100
H  16.07100 49.22500 23.53500
H  16.37400 47.80600 22.56300
H  16.21700 47.65300 24.28700
H  10.05800 45.64600 20.89500
H  7.36800 46.91900 20.59600
H  10.32400 48.41100 20.21900
H  9.01800 47.71600 19.07900
H  10.58900 47.10800 19.05400
H  7.86700 44.58500 20.11800
H  6.40400 44.76900 21.04000
H  8.47400 44.18800 23.00100
H  8.56200 43.01100 21.78300
H  6.94300 43.37100 22.56200
H  3.34300 45.75700 24.65600
H  3.76700 47.14700 23.45600
H  2.75800 47.34600 24.89900
H  5.39600 49.31100 28.98200
H  3.73500 47.80800 32.67400
H  5.53900 47.85400 32.71400
H  4.64000 46.41700 32.04200

