158

Mg 17.06200 -2.72000 29.01500
C  15.93200 -0.50200 31.54700
C  18.75600 -4.45500 31.29300
C  18.33400 -4.50300 26.44300
C  15.53600 -0.60400 26.66100
N  17.39900 -2.45100 31.21100
C  16.77200 -1.50400 32.04600
C  17.14300 -1.76800 33.55100
C  18.21000 -2.99300 33.45100
C  18.08100 -3.38800 31.93600
C  19.72300 -2.72100 33.82000
C  15.92400 -2.07800 34.43400
C  16.06700 -1.67000 35.90400
H  17.47200 -1.21800 36.45200
N  18.25800 -4.33100 28.93000
C  18.82400 -4.97600 29.96400
C  19.40100 -6.17700 29.43600
C  19.22600 -6.23100 28.04700
C  18.58200 -4.94400 27.75300
C  19.94400 -7.26800 30.33200
C  19.48500 -7.37400 27.12600
O  19.27700 -7.30900 25.92700
C  19.99300 -8.65400 27.63700
N  16.99700 -2.53400 26.83700
C  17.53500 -3.47100 26.01000
C  17.27000 -3.21800 24.55800
C  16.53200 -1.79100 24.60800
C  16.20800 -1.73000 26.12300
C  18.55600 -3.25600 23.69000
C  15.27600 -1.54700 23.66600
C  15.72500 -1.32300 22.15800
N  15.90200 -0.96500 29.01500
C  15.26200 -0.23200 28.00500
C  14.64000 0.96500 28.59800
C  14.87600 0.76100 29.91900
C  15.68400 -0.31300 30.18000
C  13.93500 2.10300 27.82300
C  14.58100 1.49500 31.14700
O  14.04800 2.57500 31.33700
C  15.13500 0.52500 32.22500
C  16.04500 1.45600 33.05400
O  17.20600 1.78700 32.80400
O  15.42200 1.80900 34.24400
C  16.13700 2.62800 35.15100
H  19.17000 -5.05900 32.10300
H  18.83000 -5.09200 25.67000
H  15.05600 0.08200 25.95900
H  17.68500 -0.89600 33.91700
H  17.82800 -3.84600 34.01200
H  19.86400 -1.74700 34.28900
H  20.37600 -2.81200 32.95200
H  19.95900 -3.44300 34.60200
H  15.72800 -3.15000 34.44500
H  15.03000 -1.52800 34.14100
H  15.80000 -2.56100 36.47300
H  15.30500 -0.91500 36.09400
H  19.13200 -7.98000 30.47600
H  20.20600 -6.90600 31.32700
H  20.90800 -7.64200 29.98700
H  19.35000 -9.11800 28.38600
H  20.99400 -8.49000 28.03600
H  20.03500 -9.29900 26.76000
H  16.51900 -3.96100 24.29200
H  17.22600 -0.98500 24.37000
H  19.40300 -2.80400 24.20600
H  18.27000 -2.52300 22.93600
H  18.76700 -4.23900 23.26900
H  14.66200 -0.69600 23.95800
H  14.65200 -2.44000 23.64200
H  15.14600 -0.47400 21.79400
H  15.50500 -2.20700 21.55900
H  16.78500 -1.07500 22.09900
H  12.87600 1.93800 28.01900
H  14.13400 1.97000 26.76000
H  14.27800 3.06700 28.19900
H  14.41800 0.20400 32.98100
H  17.20700 2.61300 34.94500
H  15.98400 2.30600 36.18100
H  15.86000 3.67500 35.02500
Mg 53.56500 24.91400 43.92500
C  50.59200 26.82300 43.19500
C  52.16200 22.28100 42.34400
C  56.51800 23.51000 44.03100
C  54.94800 28.03100 45.14700
N  51.74200 24.76800 42.76000
C  50.66400 25.62100 42.55800
C  49.50600 24.85100 41.94400
C  49.87900 23.41700 42.16200
C  51.37600 23.47600 42.39800
C  49.19400 22.61700 43.35000
C  49.04500 25.32600 40.47900
C  47.60700 24.89000 40.08800
H  47.46100 23.47000 39.56500
N  54.28500 23.07300 43.34100
C  53.49600 22.10800 42.72600
C  54.31700 20.85900 42.71300
C  55.65000 21.12900 43.25300
C  55.53600 22.62800 43.53500
C  53.72200 19.73500 42.02400
C  56.73400 20.17400 43.51400
O  56.52300 18.98400 43.25100
C  58.11500 20.51000 44.11400
N  55.48900 25.68500 44.49900
C  56.52200 24.89100 44.39100
C  57.75100 25.51700 45.14000
C  57.34800 27.02900 45.37400
C  55.90800 26.96800 44.93600
C  58.18000 24.75200 46.41400
C  58.17700 28.13900 44.63800
C  58.22300 28.30000 43.10100
N  52.98200 26.98000 44.18800
C  53.55900 28.00800 44.84600
C  52.62200 28.99300 45.19800
C  51.48900 28.63300 44.53000
C  51.69600 27.38300 43.88100
C  52.91700 30.25200 45.97600
C  50.14700 29.00000 44.23300
O  49.49100 29.97700 44.52800
C  49.48500 27.81500 43.44400
C  48.79800 28.26100 42.22400
O  49.35800 28.61900 41.20200
O  47.42000 28.27600 42.38900
C  46.73200 28.60200 41.13900
H  51.66300 21.36300 42.03000
H  57.51800 23.15500 44.28900
H  55.33600 28.97400 45.53700
H  48.57300 24.94900 42.50000
H  49.66700 22.93300 41.20900
H  48.47400 23.27500 43.83700
H  49.94400 22.37600 44.10300
H  48.71600 21.75000 42.89500
H  49.74200 24.84100 39.79500
H  49.16900 26.38000 40.23400
H  47.20600 25.56600 39.33200
H  47.14400 25.03100 41.06500
H  54.35400 18.84700 41.98500
H  53.45600 19.89200 40.97800
H  52.75100 19.52700 42.47300
H  58.74000 21.16000 43.50100
H  58.75200 19.62600 44.10600
H  58.09400 21.09000 45.03600
H  58.60100 25.51200 44.45800
H  57.49700 27.19900 46.44000
H  57.35300 24.27200 46.93800
H  58.71800 25.43000 47.07700
H  58.88100 23.96300 46.14200
H  59.20900 27.96600 44.94300
H  57.86900 29.07800 45.09900
H  57.60100 29.11100 42.72100
H  57.82600 27.41600 42.60200
H  59.24800 28.48900 42.78300
H  52.03900 30.68400 46.45600
H  53.45100 31.07900 45.50800
H  53.59100 30.08900 46.81700
H  48.66900 27.30400 43.95500
H  46.70500 27.68100 40.55600
H  47.15900 29.31000 40.42900
H  45.68800 28.86700 41.30800

