158

Mg 25.48400 1.65300 29.87000
C  27.62600 1.52500 32.76900
C  22.91400 2.08700 31.95500
C  23.51900 1.61800 27.27100
C  28.23700 0.62500 27.98200
N  25.46700 1.64300 32.21400
C  26.36700 1.83100 33.16900
C  25.79600 2.21600 34.50500
C  24.24700 2.31600 34.23100
C  24.19300 1.95300 32.71100
C  23.41300 1.30600 35.16200
C  26.47700 3.54900 35.04700
C  27.30400 3.41600 36.34100
H  27.09900 4.42000 37.49100
N  23.50800 1.79900 29.66200
C  22.60600 1.97800 30.65900
C  21.26200 2.10800 30.08900
C  21.44000 2.00200 28.66500
C  22.83500 1.82900 28.46200
C  20.05300 2.36500 30.90700
C  20.34600 2.06500 27.56600
O  20.61700 2.02000 26.37000
C  18.84900 2.08800 27.84400
N  25.79900 1.20300 27.93600
C  24.88900 1.36600 27.00300
C  25.48800 1.36600 25.62700
C  26.96900 0.98000 25.79600
C  27.02400 0.96500 27.35600
C  24.74800 0.42000 24.54500
C  28.03600 1.82700 25.17000
C  28.14700 3.34100 25.51000
N  27.49800 1.19400 30.22200
C  28.52000 0.76600 29.38000
C  29.76000 0.56300 30.14200
C  29.44100 0.82500 31.45400
C  28.12900 1.29100 31.44700
C  31.00300 0.08700 29.54300
C  29.92000 0.89600 32.79400
O  31.05500 0.64400 33.18700
C  28.81200 1.40200 33.70000
C  28.67900 0.47400 34.78400
O  28.20400 -0.69100 34.76400
O  29.22000 1.08200 35.86200
C  29.37000 0.24500 37.00200
H  22.13100 2.42100 32.63800
H  22.82400 1.69600 26.43200
H  29.04900 0.16100 27.41900
H  26.08400 1.30700 35.03400
H  23.94400 3.32700 34.50100
H  22.76000 0.72700 34.51100
H  22.75100 1.92000 35.77400
H  23.99400 0.66100 35.82100
H  25.65000 4.22600 35.26600
H  27.09400 3.99700 34.26700
H  28.36700 3.44900 36.10100
H  26.98200 2.42700 36.66900
H  19.15400 1.87600 30.53300
H  19.93000 3.42800 30.70000
H  20.22300 2.20100 31.97100
H  18.72200 3.00200 28.42400
H  18.63600 1.29100 28.55600
H  18.25900 1.99000 26.93300
H  25.35500 2.38900 25.27500
H  27.12200 -0.03800 25.43900
H  23.83200 -0.05100 24.90100
H  25.28600 -0.46200 24.19500
H  24.58200 1.01200 23.64500
H  27.80300 1.89900 24.10800
H  28.99900 1.31900 25.21100
H  29.03000 3.31100 26.14800
H  27.19100 3.67400 25.91400
H  28.32800 3.90300 24.59300
H  31.09900 0.36600 28.49300
H  31.18200 -0.97800 29.69100
H  31.79500 0.57100 30.11300
H  29.07800 2.40100 34.04500
H  29.59600 -0.80600 36.82400
H  28.37600 0.29900 37.44700
H  30.13000 0.68600 37.64800
Mg 35.10800 48.77000 25.53200
C  35.57700 46.89900 28.61500
C  33.87800 51.36000 27.66000
C  34.32300 50.43900 22.80500
C  36.11400 45.97100 23.76100
N  34.71700 49.05200 27.81400
C  35.06100 48.15500 28.83200
C  34.75500 48.70800 30.24500
C  34.02400 50.03700 29.83900
C  34.27900 50.16700 28.35200
C  32.53900 49.85700 30.05600
C  36.06500 49.04600 31.05100
C  35.92800 48.92400 32.58900
H  34.65400 48.92300 33.30500
N  34.22600 50.69700 25.25000
C  33.84800 51.60400 26.24300
C  33.57700 52.88300 25.52000
C  33.67700 52.64100 24.16500
C  34.12200 51.23900 23.99900
C  33.21600 54.06200 26.25600
C  33.50700 53.59700 23.01000
O  33.75500 53.28000 21.85100
C  33.02800 55.03200 23.10800
N  35.12500 48.20200 23.66400
C  34.80800 49.10400 22.65300
C  34.81500 48.46300 21.29200
C  35.30000 46.98200 21.61800
C  35.57900 47.03800 23.07500
C  33.38600 48.60000 20.61800
C  36.46400 46.42500 20.68800
C  36.47000 44.97700 20.45000
N  35.67600 46.77000 26.03900
C  36.12900 45.76900 25.19000
C  36.58300 44.66800 26.04100
C  36.37500 45.05300 27.35000
C  35.86800 46.33100 27.29100
C  36.96500 43.33700 25.39700
C  36.54800 44.62100 28.76400
O  37.01300 43.55100 29.20400
C  36.01700 45.87300 29.66000
C  35.04600 45.27800 30.59300
O  34.10200 44.59900 30.22200
O  35.26300 45.54100 31.96200
C  34.35600 45.02500 32.94700
H  33.58100 52.22300 28.26000
H  34.10400 50.97800 21.88000
H  36.63900 45.22300 23.16300
H  34.06300 48.01200 30.72100
H  34.30900 50.86500 30.48800
H  32.12600 49.48100 29.12000
H  32.03900 50.82000 30.16100
H  32.31900 49.26400 30.94400
H  36.19800 50.10200 30.81600
H  36.91600 48.42700 30.76500
H  36.62800 49.55500 33.13500
H  36.35200 47.94200 32.80000
H  32.13100 54.16400 26.24000
H  33.52600 54.92800 25.67200
H  33.43300 54.09300 27.32300
H  32.88000 55.45500 22.11400
H  33.82900 55.59100 23.59100
H  32.11900 55.07500 23.70800
H  35.54300 48.96000 20.65100
H  34.45200 46.29800 21.64600
H  33.14700 47.60900 20.23300
H  33.57200 49.30600 19.80800
H  32.65700 49.05100 21.29200
H  37.40000 46.53600 21.23500
H  36.53400 47.03500 19.78700
H  36.79000 44.78000 19.42700
H  35.46600 44.57100 20.56700
H  37.04200 44.44000 21.20700
H  37.88700 43.35500 24.81600
H  36.19300 43.12100 24.65700
H  36.87100 42.58500 26.18100
H  36.82800 46.28900 30.25700
H  34.67700 45.23600 33.96700
H  34.36700 43.93500 32.92000
H  33.31100 45.32900 32.88200

