158

Mg 41.86500 41.21700 26.88400
C  41.39600 43.70400 29.23000
C  42.43400 38.97600 29.47500
C  42.74600 39.01500 24.58200
C  41.51500 43.66900 24.36000
N  42.02800 41.37900 29.07500
C  41.74000 42.49000 29.81100
C  41.81800 42.23900 31.30600
C  42.29000 40.74100 31.30600
C  42.18400 40.25900 29.83700
C  43.73900 40.53900 31.77500
C  40.46800 42.57900 32.00400
C  40.63100 43.29100 33.31800
H  39.63100 42.98200 34.45800
N  42.26700 39.22600 27.01700
C  42.49700 38.48500 28.18000
C  42.89700 37.15200 27.76000
C  42.93700 37.12400 26.33800
C  42.69300 38.56400 25.94300
C  42.89200 36.00800 28.70200
C  43.11600 35.86100 25.35300
O  43.17600 35.99300 24.12200
C  43.22000 34.41300 25.85800
N  42.20800 41.32500 24.77800
C  42.46400 40.26400 24.00600
C  42.51300 40.54700 22.44300
C  42.03000 42.05900 22.47200
C  41.95600 42.42600 23.95700
C  43.81800 40.28900 21.67900
C  40.71800 42.32700 21.69100
C  39.52100 41.46300 22.29700
N  41.56600 43.26200 26.73400
C  41.39100 44.09200 25.68000
C  40.99000 45.37800 26.20700
C  41.01900 45.28200 27.57300
C  41.38600 43.97900 27.79900
C  40.59300 46.56300 25.35000
C  40.85900 46.05500 28.78000
O  40.79200 47.32700 28.91900
C  40.99200 45.02700 29.90200
C  42.21800 45.60200 30.63500
O  43.37500 45.52600 30.36500
O  41.77900 46.14600 31.81800
C  42.73900 47.06700 32.44400
H  42.62100 38.27700 30.29300
H  43.07100 38.26400 23.85900
H  41.44200 44.42000 23.57100
H  42.51400 42.94700 31.75700
H  41.59300 40.25600 31.98900
H  43.89500 39.88800 32.63600
H  44.25300 41.47000 32.01600
H  44.42300 40.17000 31.01100
H  39.87800 41.66700 32.10300
H  39.90300 43.19900 31.30800
H  40.48200 44.32100 32.99500
H  41.60300 43.15400 33.79200
H  43.89200 35.57800 28.75100
H  42.26300 35.22500 28.28000
H  42.56700 36.32400 29.69300
H  42.19300 34.19800 26.15300
H  43.69000 34.31800 26.83600
H  43.58800 33.64100 25.18200
H  41.79900 39.86300 21.98400
H  42.77800 42.72000 22.03500
H  44.63000 40.05600 22.36800
H  44.04100 41.16300 21.06600
H  43.58100 39.52100 20.94300
H  40.87300 41.89200 20.70400
H  40.48800 43.39300 21.68200
H  39.74100 41.04300 23.27800
H  39.24900 40.64800 21.62600
H  38.60700 42.01900 22.50100
H  39.69300 46.94700 25.83000
H  40.33100 46.33200 24.31700
H  41.17000 47.48700 25.30700
H  40.06100 45.16900 30.44900
H  43.22800 46.44000 33.18900
H  42.21000 47.89300 32.92000
H  43.55300 47.44500 31.82400
Mg 30.59000 60.16600 39.12600
C  27.73200 58.41700 38.07600
C  32.48700 57.37800 38.40600
C  33.41800 62.01900 39.50100
C  28.57800 63.01800 39.36500
N  30.16200 58.13900 38.19400
C  28.94000 57.70400 37.85700
C  29.12500 56.30700 37.32400
C  30.52200 55.91700 37.82700
C  31.10700 57.25600 38.10900
C  30.72800 54.94800 39.06000
C  28.96900 56.14200 35.67800
C  28.42600 54.84200 35.10700
H  27.08200 55.13200 34.40000
N  32.70400 59.70100 38.98000
C  33.26200 58.49200 38.78700
C  34.67500 58.52900 39.03500
C  35.01500 59.95500 39.22500
C  33.70700 60.63400 39.22900
C  35.60200 57.30300 38.87200
C  36.40100 60.51600 39.50100
O  37.36400 59.73400 39.51500
C  36.71200 62.01700 39.87000
N  30.99400 62.20500 39.33100
C  32.24700 62.76300 39.54500
C  32.20600 64.30600 39.77500
C  30.65400 64.50900 39.83100
C  30.00200 63.19400 39.45500
C  32.99300 64.97600 40.96800
C  30.16400 65.77300 39.09400
C  29.19300 66.68000 39.88500
N  28.53600 60.62500 38.99900
C  27.88100 61.79900 39.19400
C  26.48700 61.66300 38.96100
C  26.38100 60.37300 38.52600
C  27.64400 59.78700 38.54700
C  25.36900 62.59900 38.96700
C  25.46300 59.33000 38.10800
O  24.26800 59.34300 37.89800
C  26.30600 58.07200 37.76600
C  25.79500 56.89400 38.55600
O  25.40000 56.87600 39.72100
O  25.68400 55.84700 37.72900
C  25.35100 54.52200 38.22900
H  33.00800 56.44000 38.20400
H  34.23600 62.70400 39.73500
H  27.97900 63.92700 39.45300
H  28.35200 55.67600 37.76300
H  31.01800 55.43800 36.98200
H  31.56500 54.26500 38.92000
H  29.86900 54.27900 39.11300
H  30.88800 55.50500 39.98400
H  29.93300 56.34600 35.21100
H  28.37200 56.96900 35.29400
H  28.09500 54.14900 35.88000
H  29.12100 54.30700 34.45900
H  35.13000 56.56100 38.22700
H  35.75900 56.85900 39.85500
H  36.55600 57.60500 38.44200
H  37.78000 62.05400 40.08500
H  36.18700 62.23100 40.80100
H  36.41000 62.72300 39.09700
H  32.57200 64.68100 38.81900
H  30.45500 64.48600 40.90200
H  33.67800 64.26700 41.43300
H  32.39200 65.43400 41.75400
H  33.73300 65.68700 40.60100
H  29.48700 65.50700 38.28200
H  30.95100 66.40000 38.67600
H  28.68600 66.07300 40.63400
H  28.42100 67.09200 39.23400
H  29.60800 67.60800 40.28000
H  24.39900 62.10300 39.01300
H  25.42600 63.09000 37.99500
H  25.48900 63.27300 39.81400
H  26.20400 57.83600 36.70700
H  25.25000 53.85300 37.37500
H  24.38900 54.51100 38.74300
H  26.02100 54.06500 38.95700

