158

Mg 0.68000 7.43600 26.84500
C  0.84400 9.75600 29.33300
C  0.57500 4.95800 29.22600
C  -0.12800 5.20600 24.39400
C  1.03200 9.83600 24.45200
N  0.73100 7.36200 29.01700
C  0.72800 8.46900 29.83500
C  0.57900 8.05600 31.30400
C  0.80600 6.44500 31.31100
C  0.74900 6.24800 29.73800
C  2.11900 5.96400 31.92600
C  -0.83400 8.39200 31.83900
C  -0.96700 8.48200 33.37500
H  0.29300 7.99500 34.22700
N  0.27300 5.36800 26.82300
C  0.37300 4.49200 27.92200
C  0.04500 3.17700 27.50300
C  -0.32500 3.24400 26.07900
C  -0.12600 4.64700 25.70500
C  0.06900 1.99100 28.46700
C  -0.89500 2.18300 25.11800
O  -1.20700 2.40300 23.97500
C  -1.07200 0.80500 25.59500
N  0.34600 7.62400 24.64900
C  0.02500 6.54600 23.92500
C  0.16000 6.88200 22.46100
C  0.64300 8.40000 22.40400
C  0.73500 8.64200 23.89800
C  0.91800 5.90900 21.57400
C  -0.34200 9.31500 21.64300
C  -1.56500 10.05000 22.30600
N  1.09900 9.31700 26.85500
C  1.17800 10.22100 25.81200
C  1.32700 11.50000 26.30100
C  1.29200 11.42200 27.70200
C  1.09900 10.08600 27.97600
C  1.41300 12.86600 25.48400
C  1.41700 12.12500 28.92700
O  1.59100 13.31400 29.14700
C  1.12900 11.11600 30.07700
C  2.31000 10.98500 30.91400
O  3.28900 10.27100 30.57100
O  2.12500 11.61900 32.16600
C  3.35600 11.54300 33.03000
H  0.53800 4.08300 29.87700
H  -0.45600 4.65200 23.51200
H  1.24900 10.62900 23.73300
H  1.44100 8.45900 31.83600
H  -0.03300 5.99400 31.84200
H  2.34700 6.34700 32.92100
H  2.90500 6.22200 31.21600
H  2.06100 4.87500 31.94800
H  -1.44800 7.59300 31.42300
H  -1.14000 9.31500 31.34600
H  -1.80600 7.86100 33.68700
H  -1.21000 9.50500 33.66500
H  -0.65100 2.16700 29.26600
H  1.05500 1.95400 28.92900
H  -0.16100 1.13100 27.83700
H  -1.78500 0.87600 26.41700
H  -0.09400 0.38100 25.82100
H  -1.40200 0.05600 24.87600
H  -0.83000 6.79000 22.01500
H  1.68100 8.47700 22.08200
H  1.71300 5.39700 22.11700
H  1.37200 6.24100 20.64100
H  0.22900 5.10800 21.30500
H  -0.71300 8.79300 20.76100
H  0.25900 10.09300 21.17200
H  -1.64600 9.57900 23.28500
H  -2.46200 9.84200 21.72400
H  -1.48600 11.13400 22.38500
H  1.20400 13.70600 26.14600
H  0.75400 12.73300 24.62500
H  2.41900 13.02400 25.09400
H  0.22400 11.50500 30.54300
H  3.87700 12.47500 32.81000
H  4.03800 10.74000 32.75200
H  3.27200 11.49100 34.11600
Mg -5.92900 25.40600 25.40700
C  -4.65500 26.36900 28.63000
C  -7.95100 23.15800 27.22200
C  -6.98200 24.20000 22.41700
C  -3.57300 27.23200 23.94500
N  -6.27900 24.78800 27.68700
C  -5.76500 25.46800 28.76500
C  -6.39500 25.01500 30.03200
C  -7.12600 23.66800 29.60200
C  -7.18300 23.88400 28.10400
C  -6.40700 22.39400 30.01500
C  -7.34800 26.09500 30.56800
C  -7.31800 26.38400 32.09700
H  -6.68200 25.27700 33.00400
N  -7.27300 23.91300 24.87700
C  -8.03800 23.14600 25.76800
C  -8.94000 22.32100 24.99700
C  -8.71400 22.60600 23.56900
C  -7.57000 23.56900 23.57000
C  -9.93900 21.35000 25.67600
C  -9.40400 21.98900 22.23100
O  -9.06800 22.26300 21.06000
C  -10.65900 21.01000 22.33500
N  -5.45000 25.75500 23.53900
C  -6.00100 25.14400 22.39500
C  -5.32500 25.62300 21.12200
C  -4.48200 26.78700 21.64500
C  -4.49800 26.58600 23.16000
C  -4.53100 24.52400 20.32000
C  -5.05800 28.20100 21.29000
C  -5.07300 28.53500 19.81100
N  -4.49500 26.63000 26.14300
C  -3.54300 27.26100 25.33700
C  -2.62800 28.00500 26.22900
C  -3.02500 27.66400 27.53100
C  -4.15200 26.83200 27.37900
C  -1.49000 28.90400 25.86100
C  -2.73900 27.85800 29.00000
O  -1.85500 28.49000 29.53400
C  -3.85700 27.05600 29.74400
C  -3.15600 26.22200 30.60800
O  -2.67100 25.16200 30.35000
O  -3.11500 26.86900 31.81000
C  -2.39400 26.24400 32.88900
H  -8.44900 22.27300 27.62400
H  -7.37700 23.79400 21.48300
H  -2.93100 28.00200 23.51100
H  -5.57800 24.91400 30.74700
H  -8.13000 23.74700 30.01800
H  -6.30600 21.66400 29.21200
H  -7.02600 21.99900 30.82000
H  -5.39700 22.52200 30.40600
H  -8.35500 25.76300 30.31600
H  -7.33800 27.05100 30.04500
H  -8.31600 26.60900 32.47500
H  -6.72800 27.29000 32.23700
H  -9.44600 20.37800 25.70900
H  -10.87300 21.25200 25.12200
H  -10.24600 21.63400 26.68200
H  -11.17500 20.90200 21.38200
H  -11.41800 21.39500 23.01700
H  -10.39700 19.99800 22.64600
H  -6.12500 25.90700 20.43700
H  -3.43000 26.66000 21.39000
H  -5.12200 24.04700 19.53800
H  -4.03200 23.75100 20.90500
H  -3.86900 25.17000 19.74400
H  -4.40700 28.88800 21.83000
H  -6.05300 28.37500 21.69900
H  -4.53000 29.46600 19.64600
H  -6.11300 28.76100 19.57900
H  -4.66000 27.71400 19.22500
H  -1.82500 29.93400 25.98100
H  -1.21700 28.63900 24.84000
H  -0.62500 28.56700 26.43300
H  -4.44700 27.78700 30.29800
H  -2.95200 26.21500 33.82500
H  -1.48500 26.82700 33.03400
H  -2.15300 25.23200 32.56600

