158

Mg 47.27800 16.03600 28.02600
C  45.34600 15.76500 31.00000
C  49.82300 17.52600 30.11100
C  49.03100 16.94200 25.28200
C  44.77400 14.84000 26.24700
N  47.53600 16.57400 30.27500
C  46.56400 16.35900 31.31300
C  47.12600 16.76600 32.72200
C  48.50700 17.39000 32.32300
C  48.61000 17.18100 30.78500
C  48.65400 18.96700 32.63500
C  47.37000 15.58700 33.63100
C  46.99200 15.78100 35.12500
H  46.80600 17.15400 35.72800
N  49.18200 16.97500 27.70100
C  50.08100 17.45700 28.70400
C  51.29200 17.77500 28.06200
C  51.04700 17.77400 26.65100
C  49.69400 17.28200 26.46300
C  52.63100 17.87900 28.88100
C  51.95100 18.30800 25.50500
O  51.71000 18.25200 24.32000
C  53.28200 18.96800 25.92300
N  46.98700 15.83500 26.10300
C  47.82100 16.25000 25.09800
C  47.16800 16.19200 23.75200
C  45.96100 15.33500 24.03000
C  45.82700 15.38900 25.56600
C  46.93700 17.56000 23.02100
C  46.20500 13.86000 23.59600
C  45.89500 13.50200 22.12600
N  45.52500 15.25300 28.47700
C  44.53200 14.82200 27.60400
C  43.47600 14.29100 28.35500
C  43.69500 14.68800 29.67300
C  44.97800 15.27800 29.69500
C  42.24100 13.60100 27.92200
C  43.11700 14.77000 31.00400
O  42.08000 14.36000 31.52800
C  44.16100 15.52200 31.92100
C  43.49500 16.64800 32.59500
O  43.49900 17.82700 32.21000
O  42.95000 16.19700 33.77100
C  42.18000 17.19800 34.51600
H  50.71600 17.83400 30.65900
H  49.49400 17.20300 24.32800
H  44.08000 14.38600 25.53600
H  46.36200 17.43600 33.11400
H  49.36700 16.90900 32.78800
H  49.58400 19.06600 33.19500
H  47.80600 19.42200 33.14900
H  48.73400 19.52000 31.69900
H  48.38700 15.19700 33.59300
H  46.89500 14.68300 33.25100
H  47.71500 15.27800 35.76700
H  46.00700 15.33300 35.25800
H  53.49700 17.73400 28.23500
H  52.65300 17.11700 29.66000
H  52.57100 18.86400 29.34300
H  53.28300 19.71200 26.72000
H  53.72200 19.29800 24.98200
H  53.84900 18.05200 26.09000
H  47.81000 15.63200 23.07200
H  45.03300 15.67400 23.56700
H  45.85300 17.67000 23.00900
H  47.43800 17.52900 22.05400
H  47.36000 18.37000 23.61600
H  45.60400 13.20200 24.22400
H  47.25100 13.60700 23.76900
H  46.75200 12.94200 21.75100
H  45.87300 14.36300 21.45700
H  45.06100 12.80600 22.03900
H  41.95500 13.00300 28.78800
H  42.32100 12.99900 27.01600
H  41.39300 14.22700 27.64600
H  44.49400 14.84400 32.70700
H  41.64700 16.60400 35.25900
H  41.45300 17.70600 33.88200
H  42.76900 17.99400 34.97200
Mg -10.86500 16.05200 42.49100
C  -7.43300 15.73500 42.06000
C  -10.59000 19.45100 41.49000
C  -14.15500 16.22700 42.13500
C  -11.05000 12.62500 43.25600
N  -9.26000 17.36500 41.69500
C  -7.91400 17.02400 41.70600
C  -7.02500 18.20300 41.26700
C  -8.04900 19.38900 41.45400
C  -9.39800 18.74600 41.54500
C  -7.64500 20.27800 42.75100
C  -6.55200 17.94600 39.79000
C  -5.19900 18.51100 39.29700
H  -4.89100 18.79100 37.86700
N  -12.19700 17.62700 41.90600
C  -11.88900 18.91600 41.55700
C  -13.08000 19.61800 41.25800
C  -14.16300 18.70200 41.41800
C  -13.54200 17.41600 41.79100
C  -13.11600 21.04700 40.76400
C  -15.66800 19.04900 41.23600
O  -16.04100 20.20400 41.02000
C  -16.81700 18.06800 41.22800
N  -12.36100 14.62800 42.57300
C  -13.61000 14.96600 42.56200
C  -14.56800 13.76500 42.72300
C  -13.66300 12.81000 43.48500
C  -12.26300 13.38600 43.17800
C  -15.98300 13.98700 43.52600
C  -13.83400 11.30100 43.44100
C  -14.21900 10.61800 44.88700
N  -9.56700 14.37800 42.54500
C  -9.71600 13.04600 42.94300
C  -8.35700 12.33700 42.92200
C  -7.46000 13.41800 42.59800
C  -8.20000 14.58500 42.36800
C  -8.04000 11.01000 43.54700
C  -6.10500 13.76700 42.61100
O  -5.09000 13.16000 42.92700
C  -6.06000 15.29200 42.17000
C  -5.40300 16.18300 43.15600
O  -5.85100 16.47100 44.23600
O  -4.19100 16.53200 42.73800
C  -3.32500 17.13100 43.73200
H  -10.61200 20.53700 41.37500
H  -15.24300 16.28900 42.06300
H  -11.10600 11.64700 43.73700
H  -6.15200 18.29100 41.91300
H  -7.95000 20.11800 40.65000
H  -7.45700 21.27500 42.35400
H  -6.74400 19.88600 43.22300
H  -8.46700 20.20500 43.46300
H  -7.24500 18.46100 39.12500
H  -6.73900 16.89500 39.57000
H  -4.39100 17.87800 39.66400
H  -5.16800 19.48800 39.77900
H  -13.93900 21.03900 40.04900
H  -12.17700 21.18800 40.23000
H  -13.22200 21.71200 41.62200
H  -17.74600 18.51800 40.87700
H  -16.96600 17.58600 42.19400
H  -16.64400 17.29800 40.47600
H  -14.71500 13.30300 41.74700
H  -13.68700 13.12500 44.52800
H  -15.91900 14.94000 44.05200
H  -16.24100 13.25500 44.29100
H  -16.87900 14.14600 42.92600
H  -12.92600 10.77200 43.15300
H  -14.66300 11.06300 42.77500
H  -13.31900 10.50800 45.49200
H  -14.76500 9.68900 44.72100
H  -14.91600 11.31900 45.34600
H  -7.66500 11.21500 44.55000
H  -7.45300 10.44400 42.82400
H  -8.92600 10.39400 43.70200
H  -5.63900 15.55300 41.19900
H  -3.69700 18.14300 43.89000
H  -2.36600 17.16600 43.21500
H  -3.35500 16.55800 44.65800

