158

Mg 46.93700 25.80400 28.76800
C  47.95200 27.80600 31.61200
C  46.01500 23.41900 31.08700
C  46.39500 23.68600 26.27500
C  48.32000 28.17700 26.77100
N  46.82600 25.71400 31.15900
C  47.24800 26.66900 32.00900
C  46.76200 26.32200 33.46100
C  46.30400 24.82500 33.27000
C  46.39200 24.59500 31.75400
C  47.18700 23.77500 34.09500
C  45.63500 27.28800 34.02500
C  45.85200 27.99900 35.36300
H  44.95600 27.67000 36.47800
N  46.29900 23.86400 28.70200
C  45.95200 23.03100 29.77600
C  45.45500 21.78900 29.27500
C  45.61400 21.80000 27.82900
C  46.19700 23.12400 27.52000
C  44.86600 20.74800 30.20400
C  45.27500 20.72100 26.86700
O  45.39200 20.77700 25.62200
C  44.64200 19.49100 27.31900
N  47.30000 25.87800 26.86600
C  46.96800 24.92200 25.91900
C  47.33000 25.36200 24.50900
C  47.72900 26.88500 24.77600
C  47.72200 27.02500 26.25400
C  48.50500 24.57100 23.86900
C  46.68800 27.89300 24.17100
C  47.29600 29.22600 23.64700
N  47.89900 27.70300 29.07100
C  48.38800 28.54500 28.11400
C  48.99800 29.71400 28.72700
C  48.79800 29.45800 30.15000
C  48.20600 28.21300 30.29400
C  49.72800 30.82400 28.03600
C  49.00200 30.02100 31.48300
O  49.59600 31.02800 31.92100
C  48.29300 28.93700 32.53700
C  49.20700 28.80400 33.66800
O  50.33900 28.44600 33.58700
O  48.58700 29.09200 34.84300
C  49.37700 28.78400 36.04100
H  45.51500 22.74300 31.78500
H  45.98300 23.06500 25.47600
H  48.75300 28.72000 25.92900
H  47.66500 26.51400 34.04100
H  45.25400 24.68800 33.52900
H  47.73900 24.12500 34.96700
H  47.78100 23.35700 33.28200
H  46.54600 22.99300 34.50300
H  44.76300 26.64600 34.14600
H  45.39000 28.03400 33.26900
H  45.75000 29.05500 35.11400
H  46.86200 27.87200 35.75400
H  45.10900 19.74300 29.85800
H  43.78700 20.90100 30.19600
H  45.24400 20.80100 31.22600
H  45.23900 18.89300 28.00900
H  44.22000 18.93500 26.48200
H  43.77300 19.84100 27.87600
H  46.43200 25.41700 23.89300
H  48.71200 27.15200 24.38900
H  49.26600 25.04200 23.24900
H  47.93700 23.92800 23.19600
H  48.95200 24.04100 24.71100
H  45.88700 28.13400 24.87100
H  46.13200 27.32800 23.42200
H  47.23900 29.38100 22.57000
H  48.35500 29.30300 23.89000
H  46.77100 29.99900 24.20900
H  49.89300 31.63000 28.75100
H  49.32700 31.21700 27.10200
H  50.67700 30.34700 27.79000
H  47.36300 29.41400 32.84600
H  49.84800 27.80100 36.02500
H  48.86600 28.86400 37.00000
H  50.13500 29.56300 36.11900
Mg 27.43300 49.72700 26.48400
C  25.18800 50.62900 29.12000
C  29.72800 49.02100 28.96900
C  29.59900 49.40700 24.05200
C  25.12500 51.00500 24.23300
N  27.41000 49.65100 28.72500
C  26.36200 50.04400 29.60600
C  26.72500 49.80600 31.07900
C  28.30800 49.38000 31.01500
C  28.49900 49.43400 29.45400
C  29.26800 50.24400 31.93100
C  25.71800 48.76700 31.75000
C  24.95300 49.31200 32.97100
H  25.06000 48.55000 34.25900
N  29.31300 49.09700 26.51400
C  30.11000 48.85900 27.59500
C  31.45200 48.56100 27.13200
C  31.44900 48.66900 25.71700
C  30.08100 49.07900 25.36100
C  32.60900 48.24500 28.07700
C  32.62900 48.52800 24.68700
O  32.47200 48.62200 23.51500
C  34.04400 48.19500 25.30200
N  27.42900 50.18500 24.50500
C  28.39400 49.84800 23.67100
C  28.08000 50.15400 22.22800
C  26.53200 50.60300 22.24800
C  26.33400 50.60600 23.77500
C  29.03400 51.15400 21.49000
C  25.60400 49.71300 21.34200
C  24.66900 48.64100 22.00200
N  25.55400 50.65600 26.58900
C  24.77000 51.09800 25.58100
C  23.51300 51.61200 26.15400
C  23.68900 51.51800 27.53200
C  24.92400 50.90700 27.75800
C  22.47300 52.20000 25.30000
C  23.04200 51.76100 28.79700
O  21.95200 52.21300 29.11000
C  24.03400 51.21400 29.84500
C  24.39300 52.24800 30.86600
O  25.16000 53.20200 30.64500
O  23.70400 52.12400 32.01500
C  23.92800 53.16700 33.08700
H  30.46500 48.86900 29.76000
H  30.31700 49.17400 23.26300
H  24.45000 51.42300 23.48300
H  26.56800 50.74900 31.60300
H  28.36100 48.30800 31.20900
H  28.73100 51.07600 32.38800
H  29.97400 50.72800 31.25600
H  29.80600 49.68000 32.69300
H  26.14100 47.77400 31.90700
H  24.98900 48.50200 30.98400
H  23.89700 49.45700 32.74100
H  25.37000 50.28400 33.23300
H  33.04900 47.32400 27.69300
H  32.23700 48.14400 29.09700
H  33.34600 49.04700 28.11400
H  34.28700 48.86200 26.12900
H  34.89400 48.19300 24.62000
H  34.06500 47.18800 25.71900
H  28.28200 49.15200 21.84700
H  26.43500 51.62500 21.88100
H  29.82600 51.54200 22.13000
H  28.48800 51.98500 21.04400
H  29.42300 50.64900 20.60500
H  26.15700 49.16000 20.58200
H  24.95300 50.32100 20.71300
H  24.87800 48.64600 23.07100
H  24.84600 47.68800 21.50400
H  23.62700 48.96000 22.01500
H  21.48600 52.31100 25.74800
H  22.31600 51.63700 24.38000
H  22.87200 53.17900 25.03300
H  23.50900 50.43000 30.39100
H  24.76100 52.90800 33.74000
H  23.04500 53.18100 33.72700
H  23.94700 54.14100 32.59900

