158

Mg 47.00800 16.82600 28.16900
C  45.24100 16.05200 31.03500
C  49.37000 18.54100 30.28700
C  48.64800 17.88400 25.45800
C  44.35800 15.67000 26.21500
N  47.20000 17.35400 30.44400
C  46.38300 16.80200 31.40000
C  46.85600 17.14300 32.79200
C  48.05800 18.16600 32.44000
C  48.30900 17.94400 30.98900
C  47.77700 19.61000 32.82000
C  47.29400 15.95000 33.65900
C  47.97400 16.29100 35.06800
H  48.01600 17.77500 35.61400
N  48.77900 18.00100 27.85600
C  49.59500 18.49500 28.87800
C  50.78300 19.16900 28.21200
C  50.62300 18.92800 26.78400
C  49.31300 18.23900 26.65900
C  51.92100 19.86400 28.89500
C  51.48200 19.44700 25.59900
O  51.15500 19.31700 24.43000
C  52.87500 20.04900 25.84900
N  46.49400 17.02500 26.15200
C  47.38700 17.37200 25.20600
C  46.81700 17.14200 23.79100
C  45.63000 16.23400 24.08000
C  45.43800 16.31200 25.54600
C  46.71200 18.39300 22.89700
C  45.66800 14.69900 23.64800
C  46.31100 13.69200 24.59400
N  45.23500 16.04300 28.50700
C  44.21500 15.49500 27.63700
C  43.18500 14.91400 28.38200
C  43.58500 15.09200 29.68200
C  44.80300 15.83700 29.74300
C  41.82300 14.32500 27.93900
C  43.12700 14.89700 31.01100
O  42.16000 14.34700 31.46200
C  44.06800 15.62000 31.93400
C  43.29400 16.72300 32.55300
O  42.73200 17.56900 31.89300
O  43.27700 16.72100 33.98300
C  42.47600 17.78200 34.52900
H  50.11500 18.88400 31.00800
H  49.22600 18.08900 24.55400
H  43.61300 15.10600 25.65000
H  46.12300 17.64800 33.42200
H  48.97300 17.81000 32.91300
H  47.90200 20.29000 31.97700
H  48.60100 19.72700 33.52400
H  46.84700 19.73100 33.37500
H  48.02900 15.40000 33.07000
H  46.33500 15.43200 33.69100
H  48.97500 15.87200 34.96300
H  47.47500 15.66600 35.80800
H  52.79600 19.21300 28.91400
H  51.64500 20.14300 29.91200
H  52.16700 20.75300 28.31400
H  52.82000 21.04000 26.29900
H  53.41800 20.28800 24.93400
H  53.48600 19.37200 26.44700
H  47.54900 16.48100 23.32600
H  44.80700 16.61300 23.47400
H  47.36400 18.25800 22.03500
H  47.12700 19.15900 23.55300
H  45.69800 18.65800 22.59500
H  46.14600 14.62700 22.67100
H  44.64700 14.34000 23.52700
H  45.44000 13.22100 25.05100
H  46.92900 14.23800 25.30700
H  46.90300 12.86900 24.19200
H  41.32200 14.64300 27.02500
H  41.07000 14.50800 28.70500
H  41.85900 13.24200 27.81900
H  44.31900 14.91100 32.72300
H  43.10200 18.63400 34.79300
H  42.11600 17.32800 35.45200
H  41.55300 18.11500 34.05400
Mg 27.18400 50.50000 26.61300
C  25.10000 51.48700 29.39100
C  29.37500 49.44600 29.11500
C  28.94700 49.45800 24.26200
C  24.68400 51.67100 24.50200
N  27.24000 50.53100 28.96600
C  26.28800 50.96200 29.87700
C  26.50700 50.48200 31.30100
C  27.89700 49.84600 31.16500
C  28.21000 49.95300 29.65400
C  29.00000 50.55400 32.03500
C  25.45900 49.52400 31.84000
C  24.77900 49.94800 33.19400
H  25.74900 50.45000 34.30600
N  28.92800 49.58100 26.66700
C  29.72500 49.24800 27.78100
C  30.91400 48.54000 27.25700
C  30.84000 48.55800 25.82600
C  29.52200 49.18800 25.51600
C  32.00500 47.92200 28.15400
C  31.91700 48.14100 24.88400
O  31.75600 48.09000 23.67500
C  33.33800 47.63200 25.32400
N  26.93900 50.72100 24.58200
C  27.81300 50.11400 23.82500
C  27.46500 50.33700 22.36100
C  25.93100 50.77800 22.46000
C  25.75900 50.98800 23.95500
C  28.40000 51.28200 21.57700
C  24.95200 49.62900 21.87100
C  23.70900 50.17900 21.18500
N  25.39900 51.64500 26.84500
C  24.44900 51.98100 25.91000
C  23.28500 52.49600 26.51100
C  23.53600 52.35500 27.85100
C  24.78900 51.82500 28.03900
C  22.04300 52.91100 25.79400
C  22.87900 52.51400 29.14800
O  21.75200 52.99000 29.38300
C  23.89600 51.98200 30.15100
C  24.25000 53.08100 31.06500
O  25.26500 53.74000 31.10800
O  23.30900 53.16100 32.03400
C  23.50100 54.05000 33.22200
H  29.98000 48.94000 29.87000
H  29.45600 48.90400 23.47000
H  23.79600 51.94700 23.92900
H  26.55400 51.35800 31.94700
H  27.88700 48.81100 31.50500
H  29.13800 50.07100 33.00300
H  28.69900 51.59700 32.12900
H  29.96300 50.65900 31.53700
H  25.95700 48.58900 32.09500
H  24.76700 49.21400 31.05700
H  24.29600 49.11900 33.71200
H  23.93000 50.59600 32.97700
H  32.29400 46.91800 27.84200
H  31.57900 47.66000 29.12200
H  32.83400 48.62900 28.16300
H  33.80700 48.17600 26.14400
H  34.01300 47.58300 24.46900
H  33.14300 46.60600 25.63600
H  27.58700 49.36600 21.88000
H  25.85200 51.73400 21.94300
H  29.14200 51.67700 22.27100
H  27.81600 52.17200 21.34000
H  28.84800 50.87400 20.67100
H  24.58100 49.07800 22.73500
H  25.56900 49.04100 21.19100
H  23.60100 49.81400 20.16300
H  23.64900 51.26700 21.21300
H  22.76000 49.78700 21.54900
H  21.78500 52.19400 25.01400
H  22.28700 53.81400 25.23500
H  21.17200 53.11700 26.41600
H  23.50300 51.22200 30.82600
H  22.64300 53.89700 33.87600
H  23.61300 55.10100 32.95700
H  24.39100 53.82100 33.80800

