158

Mg 41.94200 41.26500 26.19000
C  41.05800 43.72600 28.57000
C  42.38400 39.02900 28.69500
C  43.11200 39.02800 23.91100
C  41.57900 43.57500 23.78600
N  41.78600 41.40800 28.37900
C  41.29100 42.45200 29.13900
C  41.31900 42.18000 30.71900
C  41.79300 40.65600 30.63700
C  42.04800 40.33200 29.15100
C  43.11900 40.38200 31.41000
C  39.94200 42.49200 31.43900
C  39.65700 41.73000 32.71800
H  39.15000 42.55700 33.97500
N  42.61900 39.26200 26.31400
C  42.66400 38.54500 27.43300
C  43.14700 37.16700 27.05200
C  43.38900 37.18900 25.66300
C  42.94000 38.51100 25.21700
C  43.49500 36.04200 28.06700
C  44.02900 36.13100 24.86500
O  44.28300 36.31400 23.69100
C  44.13000 34.70400 25.42900
N  42.39900 41.34100 24.22000
C  42.84100 40.30900 23.40600
C  42.82000 40.65900 21.91800
C  42.24200 42.15100 21.84300
C  42.05400 42.36700 23.36700
C  44.13800 40.61200 21.05500
C  40.91100 42.20400 21.11600
C  39.63000 41.79400 21.82900
N  41.55900 43.31500 26.16400
C  41.35700 44.10800 25.12000
C  40.85400 45.44500 25.52200
C  40.73300 45.28000 26.93600
C  41.20400 44.02200 27.22800
C  40.52000 46.62800 24.63200
C  40.29200 45.98300 28.10100
O  39.81500 47.09700 28.25700
C  40.52700 44.98800 29.24500
C  41.50700 45.68600 30.08000
O  42.61800 46.05500 29.84000
O  41.07500 45.90800 31.37500
C  42.07100 46.27400 32.38300
H  42.23200 38.33600 29.52500
H  43.42800 38.37000 23.09900
H  41.35700 44.25500 22.96000
H  42.07400 42.79500 31.20800
H  41.04400 39.99300 31.07100
H  43.78400 41.20300 31.13900
H  43.58900 39.43500 31.14700
H  43.01300 40.46500 32.49200
H  39.18400 42.42900 30.65800
H  39.95200 43.55900 31.66100
H  40.53100 41.22000 33.12200
H  38.88600 40.97100 32.58900
H  44.52400 35.72600 27.89700
H  42.74200 35.25500 28.05400
H  43.44500 36.51000 29.05000
H  44.99700 34.51400 26.06200
H  44.09900 34.01700 24.58300
H  43.15800 34.44300 25.84700
H  42.14100 40.01600 21.35900
H  43.00400 42.74600 21.33900
H  44.09000 41.26200 20.18100
H  44.35600 39.64700 20.59800
H  44.97800 40.82300 21.71800
H  41.07700 41.63200 20.20300
H  40.82600 43.22800 20.75200
H  39.31400 42.55800 22.53900
H  39.84300 40.88000 22.38300
H  39.01800 41.57900 20.95300
H  40.45000 46.32200 23.58800
H  41.26300 47.40300 24.82300
H  39.55800 46.98800 24.99800
H  39.59500 44.80500 29.78000
H  43.05000 45.83000 32.19800
H  41.69400 45.82900 33.30400
H  42.29200 47.33900 32.45900
Mg 16.74700 52.30500 26.70500
C  18.73100 50.80600 29.18600
C  14.50600 53.39800 29.12600
C  14.80100 53.37800 24.26800
C  18.66700 50.61300 24.31400
N  16.60900 51.98100 28.94900
C  17.57900 51.42700 29.70500
C  17.28200 51.68700 31.18200
C  15.80100 52.35900 31.12500
C  15.52500 52.52500 29.66000
C  14.70000 51.62600 31.86000
C  18.35600 52.76200 31.79000
C  18.83600 52.62100 33.22800
H  17.78900 52.20100 34.20300
N  14.95300 53.40100 26.71700
C  14.20400 53.79900 27.80700
C  13.17900 54.64100 27.36100
C  13.14900 54.55900 25.96600
C  14.31600 53.76000 25.57400
C  12.21200 55.27100 28.41700
C  12.06500 55.18800 24.98700
O  12.21000 54.91900 23.77800
C  10.97600 56.11300 25.44300
N  16.77900 52.08000 24.50000
C  15.89700 52.70000 23.77000
C  16.38300 52.59900 22.26500
C  17.69400 51.78800 22.31600
C  17.79500 51.51200 23.82800
C  15.40000 52.07200 21.30600
C  18.86500 52.64600 21.80000
C  19.03700 52.61700 20.24000
N  18.35900 50.97300 26.65000
C  19.01800 50.36000 25.57800
C  20.05300 49.55300 26.10300
C  19.98900 49.70000 27.51500
C  18.92900 50.56500 27.76800
C  21.20300 48.81000 25.53400
C  20.66300 49.27700 28.73000
O  21.63700 48.60100 28.97200
C  19.84800 49.96500 29.87000
C  19.41700 49.00400 30.91100
O  18.79600 48.00200 30.59200
O  19.86400 49.35900 32.17600
C  19.73800 48.48000 33.30800
H  13.85100 53.85600 29.87100
H  14.20300 53.71800 23.42100
H  19.40300 50.17700 23.63500
H  17.31800 50.73100 31.70600
H  15.91700 53.34100 31.58200
H  13.85300 51.38400 31.21900
H  14.23800 52.16400 32.68800
H  15.08200 50.66600 32.20700
H  18.05300 53.77400 31.52200
H  19.24600 52.47300 31.23100
H  19.27300 53.60400 33.40200
H  19.72000 51.98400 33.23000
H  11.49000 55.88300 27.87700
H  12.71400 55.88300 29.16700
H  11.72000 54.51600 29.03100
H  11.40200 57.02400 25.86300
H  10.27900 55.56200 26.07500
H  10.42400 56.37100 24.53900
H  16.56100 53.60900 21.89500
H  17.75200 50.82800 21.80200
H  15.72000 51.18400 20.76100
H  15.21300 52.89000 20.61000
H  14.39200 51.87100 21.66900
H  19.83700 52.29600 22.15000
H  18.74900 53.64400 22.22300
H  19.92600 52.07300 19.92100
H  19.17400 53.64000 19.88700
H  18.22000 52.07900 19.75900
H  22.07400 49.44800 25.39000
H  20.92100 48.49100 24.53000
H  21.48100 47.99600 26.20400
H  20.56900 50.66900 30.28600
H  20.73000 48.60700 33.74100
H  19.67100 47.41200 33.09800
H  19.07300 48.84800 34.08900

