158

Mg -1.30900 17.67800 27.20900
C  -2.04200 15.44800 29.91400
C  -2.08800 20.30700 29.23400
C  -1.20000 19.68200 24.52100
C  -1.12200 14.80200 25.18300
N  -1.99000 17.84300 29.35300
C  -2.09000 16.83400 30.28300
C  -2.30300 17.43400 31.63000
C  -2.54800 18.96100 31.44300
C  -2.17100 19.06700 29.86700
C  -3.94300 19.54100 31.78300
C  -1.17700 17.11400 32.67100
C  -1.55800 16.60500 34.07600
H  -0.39200 16.74200 35.09200
N  -1.53600 19.73000 26.91900
C  -1.74800 20.62100 27.89500
C  -1.79900 21.97900 27.33500
C  -1.44200 21.84800 25.98300
C  -1.41300 20.34300 25.73800
C  -2.17200 23.23900 28.05800
C  -1.32200 22.85500 24.82700
O  -1.01100 22.62000 23.64200
C  -1.46400 24.31100 25.19800
N  -1.09600 17.33700 25.17000
C  -1.06500 18.29400 24.26600
C  -0.81400 17.77900 22.83600
C  -0.47800 16.28200 23.15000
C  -0.87500 16.10800 24.59100
C  -2.02400 18.01200 21.90500
C  1.01900 15.85600 22.84200
C  1.98900 16.55800 23.75800
N  -1.52900 15.60500 27.45100
C  -1.50800 14.55700 26.52900
C  -1.77000 13.28100 27.16200
C  -2.01200 13.61100 28.47500
C  -1.89100 15.04600 28.59300
C  -1.78700 11.96200 26.42300
C  -2.33600 13.05600 29.71700
O  -2.46300 11.82000 29.98800
C  -2.52700 14.25400 30.68200
C  -1.61100 13.88500 31.86600
O  -0.35500 13.86700 31.88500
O  -2.36200 13.37600 32.83900
C  -1.61300 12.39300 33.71500
H  -2.17400 21.13300 29.94300
H  -1.19200 20.36100 23.66500
H  -1.06500 13.97600 24.47100
H  -3.21400 17.04400 32.08400
H  -1.86100 19.52500 32.07400
H  -4.70900 18.82300 32.07500
H  -4.27400 19.96100 30.83300
H  -3.79300 20.28200 32.56800
H  -0.48500 17.93600 32.85500
H  -0.55000 16.41700 32.11500
H  -1.82700 15.54900 34.04700
H  -2.37500 17.29400 34.28600
H  -1.18900 23.66100 28.26400
H  -2.80500 23.04500 28.92400
H  -2.73100 23.95700 27.45700
H  -2.51100 24.60800 25.26000
H  -1.08500 24.95300 24.40300
H  -0.85900 24.32100 26.10500
H  -0.04900 18.47400 22.48800
H  -1.11300 15.57100 22.62200
H  -1.65800 17.95900 20.87900
H  -2.44200 18.98400 22.16300
H  -2.70800 17.16300 21.90600
H  1.15100 16.16900 21.80700
H  1.15200 14.78000 22.95500
H  1.53800 17.06200 24.61300
H  2.49300 17.29300 23.13100
H  2.76000 15.90400 24.16400
H  -0.86500 11.41500 26.61800
H  -1.93400 12.25300 25.38300
H  -2.67400 11.37500 26.65900
H  -3.60400 14.31700 30.83600
H  -1.28600 11.49200 33.19600
H  -2.26500 11.94300 34.46400
H  -0.75400 12.84700 34.20800
Mg 8.53400 3.99400 27.85500
C  9.80900 2.03800 30.49600
C  6.72500 5.83700 30.02700
C  7.43000 5.56400 25.19400
C  10.12100 1.59800 25.77600
N  8.27400 3.90600 30.04900
C  9.05000 3.16200 31.00000
C  8.77600 3.54600 32.40200
C  7.77100 4.81000 32.13900
C  7.59800 4.90000 30.65800
C  6.48700 4.67600 32.94000
C  10.07000 3.92000 33.28600
C  9.84600 3.60100 34.77400
H  10.92900 3.97400 35.72600
N  7.20800 5.52000 27.64600
C  6.56100 6.17600 28.62200
C  5.79000 7.19900 28.07100
C  5.87300 7.08100 26.64700
C  6.84600 6.01400 26.42300
C  5.05900 8.20400 28.94900
C  5.25300 7.85100 25.54900
O  5.50500 7.71600 24.36300
C  4.22400 8.79400 25.92500
N  8.63800 3.47900 25.84200
C  8.19200 4.46200 24.96500
C  8.68200 4.19600 23.53700
C  9.48600 2.90400 23.64900
C  9.48600 2.64500 25.16800
C  7.47600 4.17000 22.52400
C  10.88800 3.00000 22.97200
C  11.26500 2.25000 21.68800
N  9.84000 2.22700 28.01900
C  10.30400 1.35900 27.08200
C  10.97900 0.29900 27.67000
C  10.93400 0.60500 28.98400
C  10.10600 1.70700 29.23100
C  11.62000 -0.87500 26.95800
C  11.37800 0.20200 30.24000
O  12.13300 -0.70400 30.56900
C  10.65700 1.18800 31.34000
C  9.75400 0.43200 32.25300
O  8.64400 -0.03500 31.98900
O  10.31700 0.38000 33.44900
C  9.47200 -0.20900 34.53600
H  6.11000 6.42300 30.71300
H  7.13800 6.06700 24.27000
H  10.70500 0.96600 25.10300
H  8.19800 2.75100 32.87200
H  8.28100 5.68500 32.54200
H  5.68600 4.07300 32.51300
H  5.98700 5.62600 33.12800
H  6.63600 4.29500 33.95000
H  10.21300 5.00000 33.27000
H  10.98400 3.43100 32.95200
H  9.67100 2.52900 34.87200
H  9.04900 4.29000 35.05300
H  5.10500 8.13800 30.03600
H  4.01200 8.19500 28.64700
H  5.40700 9.20800 28.70800
H  3.82800 9.22800 25.00700
H  4.51900 9.58700 26.61200
H  3.53500 8.11100 26.42300
H  9.35800 4.99400 23.22800
H  9.08100 1.97200 23.25500
H  6.54600 3.91000 23.02900
H  7.65400 3.42300 21.75000
H  7.30800 5.17000 22.12600
H  11.69000 2.80100 23.68200
H  11.18200 4.03100 22.77400
H  10.32700 1.81000 21.34800
H  12.02100 1.51900 21.97000
H  11.51600 2.92700 20.87000
H  12.64000 -0.58500 26.70500
H  11.01500 -1.11300 26.08300
H  11.53200 -1.74100 27.61400
H  11.41400 1.83800 31.77900
H  9.12000 -1.22900 34.38000
H  8.62200 0.46700 34.63200
H  10.09100 -0.01100 35.41100

