158

Mg 48.53800 35.47000 28.27900
C  46.58600 33.55200 30.65000
C  48.75700 37.88400 30.40400
C  49.42400 37.29700 25.62700
C  47.66300 32.82000 25.94600
N  47.81100 35.58500 30.33200
C  47.02900 34.74300 31.17500
C  46.92000 35.38400 32.54400
C  47.21000 36.95300 32.24200
C  48.02200 36.75000 30.92600
C  45.93600 37.92400 32.11900
C  47.60400 34.72500 33.71900
C  48.76400 35.34600 34.57400
H  48.41200 35.99400 35.94900
N  49.22300 37.29600 28.12000
C  49.28600 38.12500 29.15600
C  49.85000 39.39600 28.76500
C  50.02600 39.28000 27.28800
C  49.51900 37.93400 26.88800
C  49.99600 40.52600 29.74800
C  50.54700 40.36400 26.32100
O  50.40500 40.21600 25.11300
C  51.12800 41.67300 26.84100
N  48.56100 35.12900 26.10300
C  48.96400 36.08100 25.19300
C  48.89700 35.67700 23.69900
C  48.46400 34.16600 23.90900
C  48.12700 34.04100 25.41100
C  47.92900 36.56200 22.85200
C  49.49200 33.22600 23.38400
C  50.58400 32.62700 24.34300
N  47.56200 33.55900 28.33000
C  47.34200 32.62700 27.28900
C  46.75800 31.42100 27.83200
C  46.30200 31.80700 29.06500
C  46.81400 33.09900 29.36400
C  46.52800 30.10500 27.09600
C  45.43700 31.48800 30.13000
O  44.69300 30.53000 30.28500
C  45.47000 32.62500 31.17100
C  45.71100 32.00400 32.50200
O  46.53600 31.20500 32.69300
O  44.79900 32.38400 33.41500
C  44.86100 31.67600 34.76200
H  48.70300 38.62000 31.21000
H  49.74300 37.96200 24.82200
H  47.40800 32.12200 25.14700
H  45.86300 35.32900 32.80400
H  47.73800 37.49600 33.02500
H  46.21900 38.70800 31.41700
H  45.45600 38.32700 33.01100
H  45.17300 37.36100 31.58300
H  47.97100 33.79600 33.28200
H  46.81100 34.39800 34.39100
H  49.33900 36.05700 33.98100
H  49.36800 34.47400 34.82300
H  48.99500 40.88900 29.98100
H  50.67100 41.29500 29.37100
H  50.50500 40.07600 30.60000
H  51.89000 41.40900 27.57400
H  50.34300 42.24100 27.34100
H  51.47600 42.26600 25.99500
H  49.94000 35.80400 23.40800
H  47.60500 33.95000 23.27400
H  47.13700 35.93400 22.44300
H  48.49600 37.15500 22.13400
H  47.43900 37.22800 23.56200
H  50.01800 33.70400 22.55800
H  48.86500 32.40800 23.03000
H  50.75200 33.43000 25.06200
H  51.54800 32.55800 23.83900
H  50.25200 31.67000 24.74500
H  47.36100 29.82500 26.45100
H  45.64300 30.18200 26.46500
H  46.33100 29.29700 27.80000
H  44.52700 33.14200 31.34600
H  45.54000 30.82400 34.73500
H  43.87300 31.36100 35.09800
H  45.18900 32.35700 35.54700
Mg -12.08600 15.41400 42.67900
C  -8.98500 13.82000 41.99400
C  -10.72500 18.07200 40.87700
C  -15.13100 16.63200 42.30800
C  -13.33200 12.34900 43.71800
N  -10.03200 15.92800 41.66300
C  -9.03700 15.05900 41.43200
C  -7.89300 15.66100 40.66700
C  -8.27400 17.09400 40.48200
C  -9.74200 17.09600 41.08800
C  -7.43400 18.14800 41.21800
C  -7.53100 14.87600 39.31200
C  -6.02500 14.72400 39.01000
H  -5.33400 15.45300 37.74500
N  -12.77000 17.15800 41.78100
C  -12.08200 18.18900 41.26700
C  -13.05500 19.24700 40.90300
C  -14.33100 18.81900 41.33000
C  -14.13800 17.47000 41.86300
C  -12.70700 20.49500 40.13400
C  -15.55400 19.72700 41.38300
O  -15.51100 20.91200 40.98200
C  -16.86000 19.26600 41.93600
N  -13.90300 14.71900 43.21100
C  -15.07800 15.41800 42.98800
C  -16.27100 14.60600 43.36400
C  -15.72000 13.28000 43.83500
C  -14.18400 13.40900 43.50200
C  -17.17800 15.30400 44.48100
C  -16.36700 11.99500 43.42500
C  -16.63300 10.90300 44.50900
N  -11.27800 13.60400 43.16400
C  -11.92300 12.43100 43.54000
C  -10.89500 11.45100 43.78000
C  -9.71600 11.97200 43.15800
C  -10.07300 13.23400 42.68200
C  -11.04200 10.05200 44.35100
C  -8.35200 11.65400 42.83100
O  -7.70800 10.68700 43.12300
C  -7.79200 12.84600 42.09600
C  -6.66900 13.47600 42.89500
O  -6.76500 13.94500 44.02600
O  -5.53200 13.48600 42.11700
C  -4.62100 14.38900 42.78100
H  -10.30500 18.90900 40.31700
H  -16.16600 16.86000 42.04300
H  -13.74900 11.36900 43.96100
H  -7.12800 15.73400 41.44000
H  -8.33800 17.26300 39.40700
H  -6.40200 17.87400 40.99600
H  -7.51800 18.05300 42.30000
H  -7.75000 19.14800 40.92200
H  -8.06300 15.32600 38.47500
H  -7.95200 13.87400 39.22300
H  -5.84400 13.65000 39.04700
H  -5.38800 15.15300 39.78400
H  -12.03400 20.15100 39.34800
H  -12.18700 21.20300 40.77900
H  -13.51800 20.96200 39.57500
H  -17.52000 20.08800 42.21200
H  -16.56900 18.79900 42.87700
H  -17.29600 18.56100 41.22800
H  -16.87200 14.41700 42.47500
H  -15.77000 13.32300 44.92300
H  -16.81500 16.30000 44.73600
H  -17.43200 14.69800 45.35000
H  -18.01700 15.59900 43.84900
H  -15.73900 11.68500 42.59000
H  -17.27700 12.26900 42.89100
H  -15.74000 10.30400 44.69100
H  -17.42200 10.23000 44.17500
H  -16.97300 11.30100 45.46400
H  -10.31900 9.83300 45.13600
H  -10.74400 9.39600 43.53300
H  -12.09700 10.05100 44.62400
H  -7.46200 12.69800 41.06800
H  -5.17700 15.32600 42.74400
H  -3.80100 14.56700 42.08500
H  -4.32000 14.01200 43.75800

