158

Mg 40.24400 10.14800 29.32700
C  42.20800 11.35500 31.96400
C  37.85500 9.18000 31.71300
C  38.32400 8.83900 26.83500
C  42.69500 10.74000 27.02300
N  40.10900 10.12800 31.59400
C  41.01600 10.77500 32.47200
C  40.52600 10.71700 33.90100
C  39.26300 9.74300 33.77900
C  39.03200 9.67800 32.27200
C  39.55300 8.28400 34.34700
C  40.31500 12.15400 34.50000
C  39.65000 12.14300 35.91900
H  40.57700 12.41900 37.13500
N  38.43800 9.05800 29.32900
C  37.61400 8.75400 30.43200
C  36.43100 7.99200 30.02200
C  36.55000 7.96000 28.57800
C  37.80500 8.63600 28.17700
C  35.35100 7.49200 30.96000
C  35.52800 7.41300 27.58100
O  35.69800 7.31200 26.41500
C  34.15200 7.03700 28.12700
N  40.54500 9.72900 27.28800
C  39.50400 9.34500 26.45600
C  39.92900 9.26400 24.95800
C  41.37000 9.79300 25.03800
C  41.59300 10.10800 26.49700
C  39.83000 7.83100 24.43500
C  41.64000 10.95400 24.00400
C  41.48900 12.36200 24.45800
N  42.03100 11.04700 29.44900
C  42.93100 11.16700 28.40300
C  44.24000 11.65800 28.94100
C  43.98800 11.85100 30.37400
C  42.61900 11.39100 30.58100
C  45.46100 11.97100 28.12100
C  44.46100 12.31200 31.65900
O  45.51700 12.82400 32.01600
C  43.36000 11.99800 32.71200
C  43.84500 11.00000 33.70100
O  44.11500 9.82200 33.46800
O  44.04900 11.64800 34.95900
C  44.53000 10.73900 36.03400
H  37.15000 8.94700 32.51400
H  37.67000 8.59400 25.99600
H  43.51500 10.82000 26.30700
H  41.34400 10.19500 34.39900
H  38.38800 10.13600 34.29700
H  38.79900 8.16400 35.12500
H  40.50400 8.25900 34.87800
H  39.62500 7.49900 33.59400
H  39.68100 12.78600 33.87800
H  41.27500 12.66300 34.59600
H  39.23700 11.14800 36.08600
H  38.94600 12.97400 35.87400
H  34.42600 8.06800 30.95100
H  35.82800 7.49800 31.94000
H  34.95100 6.50100 30.74600
H  34.10800 6.16500 28.78000
H  33.58400 6.60400 27.30400
H  33.78200 7.99500 28.49300
H  39.24600 9.99600 24.52700
H  42.17000 9.08400 24.82700
H  39.32100 7.12600 25.09300
H  40.82600 7.39200 24.37000
H  39.40700 7.81400 23.43100
H  41.00800 10.72600 23.14600
H  42.63900 10.88900 23.57300
H  41.26000 12.54200 25.50900
H  40.66000 12.88700 23.98300
H  42.44200 12.85100 24.25700
H  45.35500 11.24000 27.32000
H  46.34700 12.00900 28.75500
H  45.47600 12.98300 27.71600
H  43.11400 12.93100 33.21900
H  45.40400 10.18600 35.69000
H  43.73700 10.06000 36.34600
H  44.89000 11.33200 36.87500
Mg 49.43400 35.72400 27.49400
C  47.40200 34.05000 29.70800
C  50.01100 38.15300 29.84500
C  50.75100 37.64200 25.16300
C  48.68900 33.30900 25.03900
N  48.88600 35.89800 29.57600
C  48.07900 35.05800 30.28500
C  47.99000 35.47900 31.73100
C  48.58400 36.92300 31.64100
C  49.27800 36.99500 30.26600
C  47.52300 38.05200 31.90100
C  48.79200 34.49300 32.62300
C  48.38700 34.17400 34.10300
H  47.35200 35.11700 34.77600
N  50.31100 37.60000 27.47600
C  50.46800 38.39000 28.54900
C  50.99300 39.69500 28.10600
C  51.24000 39.60900 26.70200
C  50.67000 38.26300 26.34900
C  51.16600 40.85600 29.07600
C  51.95500 40.57900 25.87100
O  52.25300 40.34100 24.71500
C  52.49500 41.84700 26.39700
N  49.83100 35.41200 25.31500
C  50.42000 36.40600 24.66100
C  50.47300 35.99200 23.18000
C  49.92500 34.54100 23.15500
C  49.39500 34.39800 24.55000
C  49.68500 36.92400 22.22200
C  50.90000 33.43100 22.79000
C  51.71300 33.51000 21.47500
N  48.36300 33.98600 27.35500
C  48.18600 33.12300 26.32100
C  47.34200 32.01500 26.78700
C  46.96500 32.37400 28.09800
C  47.57300 33.56700 28.36800
C  46.99400 30.70900 26.09200
C  46.15900 31.95800 29.24500
O  45.42300 30.98900 29.45400
C  46.27700 33.09800 30.31900
C  46.64000 32.42500 31.65900
O  47.61500 31.72200 31.93900
O  45.53300 32.60900 32.48700
C  45.54900 31.70700 33.66300
H  49.98100 38.92900 30.61300
H  51.07000 38.36100 24.40500
H  48.52200 32.43900 24.40000
H  46.91500 35.45400 31.90500
H  49.27100 37.12900 32.46200
H  46.52200 37.68300 32.12600
H  47.42200 38.54600 30.93400
H  47.95300 38.69100 32.67200
H  49.78000 34.93500 32.75800
H  49.06100 33.62900 32.01500
H  49.32000 34.20000 34.66600
H  48.18300 33.12300 34.30700
H  50.57800 41.67300 28.65800
H  52.18900 41.16900 29.28500
H  50.74800 40.56700 30.04100
H  51.73900 42.51600 26.80800
H  53.08800 42.40800 25.67400
H  53.28800 41.60800 27.10600
H  51.49300 35.95800 22.79800
H  49.06200 34.38400 22.50800
H  49.08000 36.41400 21.47300
H  50.47100 37.50200 21.73600
H  49.04500 37.63000 22.75200
H  50.34100 32.50100 22.69200
H  51.47600 33.49600 23.71300
H  52.75000 33.72600 21.73100
H  51.15600 34.20800 20.85000
H  51.74400 32.54100 20.97700
H  46.68700 31.02100 25.09300
H  46.23000 30.12500 26.60600
H  47.94600 30.17900 26.07400
H  45.40200 33.74400 30.38800
H  44.54900 31.31000 33.84300
H  45.81900 32.33000 34.51600
H  46.21300 30.84500 33.60100

