158

Mg 9.22900 3.45000 28.44500
C  10.71700 1.91200 31.22900
C  7.96800 5.87200 30.40600
C  7.93300 4.75400 25.56800
C  10.57900 0.78800 26.50900
N  9.30900 3.72800 30.62000
C  9.98800 3.04700 31.56800
C  9.74200 3.77000 32.91800
C  8.86500 5.06400 32.59300
C  8.65500 4.85900 31.06000
C  7.49300 5.22200 33.41000
C  11.09700 4.06800 33.75600
C  11.06100 5.24600 34.69100
H  11.84000 5.14600 36.03900
N  8.03800 5.07600 28.01100
C  7.59700 5.94300 29.00200
C  6.65100 6.87400 28.36200
C  6.75700 6.66400 26.92100
C  7.59600 5.42900 26.77100
C  5.82300 7.92400 29.17900
C  5.84400 7.30000 25.76400
O  5.79800 6.87400 24.58700
C  4.95800 8.47100 26.08100
N  9.24400 2.95300 26.38100
C  8.67700 3.63700 25.37900
C  8.97700 2.99700 23.98600
C  9.71600 1.73000 24.33800
C  9.95400 1.81600 25.88800
C  7.73100 2.80100 23.07600
C  10.99200 1.47900 23.53400
C  11.06500 0.27300 22.52900
N  10.32300 1.74000 28.74900
C  10.73500 0.74900 27.87600
C  11.44300 -0.28100 28.57800
C  11.52600 0.20900 29.90300
C  10.74900 1.32200 29.95900
C  11.95200 -1.52800 27.98100
C  12.12300 -0.14500 31.19200
O  12.99700 -0.96000 31.41100
C  11.55200 1.04500 32.17600
C  10.75700 0.38100 33.30000
O  9.60800 -0.04500 33.27700
O  11.51800 0.44600 34.41600
C  10.87200 0.13100 35.74800
H  7.52000 6.61700 31.06700
H  7.62500 5.24500 24.64200
H  10.83800 -0.16500 26.04300
H  9.05900 3.11600 33.46100
H  9.48000 5.96200 32.65700
H  7.37900 6.24800 33.75800
H  7.33600 4.42300 34.13500
H  6.65700 5.13600 32.71600
H  11.86900 4.22600 33.00300
H  11.32900 3.19600 34.36800
H  10.01500 5.37300 34.97200
H  11.56100 6.00800 34.09300
H  6.61300 8.59400 29.51800
H  5.31600 7.48600 30.03900
H  5.06800 8.51000 28.65400
H  4.40300 8.87800 25.23700
H  5.44900 9.21800 26.70500
H  4.13300 8.07700 26.67400
H  9.69400 3.67700 23.52500
H  9.06400 0.86100 24.24400
H  7.60400 1.74500 22.83700
H  7.75400 3.41000 22.17300
H  6.82900 2.87100 23.68400
H  11.83800 1.49900 24.22100
H  11.17100 2.36800 22.92900
H  10.18300 -0.36600 22.48700
H  11.87800 -0.41000 22.77400
H  11.23300 0.60700 21.50500
H  11.33600 -2.03000 27.23500
H  11.97300 -2.19700 28.84100
H  13.00300 -1.44300 27.70200
H  12.38700 1.58900 32.61800
H  9.81700 -0.13600 35.80500
H  10.86100 0.95600 36.46100
H  11.45800 -0.68800 36.16600
Mg 44.96600 3.09200 47.20900
C  42.99900 5.97000 46.77200
C  42.07800 1.14500 46.74300
C  46.99400 0.36900 46.61200
C  47.85000 5.18400 46.72500
N  42.80700 3.53800 46.80000
C  42.27400 4.76900 46.78900
C  40.74500 4.64000 46.39800
C  40.38500 3.09000 46.62400
C  41.83300 2.52200 46.79800
C  39.54000 2.97000 47.94500
C  40.40500 5.17400 44.94400
C  39.21200 6.20800 44.81400
H  38.29500 6.04200 43.68700
N  44.57500 1.08400 46.96500
C  43.34500 0.47200 46.89100
C  43.55300 -0.99600 46.83800
C  44.94800 -1.25200 46.81700
C  45.59700 0.09900 46.87400
C  42.34700 -1.93100 46.76500
C  45.59800 -2.63500 46.65900
O  44.92100 -3.65700 46.86100
C  46.90200 -2.81700 46.24100
N  47.10100 2.81900 46.72400
C  47.67000 1.59400 46.62100
C  49.22000 1.73600 46.38600
C  49.51200 3.25000 46.40200
C  48.06600 3.78800 46.63500
C  50.00000 0.90800 47.38900
C  50.13600 3.80500 45.08000
C  51.04100 4.94800 45.19200
N  45.45900 5.14500 47.04200
C  46.63600 5.86900 46.93500
C  46.35300 7.33700 46.82900
C  44.92000 7.40800 46.77700
C  44.42600 6.05400 46.88000
C  47.29800 8.41400 46.52400
C  43.70900 8.28100 46.60600
O  43.61500 9.49200 46.54500
C  42.46800 7.40500 46.52400
C  41.64300 7.90600 47.68700
O  41.75900 7.49600 48.79500
O  40.84500 8.99600 47.22500
C  40.15600 9.74400 48.33100
H  41.19000 0.52200 46.61700
H  47.74800 -0.39100 46.40000
H  48.77100 5.71100 46.46700
H  40.08700 5.25800 47.00900
H  39.93900 2.66500 45.72600
H  40.15700 2.53200 48.73100
H  38.69200 2.36900 47.61800
H  39.24300 3.95400 48.30900
H  40.10500 4.32600 44.32900
H  41.31900 5.66700 44.61100
H  39.54300 7.24200 44.71800
H  38.63500 6.19200 45.73900
H  42.63100 -2.70600 46.05300
H  41.39300 -1.54700 46.40300
H  42.24400 -2.41700 47.73500
H  47.11600 -2.24500 45.33900
H  47.12500 -3.84400 45.95200
H  47.60500 -2.55700 47.03200
H  49.25400 1.35400 45.36600
H  50.14600 3.47100 47.26100
H  49.35500 0.25500 47.97700
H  50.61800 1.49500 48.06800
H  50.59400 0.15400 46.87200
H  49.36600 4.00200 44.33400
H  50.61200 2.92300 44.65100
H  50.92200 5.37900 46.18600
H  50.62100 5.79600 44.65000
H  52.04500 4.66700 44.87300
H  48.10900 8.48800 47.24900
H  46.73700 9.34800 46.54900
H  47.69100 8.32500 45.51200
H  41.97200 7.45900 45.55400
H  39.24700 9.22500 48.63500
H  39.86500 10.74000 47.99700
H  40.74400 9.84600 49.24300

