158

Mg 9.11700 47.74900 25.48500
C  6.90400 48.12800 28.12600
C  11.65300 48.57800 27.63400
C  11.24100 47.05100 22.99700
C  6.38300 47.41500 23.28400
N  9.26700 48.10400 27.63800
C  8.23300 48.12100 28.55800
C  8.69800 48.37400 29.97800
C  10.12600 49.00700 29.69100
C  10.41700 48.46000 28.24100
C  10.26800 50.61500 29.87900
C  8.75100 47.12000 30.88500
C  9.06400 47.48800 32.35200
H  9.24600 46.33000 33.33500
N  11.14100 47.77300 25.32700
C  12.02700 48.24600 26.30700
C  13.34300 48.16400 25.79300
C  13.25400 47.53500 24.49400
C  11.83000 47.42300 24.22900
C  14.59500 48.50800 26.58900
C  14.41900 47.21900 23.60400
O  14.31400 46.65400 22.49000
C  15.79700 47.41700 24.04700
N  8.84800 47.36700 23.44800
C  9.87800 46.99400 22.68700
C  9.41300 46.50100 21.30200
C  7.91300 46.51200 21.42800
C  7.67400 47.21400 22.81200
C  9.99700 47.39100 20.17300
C  7.39600 45.06700 21.30800
C  6.01300 44.97500 20.72900
N  7.06900 47.93800 25.54900
C  6.02200 47.81500 24.57900
C  4.76400 48.01200 25.24800
C  5.09000 48.17300 26.57900
C  6.44600 48.06300 26.78400
C  3.38600 47.86800 24.67100
C  4.48400 48.45300 27.85700
O  3.29300 48.58800 28.08600
C  5.63600 48.32600 28.96100
C  5.46500 47.27500 29.85900
O  5.47300 46.05100 29.54800
O  5.26500 47.68700 31.10500
C  5.29800 46.71900 32.19700
H  12.40700 49.00900 28.29500
H  11.90400 46.62100 22.24200
H  5.53900 47.28200 22.60400
H  8.06200 49.10400 30.47900
H  10.93300 48.59800 30.30000
H  9.26500 51.00700 30.05300
H  10.67600 51.17000 29.03400
H  10.98500 50.85800 30.66300
H  9.54700 46.47800 30.50800
H  7.87400 46.48900 30.74200
H  8.18400 48.06600 32.63500
H  9.92600 48.14900 32.44100
H  14.38700 48.79900 27.61800
H  15.09800 49.38500 26.18300
H  15.32200 47.69900 26.67300
H  16.14000 46.88100 24.93200
H  15.83500 48.48100 24.28200
H  16.40300 47.09000 23.20200
H  9.85300 45.52900 21.08000
H  7.57300 47.24800 20.69900
H  11.03500 47.69900 20.29700
H  9.30500 48.23100 20.11400
H  9.86800 46.90800 19.20400
H  7.25800 44.78900 22.35300
H  8.09600 44.43400 20.76300
H  5.25300 44.44500 21.30200
H  6.07700 44.51200 19.74400
H  5.53100 45.93600 20.55000
H  3.24300 48.73700 24.03000
H  2.74300 47.86800 25.55100
H  3.33600 46.97500 24.04700
H  5.76500 49.29200 29.44900
H  4.34300 46.61800 32.71300
H  5.97800 47.08900 32.96400
H  5.59700 45.68100 32.05500
Mg -10.18600 40.49500 39.31500
C  -9.23200 37.05200 38.87000
C  -6.95100 41.26200 38.77200
C  -11.17800 43.60400 38.57600
C  -13.56100 39.38000 39.10100
N  -8.37300 39.25500 38.69400
C  -8.17700 37.89200 38.72200
C  -6.73800 37.53200 38.61100
C  -6.04300 38.91500 38.87100
C  -7.23000 39.92300 38.85200
C  -5.24900 38.98400 40.21600
C  -6.28400 36.93800 37.22400
C  -6.72100 37.56000 35.88300
H  -7.64600 36.77700 34.94500
N  -9.14700 42.26900 38.91000
C  -7.82000 42.39600 38.65900
C  -7.52100 43.76900 38.53100
C  -8.71400 44.45000 38.20100
C  -9.72900 43.41200 38.51400
C  -6.10300 44.28200 38.32000
C  -8.92300 45.90000 37.66700
O  -7.95500 46.58500 37.38100
C  -10.25000 46.54000 37.44800
N  -12.10600 41.36200 38.97700
C  -12.19800 42.68700 38.82400
C  -13.63300 43.11800 38.86900
C  -14.40700 41.80800 39.08000
C  -13.33300 40.76700 39.07600
C  -13.85900 44.26600 39.93900
C  -15.54800 41.52800 38.05500
C  -16.81600 42.49100 38.05600
N  -11.19500 38.67300 39.17900
C  -12.59200 38.37900 39.10100
C  -12.80800 36.92900 39.04600
C  -11.46300 36.40000 38.95700
C  -10.55000 37.46500 38.98500
C  -14.21700 36.25800 38.90400
C  -10.72900 35.21000 38.79600
O  -11.19700 34.07200 38.77000
C  -9.26900 35.60600 38.65700
C  -8.62400 34.81800 39.64200
O  -8.91000 34.82200 40.86300
O  -7.59500 34.01800 39.13400
C  -6.77400 33.17200 40.03500
H  -5.91500 41.60600 38.77700
H  -11.51500 44.63700 38.46600
H  -14.60000 39.04800 39.04900
H  -6.60000 36.88000 39.47400
H  -5.32100 39.16200 38.09300
H  -5.26700 40.00900 40.58500
H  -4.21100 38.77200 39.95700
H  -5.56000 38.31800 41.02100
H  -6.61500 35.90400 37.13300
H  -5.19400 36.95000 37.22000
H  -5.81200 37.63800 35.28800
H  -7.00600 38.60400 36.01200
H  -5.90100 45.15200 38.94400
H  -5.86600 44.51700 37.28200
H  -5.39900 43.47400 38.51900
H  -10.66700 46.70800 38.44000
H  -10.82300 45.85700 36.82100
H  -10.23500 47.46300 36.86800
H  -13.85700 43.41600 37.84500
H  -14.89200 41.74400 40.05400
H  -14.65800 44.02600 40.64000
H  -14.16800 45.17700 39.42500
H  -12.93100 44.45500 40.47800
H  -15.94100 40.53000 38.25100
H  -15.12800 41.38700 37.05900
H  -16.87200 42.93400 37.06100
H  -16.74500 43.24300 38.84200
H  -17.79200 42.01600 38.15700
H  -15.01900 36.58200 39.56800
H  -14.04400 35.19100 39.04300
H  -14.47800 36.43500 37.86000
H  -8.98300 35.26100 37.66300
H  -7.14400 33.38000 41.03900
H  -5.72300 33.38900 39.84400
H  -6.84200 32.09100 39.91000

