158

Mg 16.70500 -2.16800 28.14400
C  15.69900 -0.21600 30.77800
C  19.00600 -3.75900 30.24800
C  18.04200 -3.73700 25.56100
C  14.69700 -0.20400 26.01100
N  17.35800 -1.87500 30.28400
C  16.68700 -1.16400 31.20500
C  17.26800 -1.41000 32.65700
C  18.40000 -2.46200 32.30900
C  18.28500 -2.74100 30.83600
C  19.87000 -2.10300 32.74100
C  16.13100 -1.89300 33.64900
C  15.94800 -1.00000 34.89800
H  17.12900 -0.34200 35.70400
N  18.31900 -3.63300 27.95400
C  19.05500 -4.19100 28.91500
C  19.94500 -5.14000 28.37600
C  19.72200 -5.18000 26.95900
C  18.61700 -4.16400 26.74300
C  20.89600 -5.96400 29.29500
C  20.45500 -5.96500 25.86700
O  20.09100 -5.80100 24.74300
C  21.69900 -6.83400 26.14100
N  16.40200 -1.98100 26.03800
C  17.05000 -2.80900 25.18100
C  16.79900 -2.41700 23.80400
C  15.53800 -1.49100 23.97100
C  15.55200 -1.17300 25.46800
C  18.01800 -1.83200 23.02000
C  14.18600 -1.94100 23.42500
C  13.63100 -1.00500 22.32200
N  15.43300 -0.60600 28.28000
C  14.64700 0.02900 27.35600
C  13.80600 1.04800 28.04100
C  14.19200 0.90200 29.34000
C  15.19900 -0.01900 29.46200
C  12.84400 2.00000 27.44100
C  13.93900 1.52200 30.64800
O  13.23300 2.44000 31.00800
C  14.84300 0.64900 31.69200
C  15.57400 1.62700 32.51800
O  16.74400 1.88300 32.43300
O  14.66000 2.16900 33.45000
C  15.21800 3.14800 34.40500
H  19.71900 -4.35600 30.82100
H  18.29700 -4.32600 24.67700
H  14.10400 0.39800 25.32000
H  17.76400 -0.54500 33.09600
H  18.05700 -3.34900 32.84200
H  19.98600 -1.13500 33.23000
H  20.51800 -2.12100 31.86500
H  20.17300 -2.84700 33.47800
H  16.27300 -2.93900 33.92100
H  15.21400 -1.85200 33.06100
H  15.44100 -1.62100 35.63600
H  15.27400 -0.19400 34.60900
H  21.20000 -6.89200 28.81300
H  20.62900 -6.10800 30.34200
H  21.82600 -5.39700 29.32900
H  21.36700 -7.76900 26.59100
H  22.31200 -6.33500 26.89300
H  22.29700 -6.99900 25.24400
H  16.54900 -3.35200 23.30200
H  15.85900 -0.58600 23.45500
H  18.87700 -2.01000 23.66800
H  17.92200 -0.75200 22.90300
H  18.03200 -2.21200 21.99900
H  13.54700 -2.14800 24.28400
H  14.36000 -2.91500 22.96800
H  14.39900 -0.42200 21.81300
H  13.09900 -0.24100 22.88900
H  12.94700 -1.56100 21.68200
H  12.16900 2.35200 28.22100
H  12.22000 1.45500 26.73200
H  13.32800 2.83400 26.93400
H  14.09200 0.12500 32.28300
H  14.97700 4.12000 33.97600
H  16.27000 3.15000 34.68900
H  14.59100 3.11600 35.29600
Mg 54.75600 24.42900 44.70200
C  52.41200 26.91600 43.78400
C  52.44100 22.07000 43.87800
C  57.19300 22.31700 44.10700
C  56.99400 27.02900 45.48200
N  52.66600 24.43400 43.71300
C  51.92200 25.58900 43.59500
C  50.51800 25.17000 43.27700
C  50.42400 23.72700 43.83000
C  51.96600 23.34800 43.80400
C  49.73400 23.49100 45.27500
C  50.28700 25.15700 41.75100
C  48.76500 25.14600 41.33600
H  48.41000 24.88400 39.81800
N  54.77100 22.48800 44.11200
C  53.72300 21.62400 43.88800
C  54.14800 20.22800 43.79800
C  55.57500 20.30700 43.84800
C  55.92200 21.75100 43.98300
C  53.15800 18.99000 43.61600
C  56.50500 19.14100 43.78500
O  56.08200 17.98500 43.59400
C  58.04800 19.26200 43.83000
N  56.89000 24.73100 44.53500
C  57.67400 23.59900 44.40100
C  59.03600 23.82600 45.02800
C  59.04700 25.44000 45.24500
C  57.55000 25.75900 45.13200
C  59.25800 23.10200 46.32800
C  59.95800 26.16800 44.22200
C  59.30300 26.59300 42.83600
N  54.69500 26.55700 44.85800
C  55.68700 27.40300 45.20400
C  55.12600 28.72700 45.18000
C  53.87900 28.61800 44.64300
C  53.67400 27.23900 44.40500
C  55.88900 29.92600 45.46500
C  52.69200 29.34300 44.28000
O  52.34300 30.52400 44.32200
C  51.72100 28.25900 43.62900
C  51.33900 28.56000 42.22400
O  52.08900 28.64600 41.27300
O  49.94700 28.78200 42.11600
C  49.43100 29.09600 40.77000
H  51.71200 21.25800 43.83900
H  58.04500 21.63400 44.13300
H  57.74700 27.76800 45.76500
H  49.89600 25.84200 43.86800
H  49.91600 23.10400 43.09400
H  50.49100 23.54400 46.05700
H  49.22600 22.53100 45.36800
H  49.06100 24.28200 45.60600
H  50.81100 24.34000 41.25400
H  50.66500 26.11100 41.38500
H  48.28300 26.08800 41.59800
H  48.33000 24.29000 41.85300
H  53.68400 18.21500 43.05800
H  52.22300 19.21100 43.10000
H  52.85400 18.58600 44.58100
H  58.44000 19.82000 42.97900
H  58.51400 18.27900 43.88900
H  58.40300 19.61900 44.79700
H  59.78900 23.51600 44.30400
H  59.35900 25.70200 46.25600
H  60.07300 22.39700 46.16200
H  58.31000 22.70300 46.68900
H  59.66500 23.71900 47.12900
H  60.81900 25.53700 44.00100
H  60.35900 27.05100 44.71900
H  58.30500 26.17400 42.70400
H  59.84900 25.99900 42.10200
H  59.32900 27.68000 42.76200
H  55.35100 30.87000 45.55600
H  56.81000 29.92700 44.88100
H  56.28600 29.74500 46.46300
H  50.81600 28.36500 44.22700
H  48.53600 29.67200 41.00500
H  49.16800 28.14100 40.31300
H  50.03300 29.73600 40.12400

