158

Mg 24.17800 -4.35800 46.06900
C  26.59900 -2.40200 44.72400
C  21.98700 -3.18100 43.68300
C  22.25300 -6.92600 46.76600
C  26.65500 -5.70400 48.39900
N  24.30500 -2.95400 44.46700
C  25.36500 -2.21900 44.11700
C  25.03100 -1.30800 42.87500
C  23.47000 -1.23400 43.03900
C  23.22100 -2.52800 43.85100
C  23.04600 0.03600 43.85600
C  25.65400 -1.91400 41.60100
C  26.15100 -0.85800 40.60200
H  25.55000 -0.87500 39.15500
N  22.29700 -4.89600 45.29200
C  21.57600 -4.32200 44.29500
C  20.42400 -5.11500 44.19700
C  20.50500 -6.28200 44.95200
C  21.72600 -6.09600 45.71300
C  19.34500 -4.77300 43.11300
C  19.49700 -7.39100 44.94000
O  18.56500 -7.43800 44.10900
C  19.59200 -8.55200 45.89900
N  24.54800 -6.09900 47.39000
C  23.48200 -6.90800 47.53500
C  23.65800 -7.86800 48.75200
C  24.96700 -7.33500 49.40300
C  25.44400 -6.38500 48.33800
C  22.39400 -7.92600 49.67900
C  26.01800 -8.47800 49.61100
C  27.02300 -8.38000 50.75800
N  26.21600 -4.04400 46.56900
C  27.05600 -4.67400 47.48000
C  28.41400 -4.09500 47.34300
C  28.26700 -3.16300 46.29600
C  26.90300 -3.27600 45.83100
C  29.59900 -4.56000 48.16900
C  28.99400 -2.24500 45.49600
O  30.16600 -1.85100 45.59100
C  27.96500 -1.69600 44.46100
C  27.89000 -0.24000 44.70500
O  27.07600 0.35700 45.44100
O  28.83400 0.36000 43.96000
C  29.14600 1.78300 44.08300
H  21.33800 -2.71900 42.93600
H  21.62200 -7.77600 47.03500
H  27.42400 -6.01300 49.10900
H  25.53100 -0.37300 43.12700
H  23.07400 -1.28900 42.02500
H  23.80700 0.81600 43.88700
H  22.77600 -0.27000 44.86700
H  22.17300 0.47700 43.37500
H  24.85600 -2.45000 41.08500
H  26.35400 -2.74500 41.68500
H  27.23700 -0.88700 40.69100
H  25.77000 0.05400 41.06200
H  18.38700 -5.04400 43.55800
H  19.49000 -5.32000 42.18200
H  19.26100 -3.71300 42.87100
H  18.89300 -9.33300 45.59900
H  19.27000 -8.39400 46.92900
H  20.55500 -9.06000 45.84800
H  23.85300 -8.84200 48.30400
H  24.72100 -6.74400 50.28400
H  21.61800 -7.25000 49.32300
H  22.46500 -7.59600 50.71500
H  21.97300 -8.92400 49.80200
H  26.54800 -8.48100 48.65900
H  25.57600 -9.46300 49.76100
H  26.82700 -9.05400 51.59100
H  27.03300 -7.34600 51.10300
H  27.99600 -8.68900 50.37600
H  29.91900 -5.51100 47.74200
H  29.37300 -4.71900 49.22300
H  30.44000 -3.87000 48.09300
H  28.27500 -1.84400 43.42600
H  30.08700 2.07800 43.61900
H  29.26700 1.99800 45.14400
H  28.29000 2.35700 43.72800
Mg 26.36400 49.89600 27.11600
C  24.29500 51.18200 29.62700
C  28.59800 49.29700 29.66800
C  28.55100 48.82200 24.84700
C  24.30200 51.08300 24.62500
N  26.37800 50.09600 29.38600
C  25.43500 50.63400 30.17000
C  25.68500 50.36000 31.65300
C  27.21100 50.12600 31.56800
C  27.41300 49.68700 30.09400
C  28.06900 51.34400 32.02300
C  24.99100 49.25100 32.41000
C  24.42100 49.41200 33.82600
H  25.45000 49.89300 34.91600
N  28.32300 49.25600 27.19900
C  29.02100 48.94000 28.35000
C  30.35900 48.55000 27.99000
C  30.38700 48.36300 26.58300
C  29.06600 48.79400 26.11700
C  31.45900 48.38600 28.97500
C  31.52100 47.82200 25.69400
O  31.44100 47.76000 24.45900
C  32.85300 47.39600 26.28900
N  26.45200 50.06600 25.01700
C  27.35500 49.31700 24.32200
C  27.02200 49.20400 22.82300
C  25.52300 49.70900 22.81100
C  25.34200 50.25000 24.28700
C  27.88800 50.15700 22.00800
C  24.38200 48.57800 22.56000
C  23.20400 48.97500 21.68000
N  24.57500 50.98100 27.04700
C  23.81000 51.44100 25.94800
C  22.62500 52.16700 26.49000
C  22.84600 52.12000 27.90200
C  23.99100 51.37500 28.23100
C  21.54800 52.90400 25.65200
C  22.24600 52.46300 29.20600
O  21.21700 53.09000 29.42900
C  23.15300 51.86100 30.40700
C  23.68400 53.02000 31.20200
O  24.70900 53.65400 30.90100
O  22.97100 53.18000 32.33300
C  23.51700 54.13900 33.33000
H  29.41100 49.19600 30.38900
H  29.17300 48.58400 23.98200
H  23.57600 51.46500 23.90400
H  25.50800 51.24700 32.26100
H  27.53100 49.24400 32.12300
H  27.40100 52.07900 32.47300
H  28.48600 51.82100 31.13600
H  28.84600 51.09800 32.74700
H  25.68100 48.40800 32.42900
H  24.10800 48.96700 31.83900
H  23.99500 48.47800 34.19100
H  23.84900 50.33500 33.91700
H  31.78900 47.35700 29.11800
H  31.27500 48.73900 29.99000
H  32.29800 48.95300 28.57300
H  33.39300 48.21000 26.77200
H  33.53400 47.09500 25.49200
H  32.67600 46.47500 26.84400
H  27.03800 48.20400 22.39000
H  25.38700 50.44900 22.02300
H  28.78300 50.47200 22.54600
H  27.44200 51.10900 21.72200
H  28.17100 49.69500 21.06300
H  24.04400 48.26000 23.54700
H  24.82600 47.71400 22.06600
H  23.37500 49.91800 21.16100
H  22.33700 49.05000 22.33700
H  23.13700 48.10000 21.03400
H  21.79100 53.08300 24.60400
H  21.64900 53.89500 26.09500
H  20.64100 52.30500 25.57900
H  22.68100 51.08200 31.00600
H  24.39900 53.62100 33.70800
H  22.66700 54.35300 33.97700
H  23.90400 55.02300 32.82200

