158

Mg -0.01000 7.40800 27.31800
C  1.08700 9.56600 29.91300
C  -0.12800 4.82200 29.73300
C  -0.65800 5.33700 24.82100
C  0.56600 9.95200 25.09300
N  0.60700 7.21800 29.56400
C  0.80300 8.31900 30.44700
C  0.64100 7.89900 31.89900
C  0.51100 6.36400 31.77800
C  0.36500 6.05700 30.26600
C  1.66100 5.58900 32.41400
C  -0.61800 8.58500 32.54400
C  -0.52800 8.91100 34.06900
H  0.66000 8.46700 34.91400
N  -0.35500 5.33200 27.25300
C  -0.35200 4.48400 28.28900
C  -0.59400 3.13000 27.77800
C  -0.74800 3.27400 26.35700
C  -0.55500 4.69800 26.08700
C  -0.54600 1.92100 28.68000
C  -1.08800 2.17200 25.38300
O  -1.20700 2.42800 24.19800
C  -1.33500 0.74500 25.81500
N  0.01200 7.59100 25.28000
C  -0.26400 6.58300 24.41800
C  -0.31500 7.02900 22.99500
C  -0.24100 8.59600 23.13500
C  0.09500 8.74500 24.58500
C  0.83200 6.48500 22.14400
C  -1.57300 9.37900 22.79000
C  -1.41500 10.62400 21.87000
N  0.78000 9.34700 27.37200
C  0.95000 10.25700 26.39500
C  1.33000 11.51200 26.96400
C  1.36900 11.30300 28.37100
C  1.04400 9.97200 28.57100
C  1.69900 12.75000 26.18600
C  1.68400 11.95200 29.65600
O  2.21500 13.03800 29.92900
C  1.39700 10.88500 30.75800
C  2.59300 10.82600 31.65300
O  3.40900 9.92300 31.62800
O  2.48300 11.73300 32.70600
C  3.46400 11.64900 33.76900
H  -0.30700 3.98200 30.40700
H  -0.91500 4.67200 23.99300
H  0.60300 10.79400 24.39800
H  1.55300 8.21500 32.40500
H  -0.36600 6.02400 32.32900
H  2.19800 6.16300 33.16900
H  2.25200 5.35100 31.52900
H  1.27100 4.67700 32.86500
H  -1.43200 7.88700 32.34700
H  -0.83500 9.46300 31.93600
H  -1.40600 8.45000 34.52200
H  -0.61900 9.99700 34.05600
H  0.20700 1.28000 28.22200
H  -1.53400 1.46000 28.63900
H  -0.31200 2.04900 29.73700
H  -1.85200 0.19100 25.03100
H  -1.88700 0.58200 26.74000
H  -0.32400 0.36800 25.96700
H  -1.27100 6.72300 22.56900
H  0.57600 9.04200 22.56900
H  1.68100 7.15100 22.29600
H  0.58100 6.39300 21.08700
H  1.11100 5.49000 22.48900
H  -1.99100 9.79600 23.70600
H  -2.30200 8.69300 22.35900
H  -0.37300 10.75400 21.57700
H  -1.72500 11.50700 22.43000
H  -2.10900 10.50800 21.03800
H  0.73600 13.10900 25.82400
H  2.21900 12.41300 25.28900
H  2.29200 13.43700 26.79100
H  0.61400 11.25100 31.42200
H  3.08400 11.11000 34.63700
H  3.77800 12.66500 34.00900
H  4.35400 11.12400 33.42300
Mg 44.09500 4.81900 46.48800
C  41.88100 7.55800 46.10000
C  41.52200 2.69400 46.09600
C  46.35000 2.26700 46.18800
C  46.70600 7.11300 46.20000
N  41.92100 5.09800 45.89800
C  41.24100 6.27500 45.95500
C  39.73300 6.06100 45.86300
C  39.61100 4.48500 45.95200
C  41.11400 4.03600 46.04100
C  38.64900 3.96100 47.08100
C  39.02700 6.76000 44.66600
C  39.83500 6.78500 43.41400
H  39.10400 7.25000 42.12200
N  43.90100 2.65800 46.34700
C  42.72400 2.07300 46.14200
C  42.92400 0.60200 45.97400
C  44.38800 0.50900 45.85600
C  44.94400 1.84200 46.10600
C  41.85500 -0.48100 45.71500
C  45.17300 -0.75900 45.46300
O  44.52600 -1.81100 45.37500
C  46.65300 -0.79000 45.23500
N  46.25800 4.63200 46.30500
C  46.93600 3.51800 46.23800
C  48.44900 3.66300 46.12000
C  48.51400 5.24300 46.09200
C  47.09100 5.71400 46.23800
C  49.24900 3.04200 47.32600
C  49.08800 5.72800 44.72000
C  50.59500 5.49800 44.61100
N  44.27300 6.89400 46.26400
C  45.41600 7.71800 46.20900
C  45.00200 9.11600 45.98700
C  43.63200 9.05900 46.16200
C  43.21400 7.75100 46.20900
C  45.88400 10.31300 45.79700
C  42.45500 9.93300 46.26000
O  42.40600 11.15200 46.32600
C  41.20600 8.95000 46.10300
C  40.22900 9.14300 47.25300
O  40.22100 8.50200 48.32100
O  39.32800 10.13000 46.92900
C  38.49200 10.66500 47.97200
H  40.70000 2.01800 45.85200
H  46.97300 1.37100 46.21200
H  47.59100 7.71600 45.98600
H  39.44700 6.55700 46.79000
H  39.25600 4.08900 45.00100
H  39.32800 3.38400 47.70900
H  37.85600 3.37600 46.61500
H  38.22100 4.81300 47.60900
H  39.08100 7.82700 44.88300
H  38.00300 6.46500 44.43500
H  40.20300 5.79500 43.14500
H  40.73000 7.39200 43.55200
H  41.93100 -1.36800 46.34300
H  41.97200 -0.82200 44.68600
H  40.86600 -0.05900 45.89600
H  47.21500 -0.79700 46.16900
H  46.75300 0.04900 44.54700
H  46.88900 -1.72100 44.72000
H  48.74000 3.29300 45.13700
H  49.14200 5.50900 46.94300
H  48.63200 3.10700 48.22200
H  50.24800 3.46600 47.43400
H  49.36400 1.97500 47.13400
H  48.97300 6.80600 44.60800
H  48.66800 5.15300 43.89500
H  51.00700 5.00800 45.49300
H  51.03600 6.49000 44.51100
H  50.83200 4.99100 43.67600
H  46.01100 10.48700 44.72800
H  46.80200 10.09200 46.34200
H  45.38800 11.21100 46.16300
H  40.75500 9.21100 45.14500
H  38.81800 11.59100 48.44700
H  38.48100 9.99500 48.83200
H  37.51500 10.74400 47.49500

