158

Mg 1.09100 7.67900 25.52000
C  1.76800 9.72600 28.22500
C  0.98800 4.97700 27.59400
C  0.53300 5.72200 22.85800
C  1.32400 10.45500 23.43800
N  1.27000 7.39200 27.64400
C  1.53500 8.34500 28.58700
C  1.65500 7.76000 29.98900
C  1.59800 6.18700 29.66600
C  1.19500 6.15100 28.25500
C  2.93000 5.42900 29.92300
C  0.50700 8.17200 30.91900
C  0.62100 7.91900 32.47800
H  1.90500 7.28800 33.04400
N  0.86800 5.66500 25.24400
C  0.82400 4.66200 26.23900
C  0.41500 3.37300 25.67700
C  0.51500 3.60400 24.23700
C  0.65600 5.03500 24.07600
C  0.22000 2.07600 26.38300
C  0.46500 2.69000 23.05500
O  0.80000 2.99300 21.88400
C  0.25700 1.19200 23.40500
N  1.20900 8.08500 23.38500
C  0.83100 7.11000 22.47100
C  0.53100 7.61800 21.06100
C  0.75000 9.17700 21.27300
C  1.10000 9.29000 22.77900
C  1.36500 7.00700 19.88600
C  -0.32100 10.21600 20.80200
C  0.18700 11.01100 19.49800
N  1.55000 9.68100 25.71000
C  1.55900 10.71800 24.83100
C  1.77400 12.00800 25.52400
C  1.95000 11.57400 26.81000
C  1.72000 10.23200 26.91600
C  1.73900 13.38400 24.96000
C  2.29100 12.11400 28.10200
O  2.64100 13.20800 28.40800
C  1.95400 10.95700 29.12600
C  3.04000 10.88100 30.08400
O  4.19700 10.44000 29.87100
O  2.64300 11.42100 31.27400
C  3.67700 11.38200 32.26800
H  0.89600 4.06400 28.18600
H  0.03500 5.27200 21.99600
H  1.12000 11.26400 22.73300
H  2.60100 8.02000 30.46500
H  0.91300 5.74500 30.38900
H  2.85600 4.65200 30.68400
H  3.67900 6.13300 30.28600
H  3.38200 4.97600 29.04000
H  -0.34200 7.65300 30.47400
H  0.33300 9.23900 30.78000
H  -0.19300 7.24900 32.75300
H  0.54100 8.89400 32.95800
H  -0.63700 1.75200 25.79300
H  -0.12800 2.04600 27.41600
H  1.03800 1.36300 26.27600
H  1.08000 0.81300 24.01100
H  0.41200 0.71800 22.43500
H  -0.75500 0.88500 23.66800
H  -0.52300 7.48800 20.81300
H  1.67500 9.44600 20.76300
H  2.34500 6.69600 20.24800
H  1.61500 7.71700 19.09800
H  0.92500 6.08400 19.50900
H  -0.45100 10.90600 21.63600
H  -1.22700 9.65300 20.57700
H  -0.59700 11.68500 19.15100
H  0.57900 10.33500 18.73900
H  0.99700 11.71300 19.69800
H  0.75700 13.78900 25.20400
H  1.79600 13.34400 23.87300
H  2.56200 14.01200 25.30200
H  0.97000 11.24700 29.49500
H  3.52700 11.96200 33.17800
H  4.57800 11.71500 31.75100
H  3.74200 10.35400 32.62300
Mg -5.18900 25.33100 26.06300
C  -3.52300 26.69000 28.76100
C  -6.70000 23.04100 28.23600
C  -6.69000 23.74300 23.45600
C  -3.24300 27.21500 23.92800
N  -5.06200 24.93100 28.28000
C  -4.42000 25.72500 29.20000
C  -4.87000 25.49000 30.64700
C  -5.55800 24.11100 30.39500
C  -5.84400 23.99200 28.84800
C  -4.71100 22.77200 30.81000
C  -5.81100 26.60600 31.19200
C  -5.60600 26.85700 32.69100
H  -5.18500 25.67200 33.53200
N  -6.54300 23.63400 25.92900
C  -6.98800 22.83700 26.89400
C  -7.86000 21.75400 26.38300
C  -7.92900 22.03000 24.97500
C  -7.00500 23.17600 24.69800
C  -8.39300 20.61500 27.24100
C  -8.71900 21.28500 23.83800
O  -8.45500 21.45200 22.67000
C  -9.76800 20.32500 24.17600
N  -4.89300 25.43400 23.98900
C  -5.79400 24.79000 23.14900
C  -5.73200 25.50200 21.78800
C  -4.80500 26.71200 21.99700
C  -4.26400 26.48300 23.43400
C  -5.26300 24.54700 20.59400
C  -5.51100 28.02300 21.86400
C  -6.23600 28.49600 20.57000
N  -3.63200 26.66400 26.27300
C  -2.93700 27.37900 25.34100
C  -2.00400 28.26700 25.95400
C  -2.10900 28.00600 27.27400
C  -3.15500 27.07000 27.45800
C  -1.04500 29.19500 25.24900
C  -1.62400 28.37500 28.63500
O  -0.80900 29.20500 29.00300
C  -2.50400 27.49300 29.61600
C  -1.52900 26.61100 30.33200
O  -0.95800 25.61400 29.89800
O  -1.53500 26.97100 31.65800
C  -0.81800 26.26300 32.72200
H  -7.19600 22.36100 28.93200
H  -7.27500 23.51800 22.56200
H  -2.74800 27.88800 23.22500
H  -3.92300 25.32000 31.15800
H  -6.52200 24.03700 30.89800
H  -3.69600 23.00900 31.13000
H  -4.66800 21.93000 30.12000
H  -5.20500 22.49400 31.74100
H  -6.89100 26.48000 31.10900
H  -5.69200 27.53600 30.63700
H  -6.56400 27.21300 33.07100
H  -4.85400 27.62200 32.88400
H  -9.42500 20.46900 26.92200
H  -8.41700 20.82400 28.31100
H  -7.82500 19.70000 27.07300
H  -9.39600 19.39500 24.60500
H  -10.30600 20.37300 23.22900
H  -10.39100 20.84600 24.90200
H  -6.77200 25.78700 21.62700
H  -3.91600 26.85700 21.38100
H  -5.48800 23.51900 20.87800
H  -4.20200 24.72200 20.41600
H  -5.82300 24.74800 19.68000
H  -4.81100 28.82700 22.09100
H  -6.18300 28.17500 22.70900
H  -5.93700 27.83200 19.75900
H  -5.79900 29.46800 20.34200
H  -7.32600 28.50700 20.56600
H  -0.70000 28.64300 24.37400
H  -0.22400 29.37300 25.94300
H  -1.54900 30.09400 24.89200
H  -3.04100 28.14300 30.30700
H  -0.11500 25.57300 32.25600
H  -1.57400 25.74100 33.30900
H  -0.34600 26.97400 33.39900

