158

Mg 17.25100 -1.35700 28.48600
C  16.45200 0.22400 31.35100
C  19.34200 -3.48100 30.16800
C  18.72700 -2.21500 25.57300
C  15.71800 1.42100 26.64400
N  17.96400 -1.53600 30.51700
C  17.39900 -0.77900 31.55300
C  17.77300 -1.29300 32.92500
C  18.95800 -2.30700 32.58700
C  18.73700 -2.48600 31.00600
C  20.39300 -1.86800 33.01800
C  16.61100 -1.85900 33.70600
C  16.33700 -1.45900 35.20800
H  17.39800 -0.71300 36.06400
N  18.62400 -2.80400 27.90700
C  19.33200 -3.62100 28.77300
C  20.19000 -4.57800 28.01400
C  20.02500 -4.22800 26.67000
C  19.11000 -3.01700 26.67000
C  21.11200 -5.52300 28.64600
C  20.58100 -4.77700 25.35900
O  20.27700 -4.34000 24.22500
C  21.39400 -6.05800 25.38900
N  17.14800 -0.54300 26.35000
C  17.92200 -1.12800 25.42200
C  17.80700 -0.38400 24.03900
C  16.74300 0.74800 24.36400
C  16.58900 0.61900 25.90800
C  19.10800 0.19700 23.41500
C  15.32700 0.41700 23.67600
C  15.18200 0.35800 22.17800
N  16.23700 0.38500 28.82800
C  15.62200 1.37800 28.00100
C  14.89400 2.31000 28.84800
C  15.15600 1.90200 30.16400
C  16.03200 0.76700 30.12800
C  14.03100 3.46700 28.37900
C  14.87500 2.20000 31.53400
O  14.25900 3.17400 31.91900
C  15.65200 1.08500 32.42600
C  16.56000 1.91300 33.27900
O  17.66000 2.36000 32.86600
O  15.81300 2.30100 34.41800
C  16.50400 3.16800 35.34700
H  20.07000 -4.13300 30.65400
H  19.18300 -2.37600 24.59400
H  15.15600 2.17100 26.08400
H  18.11600 -0.37200 33.39700
H  18.74800 -3.23100 33.12500
H  20.36700 -0.83100 33.35400
H  20.89100 -1.91600 32.05000
H  20.90100 -2.51800 33.73000
H  16.71300 -2.94400 33.72800
H  15.69100 -1.70600 33.14200
H  16.00800 -2.40900 35.63100
H  15.43600 -0.85400 35.10300
H  22.05500 -5.07900 28.32700
H  20.97300 -6.57700 28.40700
H  21.07700 -5.48200 29.73500
H  22.07300 -6.08900 26.24000
H  22.05800 -6.16500 24.53100
H  20.78500 -6.93000 25.62400
H  17.35000 -1.00700 23.27000
H  16.88900 1.74400 23.94600
H  19.14900 -0.09300 22.36500
H  20.00800 -0.27000 23.81400
H  19.15000 1.28400 23.34300
H  14.84200 1.30200 24.08800
H  14.87900 -0.45900 24.14600
H  14.95700 -0.62900 21.77500
H  16.17200 0.60400 21.79500
H  14.44000 1.05900 21.79700
H  13.92800 4.21400 29.16600
H  13.05800 3.06100 28.10100
H  14.49600 3.96000 27.52400
H  15.03000 0.55200 33.14500
H  16.06700 4.16000 35.23700
H  17.56900 3.36700 35.23100
H  16.32200 2.71600 36.32200
Mg 36.31800 2.29300 30.25400
C  33.88400 3.27900 32.37400
C  38.69100 2.34300 32.71600
C  38.57800 1.37300 27.90800
C  33.95300 2.64700 27.54100
N  36.26700 2.81100 32.27700
C  35.17400 3.17000 33.00400
C  35.48400 3.30600 34.41100
C  37.05300 3.29500 34.41800
C  37.39200 2.76900 33.06900
C  37.78300 4.63900 34.69600
C  34.84300 2.26500 35.30600
C  34.72600 2.65300 36.77500
H  35.30800 3.97200 37.26600
N  38.25100 1.70500 30.32400
C  39.09800 1.81600 31.43100
C  40.39000 1.33700 31.10700
C  40.46600 1.22600 29.67300
C  39.04800 1.43700 29.20500
C  41.45900 1.23600 32.14400
C  41.68800 0.86800 28.80900
O  41.63100 0.93500 27.59200
C  42.92800 0.52000 29.58700
N  36.26500 2.21900 27.95000
C  37.38000 1.77000 27.28300
C  37.06100 1.45700 25.83400
C  35.47200 1.68100 25.76700
C  35.20300 2.18200 27.16400
C  37.79900 2.19700 24.70900
C  34.71500 0.43600 25.34500
C  33.24800 0.65400 24.88100
N  34.38500 2.82600 29.97100
C  33.53100 2.95800 28.85000
C  32.23100 3.33800 29.31800
C  32.28600 3.41600 30.67200
C  33.57300 3.09600 31.01300
C  30.93400 3.62400 28.45100
C  31.53300 3.86300 31.82100
O  30.41500 4.34100 31.94100
C  32.51400 3.62200 33.02600
C  32.38300 4.81000 34.01300
O  32.83100 5.89000 33.83900
O  31.66100 4.35900 35.10800
C  31.34400 5.38600 36.14200
H  39.45600 2.41900 33.49200
H  39.40900 1.05000 27.27800
H  33.14400 2.71100 26.81000
H  35.06500 4.28100 34.66000
H  37.41300 2.59600 35.17300
H  38.62500 4.51000 35.37600
H  37.03900 5.24800 35.21000
H  38.12700 5.11700 33.77900
H  35.46200 1.36900 35.34800
H  33.90000 1.98300 34.83700
H  34.93400 1.83900 37.46900
H  33.66700 2.88100 36.89800
H  41.36900 0.29500 32.68800
H  41.35800 2.03500 32.87900
H  42.49900 1.40200 31.86300
H  43.48400 1.36300 29.99700
H  43.54000 -0.06200 28.89700
H  42.68500 -0.21000 30.35900
H  37.24800 0.38700 25.74400
H  35.17500 2.48300 25.09200
H  38.16200 1.51900 23.93600
H  38.58500 2.78000 25.18700
H  37.05000 2.78800 24.18100
H  34.66800 -0.37900 26.06800
H  35.34300 -0.03700 24.59000
H  33.00400 0.20900 23.91600
H  32.90400 1.68500 24.79100
H  32.67000 0.05400 25.58400
H  31.36300 4.00400 27.52400
H  30.16500 4.20000 28.96600
H  30.42100 2.75100 28.04700
H  32.26200 2.70100 33.55200
H  30.62700 6.10700 35.74900
H  32.20700 5.94300 36.50600
H  30.97400 4.82500 37.00000

