158

Mg 34.78500 2.85700 30.35600
C  32.46300 3.73300 33.04700
C  37.28100 2.90600 32.88100
C  36.89200 2.34300 28.08300
C  32.09900 3.44300 28.24400
N  34.76500 3.45600 32.67200
C  33.71200 3.54000 33.50600
C  34.18400 3.44200 34.94500
C  35.73900 3.61600 34.83500
C  35.99100 3.29200 33.36700
C  36.27900 5.00000 35.34100
C  33.72900 2.18800 35.76000
C  33.16500 2.53800 37.17900
H  33.83500 3.60300 38.06200
N  36.77500 2.53700 30.49100
C  37.62700 2.70000 31.59100
C  38.97100 2.32100 31.12600
C  38.94700 2.15000 29.72300
C  37.54700 2.32000 29.34100
C  40.17800 2.51100 32.06500
C  40.02700 1.73400 28.76700
O  39.83600 1.66000 27.53800
C  41.31200 1.24500 29.30400
N  34.51300 3.01400 28.40600
C  35.55200 2.61800 27.62200
C  35.02400 2.44800 26.21400
C  33.47600 2.58200 26.30800
C  33.36100 3.14600 27.70800
C  35.66800 3.51200 25.24000
C  32.69800 1.26800 26.14200
C  31.57400 1.34300 25.10600
N  32.69500 3.60200 30.56000
C  31.76600 3.66700 29.61000
C  30.44500 3.69500 30.21100
C  30.64600 3.79200 31.51000
C  32.06500 3.69400 31.71000
C  29.23200 3.75700 29.45900
C  30.07100 3.88000 32.78100
O  28.88800 3.89700 33.09100
C  31.19200 3.95300 33.84400
C  31.14400 5.24400 34.59700
O  31.28300 6.36000 34.08400
O  31.02900 5.09900 35.96700
C  30.98600 6.32300 36.77400
H  38.11900 2.89100 33.58000
H  37.56100 1.93800 27.32100
H  31.32700 3.44700 27.47100
H  33.81400 4.31700 35.47900
H  36.26700 2.86200 35.41900
H  36.62100 4.75600 36.34600
H  35.45000 5.69800 35.46000
H  37.18700 5.28300 34.80800
H  34.59900 1.55000 35.91600
H  33.00300 1.54400 35.26400
H  33.18600 1.70600 37.88200
H  32.10500 2.75000 37.03600
H  40.42000 1.54500 32.50800
H  40.09900 3.35500 32.75000
H  41.14100 2.66000 31.57700
H  41.15900 0.69100 30.23000
H  41.91000 2.13800 29.48800
H  41.64700 0.51300 28.56900
H  35.35600 1.49400 25.80300
H  33.15700 3.30500 25.55800
H  35.65500 4.55900 25.54100
H  35.18300 3.45400 24.26600
H  36.73500 3.28800 25.24100
H  32.38700 0.86400 27.10600
H  33.48700 0.54900 25.92100
H  30.67000 1.77900 25.53200
H  31.34500 0.30400 24.87100
H  31.88900 1.79500 24.16500
H  28.64000 2.86300 29.65400
H  29.41000 3.98300 28.40800
H  28.73400 4.68700 29.73300
H  31.05600 3.13600 34.55300
H  30.31700 7.04400 36.30600
H  31.95900 6.81500 36.81200
H  30.52800 5.94200 37.68700
Mg -11.59200 37.56100 41.88700
C  -9.48700 35.04100 40.67700
C  -9.74100 39.86600 40.05200
C  -14.17300 39.78300 42.28900
C  -13.54300 35.07200 43.24700
N  -9.83300 37.40900 40.45800
C  -9.08500 36.30800 40.21800
C  -7.92600 36.69600 39.31100
C  -7.94400 38.29200 39.25400
C  -9.28200 38.55600 40.03500
C  -6.68500 39.05900 39.73400
C  -7.97900 36.06900 37.88000
C  -6.76200 35.23300 37.50000
H  -5.72800 35.94000 36.62200
N  -11.80200 39.59600 41.43100
C  -10.92500 40.32600 40.68900
C  -11.41700 41.69100 40.55300
C  -12.64400 41.71500 41.32100
C  -12.87700 40.32600 41.81500
C  -10.78600 42.80600 39.81600
C  -13.46600 43.00600 41.57900
O  -13.03300 44.05800 41.05800
C  -14.73900 43.03000 42.41200
N  -13.56700 37.40000 42.60600
C  -14.45600 38.40800 42.69100
C  -15.90300 37.94000 43.13600
C  -15.72500 36.47000 43.40400
C  -14.15900 36.29800 43.07300
C  -16.44900 38.75100 44.35000
C  -16.53100 35.56100 42.44100
C  -17.60000 34.54400 42.91000
N  -11.43500 35.48800 42.18200
C  -12.28200 34.63600 42.78500
C  -11.67400 33.30300 42.77500
C  -10.51400 33.45000 42.02800
C  -10.46500 34.75400 41.58000
C  -12.29800 32.10700 43.42800
C  -9.39800 32.74600 41.37400
O  -9.08000 31.56400 41.44300
C  -8.70100 33.79200 40.54600
C  -7.24700 33.82200 41.04900
O  -6.43600 32.95300 40.78100
O  -7.05400 34.95700 41.77400
C  -5.79900 35.10900 42.53400
H  -9.09400 40.55300 39.50400
H  -14.98400 40.51300 42.33800
H  -14.18600 34.30000 43.67400
H  -6.98900 36.40000 39.78200
H  -8.06900 38.66300 38.23700
H  -6.91800 39.52700 40.69000
H  -6.38800 39.92000 39.13700
H  -5.90900 38.33300 39.97500
H  -8.11100 36.86200 37.14400
H  -8.92600 35.57000 37.67900
H  -6.95600 34.22200 37.14200
H  -6.31300 35.02700 38.47200
H  -9.93300 42.59700 39.17000
H  -10.37200 43.49700 40.55100
H  -11.47000 43.37400 39.18600
H  -15.02500 44.00200 42.81300
H  -14.66100 42.37900 43.28300
H  -15.57000 42.64700 41.82000
H  -16.52600 38.17400 42.27200
H  -15.93100 36.21100 44.44300
H  -15.60600 38.88300 45.02800
H  -17.27300 38.16500 44.75600
H  -16.83500 39.74400 44.12100
H  -15.89400 34.82400 41.95100
H  -16.99100 36.18500 41.67600
H  -18.54500 35.01600 43.17700
H  -17.13600 34.22500 43.84300
H  -17.71600 33.72400 42.20100
H  -12.82100 31.50800 42.68300
H  -13.02400 32.46400 44.15900
H  -11.38500 31.71000 43.87200
H  -8.66200 33.44000 39.51500
H  -6.12400 35.66100 43.41600
H  -4.99400 35.70300 42.10100
H  -5.30400 34.24300 42.97500

