158

Mg 47.60000 16.48200 28.75500
C  45.73700 16.25600 31.67500
C  49.91700 18.50600 30.58300
C  49.11600 17.16100 25.87200
C  45.01300 14.96300 27.04200
N  47.71800 17.28900 30.82500
C  46.90200 16.97500 31.87300
C  47.31600 17.53800 33.25000
C  48.58900 18.42300 32.79800
C  48.76200 18.06900 31.31100
C  48.39100 19.95000 33.04900
C  47.78000 16.32700 34.20000
C  47.19900 16.36900 35.57500
H  46.94300 17.77800 36.22300
N  49.28200 17.67400 28.31100
C  50.12100 18.41500 29.19500
C  51.23000 18.93400 28.45000
C  51.00400 18.46600 27.07500
C  49.80200 17.66500 26.99600
C  52.41000 19.65600 29.06300
C  51.95000 18.62300 25.80700
O  51.75500 18.14700 24.73600
C  53.18900 19.61500 25.90900
N  47.06100 16.14800 26.82400
C  47.88500 16.49800 25.79600
C  47.36000 16.16100 24.40000
C  46.22400 15.18700 24.78000
C  46.06300 15.45900 26.27300
C  46.81100 17.30600 23.54900
C  46.55800 13.70600 24.50600
C  45.72000 13.04900 23.41600
N  45.72200 15.72800 29.23800
C  44.80700 15.07000 28.44600
C  43.64600 14.64000 29.24400
C  43.97300 15.10200 30.51800
C  45.25400 15.69600 30.46200
C  42.50900 13.90500 28.83500
C  43.47100 15.14300 31.92600
O  42.50400 14.55300 32.43900
C  44.67400 15.95000 32.67600
C  44.04900 17.09500 33.28200
O  43.96000 18.24200 32.84600
O  43.51000 16.72600 34.49300
C  42.74600 17.77400 35.10100
H  50.67700 19.07800 31.12000
H  49.53400 17.32600 24.87600
H  44.24200 14.40400 26.50800
H  46.55800 18.23700 33.60300
H  49.52900 18.07200 33.22500
H  48.62200 20.40500 32.08500
H  49.13900 20.35100 33.73300
H  47.36700 20.23500 33.29100
H  48.82700 16.31800 34.50300
H  47.65000 15.39900 33.64300
H  47.85500 15.75600 36.19300
H  46.25000 15.85300 35.43200
H  53.32100 19.09200 28.86100
H  52.34900 19.74900 30.14700
H  52.54400 20.64300 28.61900
H  52.85500 20.63200 26.11400
H  53.54900 19.52800 24.88400
H  54.01800 19.19500 26.47800
H  48.15400 15.70300 23.81000
H  45.29400 15.40500 24.25600
H  45.75000 17.13700 23.36500
H  47.35100 17.37400 22.60500
H  46.82500 18.19400 24.18100
H  46.41300 13.11400 25.40900
H  47.56800 13.40300 24.23000
H  46.41100 12.35900 22.93100
H  45.29000 13.72500 22.67800
H  44.90500 12.40200 23.74000
H  41.64500 14.56500 28.91800
H  42.21000 13.09400 29.49800
H  42.67800 13.63700 27.79200
H  44.94300 15.16200 33.37900
H  43.38900 18.61800 35.35000
H  42.26200 17.52300 36.04500
H  41.94100 18.16200 34.47700
Mg 42.15300 41.71500 26.48100
C  41.06200 43.95800 28.89100
C  43.38100 39.70000 28.90600
C  43.05400 39.72500 23.96600
C  41.58300 44.27100 23.96300
N  42.15100 41.85500 28.60400
C  41.50600 42.75800 29.41500
C  41.62700 42.41200 30.95600
C  42.46600 41.07900 30.88700
C  42.66500 40.83200 29.37200
C  43.72800 41.03100 31.75100
C  40.31100 42.33200 31.67800
C  40.26800 43.04900 33.06100
H  39.58400 42.25100 34.17700
N  43.14600 39.94800 26.44400
C  43.56900 39.29700 27.56600
C  44.15100 38.02000 27.20300
C  43.91200 37.88300 25.75100
C  43.35200 39.21600 25.30200
C  44.83200 37.00600 28.16500
C  44.17700 36.75500 24.81700
O  43.80200 36.69200 23.63900
C  44.78000 35.45200 25.37400
N  42.44400 42.09400 24.28000
C  42.80600 40.99600 23.51500
C  42.65700 41.24900 22.01000
C  42.43200 42.80200 21.97300
C  42.15900 43.13300 23.48400
C  43.87800 40.78900 21.13200
C  41.37900 43.40100 20.99300
C  42.07400 44.32400 19.95500
N  41.40900 43.63200 26.37900
C  41.25300 44.56000 25.34000
C  40.77700 45.80900 25.89500
C  40.59900 45.55200 27.32200
C  41.01800 44.28000 27.56700
C  40.57600 47.15500 25.21100
C  40.24800 46.23700 28.54800
O  39.94300 47.38800 28.75900
C  40.42500 45.09800 29.67100
C  41.42700 45.61800 30.73100
O  42.63000 45.70200 30.57100
O  40.83500 46.07600 31.88800
C  41.51000 46.80000 32.94200
H  43.83500 38.98400 29.59500
H  43.19100 38.98100 23.17800
H  41.35100 45.03800 23.22200
H  42.20200 43.14400 31.52300
H  41.88100 40.21700 31.20900
H  43.58900 41.76300 32.54700
H  44.71100 41.33200 31.38900
H  43.80500 40.04500 32.20800
H  39.96700 41.30500 31.80200
H  39.55300 42.68300 30.97800
H  39.73500 44.00000 33.05600
H  41.26700 43.21600 33.46300
H  44.11100 36.21700 28.37900
H  45.26700 37.51800 29.02300
H  45.70400 36.59200 27.65800
H  44.26100 35.29400 26.32000
H  45.85500 35.49000 25.55200
H  44.49900 34.59600 24.76100
H  41.77300 40.70500 21.67600
H  43.42400 43.16600 21.70500
H  44.57800 40.24300 21.76400
H  44.39500 41.61900 20.65100
H  43.52700 40.12300 20.34300
H  40.64300 44.02900 21.49500
H  40.73800 42.66400 20.51100
H  42.17200 43.73000 19.04600
H  43.11600 44.50200 20.22100
H  41.54400 45.25300 19.74600
H  40.99300 47.10800 24.20500
H  40.89600 47.97100 25.85800
H  39.51600 47.18200 24.95800
H  39.46800 44.95100 30.17200
H  41.37700 46.30900 33.90600
H  41.06900 47.79700 32.98300
H  42.54300 47.14100 32.87500

