158

Mg -2.18500 17.38000 26.84700
C  -2.93400 15.22700 29.46000
C  -2.80300 19.99900 29.03300
C  -1.99300 19.47000 24.16000
C  -1.87500 14.64800 24.75400
N  -2.73400 17.54500 29.04100
C  -2.97500 16.57900 29.96700
C  -3.07900 17.13000 31.45000
C  -2.97200 18.66400 31.15500
C  -2.86600 18.72800 29.64300
C  -3.99800 19.60300 31.81900
C  -2.10800 16.46500 32.39200
C  -1.33500 17.25700 33.40400
H  -1.01700 16.57900 34.82500
N  -2.25100 19.43700 26.61900
C  -2.50800 20.35500 27.66000
C  -2.39200 21.63600 27.16800
C  -2.09400 21.52400 25.76300
C  -2.13800 20.07000 25.40000
C  -2.71800 22.83500 28.05600
C  -1.79200 22.59100 24.66000
O  -1.40600 22.38100 23.51800
C  -1.65500 23.97400 25.09500
N  -2.20600 17.10600 24.76200
C  -2.11400 18.10700 23.82600
C  -1.89200 17.53600 22.39300
C  -1.53600 16.07900 22.70800
C  -1.94200 15.87700 24.20400
C  -3.17600 17.76500 21.55900
C  -0.03300 15.72300 22.57600
C  0.87500 16.48100 23.59600
N  -2.33200 15.34100 26.98200
C  -2.15000 14.31900 26.06600
C  -2.37900 13.04200 26.64000
C  -2.65700 13.30700 27.95600
C  -2.58600 14.75400 28.11400
C  -2.49100 11.67800 25.95100
C  -3.03400 12.73500 29.16700
O  -3.25800 11.52900 29.44600
C  -3.18500 13.91300 30.21800
C  -2.20700 13.56300 31.24700
O  -1.05500 13.74200 31.12300
O  -2.75700 12.90200 32.36300
C  -1.85800 12.55000 33.46900
H  -2.98400 20.81500 29.73500
H  -1.68100 20.01900 23.26900
H  -1.63500 13.85000 24.04800
H  -4.12800 16.89300 31.63300
H  -1.99200 19.07300 31.39800
H  -4.72700 19.99700 31.11100
H  -3.47500 20.36200 32.40000
H  -4.46700 18.94400 32.55000
H  -1.30500 16.05100 31.78300
H  -2.59300 15.66200 32.94800
H  -1.85700 18.14200 33.76700
H  -0.41600 17.68700 33.00600
H  -3.51700 23.42600 27.61000
H  -1.90800 23.56200 28.11800
H  -2.95500 22.67900 29.10900
H  -2.70000 24.23100 25.27400
H  -1.23400 24.55500 24.27400
H  -1.14300 23.98000 26.05700
H  -0.97700 18.05900 22.11400
H  -2.09000 15.34200 22.12600
H  -3.64600 18.71200 21.82500
H  -3.96200 17.02700 21.72000
H  -2.96200 17.81600 20.49200
H  0.34000 15.91200 21.56900
H  0.10200 14.66700 22.81300
H  0.39000 17.20000 24.25600
H  1.72800 16.92300 23.08200
H  1.27600 15.76200 24.31100
H  -3.57200 11.62300 26.07700
H  -1.88300 10.89900 26.41300
H  -2.33600 11.80100 24.87900
H  -4.16800 13.77200 30.66900
H  -1.96200 13.37300 34.17600
H  -0.82600 12.44900 33.13100
H  -2.14000 11.58700 33.89700
Mg -5.71400 25.21000 26.00000
C  -4.45700 26.44100 28.91900
C  -7.79900 23.13300 27.83900
C  -6.73700 23.63600 23.18100
C  -3.28700 27.06100 24.13000
N  -5.98100 24.81800 28.11400
C  -5.48400 25.53900 29.12400
C  -6.06100 25.20000 30.51300
C  -6.95900 23.90100 30.16200
C  -6.85700 23.89100 28.63100
C  -6.45400 22.48300 30.77200
C  -6.89500 26.42400 30.98900
C  -6.66800 26.76400 32.42200
H  -6.05000 25.64900 33.26700
N  -7.18800 23.70900 25.56700
C  -8.02200 23.05700 26.44000
C  -8.94800 22.18200 25.76500
C  -8.53900 22.23300 24.41100
C  -7.46000 23.27200 24.32500
C  -10.07600 21.39900 26.38000
C  -9.02000 21.38900 23.22800
O  -8.52000 21.44800 22.09900
C  -10.14000 20.44700 23.39500
N  -5.16900 25.37600 23.94700
C  -5.70100 24.57000 22.99200
C  -5.08200 24.83700 21.62500
C  -4.22000 26.14600 21.89200
C  -4.19100 26.20000 23.43900
C  -4.28400 23.62200 21.09000
C  -4.73400 27.46200 21.22500
C  -3.61800 28.40200 20.62700
N  -4.13300 26.43700 26.41300
C  -3.21500 27.11100 25.56800
C  -2.34100 27.86800 26.40800
C  -2.77800 27.70000 27.76000
C  -3.88700 26.84700 27.70200
C  -1.19100 28.66000 25.91900
C  -2.48500 27.96500 29.16500
O  -1.54000 28.58600 29.61200
C  -3.62800 27.17100 30.00700
C  -2.85200 26.28600 30.93700
O  -2.57900 25.11400 30.83400
O  -2.58300 27.08200 32.11800
C  -1.84500 26.43000 33.20500
H  -8.50600 22.50200 28.38100
H  -7.04900 23.15100 22.25400
H  -2.61800 27.63500 23.48500
H  -5.21300 24.94500 31.14900
H  -8.02700 24.01100 30.34900
H  -5.43600 22.57900 31.14900
H  -6.54100 21.71400 30.00400
H  -7.15100 22.28700 31.58700
H  -7.95800 26.26800 30.80100
H  -6.60100 27.29600 30.40500
H  -7.61900 27.00900 32.89600
H  -6.01800 27.64000 32.42500
H  -10.31000 21.56800 27.43100
H  -9.75700 20.35700 26.37400
H  -10.98900 21.48200 25.79100
H  -10.41500 20.09700 22.40000
H  -11.02100 20.94000 23.80700
H  -9.94300 19.65500 24.11700
H  -5.96900 25.07500 21.03800
H  -3.19900 25.83300 21.66900
H  -3.31200 23.88000 20.67100
H  -4.80700 23.13300 20.26800
H  -4.11200 22.89400 21.88200
H  -5.31100 28.06300 21.92700
H  -5.44500 27.25400 20.42500
H  -3.80500 29.38800 21.05200
H  -3.75000 28.45900 19.54700
H  -2.58200 28.15100 20.85600
H  -1.50400 29.57900 25.42300
H  -0.41000 28.11200 25.39000
H  -0.68500 29.04300 26.80500
H  -4.28900 27.76600 30.63700
H  -1.60500 25.37500 33.07300
H  -2.48800 26.56400 34.07500
H  -0.93700 26.97900 33.45600

