158

Mg 9.35900 4.19500 28.33900
C  10.66900 2.38300 31.03200
C  7.59600 6.13000 30.45400
C  7.72800 5.45200 25.54100
C  10.71500 1.74600 26.11200
N  9.13600 4.12100 30.53000
C  9.91100 3.44600 31.49300
C  9.68600 3.95800 32.90200
C  8.38300 4.81800 32.66200
C  8.34300 5.11700 31.11400
C  7.14000 4.07800 33.23500
C  10.89900 4.66000 33.46300
C  11.81300 4.10500 34.58900
H  11.98000 4.75700 35.92500
N  7.93300 5.67300 28.07500
C  7.41300 6.36200 29.10800
C  6.67000 7.49000 28.49300
C  6.65800 7.28000 27.13600
C  7.45600 6.03600 26.87600
C  6.05400 8.68900 29.23800
C  6.02500 8.05600 26.05800
O  5.79100 7.52100 24.99100
C  5.43200 9.42200 26.21800
N  9.02000 3.47400 26.10400
C  8.39400 4.27500 25.21300
C  8.70500 3.88100 23.79800
C  9.76500 2.77200 23.93900
C  9.90400 2.67300 25.44100
C  7.44400 3.35100 23.05800
C  11.12300 3.13200 23.26900
C  12.02000 1.88200 22.98000
N  10.47000 2.47200 28.50200
C  10.88200 1.59000 27.53200
C  11.49300 0.45800 28.13900
C  11.50800 0.78400 29.53700
C  10.81900 1.98500 29.70200
C  12.02500 -0.74100 27.43400
C  12.01700 0.36900 30.83600
O  12.69600 -0.59400 31.15800
C  11.47000 1.42400 31.87400
C  10.64600 0.75600 32.82900
O  9.50700 0.38700 32.64300
O  11.34600 0.64900 33.98800
C  10.51000 0.12200 35.06700
H  7.03400 6.79900 31.10900
H  7.27200 5.90600 24.65900
H  11.19300 0.92600 25.57100
H  9.41300 3.10900 33.52900
H  8.48100 5.78000 33.16600
H  7.42000 3.14000 33.71500
H  6.47500 3.77700 32.42600
H  6.67400 4.73200 33.97200
H  10.50800 5.65700 33.66400
H  11.53800 4.85300 32.60100
H  12.78300 4.03600 34.09800
H  11.39200 3.11200 34.74800
H  5.10200 8.99900 28.80700
H  6.55200 9.64500 29.07500
H  5.99000 8.51200 30.31100
H  5.21600 9.90500 25.26500
H  6.20600 10.02300 26.69600
H  4.54200 9.41000 26.84700
H  9.17900 4.75400 23.34900
H  9.47000 1.81700 23.50500
H  6.62500 3.50300 23.76100
H  7.58400 2.35800 22.62900
H  7.30400 3.99000 22.18700
H  11.72800 3.83400 23.84200
H  10.92700 3.54100 22.27700
H  12.57300 1.58000 23.86900
H  12.71800 2.09200 22.16900
H  11.42500 1.01600 22.69200
H  11.46600 -1.03300 26.54500
H  12.01400 -1.59700 28.10800
H  13.07300 -0.60000 27.16700
H  12.31100 2.02800 32.21700
H  9.44400 0.26000 34.88600
H  10.75300 0.50800 36.05700
H  10.76200 -0.93800 35.04900
Mg 30.33400 58.12000 40.23100
C  27.69300 56.03800 38.99100
C  32.41400 55.82400 38.55400
C  32.71200 60.30200 40.34200
C  27.87000 60.41600 41.07100
N  29.99600 56.27600 38.65800
C  28.89500 55.62900 38.41800
C  29.17400 54.22900 37.81900
C  30.69600 54.12800 37.89600
C  31.05000 55.47100 38.36000
C  31.18100 52.95800 38.88100
C  28.68400 54.10000 36.32700
C  29.16800 55.28600 35.48300
H  28.00200 55.91700 34.62100
N  32.32100 58.07700 39.72100
C  33.01600 57.00200 39.12700
C  34.40600 57.29700 39.16600
C  34.52100 58.64100 39.65500
C  33.16800 59.06600 39.91500
C  35.41500 56.31000 38.61600
C  35.80100 59.39500 39.79600
O  36.85800 58.89100 39.49700
C  35.94800 60.89100 40.19400
N  30.34900 59.94700 40.96400
C  31.46400 60.71300 40.78900
C  31.21900 62.23800 40.91500
C  29.67500 62.28800 41.07300
C  29.27400 60.82900 41.06200
C  31.99400 62.95400 42.08600
C  28.96000 63.10300 39.97300
C  28.48700 64.49600 40.44600
N  28.30500 58.20600 40.26100
C  27.46000 59.15700 40.66600
C  26.11400 58.72900 40.55400
C  26.17500 57.56100 39.91800
C  27.50800 57.22000 39.72700
C  24.89300 59.47700 41.08900
C  25.33400 56.50800 39.26000
O  24.12600 56.53700 39.04900
C  26.33000 55.45100 38.72600
C  25.96800 54.13000 39.39600
O  26.41400 53.65600 40.45300
O  24.99000 53.55300 38.63400
C  24.34800 52.41000 39.30800
H  33.14900 55.05300 38.31400
H  33.46600 61.07500 40.18200
H  27.19300 61.27300 41.08600
H  28.58600 53.56200 38.45000
H  31.17200 53.91900 36.93800
H  30.35100 52.30800 39.15500
H  31.76300 53.36800 39.70600
H  31.95900 52.32300 38.45600
H  27.59900 54.02400 36.39500
H  29.09800 53.25900 35.77000
H  30.00700 54.98300 34.85600
H  29.44700 56.14000 36.10000
H  36.37400 56.81400 38.49000
H  35.12900 56.08000 37.59000
H  35.49500 55.38200 39.18300
H  35.43400 61.57900 39.52200
H  36.98700 61.14800 39.98500
H  35.73900 61.10500 41.24200
H  31.53700 62.71000 39.98500
H  29.39100 62.61500 42.07300
H  32.34600 63.92600 41.74100
H  32.82800 62.32300 42.39300
H  31.36500 63.14500 42.95500
H  28.20900 62.47300 39.49800
H  29.65200 63.14800 39.13200
H  28.80100 64.73400 41.46200
H  27.41600 64.31900 40.34600
H  28.66900 65.30400 39.73700
H  24.11900 58.71000 41.11700
H  24.57300 60.27800 40.42300
H  25.01800 59.85900 42.10200
H  26.07600 55.51300 37.66800
H  23.50900 52.04300 38.71800
H  23.90700 52.67800 40.26800
H  25.08000 51.63000 39.52200

