158

Mg 54.66700 23.49200 44.13700
C  52.37800 26.12600 43.43200
C  52.40000 21.39700 42.94100
C  57.15400 21.08400 43.97400
C  57.16900 25.85500 44.87200
N  52.51700 23.80000 43.57400
C  51.85400 24.89300 43.15100
C  50.40200 24.60600 42.80300
C  50.44000 23.03900 42.74600
C  51.86700 22.64800 43.11800
C  49.44100 22.41600 43.74400
C  49.78000 25.42000 41.62800
C  48.60000 24.76000 40.85500
H  48.84000 24.18200 39.48400
N  54.75900 21.48500 43.62100
C  53.69600 20.77200 43.11900
C  54.09100 19.42500 42.75500
C  55.45600 19.33800 42.95800
C  55.85700 20.70400 43.54600
C  53.09200 18.45400 42.12100
C  56.31300 18.10700 42.69400
O  55.84600 17.11500 42.11300
C  57.70700 17.99100 43.14400
N  56.82800 23.49800 44.47600
C  57.61800 22.35500 44.43800
C  59.04400 22.69100 44.91900
C  59.14200 24.22600 44.90500
C  57.63500 24.57300 44.73100
C  59.59300 22.02500 46.24900
C  60.08200 24.81200 43.82200
C  60.74300 26.17700 44.09400
N  54.77000 25.52000 44.28500
C  55.89600 26.34600 44.71700
C  55.43300 27.70700 44.71100
C  54.06800 27.66800 44.24700
C  53.70500 26.33700 44.00200
C  56.20900 28.98700 44.98900
C  52.90400 28.50300 43.95600
O  52.69200 29.65300 44.09200
C  51.85600 27.53500 43.32500
C  51.65500 27.91800 41.97700
O  52.26800 27.51800 40.97800
O  50.55700 28.72900 41.96200
C  50.06600 29.01500 40.64100
H  51.58100 20.76700 42.58900
H  57.99100 20.38800 44.05800
H  57.83900 26.70800 45.00100
H  49.83800 24.96200 43.66500
H  50.19700 22.67500 41.74800
H  49.95400 21.84600 44.51800
H  48.65700 21.80100 43.30300
H  48.89900 23.17800 44.30400
H  50.60400 25.55300 40.92700
H  49.61900 26.41500 42.04300
H  47.84000 25.52100 40.68000
H  48.07800 24.08000 41.52900
H  52.99600 18.87700 41.12200
H  52.16400 18.70000 42.63800
H  53.31800 17.38800 42.08400
H  58.23600 18.85300 42.73600
H  58.20800 17.11100 42.74100
H  57.83000 17.91800 44.22400
H  59.70500 22.32700 44.13300
H  59.50900 24.60900 45.85700
H  60.22600 21.18400 45.96400
H  58.73800 21.60800 46.78000
H  60.23600 22.76500 46.72600
H  59.47500 24.91300 42.92300
H  60.88900 24.08400 43.73300
H  60.09400 27.05100 44.04500
H  61.44000 26.44700 43.30100
H  61.24200 26.14200 45.06300
H  56.06300 29.71100 44.18800
H  57.28500 28.88900 45.13500
H  55.81400 29.56800 45.82300
H  50.89900 27.53700 43.84500
H  50.93900 29.18200 40.01000
H  49.30300 29.78800 40.54400
H  49.58100 28.14600 40.19700
Mg 47.91400 34.41800 26.52400
C  46.15000 33.10400 29.44200
C  48.38400 37.34800 28.34100
C  49.42700 35.70300 23.76400
C  47.21600 31.46800 24.84500
N  47.55200 35.03800 28.67900
C  46.84300 34.34700 29.65500
C  46.88200 35.18200 30.88900
C  47.05700 36.63500 30.40200
C  47.67400 36.37600 29.04600
C  45.78600 37.53500 30.39400
C  47.96100 34.63400 31.90200
C  47.55700 34.64600 33.46500
H  46.51000 35.67400 33.99800
N  48.79500 36.23400 26.12400
C  48.90100 37.31000 27.00200
C  49.48800 38.42200 26.32400
C  49.86200 37.99800 25.03400
C  49.28500 36.61800 24.89200
C  49.75900 39.79800 26.97000
C  50.70600 38.82000 24.03200
O  51.07800 38.22100 23.05900
C  51.31100 40.20700 24.29600
N  48.07600 33.72600 24.39400
C  48.88900 34.44300 23.56900
C  49.31100 33.54300 22.37000
C  48.85200 32.10800 22.87100
C  47.97500 32.43600 24.07000
C  48.76800 34.12700 20.98300
C  49.96600 31.12100 23.25900
C  49.76600 29.73600 22.68400
N  46.80300 32.70100 26.97000
C  46.57100 31.58700 26.12200
C  45.88600 30.61600 26.95900
C  45.62600 31.20800 28.17200
C  46.19300 32.48400 28.16300
C  45.53800 29.17800 26.50700
C  44.94200 30.95900 29.38500
O  44.18800 30.03500 29.66800
C  45.24900 32.19100 30.26800
C  45.99200 31.60300 31.52500
O  47.20000 31.37400 31.65400
O  45.05300 31.45600 32.51400
C  45.45500 30.72600 33.68300
H  48.41400 38.30000 28.87500
H  49.97800 35.97600 22.86200
H  47.19700 30.45300 24.44300
H  45.98100 35.09200 31.49600
H  47.79800 37.18100 30.98700
H  44.91200 37.20400 30.95500
H  45.44700 37.71400 29.37400
H  45.92900 38.48900 30.90100
H  48.85400 35.24600 31.77700
H  48.28200 33.66900 31.51000
H  48.46100 34.91900 34.01000
H  47.23900 33.64400 33.75100
H  50.83600 39.96800 26.96800
H  49.42100 39.80600 28.00600
H  49.24300 40.59900 26.44000
H  50.43500 40.84500 24.41700
H  51.87400 40.52000 23.41700
H  52.05300 40.21900 25.09400
H  50.39600 33.55600 22.27500
H  48.35100 31.75200 21.97100
H  48.30600 33.40700 20.30800
H  49.50000 34.58300 20.31600
H  47.91500 34.80000 21.06400
H  49.95100 30.93900 24.33400
H  50.86900 31.66300 22.97800
H  48.69800 29.54400 22.79500
H  50.39100 29.04700 23.25300
H  50.04800 29.60400 21.64000
H  45.02300 29.25300 25.55000
H  44.76200 28.71200 27.11500
H  46.47000 28.64600 26.31400
H  44.38100 32.76100 30.60100
H  45.76800 29.69800 33.50000
H  44.74000 30.69900 34.50500
H  46.35900 31.20300 34.06100

