158

Mg 24.38400 -5.63200 45.52600
C  26.43300 -3.27600 44.02300
C  21.76200 -4.43600 43.72000
C  22.55600 -8.58100 46.28400
C  27.15300 -7.28200 46.82200
N  24.19200 -4.01600 44.11100
C  25.10900 -3.10900 43.64300
C  24.50100 -2.12500 42.62900
C  22.94700 -2.27500 42.78400
C  22.90000 -3.59700 43.62100
C  22.12400 -1.04500 43.34400
C  25.09300 -2.25800 41.16400
C  25.39800 -0.97700 40.29500
H  25.34000 -1.05200 38.78400
N  22.29600 -6.36500 45.11200
C  21.39700 -5.65600 44.37000
C  20.19300 -6.45500 44.32800
C  20.43200 -7.61400 45.20500
C  21.80300 -7.54900 45.61500
C  18.98300 -5.96800 43.60200
C  19.29900 -8.62700 45.52300
O  18.25700 -8.56200 44.96900
C  19.44400 -9.62600 46.58900
N  24.77700 -7.67400 46.26500
C  23.86400 -8.66200 46.63200
C  24.47900 -9.90300 47.33700
C  25.88500 -9.33700 47.71200
C  25.95700 -7.99500 46.92000
C  23.62400 -10.43900 48.56000
C  27.11000 -10.34300 47.39000
C  28.08500 -10.54500 48.67000
N  26.38900 -5.38300 45.52500
C  27.40800 -6.08500 46.14600
C  28.70600 -5.39900 45.93900
C  28.30700 -4.24000 45.14900
C  26.93800 -4.35000 44.82700
C  29.96400 -5.73800 46.60900
C  28.86100 -3.06900 44.56700
O  29.96400 -2.59200 44.68300
C  27.73000 -2.51400 43.62900
C  27.41800 -1.03400 44.01700
O  27.38000 -0.54300 45.15100
O  27.25100 -0.36100 42.82000
C  26.92600 1.11200 42.90300
H  20.93100 -4.01800 43.14800
H  22.01700 -9.50000 46.51900
H  27.94900 -7.82500 47.33600
H  24.74900 -1.11700 42.96300
H  22.54100 -2.41900 41.78300
H  22.79400 -0.18600 43.38700
H  21.86600 -1.25900 44.38100
H  21.19200 -0.87500 42.80600
H  24.48800 -2.90700 40.53100
H  26.07300 -2.73300 41.22000
H  26.45700 -0.83600 40.51100
H  24.88400 -0.05200 40.55600
H  18.01800 -6.34700 43.94100
H  19.05100 -6.12100 42.52500
H  18.86700 -4.89000 43.71600
H  18.47300 -9.75100 47.06600
H  20.03900 -9.15800 47.37300
H  19.84600 -10.53900 46.15000
H  24.60800 -10.63400 46.53900
H  25.78100 -9.13100 48.77700
H  22.99600 -11.21400 48.12100
H  23.07500 -9.62200 49.02900
H  24.28000 -10.95600 49.26100
H  27.72200 -9.93700 46.58400
H  26.73400 -11.25000 46.91600
H  28.03500 -11.62300 48.82900
H  27.85500 -9.93100 49.54000
H  29.07800 -10.24100 48.34000
H  30.61800 -6.24700 45.90100
H  30.02300 -6.44900 47.43300
H  30.53500 -4.84200 46.85100
H  27.91800 -2.53600 42.55600
H  26.35600 1.37100 43.79500
H  26.34400 1.34200 42.01100
H  27.84100 1.70300 42.95000
Mg -11.24600 17.30300 42.23000
C  -7.69100 16.29600 42.13000
C  -10.03800 20.31600 40.91100
C  -14.31400 17.80000 40.93300
C  -12.00400 13.80600 42.38300
N  -9.14200 18.13200 41.53400
C  -7.89300 17.58100 41.60900
C  -6.81200 18.43700 40.94300
C  -7.50900 19.89600 41.04200
C  -8.99200 19.47400 41.16900
C  -6.99200 20.90400 42.18700
C  -6.42400 17.98300 39.50900
C  -5.00800 17.37300 39.28900
H  -4.97700 16.22000 38.37000
N  -12.11600 18.98500 41.29500
C  -11.48100 20.13700 40.81700
C  -12.41400 21.00200 40.26500
C  -13.71400 20.34700 40.29600
C  -13.42800 18.96300 40.84900
C  -12.01600 22.46400 39.88400
C  -14.98800 21.01800 39.99900
O  -14.98500 22.13700 39.51200
C  -16.28400 20.33800 40.33600
N  -12.83900 15.98600 41.64200
C  -14.07200 16.44300 41.19700
C  -15.02600 15.33700 40.86400
C  -14.23900 14.07900 41.12100
C  -12.96900 14.61300 41.84300
C  -16.39100 15.29000 41.52900
C  -13.96900 13.28500 39.82700
C  -14.72200 11.89600 39.78600
N  -10.17900 15.49600 42.52200
C  -10.63900 14.19200 42.65100
C  -9.57600 13.35400 43.11500
C  -8.42500 14.09300 42.85300
C  -8.81700 15.37300 42.46800
C  -9.63200 11.91000 43.61200
C  -6.95500 14.02600 42.81100
O  -6.28000 13.01500 42.92100
C  -6.47600 15.43100 42.27700
C  -5.38900 15.91100 43.16100
O  -5.34600 17.03900 43.69700
O  -4.45700 14.92700 43.30300
C  -3.53400 15.15900 44.43700
H  -9.75600 21.31900 40.58500
H  -15.33400 17.88200 40.55300
H  -12.12400 12.72100 42.35700
H  -5.93300 18.45600 41.58700
H  -7.32000 20.38100 40.08400
H  -6.90600 21.78800 41.55500
H  -5.99900 20.70800 42.59100
H  -7.67600 21.01300 43.02800
H  -6.48000 18.85500 38.85900
H  -7.15200 17.26100 39.13900
H  -4.79400 16.91800 40.25600
H  -4.29400 18.16900 39.07900
H  -11.56400 22.35700 38.89800
H  -11.29300 22.59200 40.68900
H  -12.70500 23.30500 39.80000
H  -16.16100 19.80100 41.27700
H  -16.51200 19.70700 39.47800
H  -16.94000 21.17800 40.56500
H  -15.25000 15.36800 39.79800
H  -14.68300 13.41700 41.86500
H  -16.95900 14.69600 40.81300
H  -16.80700 16.28600 41.67700
H  -16.48100 14.68300 42.43000
H  -12.89700 13.26500 39.63400
H  -14.33500 13.85300 38.97200
H  -15.24600 11.83800 38.83200
H  -15.45700 11.76000 40.58000
H  -13.98300 11.10300 39.67000
H  -8.76400 11.31600 43.32800
H  -10.52500 11.37500 43.28900
H  -9.60200 11.98900 44.69900
H  -6.10900 15.10900 41.30200
H  -2.89600 14.27600 44.47000
H  -4.17800 15.32300 45.30100
H  -2.95200 16.04500 44.18400

