158

Mg -11.72000 37.08700 42.26000
C  -9.52300 34.49400 41.27800
C  -9.54100 39.40300 40.89800
C  -14.06700 39.48400 42.43200
C  -13.91400 34.77000 43.39800
N  -9.73900 36.83000 41.09700
C  -9.07900 35.75400 40.71800
C  -7.92100 36.04400 39.86300
C  -7.73700 37.59500 39.98700
C  -9.10000 38.02200 40.71600
C  -6.54000 38.09800 40.82700
C  -8.23000 35.48200 38.47300
C  -7.27800 34.37600 37.93700
H  -6.16300 34.75800 37.00800
N  -11.78200 39.12500 41.69700
C  -10.75200 39.92000 41.36700
C  -11.20400 41.24300 41.28900
C  -12.54400 41.25900 41.51200
C  -12.88100 39.87900 41.86100
C  -10.24500 42.34700 41.04700
C  -13.55100 42.46900 41.27400
O  -13.09300 43.52700 40.94300
C  -15.08400 42.44000 41.28500
N  -13.85500 37.05900 42.54700
C  -14.48500 38.19900 42.82900
C  -15.88400 37.88000 43.44000
C  -15.81800 36.35800 43.67600
C  -14.45000 36.01400 43.19500
C  -16.13600 38.64700 44.78800
C  -16.91200 35.52000 42.91600
C  -17.73000 34.51000 43.86500
N  -11.72800 35.05400 42.43900
C  -12.64700 34.28600 43.09000
C  -12.04300 32.93300 43.21000
C  -10.89000 32.94800 42.44600
C  -10.70900 34.27800 41.98600
C  -12.60400 31.65300 43.94200
C  -9.75100 32.13800 41.96000
O  -9.57200 30.89500 42.08100
C  -8.82900 33.12200 41.13700
C  -7.51300 33.02000 41.86200
O  -6.92200 31.91900 42.09400
O  -7.11000 34.16500 42.44900
C  -5.94100 34.06500 43.26800
H  -8.89400 40.18600 40.49800
H  -14.72700 40.33300 42.62600
H  -14.56100 34.10600 43.97600
H  -7.05500 35.51400 40.26100
H  -7.71600 38.01900 38.98300
H  -6.04600 37.33500 41.42900
H  -6.78100 38.87100 41.55700
H  -5.76400 38.51100 40.18200
H  -8.20100 36.34600 37.80800
H  -9.14300 34.88700 38.48600
H  -7.90600 33.67300 37.39000
H  -6.82000 33.79100 38.73400
H  -9.19600 42.14000 41.25900
H  -10.50000 43.05400 41.83600
H  -10.34000 42.84300 40.08100
H  -15.41800 41.53200 40.78400
H  -15.46400 43.40400 40.94500
H  -15.51000 42.39900 42.28700
H  -16.63800 38.18000 42.71300
H  -15.77600 36.06000 44.72300
H  -15.38100 39.40200 45.01000
H  -16.15200 37.94300 45.62100
H  -17.06600 39.17900 44.59000
H  -16.61600 35.18300 41.92200
H  -17.66900 36.28700 42.75200
H  -18.43600 35.20300 44.32400
H  -17.14600 34.07400 44.67500
H  -18.26900 33.79200 43.24600
H  -11.78500 31.24400 44.53400
H  -12.91400 30.86600 43.25400
H  -13.29500 31.95100 44.73100
H  -8.65600 32.78600 40.11500
H  -5.13700 33.65400 42.65700
H  -6.11700 33.28200 44.00500
H  -5.70400 34.97500 43.82000
Mg -5.03300 25.23900 26.22300
C  -3.58600 26.55900 29.12800
C  -6.83400 23.02500 28.21100
C  -6.00400 23.61100 23.40000
C  -2.72500 27.15900 24.42300
N  -5.18700 24.95100 28.41100
C  -4.52000 25.58100 29.41700
C  -5.14400 25.22700 30.77300
C  -5.97700 23.92600 30.48300
C  -5.97000 23.95000 28.94400
C  -5.26400 22.66800 31.08800
C  -5.92300 26.36200 31.42000
C  -5.51100 26.81100 32.89100
H  -5.12800 25.71000 33.88000
N  -6.32300 23.67700 25.84000
C  -7.03900 22.94600 26.80300
C  -7.90000 21.93700 26.08500
C  -7.74100 22.13400 24.66500
C  -6.63600 23.17300 24.55100
C  -8.86000 20.97900 26.83000
C  -8.53900 21.55200 23.46600
O  -8.30000 21.87100 22.34000
C  -9.73500 20.63600 23.74700
N  -4.47600 25.34600 24.21600
C  -5.04700 24.60800 23.22600
C  -4.37800 24.77600 21.89400
C  -3.54200 26.08600 22.13800
C  -3.54400 26.21100 23.68800
C  -3.54600 23.55200 21.36600
C  -4.04900 27.40800 21.48900
C  -3.22800 28.01300 20.32200
N  -3.46600 26.65400 26.61600
C  -2.63800 27.36000 25.81400
C  -1.73600 28.20400 26.58200
C  -2.04500 27.93800 27.83700
C  -3.08400 26.95000 27.83200
C  -0.89400 29.22000 25.95100
C  -1.70000 28.26900 29.24200
O  -0.84900 29.04200 29.70600
C  -2.73700 27.35200 30.09500
C  -1.87100 26.45300 31.01600
O  -1.35600 25.35000 30.77000
O  -1.86900 27.11900 32.25800
C  -1.15100 26.47500 33.38600
H  -7.27700 22.22300 28.80500
H  -6.27900 23.13700 22.45500
H  -2.06400 27.80700 23.84300
H  -4.31600 25.06500 31.46200
H  -7.04200 23.91000 30.71600
H  -6.15000 22.07700 31.31900
H  -4.64900 22.83700 31.97200
H  -4.58700 22.23600 30.35200
H  -6.98500 26.11400 31.40100
H  -5.91400 27.29300 30.85200
H  -6.41100 27.19400 33.37200
H  -4.76800 27.60900 32.89000
H  -8.73000 19.97000 26.43900
H  -9.90900 21.26900 26.78300
H  -8.51700 20.91600 27.86300
H  -10.45500 21.04900 24.45300
H  -9.32600 19.68300 24.08400
H  -10.17500 20.52800 22.75500
H  -5.11900 25.00600 21.12900
H  -2.55700 25.94300 21.69400
H  -3.61400 22.66300 21.99300
H  -2.52100 23.91100 21.27100
H  -4.02100 23.21800 20.44300
H  -4.29500 28.14800 22.25000
H  -5.06400 27.16400 21.17700
H  -2.45300 27.29100 20.06700
H  -2.96300 29.02900 20.61800
H  -3.77300 28.16900 19.39200
H  -0.23400 28.68100 25.27100
H  -0.42800 29.75700 26.77700
H  -1.57300 29.79900 25.32500
H  -3.40800 27.91400 30.74500
H  -0.12000 26.46600 33.03300
H  -1.42000 25.44700 33.63300
H  -1.33400 27.13300 34.23500

