158

Mg 40.71800 7.36100 29.80600
C  42.66600 8.81900 32.70000
C  38.50600 6.38200 32.11400
C  39.37600 5.70100 27.33900
C  43.42800 8.12900 27.76900
N  40.69700 7.55200 32.22900
C  41.41000 8.29300 33.10500
C  40.80900 8.33600 34.42500
C  39.52100 7.46400 34.21000
C  39.57800 7.05800 32.75100
C  39.29800 6.25700 35.09400
C  40.54300 9.85000 34.75400
C  39.66300 10.14700 36.05300
H  40.17900 11.12500 37.06900
N  39.11400 6.21400 29.75500
C  38.29800 5.93300 30.82000
C  37.09600 5.25000 30.20000
C  37.22300 5.33800 28.77700
C  38.62500 5.78100 28.56300
C  35.90100 4.85700 31.01100
C  36.34000 5.01700 27.71700
O  36.56400 5.12100 26.52900
C  34.92600 4.48300 28.08200
N  41.47100 6.82100 27.84700
C  40.63000 6.20700 26.96400
C  41.07400 6.29300 25.53000
C  42.21700 7.39700 25.69000
C  42.44400 7.36800 27.17100
C  41.46900 4.89200 25.06900
C  41.86300 8.80100 25.02600
C  42.88500 9.31500 24.09400
N  42.66700 8.24800 30.15000
C  43.55500 8.55500 29.18900
C  44.59100 9.27300 29.67600
C  44.35500 9.32800 31.09500
C  43.13800 8.72300 31.29800
C  45.68900 9.92300 28.83600
C  44.89600 9.89000 32.34500
O  45.94800 10.51700 32.48900
C  43.84800 9.56500 33.44800
C  44.31800 8.73100 34.53300
O  45.03100 7.78400 34.47100
O  43.88200 9.27500 35.71200
C  44.03600 8.49000 36.97300
H  37.61000 6.33700 32.73700
H  38.91200 5.19200 26.49100
H  44.18900 8.61200 27.15300
H  41.57600 7.98100 35.11400
H  38.70100 8.14300 34.44100
H  39.17200 5.26900 34.65100
H  38.35800 6.46900 35.60300
H  39.98900 6.20200 35.93600
H  40.11500 10.40100 33.91700
H  41.46800 10.42400 34.80100
H  39.32100 9.20700 36.48600
H  38.83800 10.73700 35.65300
H  35.63900 3.80900 30.86700
H  34.99900 5.39200 30.71500
H  36.04100 5.24600 32.02000
H  34.99000 3.58700 28.69900
H  34.36800 4.20500 27.18800
H  34.47800 5.36000 28.55100
H  40.28500 6.69400 24.89300
H  43.12300 7.00600 25.22900
H  40.82600 4.21300 25.62900
H  42.49800 4.70500 25.37500
H  41.25300 4.72200 24.01400
H  41.79400 9.55600 25.81000
H  40.93800 8.75900 24.45100
H  43.62700 8.52700 23.96600
H  43.34100 10.19200 24.55400
H  42.65700 9.52200 23.04900
H  45.31000 10.35900 27.91100
H  46.37000 9.08600 28.68500
H  46.07800 10.77900 29.38800
H  43.50000 10.51100 33.86200
H  43.66400 9.09800 37.79700
H  45.11900 8.38300 37.04100
H  43.57500 7.50200 36.96300
Mg 16.32400 52.28900 24.83200
C  17.89500 51.28600 27.76900
C  13.46300 52.86100 26.66700
C  14.54400 52.74700 22.03200
C  19.04200 50.94600 23.06700
N  15.72000 52.03000 27.04200
C  16.57100 51.77100 28.02700
C  15.83700 52.06100 29.41200
C  14.42400 52.47400 28.99900
C  14.50300 52.38100 27.45700
C  13.33900 51.49800 29.59200
C  16.56300 53.26700 30.03900
C  16.83500 53.28900 31.53100
H  16.00100 52.36400 32.45100
N  14.25800 52.81500 24.33000
C  13.30000 53.10500 25.23200
C  12.05200 53.50700 24.55600
C  12.35900 53.48100 23.23300
C  13.79100 52.94200 23.11900
C  10.86000 53.87200 25.41800
C  11.47600 53.79700 22.10700
O  11.92100 53.77300 20.92300
C  10.02200 54.17300 22.23800
N  16.72700 51.80600 22.76100
C  15.85200 52.14800 21.76400
C  16.40300 51.88800 20.34700
C  17.81000 51.50400 20.68100
C  17.91200 51.37900 22.27500
C  15.64000 50.80800 19.57200
C  18.88600 52.44900 20.03500
C  19.21300 53.69800 20.88500
N  18.27900 51.36700 25.29900
C  19.17900 50.81100 24.43500
C  20.25000 50.29400 25.23300
C  19.80800 50.46500 26.52100
C  18.53900 51.02700 26.54200
C  21.54200 49.75900 24.81900
C  20.12800 50.37200 27.95300
O  21.10100 49.85400 28.48600
C  18.93700 50.98000 28.80800
C  18.46800 49.88500 29.65900
O  17.59400 49.03200 29.38500
O  19.16600 49.90000 30.79900
C  18.87300 48.84800 31.79300
H  12.58700 53.02200 27.29900
H  14.06700 53.19400 21.15700
H  19.74800 50.48900 22.37000
H  15.89000 51.13400 29.98300
H  14.20300 53.49400 29.31500
H  13.78200 50.54700 29.88700
H  12.53800 51.27600 28.88600
H  12.96000 51.96100 30.50300
H  16.24900 54.25600 29.70600
H  17.55100 53.23500 29.57900
H  16.56100 54.30400 31.82300
H  17.87500 53.06300 31.76500
H  10.11800 53.07500 25.37700
H  10.27400 54.72300 25.07100
H  11.03800 54.12000 26.46400
H  9.82300 55.20000 22.54700
H  9.45800 53.55000 22.93200
H  9.49000 54.25200 21.28900
H  16.41400 52.89700 19.93600
H  18.04300 50.52100 20.27100
H  15.16000 51.25600 18.70300
H  14.79600 50.47900 20.17900
H  16.18700 50.00500 19.07700
H  18.67900 52.74100 19.00500
H  19.85200 51.96100 19.90200
H  18.40400 53.85900 21.59700
H  19.18600 54.47400 20.11900
H  20.17100 53.66200 21.40400
H  21.97200 50.58500 24.25200
H  21.26900 48.87400 24.24600
H  22.16000 49.60400 25.70400
H  19.36200 51.74800 29.45600
H  17.80300 48.87000 32.00100
H  19.29500 49.06000 32.77500
H  19.27200 47.90800 31.41100

