158

Mg 55.54400 25.10100 45.39100
C  53.20500 27.14900 43.74800
C  54.30800 22.38300 43.63200
C  58.42700 23.43000 45.85600
C  57.09000 27.97900 46.56900
N  54.09800 24.91100 43.71500
C  53.25500 25.83700 43.20100
C  52.29700 25.24400 42.11900
C  52.43900 23.75300 42.52200
C  53.72900 23.65800 43.31900
C  51.22200 23.19900 43.36100
C  52.81100 25.54300 40.60700
C  51.72600 26.02600 39.58300
H  51.54000 25.32500 38.23200
N  56.22600 23.21600 44.96300
C  55.52400 22.19500 44.32200
C  56.21100 20.89100 44.44200
C  57.37200 21.16800 45.23400
C  57.37400 22.63700 45.43800
C  55.80600 19.53600 43.80200
C  58.37400 20.17300 45.69800
O  58.20500 18.94800 45.43000
C  59.47200 20.53300 46.59600
N  57.46100 25.64000 46.16400
C  58.52800 24.76800 46.15400
C  59.76400 25.42400 46.74700
C  59.28100 26.92400 46.98100
C  57.84700 26.86900 46.61000
C  60.34300 24.72400 47.98900
C  60.09900 27.78600 45.93800
C  61.51900 28.11900 46.27000
N  55.11700 27.19100 45.41300
C  55.77200 28.20600 46.01400
C  54.91900 29.35000 45.93000
C  53.91500 28.98400 45.01900
C  54.10500 27.66500 44.61400
C  55.21000 30.75700 46.62600
C  52.77400 29.49600 44.28100
O  52.22200 30.58000 44.28600
C  52.17300 28.25600 43.55200
C  51.87000 28.61700 42.18500
O  52.65000 28.94900 41.30400
O  50.49700 28.53200 42.02700
C  49.90300 28.83900 40.71300
H  53.76500 21.53200 43.21500
H  59.39400 22.97100 46.07600
H  57.62000 28.81400 47.03200
H  51.25000 25.52200 42.23200
H  52.48300 23.12100 41.63500
H  51.38100 22.17200 43.68800
H  50.34300 23.31600 42.72700
H  50.97600 23.74100 44.27400
H  53.30700 24.62100 40.30400
H  53.58200 26.30900 40.69300
H  51.87800 27.00600 39.13100
H  50.70800 26.13300 39.95800
H  55.75500 18.84700 44.64500
H  56.53300 19.16100 43.08100
H  54.81300 19.65800 43.37100
H  59.91900 19.68800 47.12000
H  59.02600 21.17800 47.35300
H  60.26900 20.92000 45.96000
H  60.53600 25.35100 45.98200
H  59.55600 27.21400 47.99500
H  59.73500 23.88700 48.33300
H  60.48100 25.51700 48.72400
H  61.31000 24.32000 47.69100
H  59.59000 28.74500 45.84100
H  60.01500 27.25800 44.98800
H  61.70500 29.18000 46.43200
H  62.23400 27.78300 45.51800
H  61.84000 27.54400 47.13900
H  55.90400 30.48900 47.42300
H  54.27700 31.12500 47.05400
H  55.59200 31.40900 45.84000
H  51.22700 28.21400 44.09200
H  49.78300 29.92100 40.65700
H  48.94000 28.33000 40.74500
H  50.56100 28.44600 39.93800
Mg -9.52800 38.95400 41.18800
C  -7.51200 36.11400 40.56700
C  -7.23200 41.00800 39.81200
C  -11.67400 41.41100 41.54100
C  -12.08700 36.65600 42.10100
N  -7.72800 38.58900 40.17500
C  -6.96500 37.39700 40.15200
C  -5.57800 37.60700 39.59300
C  -5.44200 39.16100 39.67500
C  -6.88800 39.66500 39.94400
C  -4.38500 39.68600 40.67500
C  -5.40000 36.92200 38.25000
C  -6.65900 36.70500 37.37500
H  -6.40600 36.52100 35.84100
N  -9.38200 40.94500 40.82300
C  -8.41700 41.58200 40.16900
C  -8.84900 42.95000 39.91300
C  -9.96800 43.15200 40.70400
C  -10.39100 41.82500 41.04100
C  -7.95700 43.94700 39.06700
C  -10.70300 44.47600 40.89500
O  -10.32500 45.50800 40.40300
C  -11.85500 44.69000 41.88400
N  -11.58400 38.98700 41.58400
C  -12.19100 40.20200 41.90700
C  -13.62200 40.08100 42.17600
C  -13.70200 38.55900 42.44500
C  -12.33200 38.04500 41.97700
C  -14.15400 40.99100 43.28100
C  -14.93800 37.82700 41.76000
C  -16.39100 38.45600 41.86900
N  -9.72300 36.76500 41.35000
C  -10.81400 36.01000 41.85700
C  -10.45300 34.58200 41.89900
C  -9.14700 34.56300 41.34100
C  -8.75600 35.89100 41.01800
C  -11.21700 33.54000 42.48600
C  -7.94500 33.74100 41.07200
O  -7.70300 32.52900 41.13600
C  -6.82500 34.76800 40.53300
C  -5.58800 34.62800 41.27800
O  -5.19800 35.41200 42.15600
O  -4.86300 33.63100 40.70600
C  -3.53500 33.27500 41.18500
H  -6.49400 41.47700 39.15700
H  -12.47600 42.15100 41.57900
H  -12.84500 35.98200 42.50500
H  -4.88100 37.20500 40.32800
H  -5.23100 39.62900 38.71300
H  -4.50100 40.76500 40.77500
H  -3.44100 39.32600 40.26600
H  -4.44900 39.20200 41.65000
H  -4.97200 35.92800 38.38600
H  -4.61600 37.43600 37.69500
H  -7.39300 37.48800 37.56800
H  -7.20600 35.82000 37.70100
H  -7.91600 44.85800 39.66400
H  -8.48400 44.29200 38.17800
H  -6.96600 43.50300 38.97700
H  -11.79300 44.04000 42.75700
H  -12.76500 44.52500 41.30800
H  -11.83600 45.71200 42.26400
H  -14.14800 40.26400 41.23900
H  -13.63400 38.41200 43.52300
H  -13.47100 41.64400 43.82500
H  -14.51400 40.26800 44.01300
H  -15.00300 41.58500 42.94200
H  -15.06300 36.82000 42.16000
H  -14.61400 37.51600 40.76700
H  -16.74200 38.73700 40.87600
H  -16.44700 39.25700 42.60600
H  -16.97900 37.60700 42.22000
H  -12.16600 33.97000 42.80800
H  -10.75200 32.96800 43.28900
H  -11.24100 33.00800 41.53500
H  -6.67300 34.48000 39.49300
H  -2.94300 32.66500 40.50400
H  -3.69600 32.72100 42.11000
H  -2.91800 34.15200 41.38200

