158

Mg 8.03100 3.24700 27.83400
C  9.56300 1.60400 30.44000
C  6.30600 5.19600 30.12300
C  6.32300 4.72300 25.18900
C  9.31200 0.86200 25.65400
N  7.80800 3.18900 29.99700
C  8.70700 2.63200 30.84700
C  8.55000 3.24600 32.28300
C  7.27400 4.15200 32.21700
C  7.15700 4.21700 30.66300
C  5.98200 3.61200 32.95300
C  9.86700 3.83500 32.97100
C  10.42500 3.16400 34.16400
H  10.96100 4.01500 35.26800
N  6.52000 4.69800 27.65600
C  6.01100 5.47200 28.73000
C  5.30700 6.57200 28.14600
C  5.34300 6.45200 26.73200
C  6.04600 5.24400 26.46300
C  4.60100 7.46500 29.18700
C  4.73100 7.41700 25.75100
O  4.92200 7.19300 24.54400
C  4.06900 8.66400 26.25200
N  7.76200 2.74900 25.74000
C  7.07500 3.51500 24.87700
C  7.20500 2.93200 23.39500
C  8.06200 1.57400 23.65000
C  8.44200 1.74200 25.10400
C  5.86800 2.75500 22.67000
C  9.29200 1.47600 22.62500
C  9.49000 0.14400 21.97100
N  9.34500 1.56300 27.97800
C  9.73800 0.67100 27.03200
C  10.60900 -0.23900 27.67700
C  10.68800 0.06900 29.06500
C  9.79900 1.17700 29.12900
C  11.25000 -1.35300 26.87800
C  11.15500 -0.35000 30.36000
O  11.93700 -1.23500 30.70300
C  10.39100 0.63400 31.26900
C  9.55300 -0.00200 32.28100
O  8.48100 -0.65100 32.09800
O  10.09700 0.08000 33.54400
C  9.15700 -0.29200 34.65000
H  5.93500 5.84700 30.91700
H  6.02200 5.23800 24.27400
H  9.63100 0.07500 24.96700
H  8.33300 2.34700 32.86100
H  7.38700 5.20200 32.48600
H  5.30200 3.20500 32.20500
H  5.56000 4.36200 33.62100
H  6.26500 2.73600 33.53700
H  9.46100 4.78900 33.31000
H  10.73500 3.99200 32.33100
H  11.18800 2.42100 33.92900
H  9.66100 2.50700 34.58000
H  5.29900 8.10000 29.73400
H  4.16500 6.84400 29.97000
H  3.85900 8.17200 28.81600
H  4.76700 9.30800 26.78800
H  3.17300 8.42900 26.82600
H  3.71700 9.16300 25.35000
H  7.74700 3.67500 22.81000
H  7.44700 0.67600 23.60500
H  5.78800 3.34300 21.75600
H  5.09500 3.10300 23.35700
H  5.62100 1.70800 22.49800
H  10.15800 1.61500 23.27200
H  9.27600 2.22500 21.83400
H  8.68700 -0.55100 22.21700
H  10.44300 -0.13600 22.42000
H  9.48700 0.20500 20.88300
H  11.84800 -0.91000 26.08200
H  10.63900 -2.16300 26.47900
H  11.94700 -1.85000 27.55200
H  11.15700 1.10300 31.88700
H  8.74600 -1.28300 34.45700
H  8.48800 0.56200 34.74900
H  9.83100 -0.40600 35.49900
Mg 16.53700 52.09000 26.20100
C  18.90200 50.67500 28.56600
C  14.59200 52.72500 28.96600
C  14.30500 53.38700 24.10700
C  18.79600 51.43600 23.70800
N  16.82200 51.84200 28.39100
C  17.79400 51.21400 29.14200
C  17.51400 51.15600 30.59700
C  16.03500 51.54100 30.68300
C  15.82800 52.12100 29.28200
C  14.98300 50.46100 31.09600
C  18.42900 51.96200 31.52000
C  18.60800 51.42500 32.98100
H  17.76900 52.12500 34.07200
N  14.64800 53.03300 26.54700
C  14.04300 53.12800 27.73000
C  12.72500 53.75700 27.50300
C  12.62700 54.01200 26.05300
C  13.91500 53.47000 25.47100
C  11.65000 54.03100 28.64500
C  11.43000 54.63500 25.26200
O  11.43900 54.74000 24.02100
C  10.13600 55.10800 26.01100
N  16.54100 52.27300 24.20400
C  15.44600 52.78400 23.52500
C  15.65300 52.56700 22.06500
C  17.18300 52.31700 21.91600
C  17.58800 52.05200 23.36000
C  14.86000 51.32100 21.39500
C  18.03000 53.44300 21.38600
C  18.90700 53.08900 20.15300
N  18.48700 51.26800 26.08900
C  19.20200 51.00300 24.99200
C  20.35300 50.23700 25.31700
C  20.35200 50.11300 26.73000
C  19.15500 50.76900 27.17000
C  21.35500 49.71900 24.41600
C  21.04000 49.56600 27.89300
O  22.06300 48.89300 27.97200
C  20.18000 49.99900 29.19900
C  19.93500 48.76800 30.07900
O  19.13300 47.85800 29.88500
O  20.68200 48.85200 31.18900
C  20.30800 47.90600 32.26600
H  13.96200 52.85000 29.84900
H  13.49700 53.57200 23.39600
H  19.44600 51.26100 22.84800
H  17.56000 50.11300 30.90900
H  15.88000 52.35100 31.39600
H  13.95000 50.75500 31.27700
H  15.33600 50.38200 32.12500
H  15.18300 49.56400 30.50900
H  18.05100 52.98400 31.50100
H  19.47200 51.98600 31.20100
H  19.66400 51.58200 33.20000
H  18.47700 50.34400 32.93000
H  11.99400 53.62800 29.59600
H  10.69600 53.62400 28.31000
H  11.59200 55.10600 28.81600
H  10.42400 55.79500 26.80600
H  9.53700 54.27700 26.38200
H  9.54700 55.61400 25.24600
H  15.21000 53.45400 21.61200
H  17.38300 51.44600 21.29300
H  14.52200 51.60500 20.39800
H  13.93800 51.19300 21.96200
H  15.46400 50.41600 21.33300
H  18.65300 53.94300 22.12700
H  17.27700 54.15200 21.04100
H  19.81000 53.69600 20.22400
H  18.46400 53.45400 19.22600
H  19.15800 52.03000 20.08900
H  20.97700 50.02500 23.44000
H  21.36900 48.63000 24.46200
H  22.38400 50.07500 24.44300
H  20.89400 50.67800 29.66400
H  20.74500 46.94300 32.00200
H  19.22600 47.88300 32.39100
H  20.66100 48.32200 33.21000

