158

Mg 30.52600 58.93000 39.74200
C  27.51000 57.16800 38.97400
C  32.26300 56.19000 38.42000
C  33.25300 60.68900 39.76000
C  28.56000 61.73900 40.50300
N  29.91700 56.95900 38.78300
C  28.67300 56.42900 38.63700
C  28.74100 55.05500 37.95500
C  30.14400 54.59400 38.34600
C  30.85700 56.00300 38.49800
C  30.35200 53.55200 39.54600
C  28.37600 55.15800 36.44600
C  26.98400 54.68400 35.94200
H  26.34800 55.52400 34.82300
N  32.45000 58.50400 39.10200
C  33.02100 57.29900 38.60200
C  34.43100 57.47400 38.46800
C  34.79000 58.73200 38.92700
C  33.51600 59.38700 39.28200
C  35.28600 56.39500 37.79700
C  36.19700 59.21700 39.09400
O  37.13900 58.51000 38.75900
C  36.43800 60.53200 39.61000
N  30.84000 60.96500 39.86000
C  32.12500 61.42600 39.92700
C  32.15000 62.86200 40.53800
C  30.65500 63.21900 40.64300
C  29.99000 61.90900 40.38300
C  32.85000 63.01400 41.87600
C  30.10100 64.46000 39.86500
C  29.14600 65.36200 40.63700
N  28.46600 59.39200 39.81800
C  27.76200 60.59400 40.22800
C  26.32800 60.39100 40.18000
C  26.21000 59.04000 39.77500
C  27.51500 58.55800 39.47800
C  25.31700 61.49700 40.54300
C  25.22900 58.05100 39.40700
O  23.99200 58.06500 39.36500
C  26.04600 56.77000 38.80400
C  25.55700 55.63500 39.63700
O  26.00500 55.31900 40.73300
O  24.58300 54.94700 39.00400
C  23.94100 53.85900 39.82100
H  32.71700 55.23300 38.15700
H  34.10400 61.32800 40.00400
H  28.16100 62.62100 41.00900
H  28.04300 54.36500 38.42900
H  30.58800 54.06400 37.50400
H  29.45400 53.19500 40.05000
H  30.88700 54.23800 40.20300
H  31.04800 52.76900 39.24500
H  29.09600 54.48400 35.98200
H  28.52900 56.18800 36.12300
H  26.33800 54.58300 36.81400
H  27.16900 53.69300 35.52500
H  35.75200 55.66200 38.45600
H  36.11900 56.85800 37.26800
H  34.77600 55.85000 37.00300
H  36.06300 60.65900 40.62500
H  35.95000 61.22700 38.92600
H  37.49800 60.77200 39.52300
H  32.57100 63.45600 39.72600
H  30.25500 63.32600 41.65100
H  32.23800 63.52900 42.61600
H  33.76900 63.50900 41.56000
H  33.07200 62.00200 42.21200
H  29.45000 64.07500 39.08000
H  30.90100 65.03400 39.39800
H  29.68300 66.20100 41.08100
H  28.63500 64.86000 41.45900
H  28.34400 65.74300 40.00600
H  24.40300 61.36400 39.96400
H  25.59300 62.53600 40.36600
H  25.06900 61.39300 41.59900
H  25.64900 56.75600 37.78900
H  24.35600 52.86400 39.66000
H  22.91000 53.95000 39.48000
H  24.01100 54.07300 40.88800
Mg -11.84900 39.08200 42.15900
C  -9.66200 36.39900 41.54300
C  -9.53100 41.24900 40.90600
C  -14.14600 41.59500 42.43000
C  -14.37800 36.79100 43.12100
N  -9.84700 38.72200 41.07000
C  -9.13000 37.59000 41.04300
C  -7.91600 37.80500 40.17700
C  -7.85000 39.42500 40.23600
C  -9.19100 39.85100 40.78000
C  -6.63900 40.15000 40.92700
C  -7.96800 37.14700 38.72500
C  -6.99000 35.93600 38.54400
H  -6.04600 36.00300 37.41500
N  -11.83200 41.16400 41.81000
C  -10.80800 41.83000 41.23900
C  -11.18500 43.25800 41.19000
C  -12.48800 43.48900 41.71500
C  -12.89600 42.00700 41.91200
C  -10.10000 44.20500 40.56300
C  -13.13000 44.77500 41.96900
O  -12.52200 45.80400 41.69600
C  -14.39900 44.86500 42.71500
N  -13.96700 39.14200 42.79200
C  -14.62800 40.34000 42.77900
C  -16.16000 40.11200 43.10400
C  -16.25500 38.60900 43.19000
C  -14.77900 38.05700 42.99400
C  -16.69100 40.86700 44.41700
C  -17.35600 38.05700 42.15400
C  -17.03400 37.92200 40.64100
N  -12.07600 36.99200 42.21600
C  -13.10900 36.23000 42.71800
C  -12.72300 34.83500 42.76600
C  -11.38500 34.84500 42.29800
C  -11.01700 36.19500 42.02100
C  -13.65900 33.69700 43.16000
C  -10.28200 33.99000 41.88300
O  -10.17700 32.82800 42.05400
C  -9.16100 35.01700 41.34500
C  -7.90700 34.57400 41.98500
O  -7.48500 34.97600 43.06200
O  -7.25100 33.65200 41.17900
C  -5.89200 33.19000 41.62100
H  -8.81300 41.98900 40.54600
H  -14.92100 42.36100 42.36900
H  -15.25200 36.19600 43.39300
H  -6.99800 37.54100 40.70300
H  -7.81900 39.72000 39.18700
H  -6.98300 40.92400 41.61300
H  -6.01000 40.54400 40.12900
H  -6.12300 39.51800 41.64900
H  -7.71700 37.83100 37.91400
H  -8.95200 36.73700 38.50000
H  -7.66900 35.10400 38.35700
H  -6.59700 35.65600 39.52200
H  -9.16000 44.14500 41.11200
H  -10.48700 45.19900 40.33800
H  -9.99400 43.81300 39.55100
H  -15.15800 44.48300 42.03200
H  -14.58900 45.93400 42.81100
H  -14.17600 44.37800 43.66500
H  -16.76700 40.55300 42.31300
H  -16.49900 38.35500 44.22200
H  -17.69700 41.20600 44.17000
H  -16.00900 41.63200 44.78700
H  -16.85100 40.19900 45.26400
H  -18.09700 38.85600 42.13100
H  -17.83200 37.18100 42.59500
H  -17.33300 38.85500 40.16300
H  -17.63000 37.13700 40.17500
H  -15.95300 37.80500 40.56700
H  -14.52800 33.86400 42.52500
H  -13.93200 33.70600 44.21500
H  -13.23800 32.72400 42.90800
H  -9.08000 34.72400 40.29800
H  -5.36700 33.94700 42.20300
H  -5.34200 32.90700 40.72300
H  -5.74700 32.28400 42.20900

