158

Mg 25.55500 1.29800 30.02500
C  27.35500 1.46200 33.21700
C  22.65600 1.85400 31.92800
C  23.79400 0.66400 27.29600
C  28.53400 0.61000 28.44900
N  25.09100 1.65800 32.35400
C  25.98500 1.65900 33.40500
C  25.32300 2.00500 34.76700
C  23.82600 1.88000 34.27900
C  23.85200 1.83900 32.74400
C  23.14100 0.57500 34.78200
C  25.71300 3.35200 35.41100
C  26.42500 3.25500 36.82900
H  26.05100 4.31100 37.86500
N  23.44200 1.28700 29.68700
C  22.41300 1.62800 30.53500
C  21.15600 1.64300 29.81600
C  21.52500 1.23700 28.48300
C  22.97700 0.98900 28.40700
C  19.80600 2.05000 30.41900
C  20.57700 1.13900 27.37900
O  20.91100 0.57800 26.34000
C  19.15900 1.68400 27.48600
N  26.11300 0.66300 28.17300
C  25.22200 0.59200 27.15600
C  25.87900 0.26800 25.78700
C  27.40300 0.49000 26.14000
C  27.33100 0.63900 27.66400
C  25.52800 -1.20700 25.37100
C  28.10800 1.73800 25.46600
C  27.19700 2.96200 25.35600
N  27.55500 1.01600 30.63600
C  28.69200 0.82000 29.84500
C  29.78400 0.82100 30.70700
C  29.35100 1.13000 31.99600
C  27.99600 1.23900 31.93500
C  31.21100 0.52000 30.36900
C  29.79800 1.37700 33.33300
O  30.92600 1.46100 33.77600
C  28.49100 1.52900 34.22700
C  28.34900 0.45000 35.22400
O  27.86400 -0.65100 35.00500
O  28.70500 0.85600 36.55100
C  28.78600 -0.14200 37.52600
H  21.84300 2.18900 32.57600
H  23.26900 0.43300 26.36700
H  29.47500 0.46800 27.91400
H  25.49700 1.30900 35.58800
H  23.35500 2.77700 34.68200
H  22.57100 -0.00400 34.05500
H  22.43300 0.92900 35.53100
H  23.92000 -0.03500 35.24000
H  24.84600 3.98700 35.59500
H  26.40500 3.68100 34.63600
H  27.45900 3.53000 36.62000
H  26.44300 2.25800 37.27000
H  19.09500 1.26900 30.15000
H  19.51300 2.97400 29.92000
H  19.80800 2.08800 31.50800
H  18.41300 1.05000 27.96600
H  18.75600 1.56300 26.48100
H  19.11600 2.72200 27.81600
H  25.49600 0.91400 24.99700
H  28.07500 -0.31600 25.84600
H  24.68300 -1.59100 25.94300
H  26.32300 -1.95200 25.38800
H  25.13200 -1.14400 24.35800
H  28.38600 1.35200 24.48500
H  28.94000 1.96200 26.13400
H  26.28000 2.86300 25.93700
H  26.94600 3.05200 24.29900
H  27.70200 3.89500 25.60700
H  31.44100 0.98600 29.41000
H  31.35400 -0.56000 30.38200
H  31.84600 0.68600 31.23900
H  28.45300 2.52500 34.66700
H  27.79400 -0.31000 37.94600
H  29.60300 -0.01300 38.23600
H  29.00300 -1.13500 37.13100
Mg 36.09400 48.83700 24.57400
C  36.52000 47.23700 27.67400
C  34.21700 51.21500 25.99500
C  35.47600 49.85900 21.53000
C  37.86300 45.90800 23.04500
N  35.34200 49.09200 26.61700
C  35.73900 48.42500 27.69600
C  35.26700 49.18200 28.93600
C  34.32500 50.32400 28.42300
C  34.64600 50.22300 26.91600
C  32.82600 50.04700 28.74100
C  36.43200 49.68000 29.85700
C  36.42400 49.13900 31.29600
H  34.97900 49.00300 31.92000
N  35.06000 50.39000 23.88000
C  34.41300 51.33800 24.58800
C  33.93300 52.36300 23.73900
C  34.27500 52.02900 22.43900
C  35.03500 50.73400 22.56200
C  33.50700 53.68200 24.27500
C  34.07200 52.76800 21.12800
O  34.79800 52.46300 20.21400
C  33.14600 53.88300 21.04100
N  36.66500 48.02700 22.63700
C  36.23100 48.68100 21.49400
C  36.74000 48.06800 20.23900
C  37.68300 46.87200 20.68600
C  37.39900 46.95400 22.24800
C  35.58500 47.61300 19.32800
C  39.15600 46.93200 20.29500
C  39.97700 48.09600 20.74300
N  36.90700 46.88700 25.16600
C  37.59000 45.82600 24.42300
C  37.80300 44.74700 25.35000
C  37.50100 45.26100 26.61200
C  36.97600 46.58600 26.45100
C  38.55900 43.48800 25.09900
C  37.61500 45.06600 28.04800
O  38.06100 44.07100 28.65500
C  37.01700 46.27500 28.71900
C  35.83500 45.82300 29.67300
O  34.71500 45.65600 29.25900
O  36.25400 45.48300 30.91300
C  35.24800 44.76100 31.72400
H  33.75400 52.09200 26.45100
H  35.26100 50.09700 20.48600
H  38.46500 45.05200 22.73300
H  34.61700 48.44900 29.41300
H  34.62300 51.24000 28.93400
H  32.55000 49.08000 29.16200
H  32.36700 50.13900 27.75700
H  32.47100 50.83200 29.40800
H  36.57200 50.76100 29.85400
H  37.32500 49.21600 29.43800
H  36.99200 49.91300 31.81100
H  37.04300 48.24500 31.37600
H  33.94300 54.40400 23.58500
H  33.74500 53.92300 25.31200
H  32.42900 53.75800 24.13700
H  32.23400 53.78500 21.62900
H  32.80300 53.77000 20.01300
H  33.61800 54.85100 21.20600
H  37.32600 48.72900 19.60000
H  37.28500 45.90100 20.39200
H  34.64100 47.83800 19.82300
H  35.67500 46.53700 19.18200
H  35.52900 47.95800 18.29600
H  39.19400 46.93900 19.20500
H  39.69700 46.01300 20.51700
H  40.76600 47.73900 21.40500
H  39.36500 48.78400 21.32700
H  40.43800 48.66100 19.93300
H  39.62000 43.62600 24.89000
H  38.11300 42.93600 24.27200
H  38.43300 42.88000 25.99500
H  37.80300 46.73600 29.31600
H  35.34500 45.28800 32.67300
H  35.52100 43.70700 31.77800
H  34.18000 44.81900 31.51700

