158

Mg 54.62400 24.20900 45.16500
C  51.97200 26.10100 44.07200
C  53.16900 21.37400 43.99400
C  57.67900 22.84000 45.28900
C  56.28100 27.43900 46.10000
N  52.81500 23.80900 44.02100
C  51.77300 24.73200 43.75700
C  50.51300 23.99900 43.20800
C  50.81700 22.51600 43.44100
C  52.35000 22.53400 43.84200
C  49.92600 21.80900 44.46200
C  50.06800 24.35700 41.79500
C  48.58200 24.07700 41.35900
H  48.14500 24.07100 39.83100
N  55.31900 22.28300 44.75300
C  54.57200 21.23700 44.28500
C  55.46700 20.04000 44.17200
C  56.76100 20.53300 44.41400
C  56.63700 21.94700 44.77600
C  55.07000 18.64000 43.88400
C  58.10500 19.80000 44.39000
O  58.01100 18.61800 44.40800
C  59.45500 20.42400 44.42000
N  56.71600 25.08200 45.49600
C  57.68000 24.18500 45.63100
C  58.99600 24.85600 46.17800
C  58.62900 26.37100 46.12800
C  57.11900 26.34300 45.98800
C  59.59200 24.40000 47.51700
C  59.26800 27.08300 44.87700
C  60.32900 28.23700 45.15400
N  54.19300 26.33400 45.29300
C  54.90800 27.46000 45.69600
C  53.96900 28.50200 45.79300
C  52.75400 28.07100 45.21500
C  53.00100 26.71600 44.84700
C  54.05200 29.85700 46.44800
C  51.39300 28.41600 44.90800
O  50.81000 29.50700 45.00200
C  50.90300 27.23300 44.05000
C  50.59900 27.85300 42.72300
O  51.44300 28.15000 41.89800
O  49.29800 27.76800 42.44200
C  48.77400 27.74200 41.05100
H  52.66400 20.41900 43.83200
H  58.72900 22.62600 45.49800
H  56.62500 28.37000 46.55700
H  49.66000 24.29000 43.82000
H  50.78000 21.96400 42.50200
H  50.35200 21.61900 45.44700
H  49.71100 20.81900 44.06000
H  49.03200 22.37900 44.71300
H  50.62100 23.74900 41.07900
H  50.24200 25.40700 41.56000
H  47.94800 24.68700 42.00200
H  48.29900 23.08000 41.69500
H  55.59900 18.15000 43.06600
H  54.00900 18.62600 43.63300
H  55.13000 18.02600 44.78300
H  59.57500 21.40000 43.95000
H  60.13600 19.82900 43.81100
H  59.69600 20.44300 45.48300
H  59.80600 24.57000 45.50700
H  58.90500 26.80400 47.08900
H  58.76600 24.03200 48.12700
H  60.02200 25.31700 47.91800
H  60.42000 23.71600 47.33500
H  58.54600 27.64800 44.28800
H  59.86200 26.52400 44.15500
H  60.80000 27.97900 46.10200
H  59.82100 29.19300 45.28100
H  61.00400 28.34200 44.30400
H  53.08800 30.23100 46.79300
H  54.33500 30.52400 45.63400
H  54.75100 29.82800 47.28400
H  49.99200 26.82200 44.48700
H  48.08800 28.58600 40.97400
H  48.33200 26.74800 40.98300
H  49.52000 27.93300 40.28000
Mg 16.56700 51.82000 26.40800
C  18.47500 50.83000 29.20200
C  14.08400 52.75000 28.46900
C  14.85900 52.82100 23.65900
C  19.21300 50.86600 24.34800
N  16.33900 51.85000 28.55100
C  17.22000 51.40000 29.53700
C  16.65500 51.58100 30.93500
C  15.15000 51.89000 30.61000
C  15.19400 52.17800 29.10800
C  14.05500 50.82300 30.99500
C  17.40600 52.65500 31.78600
C  17.80800 52.21000 33.15600
H  16.80700 52.70100 34.20100
N  14.78000 52.75700 26.15200
C  13.84300 53.01400 27.12800
C  12.72300 53.73100 26.54200
C  12.91000 53.74600 25.14100
C  14.19800 53.02900 24.95400
C  11.54600 54.30300 27.39400
C  12.07200 54.36700 24.02600
O  12.39100 54.37300 22.87900
C  10.68200 54.95200 24.31800
N  16.89000 51.68500 24.29100
C  16.05700 52.24700 23.36900
C  16.68800 52.29300 21.95500
C  18.08200 51.65900 22.20900
C  18.12600 51.47800 23.69500
C  15.84400 51.67300 20.85400
C  19.33100 52.50600 21.75200
C  20.29300 51.90500 20.72900
N  18.39000 50.82500 26.65600
C  19.38200 50.54700 25.72500
C  20.55100 49.92000 26.39100
C  20.24300 50.07800 27.76400
C  18.90900 50.58900 27.86200
C  21.85100 49.44200 25.81900
C  20.72000 49.88000 29.11300
O  21.84000 49.52300 29.49400
C  19.56400 50.20000 30.13000
C  19.14100 48.94000 30.83800
O  18.65400 47.95600 30.31100
O  19.21700 49.14900 32.16700
C  18.73800 48.05500 33.08600
H  13.32800 53.08200 29.18400
H  14.37300 53.07200 22.71400
H  20.10900 50.60100 23.78400
H  16.74000 50.60500 31.41200
H  14.85300 52.79700 31.13800
H  13.47000 51.12400 31.86500
H  14.59200 49.87700 31.05500
H  13.36600 50.67900 30.16200
H  16.90200 53.62100 31.79600
H  18.37200 52.83200 31.31300
H  18.77900 52.63500 33.41100
H  17.90800 51.12700 33.22800
H  10.62500 53.87600 26.99700
H  11.55200 55.38700 27.28600
H  11.57900 53.99300 28.43800
H  10.20500 55.09100 23.34800
H  10.89200 55.76800 25.00900
H  10.07600 54.11300 24.66100
H  16.83600 53.35300 21.75300
H  18.15300 50.67400 21.74700
H  16.19200 50.73600 20.41800
H  15.73400 52.50800 20.16200
H  14.92000 51.35200 21.33600
H  19.86100 52.92900 22.60500
H  18.96400 53.40500 21.25600
H  21.18100 52.53600 20.75900
H  19.81500 51.99900 19.75400
H  20.44400 50.83400 20.86900
H  21.72600 48.51600 25.25800
H  22.59800 49.36900 26.61000
H  22.07100 50.15300 25.02200
H  20.07200 50.83300 30.85600
H  17.68700 48.29900 33.24000
H  19.23300 48.06600 34.05700
H  18.88300 47.06200 32.66200

