158

Mg 0.06800 8.14200 26.77400
C  0.97900 10.23300 29.41000
C  -0.52300 5.69400 29.00600
C  -0.38900 6.15500 24.21600
C  0.65500 10.87700 24.61400
N  0.37000 7.93400 28.98700
C  0.61600 8.96900 29.86100
C  0.30600 8.59800 31.38100
C  0.16000 6.99600 31.17300
C  -0.16800 6.90400 29.64200
C  1.41200 6.25200 31.61700
C  -0.96900 9.28200 32.06900
C  -0.98700 9.56100 33.54700
H  0.17300 9.06000 34.37500
N  -0.22500 6.17300 26.58400
C  -0.48400 5.33800 27.59800
C  -0.91900 3.98600 27.07600
C  -0.94400 4.12700 25.65700
C  -0.53200 5.51100 25.43800
C  -1.40300 2.83400 27.90100
C  -1.26000 3.06700 24.62100
O  -1.17400 3.37000 23.41400
C  -1.55700 1.59800 25.04200
N  0.25400 8.43400 24.69000
C  -0.00100 7.41500 23.81500
C  -0.05200 7.92300 22.34600
C  -0.08100 9.47000 22.59700
C  0.40800 9.59500 24.04700
C  1.10300 7.44100 21.41900
C  -1.45900 10.11700 22.34400
C  -1.44500 11.20700 21.27900
N  0.86000 10.13500 26.88900
C  0.98600 11.12100 25.94000
C  1.48500 12.35500 26.52200
C  1.53900 12.08100 27.86100
C  1.09000 10.71300 28.08400
C  1.65500 13.67700 25.87100
C  1.77500 12.61400 29.19400
O  2.03100 13.69600 29.63600
C  1.37200 11.44900 30.21400
C  2.49600 11.16500 31.15000
O  3.49000 10.46400 30.86400
O  2.45300 12.03500 32.19700
C  3.65200 12.08500 33.06500
H  -0.75500 4.90500 29.72400
H  -0.68600 5.56200 23.34800
H  0.54900 11.72800 23.93700
H  1.20600 8.94700 31.88800
H  -0.58200 6.55700 31.83900
H  2.04500 6.83600 32.28500
H  1.97200 6.02000 30.71100
H  1.15500 5.36600 32.19600
H  -1.83600 8.64700 31.88900
H  -1.19200 10.11400 31.40100
H  -1.92700 9.19800 33.96300
H  -0.88100 10.62500 33.75900
H  -0.80100 2.01700 27.50300
H  -2.45400 2.62700 27.70000
H  -1.16800 3.02500 28.94800
H  -1.92700 1.00000 24.20900
H  -2.32800 1.64600 25.81200
H  -0.71500 1.04000 25.45300
H  -1.04300 7.51500 22.14800
H  0.66400 9.95500 21.96600
H  0.67400 6.63900 20.81800
H  1.85100 7.12800 22.14800
H  1.45300 8.15900 20.67800
H  -1.85300 10.64100 23.21500
H  -2.14800 9.34900 21.99200
H  -1.98000 10.78100 20.43100
H  -0.42600 11.42000 20.95300
H  -1.93100 12.12400 21.61200
H  0.83100 14.33300 26.15000
H  1.80800 13.64300 24.79200
H  2.59000 14.02200 26.31200
H  0.59800 11.78700 30.90300
H  4.40500 12.32200 32.31300
H  3.94900 11.12000 33.47600
H  3.65000 12.79800 33.89000
Mg 9.96000 48.24700 25.67800
C  8.09500 48.55000 28.67300
C  12.38200 50.11000 27.09700
C  11.58100 48.14700 22.73700
C  7.11200 46.95400 24.14100
N  10.23000 49.17800 27.67500
C  9.39200 49.10500 28.75800
C  10.03900 49.62800 29.99200
C  11.29800 50.40700 29.43000
C  11.35900 49.83300 27.98600
C  11.17300 51.98100 29.51300
C  10.45000 48.59700 31.11600
C  9.68500 48.54500 32.46600
H  10.28400 49.24500 33.73100
N  11.77100 48.93300 25.03700
C  12.67400 49.59600 25.76000
C  13.92500 49.73800 25.10800
C  13.76500 49.01900 23.85400
C  12.31800 48.65900 23.80700
C  15.17700 50.25900 25.83700
C  14.77600 48.68300 22.86700
O  14.41900 48.16600 21.81200
C  16.21100 49.02600 23.12700
N  9.32300 47.84200 23.64500
C  10.30000 47.72200 22.72400
C  9.81700 46.87200 21.56100
C  8.47400 46.34200 22.06400
C  8.29200 47.08400 23.40600
C  9.72300 47.45900 20.12000
C  8.38600 44.78900 22.18800
C  9.31700 43.99300 23.13300
N  7.95900 47.82100 26.23700
C  6.94600 47.33200 25.48500
C  5.78500 47.24000 26.35200
C  6.19700 47.62400 27.60600
C  7.51500 47.95500 27.51100
C  4.34800 46.94300 25.88000
C  5.79600 47.85400 28.94100
O  4.66100 47.77800 29.44900
C  7.05000 48.28300 29.77500
C  7.33100 47.09100 30.60100
O  8.16800 46.23300 30.34400
O  6.47300 46.96300 31.76000
C  6.81100 45.88300 32.71200
H  13.16300 50.80000 27.42200
H  12.19700 47.80600 21.90200
H  6.23600 46.40300 23.79100
H  9.27700 50.20800 30.51300
H  12.19300 50.13600 29.99100
H  11.16600 52.46200 28.53500
H  11.93800 52.42800 30.14900
H  10.23100 52.23000 30.00100
H  11.47800 48.86900 31.35300
H  10.36500 47.62700 30.62500
H  9.65100 47.48600 32.72200
H  8.65800 48.90100 32.39300
H  15.90000 50.80800 25.23300
H  15.64000 49.45200 26.40400
H  14.99600 51.09400 26.51400
H  16.46600 48.67500 24.12700
H  16.22600 50.09500 22.91600
H  16.79500 48.57700 22.32300
H  10.45000 45.98600 21.51600
H  7.63200 46.68900 21.46400
H  9.92100 48.52300 20.25200
H  8.70100 47.36900 19.75200
H  10.30800 47.09600 19.27500
H  8.61700 44.27500 21.25500
H  7.39100 44.37600 22.35500
H  9.82600 44.73000 23.75300
H  10.01100 43.30500 22.65000
H  8.81500 43.45000 23.93400
H  3.88100 47.83100 25.45300
H  3.72700 46.55400 26.68600
H  4.47000 46.13000 25.16500
H  6.80500 49.10000 30.45400
H  6.15800 45.01000 32.68800
H  6.72300 46.37800 33.67900
H  7.85200 45.56400 32.66300

