158

Mg 17.74400 -1.49000 27.37700
C  16.72000 0.35500 30.19200
C  19.84200 -3.25100 29.45200
C  19.13100 -2.80200 24.62100
C  16.16300 0.90900 25.35700
N  18.21600 -1.45800 29.54700
C  17.57900 -0.63900 30.48600
C  18.12700 -0.97800 31.94200
C  19.30700 -1.91400 31.67000
C  19.17200 -2.24900 30.17300
C  20.70000 -1.23000 31.86400
C  17.06000 -1.59700 32.84800
C  16.99800 -1.09300 34.35800
H  18.20000 -0.29300 34.79800
N  19.04900 -2.98000 27.12500
C  19.82600 -3.55800 28.07000
C  20.57500 -4.63500 27.43200
C  20.26700 -4.62700 26.05100
C  19.44400 -3.47100 25.87500
C  21.49000 -5.54600 28.18700
C  20.80100 -5.47300 24.88000
O  20.41000 -5.31400 23.71000
C  21.88700 -6.55300 25.08000
N  17.47900 -1.04700 25.23900
C  18.26900 -1.71200 24.33400
C  18.25400 -0.97900 22.96100
C  17.10000 0.06800 23.11100
C  16.91900 0.02800 24.67200
C  19.63700 -0.31500 22.71300
C  15.70300 -0.16300 22.42800
C  15.24800 0.78000 21.26400
N  16.57400 0.16800 27.64500
C  16.00900 0.98800 26.72500
C  15.26800 2.01600 27.41700
C  15.41200 1.80000 28.79900
C  16.24700 0.69400 28.88700
C  14.34500 3.06700 26.84100
C  15.10300 2.27800 30.13200
O  14.40600 3.21400 30.47600
C  16.00800 1.44900 31.08900
C  17.08200 2.38100 31.62700
O  18.07000 2.74800 31.02300
O  16.76500 2.76300 32.90100
C  17.53600 3.83700 33.46900
H  20.53100 -3.76600 30.12500
H  19.75000 -3.04400 23.75400
H  15.70200 1.81100 24.95100
H  18.43800 -0.02600 32.37100
H  19.34100 -2.81200 32.28700
H  21.33200 -1.83200 32.51700
H  20.49200 -0.39500 32.53300
H  21.23300 -1.00900 30.94000
H  17.09000 -2.68600 32.80200
H  16.13800 -1.31700 32.33800
H  16.90300 -2.05100 34.86900
H  16.07400 -0.52200 34.44400
H  21.92900 -5.04600 29.05100
H  22.36000 -5.70300 27.55100
H  21.11300 -6.51300 28.52200
H  21.46600 -7.29300 25.76100
H  22.73400 -6.07900 25.57500
H  21.97700 -7.00700 24.09300
H  17.91400 -1.63300 22.15900
H  17.40700 1.05000 22.75000
H  20.01300 -0.56100 21.72000
H  20.33600 -0.78100 23.40800
H  19.51200 0.76700 22.74700
H  14.92800 -0.06600 23.18800
H  15.54400 -1.17200 22.04700
H  16.08500 1.40900 20.96100
H  14.41200 1.42200 21.54300
H  15.10000 0.07000 20.45100
H  14.59600 3.57600 25.91000
H  14.20700 3.88100 27.55300
H  13.32500 2.68200 26.83800
H  15.30900 1.06700 31.83300
H  17.75300 4.57900 32.70100
H  18.45600 3.46100 33.91700
H  16.89700 4.32400 34.20600
Mg -4.60400 25.72100 26.07400
C  -3.10400 27.07300 29.03000
C  -6.20200 23.45200 28.12400
C  -5.60800 24.28900 23.34200
C  -2.35800 27.83400 24.20900
N  -4.65300 25.34000 28.29400
C  -4.05500 26.06400 29.27500
C  -4.53800 25.62400 30.70600
C  -5.28300 24.26700 30.33100
C  -5.40900 24.33700 28.79800
C  -4.64100 22.90300 30.77200
C  -5.40300 26.69500 31.38100
C  -5.05200 27.21100 32.79200
H  -4.51700 26.22300 33.81200
N  -5.72800 24.19800 25.77700
C  -6.30300 23.41200 26.71400
C  -7.14900 22.33900 26.04800
C  -7.06600 22.55100 24.68700
C  -6.07900 23.68400 24.58300
C  -8.00500 21.37700 26.92100
C  -7.73900 21.79100 23.49800
O  -7.60300 22.08100 22.32200
C  -8.58800 20.65400 23.78500
N  -4.01600 25.97300 24.08400
C  -4.69100 25.30600 23.12800
C  -4.28800 25.78500 21.71500
C  -3.15500 26.90100 22.02800
C  -3.16100 26.90200 23.52300
C  -3.58800 24.66200 20.87000
C  -3.42400 28.32200 21.31300
C  -2.54800 28.61100 20.09500
N  -3.05600 27.18700 26.49200
C  -2.35700 28.00500 25.61800
C  -1.64000 29.01600 26.33200
C  -1.92100 28.74900 27.68000
C  -2.82200 27.61900 27.73300
C  -0.88700 30.25900 25.76900
C  -1.68600 29.15800 29.01400
O  -0.96500 30.07600 29.43600
C  -2.45600 28.13800 29.92100
C  -1.44600 27.49500 30.78000
O  -0.43300 26.93500 30.39200
O  -1.73800 27.69100 32.11800
C  -0.63900 27.37400 33.09900
H  -6.81400 22.79100 28.74000
H  -5.90500 23.70300 22.46900
H  -1.75700 28.46100 23.54800
H  -3.58600 25.49700 31.22300
H  -6.31000 24.21800 30.69300
H  -4.05200 22.63100 29.89600
H  -5.39500 22.14600 30.98900
H  -3.91600 23.02300 31.57700
H  -6.45900 26.42900 31.42800
H  -5.37900 27.59200 30.76300
H  -5.99500 27.60800 33.16800
H  -4.39300 28.07600 32.71600
H  -7.44900 20.95400 27.75800
H  -8.15600 20.46700 26.34100
H  -9.01000 21.78500 27.02600
H  -9.05700 20.39600 22.83500
H  -9.34400 21.15000 24.39400
H  -8.05100 19.84400 24.27800
H  -5.11000 26.13400 21.09000
H  -2.16700 26.50600 21.79600
H  -4.22300 24.56600 19.98900
H  -3.55700 23.69700 21.37500
H  -2.53200 24.85000 20.67700
H  -3.18100 29.07900 22.05800
H  -4.47800 28.49800 21.09700
H  -2.03500 29.57000 20.16500
H  -3.19700 28.73600 19.22800
H  -1.76600 27.92000 19.77800
H  -1.48800 31.13000 25.50700
H  -0.24900 30.14000 24.89300
H  -0.30000 30.55500 26.63800
H  -3.18100 28.53800 30.63000
H  -0.84100 26.30700 33.18400
H  -0.72200 27.82600 34.08700
H  0.37800 27.56800 32.75900

