158

Mg 17.41300 -1.81300 27.89000
C  16.32200 0.38200 30.50800
C  19.22700 -3.54800 30.15900
C  18.77400 -3.24000 25.37600
C  15.44000 0.29400 25.69000
N  17.82700 -1.47200 30.11800
C  17.12600 -0.68300 30.94100
C  17.49500 -1.07300 32.38700
C  18.64800 -2.21600 32.24400
C  18.60500 -2.45700 30.78400
C  20.02100 -1.79700 32.74500
C  16.26800 -1.50900 33.27400
C  16.17000 -1.02300 34.77700
H  17.29000 -0.37600 35.41700
N  18.77000 -3.24800 27.80900
C  19.39000 -3.91700 28.82100
C  20.07900 -5.06800 28.27000
C  19.99500 -4.94300 26.83500
C  19.15600 -3.75400 26.59600
C  20.72500 -6.08000 29.13500
C  20.57200 -5.84600 25.77400
O  20.37000 -5.65400 24.55100
C  21.40800 -7.11700 26.16500
N  17.12600 -1.50500 25.82400
C  17.85500 -2.20600 24.98500
C  17.64200 -1.77500 23.50300
C  16.48600 -0.75400 23.62700
C  16.28800 -0.64800 25.14900
C  18.88400 -1.18700 22.76000
C  15.19000 -1.11900 22.85400
C  14.07600 -1.81700 23.60300
N  16.19500 0.04600 28.01200
C  15.48500 0.69600 27.03200
C  14.78900 1.77500 27.66900
C  15.16800 1.71600 29.05700
C  16.03500 0.65600 29.19600
C  13.67900 2.66600 27.02500
C  15.00600 2.39500 30.31400
O  14.40100 3.45600 30.62600
C  15.74300 1.55800 31.33200
C  16.73300 2.46100 31.97600
O  17.70300 3.05700 31.50800
O  16.17200 2.75100 33.21900
C  16.92000 3.61800 34.08900
H  19.66300 -4.23400 30.88800
H  19.25500 -3.64800 24.48400
H  14.79800 0.83100 24.98800
H  17.90500 -0.17200 32.84500
H  18.36300 -3.15400 32.72000
H  20.10500 -0.71500 32.84400
H  20.69600 -2.16200 31.97100
H  20.37600 -2.29100 33.64900
H  16.06300 -2.57800 33.21000
H  15.36700 -1.12800 32.79300
H  15.80100 -1.95400 35.20700
H  15.32100 -0.34500 34.86400
H  20.30900 -6.98200 28.68600
H  20.36800 -6.12800 30.16300
H  21.80600 -6.09600 28.99700
H  22.34300 -7.00700 26.71500
H  21.69000 -7.47400 25.17500
H  20.72100 -7.70300 26.77600
H  17.24200 -2.70400 23.09800
H  16.93000 0.22700 23.45800
H  19.63500 -0.86800 23.48200
H  18.71300 -0.27900 22.18200
H  19.34600 -1.97600 22.16700
H  15.43400 -1.67800 21.95000
H  14.82400 -0.19400 22.40700
H  13.29600 -1.09300 23.83800
H  14.52000 -2.26700 24.49100
H  13.59000 -2.64900 23.09300
H  12.64300 2.43000 27.26800
H  13.74700 2.81600 25.94700
H  13.77200 3.69200 27.37900
H  15.03700 1.28300 32.11500
H  17.98400 3.46500 33.91000
H  16.69900 3.44700 35.14200
H  16.76600 4.66900 33.84800
Mg 7.31800 54.50200 41.99600
C  6.90100 51.01200 41.47600
C  10.54100 54.15400 40.78200
C  7.50700 57.69100 42.22600
C  3.82700 54.60500 42.98800
N  8.49400 52.81700 40.95800
C  8.13600 51.50500 41.01700
C  9.28300 50.61500 40.46800
C  10.53600 51.58700 40.54700
C  9.85600 52.96400 40.76700
C  11.50000 51.26000 41.71200
C  9.02500 50.11700 38.96400
C  8.32900 51.08600 38.02500
H  7.33100 50.49000 37.01700
N  8.85100 55.77200 41.61500
C  10.05900 55.47600 41.11200
C  10.83000 56.75100 41.06900
C  9.96600 57.75700 41.49000
C  8.70000 57.11800 41.78200
C  12.23300 56.85200 40.55000
C  10.34600 59.23900 41.75700
O  11.43400 59.72000 41.41700
C  9.46000 60.18900 42.48600
N  5.81600 55.90300 42.44700
C  6.20500 57.20600 42.44200
C  4.97300 58.12100 42.69400
C  3.81600 57.16200 43.15500
C  4.44700 55.82200 42.81900
C  5.25400 59.28900 43.67100
C  2.45200 57.29300 42.35700
C  1.20500 57.05000 43.18600
N  5.64000 53.14800 42.12600
C  4.38100 53.26000 42.72000
C  3.74900 51.94900 42.78400
C  4.74700 51.02600 42.40200
C  5.84200 51.83500 41.94100
C  2.35900 51.61100 43.26800
C  5.12700 49.59900 42.22300
O  4.51800 48.59000 42.40100
C  6.46400 49.57500 41.52700
C  6.00000 49.02100 40.17800
O  5.26200 49.56000 39.35700
O  6.54200 47.78700 40.00200
C  6.02200 46.97500 38.91100
H  11.62900 54.12600 40.68700
H  7.55900 58.77400 42.35100
H  2.82800 54.40900 43.38300
H  9.45600 49.73300 41.08500
H  11.05500 51.65800 39.59100
H  11.19100 50.50700 42.43600
H  11.67900 52.14900 42.31800
H  12.49900 50.91100 41.45200
H  8.58300 49.12400 39.04500
H  10.02100 49.93900 38.55900
H  9.08100 51.51500 37.36300
H  7.64300 51.70700 38.60000
H  12.53900 57.87900 40.34800
H  12.26400 56.40300 39.55700
H  12.76800 56.36300 41.36400
H  8.68700 60.66600 41.88300
H  10.08200 60.97400 42.91700
H  8.94800 59.73900 43.33500
H  4.77000 58.68200 41.78200
H  3.71400 57.24900 44.23700
H  4.55100 59.17500 44.49600
H  4.99400 60.19800 43.12800
H  6.30700 59.24800 43.94800
H  2.51800 56.67900 41.45900
H  2.31700 58.35900 42.17100
H  0.35500 57.52000 42.69100
H  1.26100 57.47900 44.18600
H  0.99600 55.98000 43.17100
H  2.48100 50.58700 43.62000
H  1.70800 51.56700 42.39500
H  1.89800 52.20900 44.05400
H  7.19900 48.88800 41.94600
H  6.62500 46.07600 38.78800
H  6.03000 47.48200 37.94700
H  4.98700 46.65500 39.03000

