158

Mg 8.28100 3.85300 27.72600
C  9.59400 2.41400 30.52400
C  6.01800 5.63900 29.81500
C  6.93100 5.31600 24.99000
C  10.02400 1.60000 25.65500
N  7.77000 3.91100 30.01400
C  8.61600 3.35400 30.91100
C  8.26600 3.95900 32.29300
C  6.99400 4.89400 32.04000
C  6.84600 4.75800 30.52000
C  5.63100 4.43100 32.76700
C  9.52900 4.47300 33.15300
C  9.12600 5.25800 34.37000
H  9.30100 4.73700 35.83300
N  6.72600 5.31300 27.41200
C  5.94000 5.86100 28.41300
C  5.05300 6.79400 27.79700
C  5.38200 6.84400 26.41400
C  6.41900 5.79900 26.22000
C  3.92900 7.51700 28.57700
C  4.84500 7.75300 25.31300
O  5.08200 7.48800 24.15900
C  4.04800 8.94000 25.76800
N  8.40700 3.45500 25.57400
C  7.71000 4.19300 24.68900
C  7.94200 3.64000 23.27600
C  8.99400 2.43800 23.49200
C  9.15800 2.45200 24.99200
C  6.73900 3.21000 22.42600
C  10.28300 2.54900 22.66400
C  10.55600 1.33000 21.80600
N  9.52100 2.27500 27.97500
C  10.23500 1.50000 27.07200
C  10.85600 0.44400 27.78600
C  10.80000 0.82500 29.13500
C  9.89200 1.90300 29.23000
C  11.49200 -0.81600 27.18600
C  11.29000 0.52100 30.49100
O  12.09100 -0.32200 30.90100
C  10.57900 1.59500 31.45700
C  9.97100 0.75400 32.43900
O  9.02000 0.01800 32.17000
O  10.54200 0.97700 33.63700
C  9.82300 0.35800 34.72600
H  5.58700 6.31100 30.56000
H  6.70000 5.94200 24.12500
H  10.53100 0.86000 25.03200
H  7.91500 3.13400 32.91200
H  7.14800 5.91800 32.37900
H  4.88000 4.03900 32.08100
H  5.07200 5.25500 33.21000
H  5.82400 3.68400 33.53700
H  10.20700 4.95600 32.44900
H  9.88400 3.52000 33.54700
H  8.08600 5.58000 34.39200
H  9.61500 6.23100 34.39700
H  3.80100 7.08200 29.56800
H  2.97200 7.49600 28.05500
H  4.19300 8.56500 28.72000
H  4.44200 9.42700 26.66000
H  3.11800 8.39900 25.94100
H  3.99600 9.61700 24.91500
H  8.44300 4.47300 22.78200
H  8.56800 1.44700 23.33600
H  5.90200 3.59100 23.01000
H  6.67000 2.19900 22.02500
H  6.79500 3.89200 21.57700
H  11.15400 2.53900 23.32000
H  10.31800 3.47500 22.09000
H  9.63200 0.91100 21.41000
H  11.19600 0.70500 22.42900
H  11.18300 1.57900 20.95000
H  11.82700 -0.65300 26.16200
H  10.80700 -1.66200 27.22900
H  12.41400 -1.04500 27.72200
H  11.22500 2.31000 31.96700
H  9.06000 -0.34000 34.38300
H  9.35500 1.06900 35.40700
H  10.62300 -0.21100 35.20000
Mg -1.29100 34.40900 26.62300
C  -3.54100 32.78500 28.96600
C  -0.32000 36.53800 29.19400
C  0.61300 36.01200 24.46700
C  -2.61700 32.34900 24.06700
N  -1.89700 34.65200 28.81500
C  -2.69700 33.77700 29.51800
C  -2.72400 34.14400 31.01400
C  -1.76900 35.44800 31.08400
C  -1.33900 35.61100 29.61300
C  -2.46700 36.69000 31.68500
C  -2.36800 32.96200 31.95200
C  -1.62500 33.25300 33.26500
H  -2.20500 32.80700 34.62500
N  0.12900 36.00300 26.80400
C  0.39700 36.71300 27.93500
C  1.25900 37.85000 27.58200
C  1.40300 37.80000 26.19800
C  0.76500 36.54300 25.75500
C  1.58300 38.91500 28.60400
C  2.04200 38.79000 25.34100
O  2.14500 38.60400 24.11200
C  2.64200 40.02700 25.89000
N  -1.01600 34.20000 24.61300
C  -0.12200 34.96000 23.95000
C  -0.13400 34.49600 22.44200
C  -0.96000 33.12900 22.47900
C  -1.58100 33.23800 23.80600
C  -0.77800 35.61400 21.45100
C  -0.14600 31.84900 22.30100
C  -0.85800 30.63300 21.80900
N  -2.82100 32.90100 26.46300
C  -3.28800 32.22500 25.35000
C  -4.29700 31.27500 25.73200
C  -4.45700 31.51600 27.09700
C  -3.54000 32.49200 27.50400
C  -5.10900 30.27800 24.80500
C  -5.23100 31.15300 28.21000
O  -6.22400 30.46900 28.33100
C  -4.65600 31.89200 29.48400
C  -5.67800 32.75600 30.19400
O  -6.32000 33.74700 29.76200
O  -6.00100 32.27000 31.42300
C  -7.21100 32.65300 32.17200
H  -0.08200 37.32200 29.91600
H  1.09100 36.42100 23.57400
H  -2.91400 31.61900 23.31100
H  -3.77000 34.38600 31.20400
H  -0.80900 35.23300 31.55400
H  -3.55000 36.58200 31.75000
H  -2.38500 37.47000 30.92800
H  -2.15900 37.01700 32.67800
H  -1.91700 32.12500 31.41900
H  -3.35100 32.64200 32.29800
H  -1.60300 34.33900 33.35600
H  -0.62400 32.82900 33.19600
H  1.53600 38.55900 29.63300
H  0.92400 39.76900 28.45100
H  2.65600 39.09400 28.52700
H  1.96300 40.58500 26.53500
H  2.90500 40.68200 25.05900
H  3.57200 39.80800 26.41400
H  0.86500 34.33200 22.03800
H  -1.69100 33.11600 21.67000
H  -1.33100 36.46200 21.85500
H  -1.37800 35.20700 20.63700
H  0.11500 36.09400 21.05200
H  0.44500 31.69700 23.20400
H  0.66200 32.07100 21.60400
H  -0.20300 30.36900 20.97800
H  -1.78300 30.87800 21.28800
H  -0.98400 29.88500 22.59100
H  -4.57400 30.09100 23.87400
H  -6.14200 30.58800 24.64600
H  -5.16800 29.36200 25.39200
H  -4.26700 31.15400 30.18500
H  -7.98900 33.05700 31.52400
H  -6.89400 33.33000 32.96600
H  -7.55800 31.72600 32.62800

