158

Mg 45.37600 5.77900 49.09900
C  43.01200 8.26200 48.21400
C  42.97000 3.51200 48.53100
C  47.80600 3.37300 49.12900
C  47.75800 8.21200 49.38000
N  43.25600 5.90400 48.38900
C  42.44400 6.99500 48.21300
C  40.96100 6.58300 47.94800
C  41.06600 5.04800 48.12400
C  42.52200 4.78900 48.41600
C  40.07200 4.42000 49.22400
C  40.49600 7.01900 46.49300
C  39.07500 7.68800 46.30800
H  38.52400 7.54500 44.87900
N  45.28500 3.61300 48.98200
C  44.22900 2.90000 48.62800
C  44.63200 1.50200 48.62400
C  46.08000 1.41700 48.91900
C  46.48500 2.83900 49.01700
C  43.66600 0.37100 48.37800
C  46.83700 0.12900 49.18700
O  46.27300 -0.95500 49.02800
C  48.29900 0.16000 49.88700
N  47.47600 5.78600 49.39200
C  48.30400 4.67400 49.37000
C  49.79700 5.05300 49.21900
C  49.78300 6.52100 49.56500
C  48.27600 6.90700 49.51900
C  50.79600 4.15200 50.05800
C  50.69100 7.40900 48.67100
C  52.23000 7.28500 48.99700
N  45.42100 7.83700 48.93300
C  46.51200 8.65500 48.97200
C  46.11700 10.08000 48.66400
C  44.65000 9.92700 48.50300
C  44.33800 8.58400 48.54900
C  47.04200 11.28400 48.62900
C  43.45100 10.66500 48.19900
O  43.26700 11.85500 47.87200
C  42.28000 9.52700 48.04900
C  41.27600 9.73800 49.14000
O  41.17000 9.19000 50.17000
O  40.41000 10.62600 48.60600
C  39.10600 10.70000 49.36800
H  42.14500 2.81800 48.35400
H  48.62500 2.66000 49.24400
H  48.55100 8.95600 49.47400
H  40.28700 7.08700 48.64100
H  40.84400 4.60900 47.15100
H  39.34000 5.15400 49.56000
H  40.58600 4.08000 50.12300
H  39.51000 3.61200 48.75500
H  40.46600 6.11700 45.88200
H  41.22100 7.72400 46.08500
H  39.08900 8.74700 46.56600
H  38.50600 7.16100 47.07400
H  42.78900 0.79700 47.89000
H  43.31200 -0.11100 49.28900
H  43.96800 -0.33500 47.60400
H  49.02400 0.56400 49.18100
H  48.58700 -0.86400 50.12500
H  48.26900 0.82900 50.74700
H  49.99000 4.95300 48.15100
H  50.17000 6.62400 50.57800
H  51.58600 4.75600 50.50500
H  51.18200 3.38100 49.39200
H  50.12600 3.66800 50.76800
H  50.57300 8.49200 48.69800
H  50.46800 7.11200 47.64600
H  52.62300 6.64200 48.21000
H  52.54100 6.80500 49.92500
H  52.67400 8.27800 48.92900
H  48.10000 11.02700 48.57700
H  46.92400 12.00600 49.43600
H  46.66800 11.86200 47.78400
H  41.79400 9.53100 47.07400
H  39.34600 11.45800 50.11400
H  38.74200 9.77800 49.82100
H  38.36300 10.96600 48.61600
Mg 35.43200 3.30500 29.87900
C  32.95100 3.92200 32.30000
C  37.82300 3.51100 32.51300
C  37.87200 2.53100 27.65500
C  33.08100 3.54500 27.41600
N  35.36100 3.75700 32.14800
C  34.24400 3.92100 32.89100
C  34.54200 3.98300 34.43000
C  36.11200 4.09800 34.42800
C  36.49900 3.77400 32.93000
C  36.66400 5.35800 35.02800
C  34.09500 2.66200 35.16900
C  33.63300 2.70900 36.62300
H  34.31800 3.75800 37.53800
N  37.51100 3.01800 30.04100
C  38.32800 3.19800 31.20100
C  39.67000 2.78200 30.88800
C  39.66500 2.33900 29.48800
C  38.31400 2.67300 28.97700
C  40.76300 2.60400 31.94800
C  40.69600 1.51900 28.71700
O  40.53900 1.19100 27.53400
C  41.89300 0.94700 29.38100
N  35.47000 3.09600 27.79600
C  36.56700 2.70700 27.15800
C  36.18000 2.65800 25.66000
C  34.63100 2.85600 25.51500
C  34.36200 3.21900 26.99700
C  36.98300 3.49500 24.60100
C  33.85300 1.69300 24.97200
C  33.31400 1.74000 23.58600
N  33.45000 3.84500 29.78100
C  32.58600 3.78600 28.69100
C  31.19400 4.02000 29.16900
C  31.30100 4.08100 30.56700
C  32.66700 3.84600 30.90400
C  29.92800 4.22800 28.41400
C  30.56900 4.28300 31.83700
O  29.41100 4.51400 32.05200
C  31.64900 4.23700 32.97100
C  31.76500 5.57700 33.57400
O  32.01400 6.65400 33.01700
O  31.19400 5.52200 34.84400
C  31.12000 6.70800 35.71100
H  38.56600 3.45200 33.31000
H  38.49900 2.13500 26.85400
H  32.33900 3.51800 26.61500
H  33.97900 4.84000 34.79900
H  36.50200 3.23400 34.96700
H  37.46600 5.12700 35.72900
H  35.87100 5.98100 35.44200
H  37.21100 5.82200 34.20700
H  34.82800 1.85600 35.14000
H  33.24200 2.32300 34.58100
H  33.83700 1.69200 36.95700
H  32.54300 2.72700 36.64500
H  41.71000 2.81000 31.45100
H  40.72400 1.60400 32.38000
H  40.61000 3.39800 32.67900
H  42.69100 1.63400 29.66400
H  42.27800 0.19200 28.69500
H  41.50100 0.34700 30.20200
H  36.47400 1.67400 25.29600
H  34.43000 3.71200 24.87000
H  36.42600 3.92800 23.77000
H  37.75500 2.86800 24.15600
H  37.50000 4.26900 25.16700
H  33.04000 1.43800 25.65200
H  34.49600 0.81800 25.06300
H  33.92600 2.49000 23.08400
H  32.27000 2.05400 23.56600
H  33.53100 0.89100 22.93700
H  29.27000 3.42000 28.73400
H  30.07300 4.39000 27.34600
H  29.43500 5.12700 28.78300
H  31.39400 3.52500 33.75600
H  30.28900 7.35500 35.42800
H  32.07400 7.23400 35.67500
H  31.00500 6.33900 36.73000

