158

Mg 49.87600 45.99100 41.85700
C  46.66800 47.22200 41.12300
C  49.11800 43.05600 40.45700
C  53.05000 45.15900 42.44500
C  50.64800 49.35600 42.75300
N  48.08500 45.26200 40.91200
C  46.88800 45.85800 40.71000
C  45.91700 45.09400 39.82400
C  46.61700 43.69700 39.83500
C  48.03500 43.98500 40.46100
C  45.98100 42.51000 40.61900
C  45.78200 45.58100 38.30800
C  44.46200 45.25800 37.66700
H  44.53700 44.76800 36.21600
N  50.93700 44.24300 41.57900
C  50.42100 43.13400 40.98200
C  51.50100 42.12600 40.86900
C  52.68000 42.75900 41.44200
C  52.25800 44.08400 41.91600
C  51.43200 40.74900 40.22300
C  54.06700 42.15500 41.42900
O  54.29900 41.07400 40.90600
C  55.29800 42.82700 42.01000
N  51.59700 47.05900 42.45300
C  52.76300 46.47500 42.63400
C  53.91100 47.58000 42.70800
C  53.13100 48.90100 42.78800
C  51.70500 48.41400 42.64100
C  54.90100 47.39100 43.95800
C  53.51200 50.11500 41.90700
C  54.53600 51.11400 42.53700
N  48.84800 47.83300 42.15100
C  49.32000 49.05400 42.46900
C  48.28200 49.99100 42.51600
C  47.16600 49.32400 42.01600
C  47.59300 47.96100 41.77400
C  48.43200 51.46900 42.84100
C  45.73600 49.50500 41.62600
O  45.04300 50.51800 41.68600
C  45.41300 48.06900 40.92300
C  44.13700 47.52200 41.54200
O  43.88700 47.35800 42.70500
O  43.31600 47.17600 40.51000
C  41.98800 46.60700 40.73200
H  48.96900 42.14400 39.87600
H  54.09800 44.85500 42.40900
H  50.97100 50.39400 42.85800
H  44.98900 44.88200 40.35500
H  46.74100 43.28800 38.83200
H  45.87600 41.67800 39.92300
H  45.07700 42.92600 41.06300
H  46.54000 42.10200 41.46100
H  46.70500 45.33600 37.78100
H  45.79900 46.67000 38.33900
H  43.73100 46.06600 37.68400
H  44.07800 44.43300 38.26600
H  50.38800 40.52300 40.00500
H  51.61100 39.95500 40.94800
H  52.19700 40.61000 39.46000
H  55.17200 43.17800 43.03500
H  55.77300 43.61700 41.42900
H  56.02800 42.02300 42.10000
H  54.49400 47.67700 41.79200
H  53.18200 49.24500 43.82100
H  54.96600 48.21700 44.66600
H  55.84900 47.11100 43.49800
H  54.36700 46.59100 44.47100
H  52.60400 50.64300 41.61600
H  53.92000 49.61000 41.03200
H  55.40300 50.95500 41.89600
H  54.79300 50.91800 43.57800
H  54.30300 52.17700 42.47800
H  48.91200 51.96300 41.99600
H  48.98400 51.57400 43.77500
H  47.48400 52.00800 42.84200
H  45.19600 48.24200 39.86900
H  41.93300 45.62300 40.26500
H  41.35200 47.35900 40.26600
H  41.75400 46.42200 41.78000
Mg 42.46900 41.70100 27.17600
C  41.51900 44.18400 29.49000
C  43.56200 39.73800 29.66500
C  43.66500 39.60600 24.89000
C  41.91600 44.17400 24.63300
N  42.52400 41.93400 29.32000
C  42.00600 42.96500 30.04800
C  41.90800 42.55000 31.50700
C  42.95900 41.37400 31.54100
C  42.99600 40.93700 30.07300
C  44.33200 41.70100 32.07300
C  40.50900 42.10800 32.00200
C  40.00600 42.92200 33.22200
H  39.51900 42.09100 34.43900
N  43.22900 39.83200 27.27200
C  43.64200 39.13400 28.36900
C  43.97500 37.73600 28.05900
C  43.86500 37.72100 26.61300
C  43.59600 39.10200 26.15800
C  44.59200 36.74300 29.01000
C  44.13000 36.56700 25.63300
O  43.86300 36.68000 24.47200
C  44.67700 35.18600 26.08900
N  42.86700 41.90800 25.04100
C  43.30900 40.85700 24.35900
C  43.50200 41.30300 22.87200
C  42.79600 42.67600 22.80000
C  42.48200 42.92900 24.23800
C  45.00000 41.31900 22.33100
C  41.59200 42.79300 21.81300
C  40.30500 42.11200 22.18600
N  41.80100 43.75100 26.97500
C  41.60100 44.55600 25.92900
C  41.05700 45.86000 26.39400
C  40.99100 45.69200 27.81100
C  41.51200 44.49200 28.14100
C  40.60500 47.02400 25.53800
C  40.56300 46.31900 29.08100
O  40.03100 47.38700 29.33300
C  40.86200 45.29300 30.23600
C  41.93700 46.00900 31.13500
O  43.10100 46.28200 30.86500
O  41.36400 46.12100 32.35400
C  42.13500 46.45800 33.54200
H  43.89600 39.12500 30.50400
H  43.90500 38.95600 24.04600
H  41.68400 44.83600 23.79600
H  42.25200 43.31600 32.20300
H  42.61500 40.47600 32.05400
H  44.48300 42.77700 31.98400
H  45.08800 41.11500 31.55000
H  44.34800 41.35200 33.10500
H  40.46100 41.08800 32.38400
H  39.84100 42.21500 31.14700
H  39.12100 43.44400 32.85800
H  40.79600 43.50200 33.69800
H  44.55000 37.04000 30.05800
H  45.64700 36.52800 28.84000
H  44.21400 35.72600 28.90200
H  44.89200 34.62900 25.17700
H  43.75400 34.67300 26.35800
H  45.46700 35.22800 26.83900
H  42.95900 40.58000 22.26300
H  43.56100 43.36400 22.44000
H  45.47100 42.28700 22.50800
H  44.88200 40.99400 21.29800
H  45.35500 40.45600 22.89500
H  41.98400 42.39300 20.87800
H  41.37200 43.85600 21.71300
H  39.47000 42.80900 22.24600
H  40.37400 41.54400 23.11400
H  40.01500 41.43100 21.38600
H  40.69400 47.96500 26.08100
H  39.54800 46.95500 25.28200
H  41.14100 47.18000 24.60200
H  40.03000 44.97200 30.86200
H  41.61700 47.39700 33.73700
H  43.22300 46.41900 33.48000
H  41.83500 45.85600 34.40000

