158

Mg 24.68200 -5.70000 46.31300
C  26.76700 -3.60000 44.28900
C  22.11800 -4.97400 44.22400
C  23.12500 -8.31700 47.63900
C  27.70000 -6.62100 48.01600
N  24.50300 -4.56300 44.42000
C  25.43200 -3.65100 43.96600
C  24.81000 -2.70800 42.93100
C  23.28100 -2.91600 43.17100
C  23.25100 -4.24400 43.94000
C  22.66700 -1.86000 44.10500
C  25.45400 -3.03600 41.48300
C  25.85600 -1.77300 40.60500
H  25.40500 -1.90500 39.16400
N  22.83500 -6.41600 46.02900
C  21.87900 -6.01700 45.13200
C  20.74000 -6.88100 45.14000
C  20.89900 -7.80900 46.16400
C  22.35000 -7.53700 46.69600
C  19.49100 -6.67400 44.14700
C  19.94800 -8.89300 46.57300
O  18.86700 -9.03600 45.98200
C  20.15600 -9.77900 47.76800
N  25.32900 -7.25900 47.62700
C  24.42400 -8.16200 48.14500
C  25.11700 -9.24300 48.99500
C  26.50900 -8.61700 49.21000
C  26.51500 -7.46400 48.21400
C  24.32700 -9.53200 50.30100
C  27.64700 -9.63400 48.79800
C  27.83100 -10.70900 49.81900
N  26.91500 -5.23700 46.27400
C  27.92600 -5.57800 47.06200
C  29.19600 -4.97700 46.55000
C  28.75600 -4.11600 45.53800
C  27.40900 -4.34000 45.38100
C  30.64100 -5.12800 47.12900
C  29.22600 -3.17100 44.50800
O  30.32800 -2.77400 44.12500
C  27.86900 -2.66700 43.80000
C  27.58900 -1.22800 44.25200
O  26.72300 -0.98100 45.07700
O  28.42800 -0.39500 43.60800
C  28.22900 0.99700 43.97700
H  21.31900 -4.77100 43.50800
H  22.72300 -9.27400 47.97700
H  28.43300 -6.92800 48.76500
H  25.05100 -1.67800 43.19200
H  22.66700 -3.05200 42.28100
H  22.71400 -0.90400 43.58400
H  23.12700 -1.85800 45.09300
H  21.58700 -1.96700 44.21000
H  24.67300 -3.60000 40.97500
H  26.25300 -3.77600 41.43200
H  26.94100 -1.80700 40.69900
H  25.50300 -0.84900 41.06500
H  18.65200 -7.35300 44.29400
H  19.86400 -6.81500 43.13300
H  19.25500 -5.61400 44.23400
H  21.04400 -10.34900 47.49700
H  19.32500 -10.42900 48.04200
H  20.41700 -9.19500 48.65100
H  25.05900 -10.11000 48.33700
H  26.55700 -8.21000 50.22000
H  24.86300 -9.27400 51.21500
H  24.28100 -10.61300 50.42900
H  23.30600 -9.15900 50.21600
H  28.61900 -9.14100 48.78000
H  27.50500 -10.14300 47.84500
H  27.30100 -11.62700 49.56600
H  27.55100 -10.43000 50.83500
H  28.88200 -10.99600 49.80900
H  31.12900 -4.16100 47.00500
H  31.16100 -5.80400 46.45000
H  30.72800 -5.50600 48.14800
H  27.99600 -2.70500 42.71800
H  29.11200 1.62900 43.88900
H  27.96500 1.01900 45.03400
H  27.45000 1.37700 43.31500
Mg 36.16000 48.46800 24.52500
C  36.30400 46.68400 27.53000
C  34.80100 51.08900 26.33600
C  35.57800 50.02600 21.71300
C  37.32400 45.68400 22.83600
N  35.65500 48.83800 26.74300
C  35.90100 47.99100 27.71800
C  35.65800 48.69500 29.08400
C  34.98300 50.06800 28.72000
C  35.07800 50.00700 27.17400
C  33.47600 50.29000 29.20100
C  36.96000 48.84700 29.93000
C  36.91800 48.37900 31.35500
H  35.58300 48.51800 32.08700
N  35.24100 50.23600 24.07000
C  34.78700 51.22300 24.91600
C  34.27700 52.34700 24.14900
C  34.46900 52.07000 22.77800
C  35.10700 50.70200 22.82800
C  33.81400 53.57700 24.80300
C  34.32100 53.05800 21.50600
O  34.71800 52.81200 20.37300
C  33.84000 54.51600 21.72700
N  36.35100 47.94800 22.56600
C  36.09800 48.76300 21.56400
C  36.37400 48.14300 20.20000
C  37.15800 46.84400 20.59200
C  36.98700 46.80700 22.13100
C  35.08600 47.89500 19.31100
C  38.63500 46.65300 20.09000
C  39.81000 46.98500 21.08600
N  36.87700 46.63900 25.03600
C  37.25900 45.60500 24.21800
C  37.64000 44.47800 25.05000
C  37.28300 44.86800 26.36900
C  36.76700 46.13700 26.28500
C  38.18900 43.16300 24.54600
C  37.15100 44.47200 27.75000
O  37.42900 43.39500 28.32900
C  36.54700 45.69700 28.55100
C  35.40300 45.18500 29.32300
O  34.20800 45.08700 29.02500
O  35.87600 44.97500 30.54700
C  34.98000 44.46600 31.57300
H  34.45900 51.97800 26.87000
H  35.50600 50.50000 20.73200
H  37.69400 44.75900 22.39000
H  34.98100 48.11700 29.71200
H  35.64400 50.88800 29.00100
H  33.22700 49.43700 29.83300
H  32.77900 50.29700 28.36300
H  33.32200 51.12700 29.88300
H  37.24800 49.89900 29.91800
H  37.76900 48.36000 29.38500
H  37.65000 48.89400 31.97800
H  37.17000 47.32000 31.41100
H  34.67300 54.24200 24.71100
H  33.45100 53.41100 25.81700
H  32.92500 53.90600 24.26600
H  32.84000 54.50000 22.16100
H  33.82500 54.84500 20.68800
H  34.53700 55.08400 22.34300
H  37.15100 48.79500 19.80000
H  36.56500 45.99900 20.24300
H  34.25700 48.50000 19.67800
H  34.64600 46.90400 19.42700
H  35.27600 48.11000 18.25900
H  38.78000 47.32700 19.24600
H  38.75000 45.68700 19.60000
H  40.28400 47.87900 20.68300
H  40.54900 46.18700 21.16200
H  39.55700 47.20100 22.12400
H  38.91800 43.30500 23.74800
H  37.33600 42.62100 24.13900
H  38.62500 42.65100 25.40400
H  37.28900 45.97600 29.29900
H  34.23800 45.24300 31.75900
H  35.45200 44.25100 32.53200
H  34.30300 43.69300 31.20900

