158

Mg 0.42300 7.92800 24.83900
C  1.16400 9.53600 27.93200
C  0.35000 5.02800 26.55700
C  0.36600 6.42800 21.90600
C  1.11300 10.96500 23.29600
N  0.75100 7.36000 27.00100
C  0.94100 8.15000 28.12300
C  0.87700 7.38100 29.40700
C  0.59200 5.97100 28.90900
C  0.54100 6.12600 27.38500
C  1.65100 4.83400 29.33100
C  -0.17700 7.82500 30.48300
C  0.21600 7.63200 31.99000
H  1.46400 6.87900 32.44000
N  0.31400 6.03900 24.29900
C  0.29000 4.94500 25.19300
C  0.16900 3.70800 24.47100
C  0.07800 4.09700 23.10400
C  0.30400 5.55500 23.05600
C  0.08200 2.33700 25.09400
C  -0.10800 3.25600 21.86600
O  -0.06100 3.71400 20.67200
C  -0.43200 1.82700 22.05000
N  0.82500 8.63300 22.84300
C  0.60300 7.85200 21.77200
C  0.52200 8.67800 20.46000
C  0.93400 10.07900 20.91900
C  0.92300 9.93600 22.47000
C  1.49100 8.17200 19.24900
C  -0.00300 11.22200 20.31700
C  -1.25800 11.62200 21.07600
N  0.87400 9.92000 25.41000
C  1.21500 11.01300 24.69400
C  1.39800 12.11600 25.62800
C  1.35200 11.54200 26.85700
C  1.12900 10.22700 26.70600
C  1.55000 13.51800 25.13300
C  1.54400 11.92200 28.28200
O  1.93800 13.05400 28.75600
C  1.34700 10.59000 28.96400
C  2.39300 10.44800 30.04100
O  3.38900 9.66200 29.90100
O  2.09100 11.24800 31.09100
C  3.11200 11.13900 32.09500
H  0.29900 4.11500 27.15400
H  0.41000 5.85800 20.97600
H  1.28500 11.88600 22.73400
H  1.89500 7.38200 29.79700
H  -0.40300 5.65800 29.22500
H  1.76200 4.79700 30.41400
H  2.59800 5.14600 28.89100
H  1.44900 3.85400 28.89800
H  -1.09900 7.32300 30.19000
H  -0.22800 8.91000 30.38700
H  -0.70400 7.31200 32.48100
H  0.27800 8.65800 32.35100
H  -0.96100 2.13000 25.32900
H  0.78900 2.23900 25.91800
H  0.40700 1.54400 24.42000
H  0.38700 1.15300 22.30000
H  -0.84400 1.39200 21.14000
H  -1.14200 1.70800 22.86900
H  -0.49900 8.79200 20.09500
H  1.98600 10.20100 20.65900
H  0.88400 7.84600 18.40400
H  2.05600 7.30400 19.58800
H  2.18400 8.91300 18.85000
H  -0.27500 11.02300 19.28000
H  0.56900 12.14400 20.21000
H  -2.14400 11.59200 20.44200
H  -1.19700 12.64200 21.45300
H  -1.33200 10.79800 21.78600
H  0.58300 13.67400 24.65600
H  2.44000 13.57000 24.50600
H  1.74500 14.13300 26.01200
H  0.40700 10.78100 29.48300
H  2.96600 10.18200 32.59600
H  2.99500 11.91300 32.85300
H  4.15800 11.14000 31.78800
Mg 8.97400 4.02600 27.07000
C  10.41900 2.58600 30.02100
C  6.85000 5.76100 29.27800
C  7.35100 5.16300 24.47000
C  10.62100 1.52300 25.17100
N  8.80300 4.23800 29.37300
C  9.52800 3.62100 30.33000
C  9.19400 4.12600 31.73200
C  7.98600 4.99500 31.51900
C  7.83100 4.96500 29.94500
C  6.67700 4.54600 32.29400
C  10.34800 4.89600 32.50000
C  10.54200 4.28300 33.93400
H  11.25000 5.09800 35.06100
N  7.45300 5.41800 26.89900
C  6.70700 5.98400 27.87800
C  5.70100 6.76400 27.28400
C  5.88000 6.71500 25.88200
C  6.94700 5.74600 25.67500
C  4.77600 7.55700 28.07000
C  5.07300 7.34000 24.79600
O  5.43000 7.22500 23.59700
C  3.80100 8.07000 25.11000
N  8.89300 3.28700 25.09200
C  8.31100 4.16000 24.15700
C  8.61000 3.64400 22.72200
C  9.70500 2.56600 22.94700
C  9.76600 2.39000 24.43800
C  7.33700 3.03000 22.11800
C  11.09700 2.81900 22.26500
C  11.51400 1.75600 21.20400
N  10.17000 2.39200 27.43400
C  10.82800 1.48700 26.55100
C  11.59600 0.59000 27.34200
C  11.45500 1.00000 28.62800
C  10.62300 2.09700 28.71300
C  12.37800 -0.49600 26.70900
C  11.95400 0.69800 29.89200
O  12.76800 -0.16300 30.27800
C  11.21300 1.68100 30.84100
C  10.41100 0.90700 31.79200
O  9.27000 0.50300 31.64800
O  11.14800 0.77900 32.89000
C  10.47400 0.40900 34.14100
H  6.13900 6.12600 30.02200
H  6.95000 5.53800 23.52700
H  11.25200 0.85000 24.58600
H  8.89700 3.19600 32.21600
H  8.15000 6.04400 31.76900
H  6.20900 5.44200 32.70200
H  6.83000 3.87100 33.13600
H  6.01300 4.15900 31.52100
H  10.09200 5.93600 32.70300
H  11.26000 4.70100 31.93600
H  11.22400 3.43900 33.83000
H  9.58100 3.84300 34.19900
H  5.22800 8.50900 28.35000
H  4.55300 6.98700 28.97200
H  3.79700 7.70000 27.61200
H  3.96300 9.10400 25.41700
H  3.10800 7.50400 25.73200
H  3.30500 8.24700 24.15600
H  8.97400 4.40000 22.02500
H  9.42200 1.59100 22.54900
H  6.64700 2.85400 22.94300
H  7.44300 2.02000 21.72200
H  6.81800 3.57800 21.33100
H  11.82400 2.71400 23.07000
H  11.20900 3.75200 21.71200
H  10.67400 1.11100 20.94800
H  12.28900 1.09700 21.59700
H  11.98100 2.16800 20.30900
H  11.95300 -0.84700 25.76800
H  12.26800 -1.39600 27.31400
H  13.43400 -0.22800 26.68900
H  11.97600 2.14400 31.46800
H  9.84300 -0.48000 34.17200
H  9.92700 1.30700 34.42900
H  11.24600 0.22800 34.88900

