158

Mg 47.51200 15.75700 28.43500
C  45.34500 15.47100 31.46200
C  49.72100 17.09400 30.50000
C  49.00500 16.66900 25.71500
C  44.76600 14.40900 26.67700
N  47.48300 16.19300 30.74200
C  46.57100 16.05600 31.72400
C  47.07000 16.53000 33.07600
C  48.51100 17.12100 32.72600
C  48.58100 16.70200 31.19900
C  48.68900 18.66400 33.02400
C  47.14400 15.45300 34.13800
C  46.87500 15.82300 35.56300
H  47.07300 17.27300 36.00600
N  49.19200 16.61400 28.14700
C  50.00300 17.08800 29.13800
C  51.16600 17.61600 28.52000
C  51.01700 17.50200 27.13500
C  49.68000 16.92900 26.94500
C  52.32500 18.18600 29.35800
C  51.91000 17.96900 26.05700
O  51.70700 17.85100 24.81800
C  53.23200 18.73700 26.38400
N  46.91200 15.68600 26.47700
C  47.75500 16.04200 25.51200
C  47.20500 15.70600 24.12300
C  45.95900 14.81000 24.37200
C  45.82200 14.95500 25.92600
C  46.79800 16.97500 23.45700
C  46.11000 13.30700 23.87700
C  47.06400 12.36500 24.62400
N  45.59200 15.04300 28.94100
C  44.61100 14.54800 28.05700
C  43.49200 14.11200 28.75300
C  43.68200 14.58800 30.07200
C  44.98100 15.11500 30.14200
C  42.28800 13.47200 28.22400
C  43.03500 14.64200 31.38800
O  41.90900 14.30700 31.67000
C  44.12600 15.18700 32.39100
C  43.69500 16.42000 33.04300
O  43.39400 17.48800 32.45200
O  43.75300 16.33400 34.42300
C  43.30500 17.63500 35.01700
H  50.40800 17.59700 31.18400
H  49.59100 16.94000 24.83400
H  43.97300 13.89800 26.12700
H  46.34900 17.29500 33.36200
H  49.26300 16.58000 33.29900
H  47.84300 18.93100 33.65700
H  48.72500 19.27100 32.11900
H  49.50800 19.05900 33.62600
H  48.11400 14.95900 34.19600
H  46.51400 14.60400 33.87000
H  47.55100 15.12400 36.05500
H  45.86200 15.45900 35.73800
H  53.29900 17.73900 29.15500
H  52.12600 18.24700 30.42800
H  52.42900 19.24000 29.10300
H  53.90100 18.02100 26.86000
H  52.96900 19.55800 27.05100
H  53.72500 19.03600 25.45900
H  48.03700 15.24100 23.59500
H  45.07000 15.28800 23.95900
H  46.65800 16.83300 22.38500
H  47.61300 17.68200 23.61500
H  45.91100 17.46200 23.86200
H  46.13300 13.20700 22.79200
H  45.10200 12.95100 24.09100
H  47.69400 11.93700 23.84400
H  46.53600 11.54400 25.11000
H  47.65900 12.98900 25.29100
H  42.18200 13.39500 27.14200
H  41.44200 14.06800 28.56600
H  42.14900 12.52300 28.74200
H  44.29800 14.51800 33.23400
H  42.22100 17.56200 34.93000
H  43.79100 18.50700 34.57900
H  43.60200 17.64100 36.06600
Mg 0.01600 43.24800 25.97800
C  1.83000 43.42800 28.92500
C  -2.95000 42.99000 27.95100
C  -1.78600 42.50900 23.19000
C  2.92100 43.31800 24.22300
N  -0.50700 43.10700 28.17300
C  0.47700 43.34200 29.21300
C  -0.21700 43.28500 30.55300
C  -1.70700 43.07400 30.22400
C  -1.76600 43.03600 28.69900
C  -2.29000 41.79500 30.88300
C  -0.03000 44.48000 31.54900
C  0.43100 44.24200 33.06000
H  -0.07000 42.88400 33.62300
N  -2.04800 42.72600 25.62900
C  -3.09400 42.85500 26.48800
C  -4.34100 42.76300 25.77700
C  -4.05400 42.54700 24.38500
C  -2.55500 42.58400 24.33300
C  -5.68700 42.98300 26.52600
C  -4.96500 42.44700 23.22500
O  -4.56200 42.51600 22.08600
C  -6.45000 42.35400 23.47600
N  0.61000 42.81500 24.05000
C  -0.39100 42.64500 23.07500
C  0.32500 42.42500 21.63300
C  1.79200 42.76800 22.02100
C  1.78900 43.01600 23.51000
C  0.11000 41.07600 20.89300
C  2.21200 43.97300 21.27600
C  1.47600 45.25400 21.63200
N  2.01400 43.35000 26.47000
C  3.08900 43.54400 25.60000
C  4.34100 43.84600 26.37800
C  3.86500 43.64600 27.73600
C  2.44500 43.47500 27.70100
C  5.73100 44.01400 25.88400
C  4.36400 43.48500 29.12900
O  5.48800 43.47800 29.61800
C  2.97400 43.43900 29.96400
C  3.05500 42.16100 30.75300
O  2.75000 41.03200 30.37200
O  3.51500 42.49100 31.92600
C  3.61300 41.36000 32.92600
H  -3.84000 42.91300 28.57900
H  -2.36200 42.47600 22.26200
H  3.88500 43.46300 23.73100
H  0.13900 42.35100 30.98700
H  -2.32700 43.92600 30.50300
H  -3.07300 42.12700 31.56500
H  -1.50000 41.13400 31.24200
H  -2.81400 41.30800 30.06100
H  -0.87500 45.16200 31.45900
H  0.75000 44.96300 30.96100
H  -0.01900 45.00600 33.69500
H  1.47600 44.48000 33.25800
H  -5.60000 43.67800 27.36200
H  -6.03200 42.08100 27.03200
H  -6.44400 43.31700 25.81700
H  -7.06800 41.86900 22.72000
H  -6.72000 43.40700 23.55800
H  -6.59700 41.93600 24.47200
H  -0.13600 43.20400 21.02700
H  2.39100 41.89100 21.77600
H  -0.31400 41.29500 19.91300
H  -0.64700 40.37800 21.24900
H  1.05300 40.58100 20.66100
H  2.21400 43.72600 20.21400
H  3.27400 44.06500 21.50600
H  2.10400 45.73900 22.37900
H  0.54500 45.18100 22.19400
H  1.45400 45.83900 20.71300
H  6.01300 45.05400 25.72400
H  5.88400 43.35100 25.03300
H  6.48500 43.69000 26.60200
H  2.80800 44.32200 30.58200
H  3.39000 40.35700 32.56100
H  2.94000 41.55600 33.76000
H  4.62500 41.32500 33.33100

