158

Mg 25.21500 1.56400 29.80600
C  27.31000 1.49600 32.59500
C  22.52200 1.82800 31.86300
C  23.17600 1.35300 27.07900
C  28.08100 0.88100 27.71200
N  25.02300 1.63200 31.93500
C  26.01100 1.77800 32.92000
C  25.41500 2.12400 34.28000
C  23.84400 1.79000 33.98000
C  23.75200 1.77100 32.44500
C  23.28400 0.43500 34.54400
C  25.75700 3.55800 34.75400
C  26.80600 3.66400 35.93500
H  26.54900 4.53000 37.18200
N  23.11100 1.67000 29.49300
C  22.22700 1.90800 30.48700
C  20.90300 1.92100 29.89200
C  21.03300 1.76500 28.52400
C  22.47800 1.58900 28.29200
C  19.68100 2.04300 30.69200
C  19.99200 1.80700 27.48300
O  20.20400 1.65000 26.26900
C  18.53400 2.06400 27.90400
N  25.53500 0.97600 27.73600
C  24.49200 1.11700 26.78900
C  25.00600 0.93900 25.33200
C  26.59200 1.05300 25.59800
C  26.79200 1.05500 27.10400
C  24.51000 -0.37200 24.62600
C  27.21300 2.15600 24.71300
C  27.23300 3.49300 25.41700
N  27.23700 1.11100 30.04200
C  28.24500 0.87800 29.13000
C  29.49000 0.97400 29.80500
C  29.18500 1.09200 31.15500
C  27.79500 1.21200 31.26900
C  30.82600 0.81900 29.19900
C  29.69100 1.24900 32.50200
O  30.85800 1.18100 32.79500
C  28.55700 1.52500 33.45000
C  28.64000 0.48900 34.52400
O  28.43900 -0.71600 34.32800
O  28.97000 1.12200 35.68900
C  28.97700 0.19000 36.76600
H  21.65600 1.98400 32.50900
H  22.57300 1.35400 26.16900
H  28.96300 1.06100 27.09400
H  25.73000 1.45300 35.07900
H  23.17100 2.50700 34.45100
H  22.90400 -0.18100 33.72900
H  22.46500 0.58200 35.24900
H  24.06500 -0.09900 35.08600
H  24.87700 4.19000 34.87400
H  26.26600 3.92900 33.86500
H  27.69500 4.00800 35.40600
H  27.06200 2.65200 36.25000
H  19.13100 2.97100 30.53700
H  19.81000 2.03400 31.77500
H  19.02700 1.18000 30.57100
H  18.04300 1.28300 28.48500
H  17.92000 2.12000 27.00400
H  18.50400 3.04700 28.37300
H  24.70900 1.83600 24.78800
H  27.03600 0.11900 25.25500
H  23.72200 -0.84000 25.21700
H  25.34700 -1.05600 24.49300
H  24.13000 -0.04300 23.65900
H  26.62900 2.38700 23.82300
H  28.12600 1.77300 24.25800
H  27.21000 3.36400 26.50000
H  26.39700 4.11300 25.09400
H  28.18600 3.98500 25.22900
H  30.88200 1.42000 28.29100
H  30.86700 -0.18800 28.78500
H  31.55900 1.03900 29.97500
H  28.70900 2.53400 33.83600
H  27.98300 0.06900 37.19600
H  29.62500 0.66500 37.50200
H  29.42100 -0.79100 36.59700
Mg 35.09100 3.14400 30.00400
C  32.75700 4.16600 32.43600
C  37.51900 3.23200 32.33500
C  37.31200 2.44400 27.57400
C  32.59300 3.38400 27.73300
N  35.07400 3.75500 32.12000
C  34.06500 3.97500 32.89500
C  34.51400 3.97700 34.37300
C  36.12900 3.89600 34.28800
C  36.26000 3.63200 32.82200
C  36.90300 5.19700 34.67100
C  33.84400 2.79700 35.23800
C  33.46300 3.07800 36.64300
H  34.37200 4.16600 37.27400
N  37.16400 2.92900 29.89900
C  37.94000 2.84100 31.02900
C  39.33700 2.41300 30.73800
C  39.27500 2.16200 29.32000
C  37.91100 2.50200 28.84600
C  40.46700 2.39400 31.88100
C  40.34000 1.63000 28.39000
O  40.12300 1.29200 27.21600
C  41.59200 1.25900 28.97000
N  34.96000 2.90400 27.89000
C  36.01800 2.63800 27.09300
C  35.57700 2.47800 25.63100
C  34.00200 2.69500 25.67600
C  33.86800 3.00500 27.16800
C  36.26900 3.59700 24.80100
C  33.14600 1.47000 25.26100
C  31.80300 1.80200 24.54800
N  33.09900 3.77900 29.99400
C  32.20800 3.77400 28.96900
C  30.92000 4.23100 29.45500
C  31.06300 4.32600 30.86600
C  32.42300 4.10800 31.12500
C  29.62400 4.46300 28.58900
C  30.36700 4.69800 32.04900
O  29.17300 4.99400 32.21100
C  31.44400 4.44600 33.19700
C  31.46100 5.57800 34.13000
O  31.82700 6.68500 33.81100
O  30.82500 5.30200 35.31600
C  30.49400 6.37300 36.21800
H  38.30300 3.11300 33.08500
H  38.03800 2.12400 26.82300
H  31.79200 3.53700 27.00700
H  34.17600 4.95500 34.71400
H  36.45600 3.01800 34.84600
H  36.34300 5.87700 35.31200
H  37.13700 5.80600 33.79700
H  37.78700 4.98900 35.27400
H  34.66300 2.07800 35.23200
H  32.97400 2.35500 34.75400
H  33.41300 2.18300 37.26300
H  32.43300 3.43100 36.58000
H  40.29500 1.47500 32.44100
H  40.31400 3.24000 32.55100
H  41.48000 2.59700 31.53200
H  41.26100 0.61900 29.78800
H  42.21500 2.05400 29.38100
H  42.13100 0.64500 28.24900
H  35.84600 1.46300 25.33800
H  33.74400 3.45000 24.93400
H  36.91400 3.06800 24.09900
H  36.92400 4.22000 25.40900
H  35.68500 4.29200 24.19900
H  33.10100 0.75400 26.08100
H  33.73400 0.83800 24.59600
H  32.18600 1.74300 23.53000
H  31.42900 2.80000 24.77800
H  31.06600 1.03800 24.79400
H  29.67200 5.29500 27.88700
H  28.68700 4.69800 29.09500
H  29.38900 3.60200 27.96300
H  31.00800 3.58800 33.70900
H  31.01900 6.17500 37.15300
H  29.45900 6.31900 36.55400
H  30.76800 7.31600 35.74600

