158

Mg 50.95500 46.55100 41.35600
C  47.86000 47.71300 40.31600
C  50.15800 43.45700 40.25800
C  54.13800 45.70800 41.71600
C  51.85700 49.95400 41.81300
N  49.21300 45.65300 40.35300
C  48.03800 46.32700 40.06100
C  47.06600 45.31800 39.38800
C  47.71300 43.93900 39.50700
C  49.11900 44.34600 40.00600
C  47.02400 42.97400 40.49700
C  46.80000 45.71100 37.94000
C  45.39800 45.46900 37.32300
H  45.49000 44.43000 36.27000
N  51.99400 44.85500 41.01800
C  51.49000 43.63300 40.65100
C  52.44800 42.57600 40.82200
C  53.62500 43.24900 41.28900
C  53.26300 44.66600 41.35500
C  52.33100 41.11300 40.40300
C  54.93300 42.51600 41.56000
O  55.01900 41.27600 41.39400
C  56.24600 43.20300 41.87400
N  52.73100 47.67900 41.58600
C  53.87600 47.07600 41.73900
C  55.03800 48.01300 42.00100
C  54.32000 49.38300 42.02200
C  52.87300 49.03200 41.86700
C  55.82500 47.77300 43.29700
C  54.71700 50.69900 41.25700
C  55.05700 51.97600 42.05200
N  50.05900 48.51200 41.25400
C  50.51000 49.78900 41.52300
C  49.49600 50.76600 41.36800
C  48.46300 50.01100 40.82000
C  48.85700 48.67200 40.81500
C  49.57200 52.26600 41.65100
C  47.15000 50.09000 40.27700
O  46.51800 51.08300 40.05300
C  46.73200 48.64800 39.83400
C  45.48000 48.26500 40.60300
O  45.42100 48.24800 41.82800
O  44.40100 48.04000 39.73400
C  43.12300 48.10500 40.47700
H  49.93900 42.40300 40.07600
H  55.17800 45.39400 41.83100
H  52.10900 51.00300 41.98400
H  46.12100 45.40300 39.92300
H  47.82900 43.49000 38.52100
H  47.00200 41.95400 40.11500
H  45.97200 43.18000 40.69800
H  47.52400 42.93000 41.46500
H  47.51300 45.18600 37.30400
H  47.06000 46.75200 37.74900
H  45.12400 46.41800 36.86100
H  44.56100 45.28900 37.99700
H  53.10200 40.81300 39.69400
H  51.38400 40.93900 39.89200
H  52.29100 40.52700 41.32100
H  56.15400 43.76700 42.80100
H  56.56400 43.95800 41.15500
H  57.10400 42.53300 41.92900
H  55.74500 48.00400 41.17200
H  54.19200 49.55500 43.09000
H  55.53600 46.79300 43.67800
H  55.54900 48.51700 44.04400
H  56.89300 47.62900 43.13100
H  54.06300 51.00200 40.43900
H  55.66200 50.39700 40.80600
H  54.63200 51.83600 43.04600
H  54.44700 52.78400 41.64900
H  56.12400 52.16400 41.93200
H  50.58400 52.47200 42.00100
H  48.81100 52.55400 42.37600
H  49.45900 52.75900 40.68600
H  46.56000 48.56500 38.76100
H  42.79900 47.09800 40.74100
H  42.48900 48.81000 39.93800
H  43.12700 48.50000 41.49300
Mg 28.38800 56.41400 40.56100
C  26.07900 53.62200 39.95200
C  30.89200 54.56900 39.45100
C  30.16000 59.21300 40.50900
C  25.42600 58.37300 40.69900
N  28.41200 54.36200 39.86500
C  27.44700 53.39800 39.72300
C  28.08400 52.16900 39.10300
C  29.62600 52.36800 39.41700
C  29.63500 53.86100 39.57800
C  30.21000 51.67000 40.69600
C  27.66300 51.82000 37.68300
C  27.20300 52.97100 36.78200
H  27.34400 52.74900 35.22600
N  30.25800 56.81000 40.08000
C  31.15600 55.88900 39.62800
C  32.49200 56.56500 39.43600
C  32.34300 57.92200 39.76200
C  30.90200 58.01400 40.18600
C  33.76100 55.83000 39.13100
C  33.41100 58.95700 39.72700
O  34.43200 58.65100 39.11700
C  33.24900 60.35000 40.33900
N  27.83800 58.47800 40.45300
C  28.80700 59.38500 40.68600
C  28.26000 60.76100 40.81900
C  26.69900 60.58300 40.88600
C  26.66100 59.04200 40.61100
C  28.93800 61.49500 42.03100
C  25.88000 61.47300 39.86200
C  25.38900 62.77000 40.41000
N  26.20000 56.14000 40.57700
C  25.16100 56.99800 40.62900
C  23.86400 56.25400 40.65000
C  24.20500 54.96800 40.48900
C  25.58400 54.96300 40.34400
C  22.56300 56.94800 40.86400
C  23.63500 53.68200 40.30900
O  22.50100 53.23300 40.43700
C  24.80700 52.71900 39.86700
C  24.82400 51.51700 40.78200
O  24.50200 50.36900 40.51400
O  25.31700 51.93800 42.01200
C  25.81700 50.79900 42.72600
H  31.72700 53.91500 39.19100
H  30.68400 60.16000 40.64900
H  24.57100 59.04100 40.81800
H  27.83100 51.31700 39.73400
H  30.35500 52.11000 38.64800
H  29.84200 50.64400 40.67900
H  29.79800 52.16500 41.57600
H  31.29800 51.64300 40.74600
H  26.80400 51.15100 37.74100
H  28.41100 51.28400 37.09900
H  27.78900 53.85800 37.02100
H  26.13100 53.07900 36.95200
H  33.86600 55.94800 38.05200
H  33.68600 54.75000 39.25500
H  34.67600 56.14800 39.63000
H  32.70500 60.31500 41.28300
H  32.65900 60.84100 39.56600
H  34.20100 60.85300 40.50900
H  28.47700 61.28600 39.88900
H  26.22800 60.74600 41.85500
H  28.22700 62.00500 42.68200
H  29.64800 62.16700 41.55000
H  29.59100 60.78000 42.53100
H  25.05300 60.93800 39.39400
H  26.58600 61.81500 39.10600
H  25.75900 62.91500 41.42500
H  24.30500 62.85100 40.49400
H  25.81100 63.56200 39.79100
H  22.40000 57.62400 40.02500
H  22.57000 57.51100 41.79800
H  21.87200 56.10700 40.80100
H  24.63800 52.35800 38.85300
H  26.52700 51.11100 43.49200
H  26.42500 50.08800 42.16700
H  25.05000 50.26000 43.28300

