158

Mg 16.76800 -1.37000 27.97900
C  15.80800 0.78600 30.64400
C  18.84800 -3.00600 29.97100
C  18.10100 -2.91000 25.20100
C  14.88300 0.82400 25.72100
N  17.24100 -1.04000 30.00300
C  16.75600 -0.19800 30.94900
C  17.38500 -0.54900 32.32600
C  18.43000 -1.61300 32.02000
C  18.15700 -1.90700 30.56400
C  19.93700 -1.20000 32.21100
C  16.21900 -1.04600 33.22400
C  16.05700 -0.33200 34.60900
H  17.21900 0.45000 35.29000
N  18.18300 -2.92700 27.68600
C  18.94700 -3.44600 28.64600
C  19.80700 -4.44900 28.10600
C  19.45300 -4.52700 26.72700
C  18.58400 -3.37600 26.47300
C  20.79700 -5.17700 28.82700
C  20.09400 -5.45700 25.68300
O  19.75100 -5.42000 24.50600
C  20.89300 -6.62500 26.13300
N  16.53000 -1.13900 25.76100
C  17.21800 -1.89400 24.86800
C  17.02100 -1.36700 23.45600
C  15.70500 -0.57600 23.61200
C  15.67200 -0.22100 25.13300
C  18.28800 -0.53700 22.92500
C  14.43400 -1.40800 23.27500
C  13.81700 -1.06600 21.95900
N  15.60200 0.39900 28.13000
C  14.92700 1.10200 27.11400
C  14.24600 2.25900 27.79600
C  14.47500 2.07300 29.17500
C  15.29400 0.95400 29.29400
C  13.38000 3.35300 27.22300
C  14.21600 2.71600 30.42200
O  13.58400 3.71900 30.70100
C  15.06500 1.86400 31.45000
C  15.97900 2.83500 32.03700
O  17.08600 3.10700 31.58000
O  15.43800 3.35500 33.14800
C  16.30800 4.39400 33.75400
H  19.46000 -3.46300 30.75100
H  18.52500 -3.38900 24.31600
H  14.34100 1.48000 25.03800
H  17.80900 0.37100 32.72800
H  18.24000 -2.58000 32.48500
H  20.38700 -0.86500 31.27600
H  20.47200 -2.03600 32.66100
H  20.07800 -0.33400 32.85900
H  16.29600 -2.10900 33.45200
H  15.28400 -1.00300 32.66600
H  15.81500 -1.10600 35.33700
H  15.16600 0.29300 34.55000
H  20.60300 -6.24000 28.68800
H  20.81900 -4.98700 29.90000
H  21.81400 -4.92400 28.52900
H  20.35400 -7.13700 26.93000
H  21.88500 -6.29800 26.44700
H  20.95500 -7.17000 25.19100
H  16.88100 -2.24700 22.82900
H  15.66200 0.36000 23.05400
H  18.03700 0.33600 22.32200
H  18.95300 -1.16600 22.33200
H  18.88400 -0.18700 23.76800
H  13.61200 -1.23000 23.96800
H  14.66700 -2.46500 23.14700
H  12.74700 -1.17200 22.13500
H  14.05500 -1.63700 21.06200
H  13.90700 -0.02400 21.65400
H  12.63400 3.60700 27.97600
H  12.77500 3.03400 26.37400
H  13.97900 4.20300 26.89500
H  14.45300 1.44900 32.25100
H  16.33800 5.22100 33.04500
H  17.23600 3.87300 33.99100
H  15.84000 4.69200 34.69300
Mg 42.25700 41.11700 25.84200
C  41.42800 43.45900 28.44300
C  43.65200 39.17900 28.38800
C  43.41000 39.15400 23.49600
C  41.85300 43.70700 23.62700
N  42.48500 41.37100 28.09700
C  42.00700 42.33300 28.93800
C  42.07300 41.95700 30.45700
C  42.95200 40.62600 30.40100
C  43.06700 40.34000 28.83800
C  44.30700 40.62700 31.16300
C  40.62100 41.75300 31.12800
C  40.22900 42.85000 32.15900
H  39.56300 42.30700 33.41300
N  43.31800 39.41300 25.92700
C  43.71000 38.65600 27.02100
C  44.26000 37.41600 26.58800
C  44.13100 37.36800 25.12500
C  43.53500 38.69300 24.78100
C  44.89100 36.41800 27.53200
C  44.60200 36.27900 24.21100
O  44.41400 36.23800 23.02800
C  45.34300 35.16000 24.72800
N  42.57900 41.42200 23.87800
C  42.95200 40.40200 23.03100
C  42.79400 40.70700 21.53200
C  42.60200 42.28000 21.64000
C  42.39700 42.53900 23.14500
C  43.98600 40.33800 20.71100
C  41.43400 42.71600 20.71400
C  41.65000 44.13500 20.03100
N  41.57900 43.14500 25.94500
C  41.52600 44.06100 24.91300
C  41.16600 45.38400 25.47300
C  41.09400 45.10500 26.83300
C  41.41400 43.78500 27.07300
C  40.88400 46.69000 24.77300
C  40.71400 45.80100 28.08700
O  40.24400 46.95500 28.30400
C  40.88100 44.66500 29.18100
C  41.87200 45.23600 30.13100
O  43.05000 45.37800 29.87200
O  41.29200 45.70700 31.23500
C  42.02900 46.40700 32.24700
H  44.15400 38.66900 29.21300
H  43.60000 38.44000 22.69200
H  41.72000 44.48900 22.87600
H  42.63800 42.70000 31.02000
H  42.36100 39.79300 30.78000
H  45.16900 40.57800 30.49800
H  44.33000 39.76800 31.83400
H  44.46400 41.49400 31.80500
H  40.64500 40.84500 31.73100
H  39.78800 41.66200 30.43100
H  39.52400 43.60300 31.80800
H  41.11500 43.43300 32.41300
H  44.43300 35.42900 27.54900
H  44.93800 36.78300 28.55800
H  45.89900 36.29500 27.13700
H  46.32000 35.52900 25.04000
H  45.50600 34.30400 24.07400
H  44.97000 34.72900 25.65700
H  41.90900 40.20900 21.13500
H  43.53600 42.81500 21.47000
H  43.73500 39.46100 20.11400
H  44.87900 40.22900 21.32700
H  44.24500 41.09300 19.96900
H  40.60200 42.89300 21.39500
H  41.36700 41.94400 19.94600
H  40.68000 44.25400 19.54800
H  42.40600 44.11000 19.24700
H  41.72900 44.97500 20.72100
H  41.66600 47.19700 24.20800
H  40.75800 47.38600 25.60200
H  39.98700 46.65300 24.15500
H  39.90600 44.60300 29.66500
H  42.42500 45.67100 32.94700
H  41.42600 47.12400 32.80500
H  42.88300 46.95800 31.85200

