158

Mg 5.98600 54.45500 39.87500
C  5.57000 50.96300 40.24400
C  9.15400 53.82400 38.69400
C  6.18900 57.71200 39.27900
C  2.52500 54.84400 40.68300
N  7.13600 52.47400 39.32700
C  6.73900 51.23200 39.55100
C  7.69200 50.28700 38.85200
C  9.01600 51.19600 38.75700
C  8.44900 52.60400 38.98500
C  10.10300 50.94800 39.93300
C  7.30500 49.65900 37.47100
C  6.38900 50.47400 36.58800
H  6.86400 51.40500 35.47500
N  7.47700 55.61300 39.03600
C  8.70900 55.23300 38.66000
C  9.44900 56.31800 38.10700
C  8.59500 57.46700 38.17100
C  7.34200 56.96800 38.88100
C  10.81800 56.14300 37.38700
C  8.85300 58.80300 37.65800
O  9.80700 59.00400 36.99400
C  8.08400 60.07500 38.09600
N  4.54500 56.07300 39.93100
C  4.91300 57.30400 39.80600
C  3.88600 58.34500 40.16900
C  2.66500 57.41600 40.49600
C  3.25300 56.01700 40.36100
C  4.34800 59.28100 41.27000
C  1.35600 57.76200 39.63000
C  0.39500 58.77300 40.28400
N  4.38700 53.20700 40.52000
C  3.06600 53.53800 40.83000
C  2.49500 52.36500 41.41500
C  3.43900 51.30200 41.21900
C  4.54600 51.86700 40.60200
C  1.09700 52.12600 41.93600
C  3.69400 49.81600 41.24900
O  3.01500 48.83800 41.55800
C  5.02800 49.60900 40.60800
C  4.76300 48.67200 39.52300
O  4.46100 48.95600 38.32300
O  4.82000 47.38900 39.97400
C  4.45700 46.26200 39.06200
H  10.19200 53.66800 38.39200
H  6.22900 58.80200 39.23100
H  1.58600 54.96000 41.22800
H  7.73000 49.38200 39.45800
H  9.57300 51.10000 37.82500
H  11.11800 51.01500 39.54000
H  9.94400 49.96800 40.38200
H  9.97400 51.82400 40.56900
H  6.99800 48.62100 37.60300
H  8.23900 49.47000 36.94200
H  5.69800 51.10600 37.14600
H  5.67000 49.89600 36.00700
H  10.93700 56.90700 36.61800
H  10.88400 55.19300 36.85700
H  11.59700 56.37900 38.11100
H  7.06100 60.15200 37.72600
H  8.61700 61.01300 37.93700
H  7.99900 60.06700 39.18300
H  3.71400 58.95300 39.28100
H  2.53900 57.56400 41.56900
H  4.37500 60.30600 40.90000
H  5.37900 59.09200 41.56900
H  3.75900 59.15700 42.17900
H  0.82900 56.83900 39.38700
H  1.59000 58.14100 38.63400
H  -0.67800 58.59800 40.20200
H  0.49800 59.75700 39.82800
H  0.66500 58.81800 41.33900
H  0.70600 51.30000 41.34200
H  0.43900 52.99400 41.90300
H  1.20700 51.76700 42.95900
H  5.64200 49.12500 41.36800
H  3.38000 46.26800 38.89200
H  4.68700 45.38900 39.67200
H  4.97000 46.32400 38.10200
Mg 9.13300 47.99800 25.15300
C  7.09600 48.62100 27.86900
C  11.88700 48.87000 27.00600
C  10.92200 47.21800 22.40300
C  6.14200 47.77200 23.04200
N  9.42100 48.67900 27.17100
C  8.44100 48.80000 28.16800
C  9.13100 49.08300 29.46200
C  10.58700 49.60700 29.13900
C  10.65400 49.04100 27.64600
C  10.70800 51.15800 29.12200
C  9.05800 47.97100 30.53700
C  9.08100 48.42700 32.08600
H  9.35500 47.17200 33.06000
N  11.18100 47.94400 24.74600
C  12.18600 48.39200 25.67900
C  13.44100 48.29600 24.97900
C  13.17000 47.80500 23.62900
C  11.70000 47.64600 23.52900
C  14.76900 48.71000 25.60600
C  14.16500 47.67300 22.47200
O  13.77600 47.35400 21.33000
C  15.59300 47.71600 22.70500
N  8.58100 47.64400 22.93600
C  9.56500 47.23000 22.07100
C  8.86500 46.55800 20.85800
C  7.49300 47.35200 20.87000
C  7.31600 47.56500 22.35800
C  9.62200 46.63300 19.43500
C  6.28200 46.71800 20.18100
C  5.23800 47.74600 19.86900
N  7.09000 48.07600 25.38700
C  5.96000 47.98500 24.45400
C  4.76900 48.17100 25.19700
C  5.14900 48.35400 26.54700
C  6.58100 48.28800 26.61500
C  3.38700 48.09400 24.64500
C  4.60500 48.68900 27.78300
O  3.43400 49.00300 28.08000
C  5.88900 48.83600 28.72000
C  5.76400 48.07900 29.91100
O  5.55600 46.86700 29.87400
O  5.83700 48.82300 31.10400
C  5.31100 48.06200 32.28600
H  12.74900 49.15300 27.61400
H  11.51900 46.89400 21.54800
H  5.14100 47.65000 22.62400
H  8.53300 49.93200 29.79700
H  11.32800 49.19000 29.82100
H  9.75600 51.67000 29.26400
H  11.29700 51.51800 28.27900
H  11.15600 51.44400 30.07400
H  9.95100 47.34800 30.49100
H  8.20800 47.32400 30.32300
H  8.18400 49.00400 32.31200
H  9.91100 49.11400 32.24900
H  14.67300 48.97900 26.65800
H  15.19600 49.55300 25.06300
H  15.39500 47.82200 25.52000
H  15.95200 46.89900 23.33100
H  15.72600 48.71400 23.12400
H  16.24900 47.68500 21.83400
H  8.73200 45.50300 21.10000
H  7.73900 48.32700 20.44900
H  8.96000 47.08300 18.69500
H  9.89300 45.61900 19.14100
H  10.48300 47.29900 19.39000
H  5.84100 45.86500 20.69600
H  6.70300 46.24700 19.29300
H  5.49300 48.68400 20.36200
H  4.27200 47.43900 20.27100
H  5.21400 48.02400 18.81600
H  2.69300 47.44700 25.18200
H  3.38300 47.76500 23.60500
H  2.90900 49.07100 24.72600
H  5.94000 49.86500 29.07400
H  4.41400 48.55300 32.66400
H  6.08300 48.14800 33.05100
H  5.02700 47.02500 32.10600

