158

Mg 49.26900 44.76600 43.07800
C  45.92900 45.57000 42.11700
C  48.89200 41.64000 41.75100
C  52.61500 44.43700 43.37800
C  49.52400 48.19500 44.03000
N  47.62700 43.86900 41.92300
C  46.38500 44.36400 41.64100
C  45.51400 43.36900 40.79500
C  46.45000 42.05900 40.77100
C  47.73800 42.49000 41.60400
C  45.85800 40.77400 41.43100
C  45.17000 44.03800 39.41200
C  43.71600 43.73100 39.01000
H  43.55700 42.69700 37.85200
N  50.61100 43.19800 42.65700
C  50.21300 41.98000 42.14500
C  51.40400 41.16400 42.00900
C  52.50800 41.96000 42.39500
C  51.96800 43.26900 42.85800
C  51.40500 39.66000 41.69000
C  53.99900 41.65300 42.33500
O  54.37700 40.57900 41.83000
C  55.15000 42.54300 42.92300
N  50.79900 46.04300 43.75300
C  52.14700 45.69600 43.71200
C  53.11700 46.84000 44.15700
C  52.11900 47.89200 44.55500
C  50.71800 47.37500 44.05500
C  54.27900 46.41700 45.05000
C  52.34800 49.35700 44.09800
C  52.11300 50.54200 45.03700
N  48.06400 46.51000 43.23600
C  48.26200 47.82900 43.61200
C  47.11300 48.64600 43.45200
C  46.14700 47.78100 42.95300
C  46.75200 46.49700 42.83200
C  46.85900 50.06300 43.92000
C  44.77800 47.71700 42.55500
O  43.92500 48.55200 42.70600
C  44.58200 46.26100 42.01900
C  43.40400 45.56100 42.64400
O  43.41400 44.87900 43.66800
O  42.33600 45.92700 41.90500
C  41.10400 45.32600 42.39700
H  48.70000 40.64800 41.33700
H  53.70700 44.40800 43.40800
H  49.59400 49.26400 44.24600
H  44.59300 43.10300 41.31400
H  46.62400 41.83800 39.71800
H  45.46500 40.04800 40.71900
H  45.05800 41.11700 42.08700
H  46.45300 40.27400 42.19500
H  45.81900 43.52100 38.70500
H  45.48900 45.08000 39.40400
H  43.24400 44.64300 38.64500
H  43.05600 43.50100 39.84700
H  51.72000 39.40100 40.67900
H  50.34100 39.42700 41.64800
H  51.93000 39.12700 42.48200
H  54.95900 42.90700 43.93300
H  55.46700 43.35000 42.26300
H  56.03100 41.93000 43.11300
H  53.51400 47.14900 43.19000
H  52.23900 47.96600 45.63600
H  54.35400 45.33000 45.07900
H  54.16500 46.72000 46.09100
H  55.18900 46.79900 44.58700
H  51.74300 49.49500 43.20200
H  53.41500 49.29500 43.88100
H  51.79900 50.17700 46.01400
H  51.23900 51.10100 44.70300
H  52.96900 51.17100 45.28000
H  47.34500 50.19000 44.88700
H  45.77300 50.11000 43.99800
H  47.24900 50.78800 43.20600
H  44.24300 46.45500 41.00200
H  40.72800 45.99500 43.17000
H  41.32300 44.32800 42.77400
H  40.38400 45.12300 41.60500
Mg 30.05100 58.07000 39.75000
C  27.28700 56.02600 38.79300
C  32.05900 55.40200 38.77800
C  32.68900 60.17900 39.71900
C  27.75700 60.74800 40.03500
N  29.68800 56.02400 38.79200
C  28.48800 55.43800 38.65900
C  28.70300 53.93500 38.36500
C  30.21900 53.63100 38.71800
C  30.69500 55.08100 38.84200
C  30.49000 52.81300 39.99800
C  28.21200 53.46000 36.93800
C  28.65500 54.39600 35.84300
H  28.28000 53.82100 34.45300
N  32.08800 57.80700 39.53300
C  32.74000 56.62600 39.05400
C  34.17700 56.91300 38.99600
C  34.38400 58.28800 39.42600
C  32.98400 58.82500 39.55700
C  35.23400 55.87500 38.69500
C  35.69000 58.93400 39.63700
O  36.68700 58.35500 39.35400
C  35.82800 60.25700 40.37700
N  30.14600 60.21900 39.95100
C  31.37700 60.82500 39.83800
C  31.16800 62.36700 40.03300
C  29.62600 62.49200 40.30500
C  29.11100 61.09500 40.09100
C  32.13800 63.14000 41.04800
C  28.90500 63.71600 39.50200
C  28.13600 64.72900 40.33900
N  28.01900 58.40700 39.50000
C  27.24500 59.51500 39.68000
C  25.82900 59.18000 39.39500
C  25.83900 57.81800 39.05200
C  27.17300 57.36900 39.15400
C  24.67000 60.07800 39.46900
C  25.00200 56.67900 38.63100
O  23.81700 56.60800 38.45100
C  25.95600 55.47000 38.48900
C  25.62300 54.20000 39.14700
O  25.58800 54.11600 40.39100
O  25.17800 53.24300 38.29400
C  24.67400 51.98100 38.85000
H  32.72100 54.54100 38.89200
H  33.48200 60.89200 39.48400
H  26.98400 61.50700 40.17200
H  28.04700 53.37800 39.03400
H  30.84000 53.30000 37.88500
H  29.54900 52.60900 40.50900
H  31.19100 53.39500 40.59600
H  30.97500 51.90100 39.65100
H  27.17000 53.14000 36.93300
H  28.82000 52.60400 36.64400
H  29.74100 54.40700 35.74400
H  28.31600 55.43000 35.90300
H  34.82000 54.92800 38.34700
H  35.63400 55.45900 39.62000
H  36.07100 56.29000 38.13500
H  36.65300 60.29200 41.08800
H  34.98500 60.69100 40.91400
H  36.13200 61.03700 39.68000
H  31.45800 62.76800 39.06200
H  29.38400 62.57400 41.36400
H  32.80100 63.79800 40.48500
H  32.73500 62.39300 41.57000
H  31.54400 63.63000 41.81900
H  28.11200 63.25200 38.91400
H  29.65800 64.16600 38.85600
H  28.53800 64.67600 41.35000
H  27.06900 64.50600 40.30300
H  28.29700 65.75300 40.00000
H  24.74500 60.86400 38.71700
H  24.52900 60.57500 40.42900
H  23.84400 59.40100 39.25000
H  26.05400 55.33900 37.41100
H  24.58800 51.29100 38.01000
H  23.71000 52.09400 39.34600
H  25.41400 51.64400 39.57600

