158

Mg -9.42700 40.51200 41.96000
C  -8.27600 37.27100 41.01300
C  -7.18900 41.70700 39.82100
C  -11.06300 43.46900 41.99400
C  -12.24300 38.82400 43.34600
N  -7.88600 39.63200 40.71800
C  -7.50800 38.28500 40.52900
C  -6.30600 38.11700 39.54700
C  -5.96100 39.60100 39.23600
C  -7.01600 40.39000 40.04000
C  -4.48700 39.82100 39.61500
C  -6.54600 37.26600 38.22600
C  -5.77300 35.95800 38.10300
H  -4.88600 35.77200 36.85500
N  -9.14300 42.33400 41.14400
C  -8.11800 42.62800 40.24500
C  -8.09400 44.00500 39.95700
C  -9.10700 44.61100 40.67700
C  -9.83500 43.52300 41.29800
C  -7.10100 44.80200 39.03200
C  -9.33100 46.10500 40.68600
O  -8.59600 46.89800 40.17700
C  -10.57800 46.61100 41.56500
N  -11.40100 41.07400 42.51100
C  -11.80600 42.38000 42.46200
C  -13.34000 42.40200 42.85400
C  -13.69600 41.00800 43.39700
C  -12.37200 40.22400 43.05500
C  -13.75900 43.56700 43.70500
C  -14.84900 40.42700 42.58800
C  -15.68100 39.35600 43.24200
N  -10.03000 38.45700 42.37900
C  -11.16900 37.95500 42.96200
C  -11.08800 36.54300 43.06100
C  -9.91600 36.15600 42.36900
C  -9.38800 37.38300 41.87700
C  -12.09900 35.62000 43.61300
C  -9.03800 35.08300 41.88300
O  -9.11400 33.86600 42.09900
C  -7.91300 35.74600 40.99900
C  -6.65000 35.63000 41.67800
O  -6.37600 36.35300 42.66500
O  -5.96400 34.63500 41.08200
C  -4.53900 34.42700 41.45900
H  -6.43900 42.13800 39.15400
H  -11.53000 44.45500 42.04300
H  -13.01900 38.25900 43.86600
H  -5.46700 37.65700 40.06900
H  -6.10300 39.87100 38.19000
H  -4.30300 40.89300 39.55000
H  -3.75300 39.31500 38.98800
H  -4.26800 39.50000 40.63400
H  -6.11700 37.88500 37.43800
H  -7.61400 37.12100 38.06300
H  -6.50000 35.14700 38.15800
H  -5.08700 35.86800 38.94600
H  -7.73100 45.35500 38.33500
H  -6.44100 44.13800 38.47400
H  -6.37700 45.43500 39.54500
H  -10.52000 47.69900 41.55500
H  -10.39300 46.15100 42.53600
H  -11.42100 46.18000 41.02500
H  -13.83700 42.54600 41.89400
H  -13.95800 40.94300 44.45300
H  -14.59900 43.25300 44.32400
H  -14.03900 44.35800 43.00900
H  -12.95300 44.01500 44.28500
H  -14.53800 40.03800 41.61800
H  -15.54600 41.19600 42.25500
H  -15.47900 39.25300 44.30800
H  -15.45200 38.41100 42.74900
H  -16.73600 39.48600 43.00100
H  -12.69800 36.09600 44.39000
H  -11.53400 34.78400 44.02600
H  -12.74800 35.36800 42.77400
H  -7.89000 35.41100 39.96200
H  -4.47300 33.34300 41.35500
H  -4.28400 34.79600 42.45200
H  -3.86400 34.76500 40.67200
Mg -0.43700 44.18600 24.82500
C  1.43400 43.80100 27.72700
C  -3.18200 43.12800 26.59100
C  -2.25600 44.31000 21.89400
C  2.46600 44.70300 22.96600
N  -0.82100 43.63800 26.94100
C  0.04100 43.65300 27.97200
C  -0.60100 43.41700 29.35900
C  -2.06400 42.96100 28.94000
C  -2.04900 43.21000 27.35600
C  -2.28200 41.47000 29.38200
C  -0.53600 44.82000 30.15500
C  0.12400 44.79000 31.56500
H  0.16600 43.36300 32.22200
N  -2.40500 43.72200 24.25200
C  -3.41200 43.37700 25.17700
C  -4.69200 43.40700 24.50200
C  -4.45000 43.69100 23.15200
C  -2.97800 44.00900 23.04400
C  -5.95900 42.85900 25.17400
C  -5.47200 43.73000 21.98500
O  -5.19700 43.99600 20.80000
C  -6.95700 43.49800 22.31300
N  0.09900 44.39300 22.73100
C  -0.90800 44.46700 21.72100
C  -0.26100 44.51400 20.32100
C  1.23600 44.92600 20.70600
C  1.26600 44.70400 22.24100
C  -0.47400 43.18300 19.61900
C  1.52900 46.44600 20.35700
C  0.65700 47.66400 20.81600
N  1.53600 44.17200 25.19400
C  2.63200 44.38000 24.35100
C  3.83100 44.31600 25.12200
C  3.42700 44.13900 26.43300
C  2.02300 43.94900 26.43800
C  5.25700 44.36900 24.61300
C  3.89700 44.01900 27.75600
O  5.03000 43.96500 28.11500
C  2.62100 43.67600 28.63100
C  2.82000 42.26800 29.12000
O  2.22200 41.30700 28.68300
O  3.77300 42.30100 30.05900
C  4.37700 41.01200 30.29200
H  -4.07700 42.87100 27.16100
H  -2.79100 44.11000 20.96400
H  3.38600 44.85200 22.39600
H  -0.09900 42.67700 29.98200
H  -2.86900 43.57400 29.34600
H  -2.77400 40.83600 28.64400
H  -2.90900 41.64900 30.25500
H  -1.32000 41.10700 29.74300
H  -1.54200 45.23900 30.14700
H  0.04200 45.50300 29.53200
H  -0.52900 45.47000 32.11100
H  1.13900 45.18400 31.60700
H  -6.35300 42.07900 24.52200
H  -6.71900 43.64100 25.20200
H  -5.72100 42.49500 26.17300
H  -7.06800 42.43500 22.53100
H  -7.49100 43.66100 21.37700
H  -7.30300 44.26900 23.00100
H  -0.72000 45.37600 19.83600
H  1.94200 44.36800 20.09200
H  -1.38200 42.67100 19.93800
H  0.36900 42.51600 19.79800
H  -0.61300 43.32900 18.54800
H  1.65900 46.51600 19.27700
H  2.46900 46.62800 20.87800
H  -0.12600 47.82100 20.07400
H  1.34000 48.51400 20.83800
H  0.27600 47.62500 21.83700
H  5.47400 45.30000 24.08900
H  5.31100 43.53800 23.91000
H  6.03200 44.40300 25.38000
H  2.44000 44.27600 29.52300
H  5.42200 41.06200 30.59700
H  4.25200 40.18600 29.59200
H  3.93900 40.47400 31.13300

