158

Mg 48.58200 44.60800 43.19400
C  45.10000 44.26100 42.98500
C  48.79000 40.98600 43.01900
C  51.92300 44.95600 42.92700
C  48.17700 48.05800 42.68700
N  47.06600 42.93400 43.04500
C  45.70300 42.98300 43.09700
C  44.98900 41.60200 43.01800
C  46.21100 40.66000 43.41600
C  47.45800 41.52900 43.11900
C  46.15000 40.17500 44.90600
C  44.25200 41.27000 41.72200
C  45.16500 41.50600 40.43500
H  45.50800 40.26400 39.50300
N  50.19400 43.14500 42.97800
C  50.07000 41.73900 42.93300
C  51.43300 41.22900 42.91900
C  52.38000 42.32000 42.98400
C  51.56000 43.54600 43.02300
C  51.59800 39.75600 42.72900
C  53.89500 42.18800 42.99300
O  54.40500 41.10200 43.09100
C  54.70300 43.35400 42.66100
N  49.88100 46.28500 42.76300
C  51.20100 46.16100 42.86800
C  51.95400 47.43900 42.45000
C  50.71500 48.44400 42.64800
C  49.48800 47.60500 42.70600
C  53.16300 47.92300 43.29700
C  50.62800 49.56000 41.54600
C  51.93100 50.23200 41.03300
N  47.03400 45.97600 43.03100
C  46.99400 47.32400 42.85900
C  45.60200 47.84000 42.81300
C  44.82400 46.66500 42.83600
C  45.73000 45.54200 43.03100
C  45.19800 49.21300 42.67400
C  43.52000 46.19400 42.72800
O  42.50300 46.82000 42.64700
C  43.57200 44.61300 42.91600
C  42.69700 44.12000 44.09500
O  41.78500 43.36500 44.04700
O  43.09600 44.69600 45.24200
C  42.44000 44.13000 46.48300
H  48.78500 39.89900 43.12100
H  52.98500 45.13000 42.74100
H  47.94300 49.12400 42.73800
H  44.38200 41.63000 43.92200
H  46.17100 39.79300 42.75700
H  46.82600 40.79800 45.49300
H  46.55500 39.16300 44.92600
H  45.13300 40.18700 45.29800
H  43.36400 41.89500 41.63100
H  43.90900 40.24600 41.86600
H  46.12500 41.83800 40.82900
H  44.74800 42.27900 39.79000
H  51.00000 39.53600 41.84500
H  51.17800 39.26200 43.60600
H  52.61000 39.40600 42.53000
H  54.25600 43.85700 41.80400
H  55.72600 43.04300 42.44900
H  54.78900 43.90800 43.59600
H  52.20900 47.54200 41.39500
H  50.84600 48.97800 43.58900
H  53.32800 47.08600 43.97700
H  53.18400 48.89000 43.80000
H  54.10000 47.97400 42.74200
H  49.98400 50.38800 41.84300
H  50.18500 49.10800 40.65900
H  52.80000 49.78800 41.51900
H  51.94000 51.27500 41.34900
H  52.14700 50.21600 39.96500
H  45.22600 49.58100 41.64800
H  45.73000 49.89700 43.33600
H  44.15900 49.34400 42.97800
H  43.15600 44.13300 42.02900
H  42.60700 43.05400 46.53500
H  41.35200 44.11100 46.42000
H  42.80800 44.73900 47.30800
Mg 16.63500 51.96100 26.31100
C  18.80700 50.62200 28.70100
C  14.56400 52.89700 28.84600
C  14.52100 53.14800 23.90600
C  18.72900 50.87000 23.84400
N  16.68000 51.69100 28.49600
C  17.66900 51.08900 29.27300
C  17.36500 51.17000 30.82000
C  15.86400 51.72100 30.74000
C  15.63600 52.08500 29.26300
C  14.77900 50.74100 31.25200
C  18.32200 52.14000 31.65500
C  18.85100 51.74600 33.05300
H  17.96000 52.20900 34.25900
N  14.76600 52.80000 26.33800
C  14.06900 53.11100 27.52000
C  12.94000 53.96000 27.10300
C  12.85300 53.93100 25.69400
C  14.10500 53.28700 25.22800
C  11.96400 54.70500 28.20600
C  11.79000 54.53800 24.86300
O  11.73000 54.23900 23.66800
C  10.56400 55.26400 25.45100
N  16.63600 52.06500 24.21600
C  15.69500 52.58300 23.39500
C  15.95900 52.49100 21.89400
C  17.40000 51.90900 21.99500
C  17.63000 51.63700 23.46300
C  14.91700 51.52800 21.19900
C  18.50400 52.84900 21.33900
C  18.87800 54.19100 22.11700
N  18.39500 50.87800 26.23400
C  19.15100 50.50300 25.14300
C  20.29700 49.84000 25.58400
C  20.15600 49.74500 26.97800
C  19.03200 50.48200 27.37800
C  21.37500 49.21800 24.83300
C  20.83600 49.29200 28.21400
O  21.81000 48.72900 28.52300
C  19.91400 49.84200 29.39800
C  19.40600 48.59500 30.07800
O  18.56700 47.83400 29.59700
O  19.78600 48.61600 31.35600
C  19.15500 47.65100 32.20100
H  13.92800 53.21200 29.67600
H  13.92900 53.66400 23.14700
H  19.30800 50.56900 22.96900
H  17.27400 50.17900 31.26500
H  15.74400 52.64600 31.30400
H  13.81400 51.24700 31.28000
H  15.10800 50.45700 32.25200
H  14.60500 49.88000 30.60600
H  17.78300 53.07900 31.78000
H  19.19600 52.45300 31.08400
H  19.90000 52.04000 33.06700
H  18.68700 50.67000 33.00100
H  12.27900 55.74800 28.18700
H  12.31600 54.45100 29.20500
H  10.89500 54.50100 28.14300
H  10.95500 56.17500 25.90400
H  9.93200 54.63800 26.08100
H  9.89400 55.62700 24.67100
H  15.86300 53.49000 21.46700
H  17.42100 50.90900 21.56100
H  15.47600 50.62700 20.94500
H  14.54300 51.93600 20.26000
H  14.17900 51.38100 21.98700
H  18.03100 53.13100 20.39800
H  19.43800 52.29200 21.26500
H  18.37000 54.27000 23.07800
H  18.66400 55.02300 21.44700
H  19.93600 53.97700 22.26600
H  21.89500 50.00400 24.28600
H  20.89000 48.55000 24.12100
H  22.09200 48.67600 25.45000
H  20.44200 50.49400 30.09400
H  19.31800 46.63200 31.85000
H  18.11100 47.95700 32.26200
H  19.38100 47.83600 33.25100

