158

Mg 48.26200 16.60400 28.33200
C  46.10100 16.57300 31.19900
C  50.44300 18.62400 30.14300
C  50.11300 16.78100 25.52400
C  45.68700 15.09900 26.59000
N  48.24900 17.52900 30.42100
C  47.36400 17.21700 31.45400
C  47.89200 17.67300 32.81200
C  49.13200 18.58100 32.37600
C  49.31100 18.17400 30.88900
C  48.97700 20.15200 32.56400
C  48.46900 16.46700 33.62000
C  48.03000 16.36400 35.10800
H  47.57000 17.65200 35.80000
N  50.10800 17.58100 27.87500
C  50.86400 18.35700 28.78400
C  52.05700 18.73400 28.07700
C  51.99400 18.16500 26.75100
C  50.67900 17.53300 26.61400
C  53.09000 19.44100 28.76900
C  53.08100 18.14000 25.63700
O  52.87400 17.63400 24.53400
C  54.44700 18.61000 25.99600
N  47.91700 16.10700 26.34700
C  48.92000 16.10400 25.46400
C  48.52100 15.44400 24.14000
C  47.06000 15.03100 24.37300
C  46.85500 15.40800 25.87000
C  48.49700 16.55300 23.04400
C  46.68700 13.51700 23.92900
C  45.47000 13.43900 22.95500
N  46.36600 15.90000 28.77200
C  45.39300 15.29100 27.98900
C  44.20200 15.00700 28.68700
C  44.44300 15.44000 29.98800
C  45.73100 15.98900 29.99900
C  43.01400 14.30500 28.05200
C  43.95600 15.51300 31.32900
O  42.93300 15.05700 31.74900
C  45.04200 16.36100 32.23200
C  44.46400 17.61500 32.85700
O  44.43800 18.70000 32.28500
O  43.99400 17.27100 34.02800
C  42.71600 17.80700 34.50400
H  51.19000 19.13400 30.75400
H  50.77100 16.66400 24.66000
H  44.99600 14.48800 26.00600
H  47.11500 18.20600 33.36000
H  50.11600 18.41700 32.81500
H  49.68900 20.68200 33.19500
H  47.99400 20.37200 32.98000
H  48.99300 20.61700 31.57800
H  49.55600 16.51000 33.55700
H  48.01800 15.55100 33.23900
H  48.91100 16.10300 35.69400
H  47.28200 15.57100 35.08800
H  53.97400 18.82000 28.91300
H  52.85100 19.92500 29.71700
H  53.42600 20.14900 28.01200
H  54.45600 19.69900 26.04000
H  55.01200 18.45600 25.07700
H  54.92700 18.17800 26.87500
H  49.17000 14.58000 23.99200
H  46.32700 15.63600 23.83900
H  48.89300 17.54300 23.27000
H  47.53600 16.66200 22.54200
H  49.12400 16.08600 22.28500
H  46.43200 12.91200 24.79900
H  47.56700 13.05000 23.48700
H  45.80000 13.52500 21.92000
H  44.72100 14.19300 23.20000
H  45.02100 12.44700 22.99200
H  43.55100 13.40200 27.76200
H  42.74200 14.75000 27.09500
H  42.15400 14.17400 28.70800
H  45.38600 15.72200 33.04600
H  42.94200 18.49800 35.31500
H  42.03400 17.03400 34.85900
H  42.16100 18.29100 33.70100
Mg 47.67800 35.28000 27.32000
C  46.04300 33.40700 29.71000
C  47.48500 37.98200 29.47100
C  48.97700 36.94100 24.92600
C  47.21600 32.53400 25.00700
N  46.91900 35.56700 29.35100
C  46.50200 34.58100 30.21700
C  46.58000 35.09000 31.63300
C  46.50200 36.64200 31.37800
C  46.97300 36.74700 30.00400
C  45.15200 37.30600 31.67900
C  47.87800 34.60100 32.37100
C  48.36000 35.43400 33.54700
H  47.27800 36.03700 34.49800
N  48.21500 37.23400 27.24900
C  48.05200 38.22500 28.20200
C  48.58600 39.46000 27.65800
C  49.09700 39.19800 26.39200
C  48.79800 37.74500 26.11000
C  48.52000 40.67600 28.55600
C  49.94600 40.07000 25.47700
O  50.42800 39.64000 24.42400
C  50.30900 41.48100 25.86600
N  47.81400 34.87200 25.09100
C  48.63200 35.70500 24.45400
C  48.87900 35.25700 22.96400
C  48.38800 33.76800 23.06200
C  47.78600 33.69100 24.48800
C  48.18000 36.11600 21.87800
C  49.47500 32.66900 22.90800
C  49.64100 32.08700 21.45000
N  46.73400 33.36000 27.26500
C  46.62500 32.38100 26.27800
C  45.90900 31.23400 26.97500
C  45.59200 31.62800 28.25400
C  46.06900 32.98200 28.36800
C  45.64700 29.98000 26.27400
C  45.01100 31.12600 29.51000
O  44.55300 30.05300 29.79700
C  45.14600 32.33200 30.43300
C  45.65800 31.75900 31.61800
O  46.69900 31.23000 31.78400
O  44.78500 32.15200 32.62200
C  45.13800 31.69700 34.04100
H  47.33000 38.82200 30.15100
H  49.45100 37.45800 24.08900
H  47.18500 31.73100 24.26700
H  45.76400 34.67400 32.22300
H  47.17200 37.17200 32.05500
H  45.37000 38.05000 32.44500
H  44.42600 36.56500 32.01300
H  44.71700 37.64200 30.73800
H  48.63900 34.58800 31.59100
H  47.77100 33.57500 32.72200
H  49.12300 36.18600 33.34300
H  48.91000 34.71800 34.15800
H  49.09400 40.60400 29.47900
H  47.53500 41.03700 28.85000
H  48.85600 41.55900 28.01200
H  50.71600 41.45700 26.87700
H  49.31500 41.92800 25.84800
H  50.94500 41.96500 25.12500
H  49.95000 35.31100 22.76900
H  47.54400 33.49900 22.42700
H  47.62600 36.90700 22.38500
H  47.58500 35.61000 21.11800
H  48.99800 36.61500 21.35600
H  49.21500 31.78100 23.48500
H  50.47600 33.01600 23.16300
H  50.62600 32.27700 21.02400
H  48.84600 32.50800 20.83400
H  49.32500 31.04600 21.51200
H  46.39800 29.30100 26.67900
H  45.73200 30.09500 25.19300
H  44.68100 29.52200 26.48500
H  44.13700 32.65200 30.69400
H  45.88000 32.38300 34.44800
H  45.59400 30.70800 34.00100
H  44.25000 31.72600 34.67300

