158

Mg 48.27600 44.60900 43.80500
C  44.79700 44.25300 43.39300
C  48.57000 41.14300 43.34800
C  51.59100 44.95300 43.49600
C  47.81400 48.06400 43.78000
N  46.80600 42.87700 43.36600
C  45.43900 42.98600 43.46500
C  44.74500 41.59400 43.38300
C  45.97000 40.63500 43.77800
C  47.22300 41.58000 43.54800
C  46.02100 40.05900 45.17900
C  44.11400 41.08700 42.14300
C  44.32900 41.81900 40.72300
H  45.07800 41.03900 39.67500
N  49.81500 43.25300 43.37400
C  49.74800 41.86200 43.39000
C  51.07200 41.29100 43.25200
C  51.99400 42.40500 43.24900
C  51.11200 43.61700 43.39100
C  51.43600 39.89100 42.96700
C  53.47900 42.28200 42.99100
O  54.03000 41.24100 42.95100
C  54.42100 43.44700 42.87900
N  49.52100 46.20500 43.76100
C  50.89100 46.11800 43.78000
C  51.49700 47.51400 43.79900
C  50.37200 48.51100 44.02500
C  49.14100 47.57100 43.80000
C  52.72600 47.75700 44.67200
C  50.38400 49.88100 43.20200
C  49.79000 51.06300 43.94200
N  46.68100 45.96500 43.66500
C  46.65300 47.32400 43.74200
C  45.29300 47.82600 43.59600
C  44.56400 46.65100 43.44500
C  45.43300 45.51100 43.49400
C  44.90700 49.29900 43.73700
C  43.20900 46.11200 43.39600
O  42.17000 46.70300 43.35800
C  43.30600 44.58300 43.40900
C  42.62700 44.06400 44.66300
O  41.60800 43.37200 44.69900
O  43.23700 44.50600 45.79600
C  42.88700 43.86200 47.04700
H  48.63400 40.05400 43.30800
H  52.67700 45.05800 43.48000
H  47.81100 49.14000 43.96800
H  44.05200 41.66700 44.22100
H  46.08000 39.76100 43.13500
H  45.29000 40.56200 45.81200
H  46.99200 40.15800 45.66300
H  45.66300 39.03400 45.07900
H  43.04800 41.04300 42.36500
H  44.38900 40.06300 41.89100
H  44.93200 42.69500 40.96200
H  43.40400 42.15900 40.25800
H  52.05300 40.00300 42.07600
H  50.56800 39.28800 42.70200
H  51.85100 39.42600 43.86200
H  53.90600 44.13300 42.20600
H  55.26600 43.21100 42.23200
H  54.58600 43.80100 43.89700
H  51.92400 47.64800 42.80500
H  50.43300 48.69400 45.09800
H  53.63600 47.64700 44.08200
H  52.80900 47.26600 45.64100
H  52.75900 48.83100 44.85500
H  49.67500 49.91300 42.37400
H  51.33400 50.11200 42.72000
H  49.56900 50.82900 44.98400
H  48.83900 51.33200 43.48300
H  50.43500 51.93100 43.80900
H  44.93900 49.74800 42.74500
H  45.63800 49.71600 44.43000
H  43.90800 49.27500 44.17200
H  42.61300 44.20000 42.66000
H  43.75500 43.82400 47.70600
H  42.50700 42.84000 47.03900
H  42.15800 44.47100 47.58200
Mg 26.12700 50.39000 27.39400
C  24.20500 51.48400 30.10500
C  28.57100 49.41500 29.69800
C  28.13000 49.48900 24.90500
C  23.98800 51.97200 25.23100
N  26.40900 50.59900 29.65200
C  25.39200 50.86100 30.56300
C  25.76100 50.48200 31.96200
C  27.31700 50.22000 31.83300
C  27.44700 50.02300 30.26600
C  28.25000 51.47800 32.06200
C  24.99800 49.26100 32.56500
C  24.34700 49.27700 34.01800
H  25.12300 50.08700 35.11800
N  28.04100 49.43300 27.29500
C  28.82900 49.06300 28.39000
C  30.01400 48.32900 27.89200
C  29.93800 48.47400 26.44600
C  28.67900 49.14600 26.13300
C  31.13400 47.80300 28.77000
C  30.94900 48.00000 25.37800
O  30.77900 48.20900 24.15600
C  32.21400 47.25700 25.71100
N  26.17500 50.91000 25.33300
C  26.96900 50.24100 24.48000
C  26.41700 50.25400 23.07600
C  25.13400 51.09500 23.14800
C  25.03900 51.31200 24.65100
C  27.57700 50.77100 22.12300
C  23.88200 50.42100 22.48700
C  23.13700 51.20400 21.39800
N  24.43900 51.51000 27.54300
C  23.63700 52.13600 26.58200
C  22.46400 52.69200 27.16200
C  22.64600 52.49200 28.55800
C  23.87400 51.75500 28.73000
C  21.39600 53.44600 26.63300
C  21.98500 52.71300 29.84300
O  20.91500 53.27100 30.14600
C  23.04500 52.04500 30.93300
C  23.45600 53.07500 31.93600
O  24.35600 53.87200 31.65100
O  22.75200 53.05800 33.07700
C  22.88300 54.25300 33.96400
H  29.21800 49.00100 30.47400
H  28.72500 49.00400 24.12700
H  23.22700 52.33900 24.54100
H  25.55800 51.33800 32.60600
H  27.74400 49.34600 32.32400
H  27.63200 52.31400 32.38800
H  28.72500 51.80400 31.13700
H  28.91400 51.32500 32.91300
H  25.66900 48.42300 32.37500
H  24.18300 49.11000 31.85800
H  24.26500 48.24800 34.36700
H  23.35700 49.71500 33.89000
H  32.03700 48.13800 28.26000
H  31.23000 46.74900 28.50600
H  30.98700 48.03000 29.82600
H  32.84700 47.03500 24.85200
H  32.00500 46.29600 26.18200
H  32.88600 47.86900 26.31200
H  26.32500 49.20900 22.78000
H  25.35600 52.09600 22.77800
H  28.34800 51.17200 22.78000
H  27.22500 51.57900 21.48200
H  27.98300 49.93700 21.55100
H  23.21900 50.02300 23.25600
H  24.25200 49.51100 22.01600
H  23.17200 50.69700 20.43400
H  23.68300 52.13100 21.22400
H  22.09500 51.38800 21.65800
H  21.88200 53.98600 25.82100
H  21.00500 54.13000 27.38600
H  20.49900 52.91200 26.31700
H  22.51100 51.28200 31.50000
H  23.15000 55.17800 33.45300
H  23.63300 54.15200 34.74900
H  21.87700 54.33400 34.37500

