158

Mg 25.67500 1.32800 29.62500
C  27.65700 0.95900 32.53000
C  22.91100 1.41900 31.70100
C  23.81900 1.38400 26.85000
C  28.60800 0.91000 27.67500
N  25.33000 0.99600 31.90300
C  26.29200 1.03100 32.87700
C  25.64100 1.28400 34.31800
C  24.05400 1.20800 33.91700
C  24.08800 1.23900 32.41300
C  23.31900 -0.07000 34.37600
C  26.08900 2.60400 35.05300
C  26.38800 2.35500 36.52400
H  25.68200 3.22900 37.57200
N  23.66700 1.32100 29.31000
C  22.68500 1.45900 30.25500
C  21.46700 1.73800 29.59500
C  21.73300 1.85800 28.19600
C  23.12800 1.47600 28.08600
C  20.23000 1.97400 30.38400
C  20.80200 2.12200 27.06800
O  21.01900 1.75900 25.88300
C  19.43300 2.77000 27.44200
N  26.17500 1.11300 27.62000
C  25.18900 1.23900 26.61600
C  25.78600 1.10400 25.23700
C  27.37200 1.06000 25.48300
C  27.43000 0.98300 27.00800
C  25.35900 -0.17900 24.43800
C  27.97400 2.36700 24.82400
C  28.63600 2.23600 23.42400
N  27.67600 1.02600 29.92400
C  28.77400 0.89200 29.03900
C  29.95200 0.53200 29.79700
C  29.57800 0.59100 31.15800
C  28.18400 0.97000 31.20600
C  31.14400 -0.03400 29.11900
C  30.09100 0.35300 32.52400
O  31.21600 0.04400 32.90600
C  28.81200 0.70500 33.47000
C  28.65600 -0.39300 34.45600
O  28.26500 -1.53300 34.23000
O  28.90500 0.05800 35.75100
C  28.72100 -0.88000 36.90500
H  22.08600 1.66900 32.37100
H  23.24700 1.45500 25.92200
H  29.52100 0.87800 27.07600
H  26.02800 0.42800 34.87100
H  23.48000 2.02900 34.34600
H  22.41200 0.30200 34.85200
H  23.89800 -0.59800 35.13300
H  23.00900 -0.75600 33.58700
H  25.25100 3.29800 35.00200
H  26.90600 3.08200 34.51400
H  27.47400 2.26500 36.54400
H  25.96700 1.37400 36.74400
H  19.40000 1.36000 30.03200
H  19.97700 3.03400 30.35300
H  20.28200 1.75900 31.45100
H  18.59200 2.08100 27.51900
H  19.21900 3.49500 26.65700
H  19.49000 3.40900 28.32300
H  25.36300 1.96800 24.72600
H  27.97200 0.25300 25.06200
H  26.26000 -0.73600 24.18000
H  24.81900 0.24500 23.59200
H  24.75900 -0.75700 25.14100
H  28.76000 2.79800 25.44500
H  27.15200 3.08200 24.86400
H  28.15600 1.34400 23.02000
H  29.72300 2.15700 23.41000
H  28.42200 3.05400 22.73600
H  31.43400 -0.92000 29.68400
H  32.04200 0.58100 29.05600
H  30.91900 -0.44200 28.13400
H  29.06800 1.57600 34.07400
H  28.10600 -0.42900 37.68400
H  29.68200 -1.08700 37.37500
H  28.28800 -1.82500 36.57700
Mg -5.47300 25.33400 25.79300
C  -4.38000 26.47000 28.98300
C  -7.54400 23.03100 27.43200
C  -5.88100 23.82800 22.81100
C  -2.91000 27.34900 24.36400
N  -5.73200 24.78000 27.94300
C  -5.30600 25.42800 29.05100
C  -5.81500 24.83700 30.36200
C  -6.71400 23.64700 29.82200
C  -6.70800 23.85700 28.27000
C  -6.03100 22.25600 30.34400
C  -6.60300 25.89900 31.18500
C  -6.16900 26.17100 32.63100
H  -5.54000 25.03200 33.31200
N  -6.63700 23.72400 25.18900
C  -7.49100 22.92600 25.97000
C  -8.26800 22.10800 25.06000
C  -7.78300 22.29600 23.76600
C  -6.73800 23.36900 23.86600
C  -9.41600 21.28300 25.57400
C  -8.26100 21.60700 22.46700
O  -7.89800 22.01000 21.33400
C  -9.17000 20.46800 22.48000
N  -4.54400 25.57700 23.81200
C  -4.88400 24.83900 22.72300
C  -4.13400 25.23300 21.45400
C  -3.37000 26.50300 21.93500
C  -3.54400 26.48200 23.47200
C  -3.41700 24.21200 20.64100
C  -3.87700 27.84800 21.30700
C  -5.19800 28.39600 21.86700
N  -4.01300 26.71200 26.47100
C  -3.11300 27.51400 25.74200
C  -2.46800 28.39300 26.65500
C  -2.97500 28.10800 27.96100
C  -3.81600 26.98500 27.77600
C  -1.54100 29.56800 26.29600
C  -2.90800 28.54500 29.37900
O  -2.36200 29.48500 29.96300
C  -3.79900 27.46300 30.11300
C  -2.69700 26.66300 30.87400
O  -1.93500 25.74200 30.48600
O  -2.58800 27.29700 32.08500
C  -1.40400 27.02000 32.81100
H  -8.18000 22.41500 28.07100
H  -6.14100 23.22100 21.94100
H  -2.12500 27.91300 23.85700
H  -4.95300 24.49300 30.93500
H  -7.76100 23.63800 30.12500
H  -5.66200 21.75400 29.44900
H  -6.63700 21.51700 30.86900
H  -5.23000 22.51000 31.03900
H  -7.62500 25.52300 31.23700
H  -6.67200 26.86500 30.68500
H  -7.02400 26.48800 33.22800
H  -5.45800 26.99500 32.57900
H  -9.21200 20.21200 25.59900
H  -10.28800 21.54600 24.97400
H  -9.66700 21.58600 26.59000
H  -8.72000 19.52400 22.78600
H  -9.65400 20.31300 21.51500
H  -10.06000 20.72400 23.05500
H  -4.83300 25.68000 20.74700
H  -2.32300 26.36700 21.66500
H  -2.34400 24.36800 20.53500
H  -3.96900 24.19100 19.70200
H  -3.50400 23.26700 21.17600
H  -3.98300 27.72400 20.22900
H  -3.05700 28.56500 21.34200
H  -5.87000 28.69600 21.06200
H  -5.08300 29.28600 22.48500
H  -5.67900 27.63300 22.47900
H  -1.31900 30.28200 27.08900
H  -2.22300 30.06600 25.60800
H  -0.66900 29.10900 25.83000
H  -4.59400 27.91400 30.70700
H  -0.56900 27.06700 32.11100
H  -1.46200 26.00200 33.19500
H  -1.33400 27.68300 33.67300

