158

Mg 43.28100 3.92200 46.75200
C  41.17600 6.68400 46.37600
C  40.57700 1.88000 46.71400
C  45.39900 1.28200 46.23800
C  46.00900 6.02600 46.42000
N  41.06600 4.26300 46.31300
C  40.40800 5.46200 46.41600
C  38.91200 5.32100 46.63600
C  38.80900 3.79200 46.83900
C  40.26700 3.26500 46.61900
C  38.15500 3.40900 48.23500
C  38.06700 5.97200 45.49700
C  38.51500 5.59800 44.09600
H  39.53200 6.56900 43.40000
N  43.01700 1.88300 46.56300
C  41.81600 1.23200 46.62300
C  41.97600 -0.18100 46.44200
C  43.38400 -0.44700 46.43000
C  44.02000 0.93500 46.41100
C  40.73600 -1.16900 46.53500
C  44.00600 -1.79100 46.41600
O  43.27800 -2.75800 46.41800
C  45.55700 -1.92300 46.34800
N  45.46500 3.67300 46.40400
C  46.07700 2.53400 46.28400
C  47.60800 2.67700 46.15700
C  47.81600 4.19600 46.30100
C  46.37300 4.68700 46.41900
C  48.39500 1.67200 46.99600
C  48.54800 4.87000 45.15400
C  49.60200 4.15900 44.30500
N  43.61000 5.88500 46.39700
C  44.74100 6.63500 46.40300
C  44.42500 8.02100 46.50600
C  43.03400 8.09300 46.45000
C  42.55600 6.74200 46.25900
C  45.40300 9.14400 46.53200
C  41.91300 8.97200 46.58900
O  41.75700 10.14800 46.88600
C  40.62300 8.11300 46.38900
C  39.74000 8.32200 47.50700
O  39.94100 7.85300 48.65200
O  38.73200 9.16600 47.15000
C  37.89200 9.64400 48.29800
H  39.69200 1.24000 46.71900
H  46.16300 0.53100 46.02700
H  46.87000 6.69600 46.37400
H  38.70900 5.87600 47.55200
H  38.19600 3.40100 46.02600
H  37.83500 4.30700 48.76300
H  38.86700 2.83100 48.82400
H  37.24800 2.80900 48.15800
H  37.87700 7.03500 45.64500
H  37.04900 5.59000 45.57500
H  37.67500 5.43700 43.42000
H  38.98600 4.61500 44.09800
H  40.51400 -1.52600 45.52900
H  39.79800 -0.73700 46.88600
H  40.85200 -1.99100 47.24200
H  46.08100 -1.33200 47.09900
H  46.02000 -1.55300 45.43300
H  45.91200 -2.93900 46.51800
H  47.62100 2.54900 45.07500
H  48.40800 4.40400 47.19200
H  48.51400 0.73200 46.45700
H  47.89200 1.47300 47.94200
H  49.36600 2.15200 47.11900
H  49.15700 5.67700 45.56100
H  47.89600 5.32900 44.41100
H  49.29800 4.26800 43.26300
H  49.61000 3.07700 44.44300
H  50.55400 4.65900 44.47800
H  44.93900 9.92200 45.92600
H  46.41000 8.89600 46.19600
H  45.46200 9.43700 47.58000
H  40.29700 8.39800 45.38800
H  38.44700 10.13300 49.09900
H  37.24900 8.81500 48.59500
H  37.37900 10.47500 47.81600
Mg -11.84100 16.40300 41.69400
C  -8.46300 14.99700 41.38000
C  -10.50200 19.29600 40.32500
C  -14.91800 17.43400 41.13600
C  -12.93300 13.10300 42.03900
N  -9.73500 16.97800 40.94900
C  -8.56600 16.29200 40.93400
C  -7.45200 17.12700 40.30600
C  -8.11800 18.53600 39.90500
C  -9.55700 18.21400 40.40300
C  -7.52600 19.82300 40.51300
C  -6.86000 16.36400 39.02400
C  -5.35800 16.30000 38.79600
H  -4.87800 16.98200 37.54100
N  -12.59900 18.14900 40.96400
C  -11.88500 19.28400 40.57400
C  -12.70500 20.35400 40.45700
C  -14.06900 19.88800 40.67200
C  -13.93000 18.42700 40.94300
C  -12.18900 21.81200 40.25400
C  -15.32500 20.82400 40.59200
O  -15.25500 22.03200 40.35000
C  -16.63100 20.22100 41.01800
N  -13.63200 15.36600 41.46500
C  -14.82000 16.09500 41.45400
C  -15.99900 15.15100 41.80900
C  -15.34700 13.79800 42.11500
C  -13.90600 14.09600 41.87700
C  -16.79600 15.75200 43.05300
C  -15.94900 12.71800 41.08800
C  -16.99000 11.70500 41.63300
N  -10.94900 14.53300 41.89300
C  -11.57100 13.29600 42.11200
C  -10.55200 12.28600 42.36000
C  -9.34700 12.91900 42.18000
C  -9.58600 14.29100 41.84300
C  -10.82400 10.88400 42.75000
C  -7.85300 12.76200 42.20500
O  -7.20800 11.75400 42.40800
C  -7.22900 14.05300 41.56800
C  -6.24200 14.52800 42.48800
O  -6.47000 14.70400 43.72100
O  -4.98400 14.71700 41.89200
C  -3.89800 15.26300 42.78600
H  -10.03500 20.24600 40.05600
H  -15.96300 17.74600 41.19100
H  -13.36200 12.12200 42.25500
H  -6.70100 17.27600 41.08200
H  -8.21200 18.70300 38.83200
H  -7.75700 20.56500 39.74800
H  -6.44600 19.68500 40.57000
H  -7.89500 20.09200 41.50300
H  -7.38300 16.85400 38.20300
H  -7.29000 15.36600 38.93100
H  -5.10300 15.24200 38.73500
H  -4.87200 16.75600 39.65800
H  -11.74700 21.96100 39.26900
H  -11.37700 21.97200 40.96400
H  -12.97900 22.55000 40.39100
H  -17.33000 21.02100 40.77300
H  -16.77900 20.08700 42.09000
H  -16.97700 19.36300 40.44100
H  -16.82400 15.10300 41.09800
H  -15.58700 13.43200 43.11300
H  -16.29400 16.51800 43.64600
H  -17.02200 14.94500 43.75000
H  -17.70200 16.15400 42.60000
H  -15.13000 12.07000 40.77400
H  -16.34600 13.23000 40.21200
H  -17.00500 10.75700 41.09500
H  -17.92900 12.20300 41.38900
H  -16.92000 11.61500 42.71700
H  -10.05200 10.41300 43.35900
H  -10.91000 10.34500 41.80700
H  -11.73700 10.78300 43.33700
H  -6.66000 13.85000 40.66100
H  -3.82800 16.26500 42.36200
H  -3.01500 14.75200 42.40100
H  -3.96000 15.15000 43.86800

