158

Mg 47.07100 24.47200 28.61700
C  47.47500 26.79100 31.19400
C  46.27200 22.06800 30.91600
C  47.55800 22.19500 26.18400
C  48.62900 26.85400 26.33200
N  46.86100 24.46700 30.82400
C  47.09100 25.51100 31.67600
C  46.75700 25.12700 33.12900
C  46.42100 23.61800 33.04100
C  46.52300 23.35200 31.54200
C  47.20700 22.69400 33.95100
C  45.59300 25.96500 33.78600
C  45.72100 26.65500 35.20400
H  44.55300 26.52300 36.24400
N  46.62000 22.55000 28.51700
C  46.25100 21.71500 29.55300
C  46.04500 20.43100 29.01800
C  46.46800 20.39500 27.67000
C  46.90700 21.79000 27.40500
C  45.55300 19.36300 29.89200
C  46.63500 19.27100 26.74800
O  46.96000 19.46200 25.56100
C  46.52500 17.84700 27.22200
N  47.88400 24.53300 26.56200
C  47.98200 23.42300 25.76800
C  48.63100 23.71500 24.44700
C  48.49800 25.27100 24.37700
C  48.39800 25.59900 25.88300
C  50.18200 23.19200 24.46800
C  47.09900 25.61700 23.57100
C  46.45600 27.05300 23.71400
N  47.89900 26.40200 28.71300
C  48.50000 27.26000 27.71700
C  48.75400 28.48800 28.27600
C  48.38900 28.30800 29.62500
C  47.83100 27.08500 29.87200
C  49.12500 29.78800 27.48200
C  48.45600 29.01800 30.88500
O  48.93300 30.08700 31.16900
C  47.84500 28.03200 31.96800
C  48.90400 27.72000 33.05300
O  49.99600 27.26500 32.77300
O  48.49600 28.06800 34.38200
C  49.35900 27.78600 35.55600
H  46.01100 21.27400 31.61900
H  47.76000 21.49300 25.37300
H  49.13800 27.48100 25.59600
H  47.68700 25.28200 33.67800
H  45.38600 23.34000 33.24200
H  47.88100 22.03300 33.40800
H  46.49400 22.16000 34.58000
H  47.87700 23.24700 34.60900
H  44.67300 25.40200 33.94300
H  45.25800 26.74400 33.10100
H  45.91700 27.70700 34.99700
H  46.58100 26.21200 35.70600
H  44.95600 18.74700 29.21900
H  44.93200 19.62800 30.74800
H  46.44200 18.79100 30.15700
H  47.28500 17.67300 27.98300
H  46.74000 17.24500 26.33800
H  45.50600 17.64700 27.55400
H  48.02000 23.20100 23.70600
H  49.24800 25.79300 23.78300
H  50.64800 23.16200 25.45300
H  50.81100 23.85000 23.86900
H  50.18400 22.16400 24.10500
H  46.33300 24.89900 23.86400
H  47.24500 25.46900 22.50100
H  45.53900 26.91000 24.28600
H  46.15300 27.57900 22.80900
H  47.23300 27.64200 24.20200
H  48.41900 29.97700 26.67300
H  50.03900 29.55000 26.93600
H  49.25200 30.69500 28.07200
H  47.05700 28.59400 32.47000
H  49.92900 26.85700 35.55000
H  48.74100 27.66500 36.44600
H  50.06800 28.61500 35.54200
Mg 7.23800 53.47600 40.05200
C  6.57200 50.03100 40.09900
C  10.49300 52.74600 39.70600
C  7.74800 56.74600 39.14500
C  3.77300 54.23800 40.25000
N  8.35900 51.50600 39.79300
C  7.92600 50.28700 40.10500
C  9.05200 49.31900 40.06600
C  10.28500 50.27700 40.37800
C  9.66400 51.61800 39.97000
C  11.01200 50.00800 41.65600
C  9.20200 48.37400 38.81900
C  9.19800 49.12300 37.50700
H  8.08600 48.86800 36.42100
N  8.98500 54.62900 39.53900
C  10.19900 54.05700 39.35500
C  11.15700 55.05100 38.99500
C  10.34200 56.27700 38.71300
C  8.96100 55.94800 39.16000
C  12.61000 54.87000 38.85200
C  10.81800 57.56000 38.03800
O  11.99700 57.70600 37.76300
C  9.89300 58.70000 37.71000
N  6.01600 55.19000 39.78000
C  6.48200 56.42900 39.52400
C  5.37900 57.53200 39.53200
C  4.04600 56.72600 39.61700
C  4.59400 55.26600 39.95600
C  5.58900 58.57600 40.65500
C  3.09200 56.77400 38.41700
C  2.66300 58.22900 37.95700
N  5.51300 52.42000 40.20100
C  4.20700 52.89200 40.29700
C  3.36200 51.68000 40.40000
C  4.23600 50.61300 40.40200
C  5.52200 51.08700 40.20600
C  1.77900 51.65400 40.43600
C  4.25900 49.13400 40.56100
O  3.42100 48.31000 40.82900
C  5.71700 48.76600 40.20300
C  5.70100 47.93800 38.96000
O  5.51900 48.43600 37.86100
O  5.82000 46.58000 39.23000
C  5.67700 45.67800 38.13100
H  11.54500 52.56100 39.93200
H  7.89700 57.75900 38.76800
H  2.72300 54.45000 40.46300
H  8.80100 48.74500 40.95800
H  11.05700 50.16400 39.61700
H  12.03000 49.77600 41.34300
H  10.50500 49.15400 42.10600
H  10.98400 50.90400 42.27600
H  8.39700 47.64600 38.91500
H  10.18100 47.89800 38.88000
H  10.18100 48.89800 37.09500
H  9.12600 50.19300 37.69900
H  12.88600 54.61400 37.82900
H  13.04900 54.16200 39.55400
H  13.15300 55.80100 39.01300
H  9.10800 58.09900 37.25100
H  10.25300 59.43900 36.99500
H  9.65200 59.06000 38.71000
H  5.61500 57.96400 38.55900
H  3.49100 57.00700 40.51200
H  6.33900 59.26500 40.26600
H  5.91400 58.10600 41.58400
H  4.67600 59.13200 40.87000
H  2.21900 56.27100 38.83200
H  3.48800 56.25700 37.54300
H  3.43500 58.97200 38.15700
H  1.65600 58.30900 38.36900
H  2.53400 58.27300 36.87600
H  1.36700 50.65100 40.54400
H  1.38800 52.03900 39.49400
H  1.35100 52.08700 41.34000
H  6.14400 48.06900 40.92400
H  6.46000 44.93300 38.27300
H  5.53600 46.02700 37.10800
H  4.73300 45.17700 38.34400

