158

Mg 24.98500 -7.95000 47.51900
C  26.81900 -5.46900 46.04000
C  22.31200 -7.26100 45.09500
C  23.29300 -10.78200 48.33600
C  27.89600 -9.27700 48.85900
N  24.66100 -6.64700 45.52200
C  25.53400 -5.53000 45.41400
C  24.93500 -4.52700 44.36900
C  23.43800 -4.99500 44.20600
C  23.44100 -6.39600 45.03100
C  22.43700 -3.96100 44.71400
C  25.67400 -4.41200 43.04700
C  25.58900 -2.97000 42.39300
H  24.98200 -2.87000 41.03500
N  23.08100 -8.82900 46.94300
C  22.20400 -8.45800 45.88500
C  21.05000 -9.34200 45.90800
C  21.24700 -10.29100 46.91300
C  22.60000 -9.98700 47.49500
C  19.90100 -9.09000 45.03100
C  20.26400 -11.40500 47.29600
O  19.18100 -11.32500 46.80700
C  20.57700 -12.41200 48.38600
N  25.46700 -9.71700 48.66700
C  24.62800 -10.74700 48.71900
C  25.33100 -11.96800 49.48700
C  26.78300 -11.50400 49.78700
C  26.73200 -10.08300 49.13500
C  24.56700 -12.53100 50.77500
C  27.86900 -12.36100 49.13600
C  27.88900 -12.51500 47.53700
N  26.88900 -7.42200 47.71500
C  28.00200 -7.97300 48.25700
C  29.12900 -7.04500 48.19300
C  28.66600 -6.04000 47.40500
C  27.33200 -6.35700 47.03000
C  30.46900 -7.27900 48.87400
C  29.09700 -4.75400 46.81900
O  30.17000 -4.14700 46.90900
C  27.91900 -4.30600 45.80700
C  27.44900 -2.92000 46.09400
O  27.71400 -1.96700 45.36400
O  26.58100 -2.80400 47.18600
C  25.72100 -1.64000 47.44300
H  21.47100 -7.01300 44.44400
H  22.94400 -11.71400 48.78600
H  28.89200 -9.66000 49.09000
H  24.97200 -3.50600 44.75000
H  23.25700 -5.21200 43.15300
H  22.90300 -3.20700 45.34900
H  21.63600 -4.37300 45.32700
H  21.89200 -3.55600 43.86100
H  25.25600 -5.18700 42.40500
H  26.73100 -4.60400 43.23200
H  26.58800 -2.56200 42.23900
H  25.04900 -2.32900 43.08900
H  20.22000 -8.65200 44.08500
H  19.28700 -8.34800 45.54100
H  19.23400 -9.93300 44.85100
H  21.26400 -13.21500 48.11900
H  19.61400 -12.92200 48.39300
H  20.80400 -12.00300 49.37100
H  25.45300 -12.72000 48.70700
H  26.97000 -11.39800 50.85500
H  23.70300 -11.91200 51.01600
H  25.26600 -12.60000 51.60900
H  24.25600 -13.57500 50.71600
H  27.86300 -13.36200 49.56700
H  28.78700 -11.83200 49.39400
H  28.64700 -11.81900 47.17800
H  27.07600 -12.01700 47.00900
H  28.01200 -13.56200 47.25900
H  30.80000 -6.35100 49.34100
H  31.27800 -7.43200 48.15900
H  30.42700 -8.10100 49.58900
H  28.24200 -4.40900 44.77100
H  24.84100 -1.88200 48.03900
H  25.44900 -1.17800 46.49400
H  26.35900 -0.97000 48.01800
Mg 47.59700 34.85700 27.67500
C  45.56800 33.52400 30.30100
C  48.18500 37.53700 29.77000
C  48.79600 36.61400 24.98400
C  46.34400 32.41500 25.58200
N  46.93300 35.44800 29.81400
C  46.21900 34.71600 30.65400
C  46.50800 35.19600 32.09000
C  46.94900 36.68400 31.87200
C  47.43600 36.55300 30.40800
C  45.79500 37.68600 32.05700
C  47.68700 34.35300 32.76300
C  47.52600 34.26500 34.33900
H  46.60200 35.29700 34.97500
N  48.48200 36.75600 27.43400
C  48.59300 37.70200 28.42800
C  49.33200 38.88500 27.87400
C  49.62200 38.50800 26.50300
C  48.94600 37.25500 26.22000
C  49.62800 40.17900 28.55800
C  50.33900 39.34500 25.47000
O  50.48800 38.97400 24.33800
C  50.68200 40.81100 25.67000
N  47.58500 34.51100 25.56900
C  48.03100 35.42700 24.70000
C  47.95200 34.91600 23.25800
C  47.18100 33.53400 23.45200
C  46.97100 33.47300 24.94600
C  47.31900 35.83400 22.22900
C  48.14200 32.38500 22.87400
C  49.43000 32.25300 23.53000
N  46.43500 33.15600 27.91000
C  46.12100 32.22400 27.01100
C  45.56900 31.06800 27.67600
C  45.24300 31.54800 28.93500
C  45.87900 32.80500 29.08400
C  45.13400 29.82800 26.99100
C  44.55000 31.23700 30.14500
O  43.96400 30.18700 30.47700
C  44.61400 32.56800 31.01800
C  44.89800 32.18200 32.42400
O  45.81100 31.50000 32.88500
O  43.74700 32.55700 33.14000
C  43.56200 32.06300 34.44600
H  48.42600 38.35400 30.45300
H  48.94200 37.22000 24.08700
H  45.85800 31.82800 24.80000
H  45.57300 35.21000 32.65100
H  47.86000 36.84100 32.44800
H  45.36400 37.86000 31.07200
H  46.09400 38.70000 32.32200
H  45.05000 37.33000 32.76900
H  48.65000 34.70700 32.39400
H  47.66900 33.34800 32.34100
H  48.52300 34.48600 34.72000
H  47.18000 33.28200 34.65900
H  50.68700 40.42900 28.63600
H  49.31100 40.11800 29.59900
H  49.04300 40.94500 28.04800
H  50.01700 41.49400 26.19900
H  51.03400 41.26800 24.74500
H  51.59400 40.68400 26.25200
H  48.97500 34.75900 22.91600
H  46.18800 33.31100 23.06300
H  47.87400 36.10100 21.32900
H  47.06000 36.78900 22.68600
H  46.36700 35.41900 21.90100
H  48.29700 32.49500 21.80100
H  47.56600 31.46800 22.99800
H  49.63200 31.26900 23.95400
H  49.42600 32.89800 24.40900
H  50.24700 32.41700 22.82800
H  45.77300 28.98300 27.24900
H  45.27300 29.95000 25.91700
H  44.05800 29.66500 27.04400
H  43.68100 33.12300 30.92900
H  44.37600 31.41900 34.77900
H  42.65300 31.49600 34.64700
H  43.33800 32.77800 35.23700

