158

Mg 2.77000 -3.49600 45.12900
C  6.07200 -2.53800 44.28800
C  1.47400 -1.22100 43.03000
C  -0.23900 -4.93800 45.73500
C  4.31900 -6.08000 47.29600
N  3.69000 -2.15600 43.73300
C  5.04100 -1.84800 43.55100
C  5.22400 -0.74600 42.56800
C  3.78600 -0.31700 42.14600
C  2.93000 -1.21200 43.10900
C  3.55100 1.23900 42.17200
C  6.17200 -1.12100 41.39500
C  7.34400 -0.10400 41.20300
H  7.74400 0.27600 39.75400
N  0.84800 -3.19000 44.41400
C  0.51300 -2.10400 43.56500
C  -0.96000 -2.12500 43.51800
C  -1.43000 -3.37400 44.10300
C  -0.23800 -3.94900 44.77400
C  -1.75100 -1.09300 42.85700
C  -2.84900 -3.94200 44.08700
O  -3.77500 -3.35200 43.47700
C  -3.13400 -5.31000 44.59300
N  2.15200 -5.29200 46.28200
C  0.84800 -5.56600 46.38500
C  0.65700 -6.77100 47.33600
C  2.09200 -7.31700 47.57200
C  2.90200 -6.16800 47.04600
C  -0.21100 -6.56600 48.61500
C  2.56400 -8.56200 46.71700
C  3.38500 -9.62600 47.56800
N  4.72300 -4.19900 45.71000
C  5.18200 -5.17300 46.57300
C  6.61300 -5.10600 46.66000
C  6.99700 -4.04900 45.84300
C  5.80700 -3.55800 45.21400
C  7.48300 -6.00600 47.50800
C  8.17500 -3.26900 45.36300
O  9.35000 -3.36000 45.63600
C  7.54800 -2.19700 44.39900
C  7.85500 -0.84000 45.03400
O  7.51000 -0.61900 46.13400
O  8.30300 0.05600 44.12000
C  8.34300 1.46900 44.63500
H  1.10400 -0.37300 42.45100
H  -1.26300 -5.18600 46.02300
H  4.72200 -6.90600 47.88500
H  5.73300 -0.01000 43.19000
H  3.52900 -0.67900 41.15100
H  4.40600 1.80700 42.53700
H  2.71400 1.43100 42.84400
H  3.18900 1.52300 41.18300
H  5.59100 -1.16400 40.47400
H  6.50800 -2.14800 41.53700
H  8.21500 -0.52800 41.70300
H  7.14500 0.80500 41.77100
H  -1.61400 -1.19900 41.78100
H  -1.27600 -0.17400 43.20300
H  -2.77500 -0.96500 43.20900
H  -3.41400 -5.45700 45.63600
H  -2.37200 -5.99800 44.22700
H  -4.01100 -5.59800 44.01300
H  0.15900 -7.47600 46.67000
H  2.27900 -7.55000 48.62000
H  -0.22500 -5.58100 49.08100
H  0.18200 -7.32100 49.29500
H  -1.22700 -6.87700 48.37100
H  3.30700 -8.25200 45.98200
H  1.69500 -9.01500 46.23900
H  2.85200 -9.74300 48.51200
H  4.35200 -9.15900 47.75700
H  3.46100 -10.56900 47.02700
H  7.87200 -6.91000 47.03900
H  6.99500 -6.27300 48.44500
H  8.26100 -5.32700 47.85900
H  8.07800 -2.17600 43.44700
H  9.20700 1.54800 45.29500
H  7.36100 1.67000 45.06400
H  8.47100 2.19500 43.83300
Mg 35.65000 2.33700 29.09600
C  33.48600 3.11600 31.68100
C  38.30200 2.49600 31.32500
C  37.77800 2.23100 26.39300
C  32.94500 2.73300 26.80300
N  35.84600 2.73400 31.23600
C  34.79800 2.80500 32.09100
C  35.24100 2.93600 33.48400
C  36.83000 2.94400 33.43600
C  37.03900 2.73900 31.86700
C  37.53100 4.23000 34.03400
C  34.63900 1.74400 34.36800
C  34.48800 2.08900 35.87900
H  34.90600 3.49600 36.46700
N  37.71700 2.25500 28.94300
C  38.64100 2.35900 29.98400
C  39.94800 2.18100 29.44600
C  39.83900 2.08300 28.01300
C  38.39300 2.23700 27.69600
C  41.19000 2.12900 30.30300
C  41.01300 1.94300 27.05200
O  40.81900 1.98300 25.79100
C  42.36000 1.62900 27.50700
N  35.43200 2.37400 27.00800
C  36.40600 2.37300 26.09000
C  35.94100 2.64100 24.65700
C  34.41800 2.38300 24.74200
C  34.19400 2.44200 26.25200
C  36.27100 4.08800 24.07400
C  33.89900 1.10200 24.06300
C  33.24400 1.39700 22.73000
N  33.58700 2.81400 29.15500
C  32.60500 2.96100 28.14500
C  31.39200 3.56800 28.72900
C  31.70000 3.58200 30.13600
C  33.03100 3.15900 30.32500
C  30.11300 3.90600 28.00900
C  31.13500 3.86100 31.52900
O  29.98200 3.96500 31.90700
C  32.28400 3.60800 32.53500
C  32.48000 4.83000 33.27700
O  33.16400 5.83600 33.01500
O  31.67900 4.66700 34.47200
C  31.45600 5.89300 35.27800
H  39.15800 2.35100 31.98800
H  38.49800 2.16400 25.57500
H  32.02800 2.83400 26.22000
H  34.94500 3.87500 33.95200
H  37.21300 2.04900 33.92600
H  38.24800 3.91900 34.79400
H  36.76900 4.93400 34.37000
H  38.17000 4.69000 33.28000
H  35.36700 0.93700 34.27900
H  33.69900 1.42800 33.91600
H  35.05200 1.30500 36.38600
H  33.46300 1.90400 36.20000
H  41.93700 2.84300 29.95500
H  41.52200 1.09200 30.35100
H  41.13600 2.40700 31.35600
H  42.65200 2.45500 28.15600
H  42.91800 1.49100 26.58100
H  42.33700 0.67400 28.03100
H  36.35900 1.88500 23.99200
H  33.82000 3.22100 24.38600
H  36.67400 4.00900 23.06400
H  36.96800 4.49300 24.80800
H  35.40900 4.74200 23.93900
H  33.21700 0.57300 24.72800
H  34.68400 0.36600 23.88900
H  32.17700 1.36900 22.95200
H  33.42000 0.56100 22.05300
H  33.70000 2.31800 22.36600
H  29.65100 2.98700 27.64600
H  30.37300 4.65000 27.25600
H  29.36100 4.30300 28.69000
H  32.02600 2.89200 33.31600
H  31.38900 6.84400 34.75000
H  32.12300 5.89700 36.14000
H  30.48200 5.78900 35.75400

