158

Mg 45.75100 3.91200 47.08500
C  43.41800 6.63300 46.54600
C  43.17100 1.79400 46.54000
C  48.01000 1.63700 46.80200
C  48.37700 6.40700 47.13500
N  43.58300 4.23100 46.51600
C  42.81900 5.42300 46.41300
C  41.33900 5.04500 46.00200
C  41.26900 3.51500 46.19600
C  42.71400 3.11800 46.42400
C  40.23400 2.98800 47.23800
C  41.05500 5.48000 44.51400
C  40.34500 6.78000 44.21500
H  40.86900 7.61900 43.02200
N  45.59900 1.96400 46.87100
C  44.41100 1.23800 46.65500
C  44.74400 -0.12300 46.70700
C  46.18600 -0.20100 46.66200
C  46.67700 1.16000 46.82500
C  43.68400 -1.19300 46.55500
C  47.01500 -1.53900 46.60800
O  46.47800 -2.61300 46.56200
C  48.58700 -1.58100 46.70300
N  47.91200 4.03700 46.78300
C  48.61100 2.89000 46.74400
C  50.15500 3.12200 46.75300
C  50.29500 4.63200 46.92500
C  48.76100 5.08600 46.93200
C  50.94400 2.21500 47.68600
C  51.22700 5.36000 45.91400
C  52.52500 5.99400 46.35300
N  45.89800 6.05600 46.94000
C  47.06000 6.86800 47.00900
C  46.64700 8.32300 47.01000
C  45.18600 8.23600 46.91800
C  44.79100 6.88100 46.75700
C  47.46500 9.60500 46.82600
C  43.94300 9.02400 46.88800
O  43.75100 10.22600 47.00400
C  42.76200 8.00400 46.73500
C  41.92800 8.09100 47.99300
O  42.19800 7.58600 49.06300
O  40.86000 8.95400 47.78200
C  40.07300 9.34300 48.97800
H  42.33000 1.10700 46.42900
H  48.80900 0.92300 46.59300
H  49.20800 7.09700 47.29500
H  40.71200 5.67500 46.63400
H  40.87700 2.97300 45.33600
H  39.39400 2.71000 46.60200
H  39.96900 3.82800 47.88000
H  40.66100 2.13000 47.75800
H  40.59700 4.65900 43.96200
H  41.98800 5.52400 43.95200
H  40.31600 7.41400 45.10200
H  39.28600 6.64300 43.99600
H  43.78300 -1.62300 45.55800
H  42.62900 -0.92300 46.60900
H  43.82100 -1.93500 47.34100
H  48.84900 -0.95800 47.55900
H  48.97300 -1.19400 45.76000
H  48.87300 -2.61800 46.87500
H  50.50100 2.88000 45.74800
H  50.73400 4.83200 47.90200
H  50.37600 2.07600 48.60600
H  51.92000 2.67400 47.84300
H  51.13300 1.25400 47.20700
H  50.65100 6.18400 45.49300
H  51.40200 4.69700 45.06600
H  52.28400 7.04100 46.53500
H  53.32300 6.09300 45.61700
H  52.97700 5.49200 47.20800
H  48.33800 9.50300 47.47000
H  46.84100 10.37600 47.27800
H  47.72900 9.76200 45.78000
H  42.18400 8.25700 45.84600
H  40.68500 9.89000 49.69500
H  39.81800 8.44400 49.54100
H  39.19400 9.91200 48.67500
Mg 35.98200 48.16500 25.51900
C  36.40800 46.31000 28.61600
C  35.07300 50.86000 27.43300
C  35.19200 49.53700 22.66000
C  36.68000 45.08800 23.87500
N  35.72400 48.49300 27.77300
C  36.01500 47.66400 28.84000
C  35.86500 48.33000 30.18500
C  35.51800 49.87800 29.78800
C  35.41500 49.73800 28.25700
C  34.06300 50.27300 30.35000
C  37.18100 48.29400 31.01400
C  36.96300 47.67600 32.43700
H  35.64900 47.76600 33.29800
N  35.40800 50.05000 25.12400
C  35.04500 51.04400 26.02300
C  34.76000 52.24700 25.27100
C  34.79500 51.89500 23.88400
C  35.13600 50.37500 23.79400
C  34.39700 53.45400 25.99800
C  34.41400 52.73300 22.69100
O  34.52300 52.29000 21.58800
C  34.12500 54.25800 22.84700
N  35.98700 47.41700 23.63100
C  35.54400 48.20800 22.64800
C  35.50800 47.43300 21.32600
C  36.40500 46.20200 21.62100
C  36.36700 46.20000 23.11100
C  34.03500 46.96100 20.87000
C  37.88400 46.29800 21.08600
C  38.91300 47.11000 21.93100
N  36.41500 46.09100 26.04100
C  36.74800 45.04200 25.24500
C  37.02700 43.97800 26.06300
C  36.92300 44.39700 27.40400
C  36.46000 45.68600 27.33200
C  37.46000 42.61600 25.56900
C  37.11900 44.02700 28.81900
O  37.52500 42.98400 29.29600
C  36.62200 45.20900 29.64300
C  35.47100 44.86200 30.34200
O  34.36000 45.00400 29.91400
O  35.71800 44.23500 31.53800
C  34.49400 43.78900 32.23200
H  34.81000 51.71000 28.06600
H  34.91000 49.86900 21.65900
H  37.00200 44.19300 23.33800
H  34.98100 47.92000 30.67300
H  36.31500 50.55100 30.10400
H  34.11700 51.28600 30.74800
H  33.91600 49.67200 31.24700
H  33.19600 50.17500 29.69600
H  37.69800 49.25200 31.05900
H  37.85500 47.67700 30.41900
H  37.84900 47.97900 32.99400
H  37.12900 46.61300 32.26200
H  33.33000 53.62100 26.15200
H  34.75400 54.28600 25.39100
H  35.05800 53.67100 26.83700
H  33.65500 54.49400 21.89300
H  34.98600 54.91900 22.95500
H  33.36800 54.52100 23.58500
H  35.98100 48.08900 20.59600
H  36.04100 45.25300 21.22800
H  33.29000 47.45700 21.49200
H  33.87200 45.88400 20.81400
H  33.88500 47.34800 19.86200
H  37.78900 46.81900 20.13400
H  38.32200 45.34000 20.80700
H  39.15100 46.49700 22.80000
H  38.66000 48.13400 22.20700
H  39.76900 47.14100 21.25700
H  38.31200 42.19200 26.09900
H  37.72400 42.62800 24.51200
H  36.62000 41.94700 25.75500
H  37.42500 45.51800 30.31300
H  33.83600 43.21100 31.58400
H  33.95400 44.56900 32.76900
H  34.85600 43.15200 33.03900

