158

Mg 47.17000 44.43000 42.78800
C  43.75200 43.89600 42.17000
C  47.65200 41.10600 42.45800
C  50.40000 45.18300 43.01400
C  46.47100 47.95600 42.68100
N  45.85100 42.74400 42.14800
C  44.51700 42.70700 42.12400
C  43.86500 41.29000 42.09100
C  45.14300 40.47800 42.24900
C  46.29000 41.47400 42.25100
C  45.00600 39.46700 43.44900
C  43.09400 40.94600 40.72100
C  43.52800 41.57200 39.33100
H  43.20000 40.98200 37.94400
N  48.79300 43.27600 42.72800
C  48.78900 41.91200 42.67200
C  50.17100 41.46200 42.81000
C  50.98400 42.64100 42.78600
C  50.06600 43.79400 42.82600
C  50.61000 39.95700 42.84000
C  52.52800 42.64300 42.67900
O  53.22300 41.56100 42.70300
C  53.30800 43.89300 42.61500
N  48.26100 46.26200 42.69700
C  49.57300 46.26400 42.96900
C  49.98900 47.66800 43.38600
C  48.73300 48.52500 43.51200
C  47.73700 47.55200 43.03000
C  50.94800 47.61300 44.61900
C  48.81200 49.85400 42.69300
C  48.32700 51.08200 43.43700
N  45.45000 45.75500 42.48800
C  45.34300 47.11800 42.49300
C  43.97900 47.51200 42.17100
C  43.30900 46.27400 42.21000
C  44.21100 45.21000 42.34300
C  43.42400 48.92500 42.03000
C  41.97800 45.63500 42.11900
O  40.84500 46.13400 41.93700
C  42.17800 44.05900 42.15200
C  41.41000 43.69900 43.39900
O  40.31300 43.11900 43.44800
O  42.26400 43.77600 44.47500
C  41.90600 43.02600 45.70000
H  47.88400 40.04000 42.49600
H  51.43200 45.50200 43.17600
H  46.15200 48.99700 42.77000
H  43.16300 41.38700 42.91900
H  45.29300 39.87800 41.35100
H  45.06200 38.48500 42.97900
H  44.13900 39.67200 44.07700
H  45.83400 39.56800 44.15000
H  42.04800 41.24900 40.75800
H  43.07500 39.87000 40.55200
H  44.61600 41.58500 39.38500
H  43.30700 42.63200 39.20800
H  50.72200 39.37500 41.92500
H  49.84400 39.45400 43.43000
H  51.37300 39.70300 43.57500
H  52.70800 44.52600 41.96100
H  54.32700 43.82000 42.23300
H  53.39500 44.34900 43.60100
H  50.57000 48.13300 42.58900
H  48.47000 48.51600 44.56900
H  51.92800 47.25600 44.30300
H  50.62700 46.93500 45.41000
H  51.01800 48.60400 45.06600
H  48.17000 49.71900 41.82200
H  49.73900 50.20800 42.24200
H  47.53800 51.65500 42.95000
H  49.09900 51.80100 43.71100
H  47.84900 50.62800 44.30500
H  43.64300 49.12900 40.98200
H  43.98000 49.57800 42.70200
H  42.33900 48.96300 42.12200
H  41.62200 43.68900 41.29100
H  41.30300 43.67700 46.33300
H  42.70500 42.65600 46.34200
H  41.43500 42.07900 45.43600
Mg 26.06300 51.99500 25.87100
C  23.73500 52.96100 28.48400
C  28.23200 51.15000 28.28700
C  28.19300 51.30800 23.33500
C  23.74200 53.07700 23.41700
N  26.03200 52.30000 28.20800
C  24.98000 52.51700 29.04600
C  25.28300 52.18700 30.51900
C  26.70300 51.49800 30.41200
C  27.05600 51.67300 28.88700
C  27.78600 52.01600 31.36300
C  24.19600 51.16800 31.09600
C  23.18900 51.53900 32.11600
H  23.26900 50.93100 33.50200
N  28.00100 51.52400 25.82000
C  28.71900 51.09400 26.88700
C  30.01700 50.71500 26.46400
C  30.01400 50.68500 25.01300
C  28.69200 51.17600 24.64100
C  31.16600 50.38300 27.42300
C  31.06600 50.38600 23.94300
O  30.92800 50.46800 22.74300
C  32.42600 49.97900 24.44500
N  25.99500 52.30700 23.70800
C  27.03500 51.91300 22.92300
C  26.74900 52.32100 21.45600
C  25.19800 52.60900 21.43800
C  24.99300 52.72300 22.93200
C  27.72100 53.37000 20.83500
C  24.31900 51.51200 20.76700
C  23.18200 52.06800 19.87700
N  24.20300 52.88500 25.87400
C  23.33400 53.16200 24.80000
C  22.05300 53.57900 25.34300
C  22.21100 53.53700 26.73900
C  23.45300 53.08000 27.03400
C  20.90400 54.11000 24.55800
C  21.47600 53.86400 27.99900
O  20.34200 54.33000 28.17500
C  22.48200 53.55400 29.11000
C  22.72900 54.67300 29.96900
O  23.67900 55.42400 29.92900
O  21.76100 54.91700 30.87900
C  21.80700 56.20300 31.56500
H  28.90400 50.77900 29.06300
H  28.85800 51.01400 22.52000
H  22.96700 53.26600 22.67100
H  25.27500 53.08400 31.13800
H  26.68200 50.42200 30.58800
H  28.37700 51.18700 31.75200
H  27.39000 52.68600 32.12600
H  28.43700 52.64300 30.75300
H  24.66500 50.25600 31.46600
H  23.52500 50.85400 30.29700
H  22.16800 51.52100 31.73400
H  23.46900 52.56600 32.35100
H  30.97900 50.57100 28.48000
H  32.04500 50.97200 27.16000
H  31.43700 49.33300 27.31700
H  32.38700 49.30200 25.29800
H  32.93600 50.87400 24.80300
H  32.86800 49.45300 23.59900
H  26.91200 51.40000 20.89500
H  24.96200 53.59600 21.04000
H  28.51500 52.81300 20.33900
H  28.27700 53.90000 21.60900
H  27.31900 54.03400 20.07100
H  23.92400 50.84600 21.53300
H  25.02600 50.89200 20.21500
H  22.28900 51.58700 20.27600
H  23.24700 51.78100 18.82800
H  22.99300 53.13000 20.03100
H  20.80800 55.15200 24.86300
H  19.99800 53.56700 24.82700
H  21.13000 54.18500 23.49400
H  22.00900 52.78600 29.72300
H  22.59700 56.09500 32.30800
H  20.91300 56.52200 32.10100
H  22.28500 56.90300 30.88100

