158

Mg 15.96400 -1.92700 28.29000
C  15.21000 0.33300 30.77000
C  18.21000 -3.36100 30.48300
C  17.09700 -3.75100 25.76600
C  13.97400 -0.09400 26.06900
N  16.55100 -1.54200 30.44000
C  16.09400 -0.59000 31.27000
C  16.61600 -0.76600 32.69000
C  17.74700 -1.82500 32.53900
C  17.55500 -2.20300 31.03200
C  19.14300 -1.29500 33.00600
C  15.43800 -1.24200 33.64000
C  15.57500 -1.08400 35.19700
H  16.82100 -0.43100 35.75100
N  17.48300 -3.40500 28.17400
C  18.16700 -3.88300 29.16800
C  18.90500 -5.04300 28.63500
C  18.66200 -5.21400 27.23600
C  17.71400 -4.09400 26.98800
C  19.76500 -5.85100 29.54400
C  19.21700 -6.16400 26.27800
O  18.93400 -6.12300 25.09500
C  20.09700 -7.33400 26.74500
N  15.67000 -1.87800 26.21200
C  16.11100 -2.86300 25.38000
C  15.61400 -2.57100 23.88500
C  14.45000 -1.54300 24.06800
C  14.71600 -1.14400 25.51800
C  16.78700 -2.09200 22.97300
C  13.05900 -2.14500 23.76500
C  12.17800 -1.60000 22.64100
N  14.82300 -0.28100 28.33700
C  14.06500 0.38300 27.41700
C  13.52600 1.63400 27.93500
C  13.94600 1.56700 29.30200
C  14.68300 0.39900 29.49700
C  12.80100 2.71900 27.13600
C  13.81100 2.34300 30.55000
O  13.26400 3.38700 30.81600
C  14.60300 1.48200 31.60300
C  15.53900 2.34700 32.32100
O  16.67900 2.58800 31.97500
O  14.91000 2.92200 33.36900
C  15.63400 3.88900 34.12000
H  18.88500 -3.85500 31.18500
H  17.46700 -4.29600 24.89500
H  13.18100 0.36600 25.47500
H  16.88300 0.21700 33.07800
H  17.45400 -2.74100 33.05100
H  19.42200 -1.78800 33.93800
H  19.11900 -0.21600 33.15700
H  19.84200 -1.53400 32.20500
H  15.20600 -2.29600 33.49000
H  14.51100 -0.69200 33.47800
H  15.30400 -2.00600 35.71100
H  14.80400 -0.47900 35.67500
H  19.56800 -5.62500 30.59100
H  20.82800 -5.73700 29.32900
H  19.52600 -6.91300 29.48700
H  20.18400 -8.12400 25.99900
H  19.63000 -7.70200 27.65800
H  21.08600 -7.01800 27.07800
H  15.39700 -3.50900 23.37400
H  14.70700 -0.67900 23.45500
H  16.89400 -1.01900 23.13000
H  16.54900 -2.28800 21.92700
H  17.65700 -2.63000 23.35100
H  12.41100 -2.16300 24.64000
H  13.22700 -3.19100 23.50500
H  11.39300 -2.30800 22.37700
H  12.83300 -1.26600 21.83600
H  11.66100 -0.68400 22.92600
H  11.73900 2.47900 27.19700
H  13.09100 2.62400 26.08900
H  13.01600 3.70300 27.55200
H  13.81600 1.10700 32.25700
H  16.57600 3.58900 34.57900
H  15.00000 4.22500 34.94100
H  15.70200 4.84600 33.60300
Mg -13.06700 38.29000 42.08200
C  -11.19300 35.41900 40.90600
C  -11.01300 40.32000 40.11400
C  -15.18000 40.90000 42.82100
C  -15.31300 36.06900 43.55600
N  -11.39300 37.84400 40.57500
C  -10.65500 36.64800 40.45500
C  -9.34900 36.80800 39.67900
C  -9.30700 38.43700 39.52500
C  -10.62700 38.92300 40.12900
C  -8.11100 39.09100 40.27800
C  -9.22200 36.00800 38.35800
C  -8.01400 34.95000 38.39100
H  -7.20200 34.77400 37.02500
N  -13.13300 40.28000 41.55800
C  -12.16400 40.89800 40.79700
C  -12.47600 42.28900 40.76000
C  -13.61200 42.56300 41.59100
C  -14.04900 41.23400 42.00800
C  -11.71000 43.33600 39.93000
C  -14.09600 43.99300 41.86500
O  -13.65000 44.99500 41.27400
C  -15.23300 44.17800 42.85100
N  -15.07500 38.46800 43.02300
C  -15.70400 39.65700 43.19300
C  -17.03000 39.38900 43.87600
C  -17.05600 37.85500 44.09000
C  -15.73900 37.42100 43.50800
C  -17.26400 40.09600 45.21500
C  -18.30800 37.11600 43.49800
C  -19.42800 36.91600 44.58000
N  -13.36600 36.13800 42.17600
C  -14.26700 35.39600 42.86700
C  -13.92200 33.96600 42.75000
C  -12.77100 33.97200 42.00000
C  -12.42800 35.31900 41.70800
C  -14.65400 32.87100 43.44500
C  -11.76700 33.14500 41.44500
O  -11.76700 31.92700 41.44000
C  -10.61800 34.01600 40.83600
C  -9.25700 33.72900 41.46400
O  -8.50000 32.75900 41.13600
O  -9.00700 34.59700 42.44300
C  -7.76600 34.34900 43.20500
H  -10.34800 40.99300 39.56900
H  -15.87900 41.71600 43.01400
H  -16.05900 35.36000 43.92100
H  -8.51400 36.50500 40.31100
H  -9.31900 38.86100 38.52100
H  -7.32600 39.09200 39.52200
H  -7.85400 38.41900 41.09700
H  -8.38400 40.04900 40.72000
H  -9.11000 36.52000 37.40200
H  -10.14400 35.42700 38.33600
H  -8.36300 33.94200 38.61600
H  -7.27900 35.29000 39.12100
H  -11.21200 44.10100 40.52400
H  -12.51800 43.77400 39.34400
H  -11.04600 42.81100 39.24300
H  -16.23000 44.27400 42.42200
H  -15.00300 45.13900 43.31100
H  -15.06200 43.41400 43.61000
H  -17.90300 39.67400 43.28800
H  -16.94500 37.59300 45.14200
H  -16.38500 40.65400 45.53600
H  -17.65100 39.43900 45.99400
H  -18.04200 40.85600 45.13100
H  -18.06200 36.09600 43.20400
H  -18.71500 37.50400 42.56500
H  -19.15300 37.60500 45.37900
H  -19.42600 35.95000 45.08500
H  -20.42400 37.10300 44.18000
H  -14.27300 31.94400 43.01700
H  -15.71000 32.91100 43.17800
H  -14.55400 32.92600 44.52900
H  -10.69000 33.57400 39.84300
H  -7.76800 33.34200 43.62400
H  -7.79000 35.07100 44.02100
H  -6.83000 34.61600 42.71300

