158

Mg 47.50200 35.53300 27.63200
C  45.79000 33.79800 30.11900
C  47.52900 38.38900 29.57100
C  48.72500 37.38100 24.88400
C  46.87700 32.96500 25.40600
N  46.67500 36.00600 29.49700
C  46.23500 35.06500 30.45000
C  46.57500 35.54700 31.84400
C  46.47600 37.12600 31.57100
C  46.99800 37.23100 30.12800
C  45.06300 37.73600 31.72800
C  47.95700 34.99700 32.36300
C  48.15900 34.91900 33.87600
H  47.06800 35.54800 34.70500
N  48.11900 37.53400 27.33100
C  48.07200 38.55000 28.33800
C  48.84200 39.70500 27.76900
C  49.09200 39.49000 26.40200
C  48.61000 38.09300 26.14000
C  49.19100 40.91600 28.65100
C  49.81400 40.33100 25.37900
O  50.10700 39.89300 24.30100
C  50.31500 41.72200 25.71100
N  47.75200 35.22800 25.44100
C  48.30600 36.07300 24.54900
C  48.45200 35.47000 23.19200
C  48.05800 33.94700 23.53200
C  47.58400 33.99300 24.90600
C  47.59500 36.15800 22.09900
C  49.25300 32.89800 23.31200
C  49.10200 31.82500 22.20900
N  46.59000 33.78200 27.69200
C  46.39600 32.81000 26.73700
C  45.60600 31.69700 27.25000
C  45.33100 32.01300 28.62600
C  45.97600 33.28000 28.82600
C  45.10300 30.51900 26.47000
C  44.73400 31.60100 29.80500
O  44.03800 30.65200 30.02900
C  44.92600 32.79200 30.83200
C  45.40200 32.27800 32.14900
O  46.55400 32.14600 32.52200
O  44.32500 32.12300 32.97600
C  44.59500 31.74200 34.36300
H  47.59000 39.17000 30.33100
H  49.11200 37.94400 24.03200
H  46.75400 32.07000 24.79300
H  45.79800 35.14500 32.49400
H  47.22000 37.65000 32.17300
H  45.03900 38.49300 32.51300
H  44.42900 36.96900 32.17200
H  44.71200 38.10800 30.76600
H  48.71100 35.68800 31.98700
H  48.10100 33.97400 32.01300
H  49.10100 35.37500 34.18000
H  48.31400 33.87000 34.13100
H  49.39700 40.59300 29.67200
H  48.43300 41.70000 28.64800
H  50.06100 41.49200 28.33600
H  50.31900 42.31000 24.79300
H  51.28900 41.57400 26.17900
H  49.72400 42.26800 26.44600
H  49.48600 35.56100 22.85800
H  47.14800 33.65400 23.00900
H  47.13900 35.38500 21.48100
H  48.13500 36.74700 21.35700
H  46.76700 36.69600 22.56100
H  49.49400 32.31700 24.20200
H  50.09700 33.48500 22.95100
H  48.05900 31.64300 21.95200
H  49.46500 30.91000 22.67600
H  49.69100 32.01500 21.31100
H  44.37500 30.70200 25.67900
H  44.72400 29.71700 27.10300
H  45.99600 30.10400 26.00300
H  43.90600 33.14500 30.98300
H  43.67700 31.22800 34.64600
H  44.74700 32.63600 34.96800
H  45.48700 31.11600 34.40200
Mg 1.08100 43.29400 26.47600
C  3.30500 43.17300 29.14200
C  -1.36500 42.40300 28.64000
C  -0.89500 42.88600 23.72300
C  3.77400 43.75600 24.26400
N  0.95000 42.91200 28.70200
C  2.00000 42.91700 29.54700
C  1.63000 42.64200 31.02900
C  0.20400 42.13500 30.79300
C  -0.16700 42.55400 29.31900
C  -0.10200 40.71000 31.16000
C  1.62800 43.96500 31.87900
C  1.38200 43.93000 33.38400
H  1.11100 42.60100 34.09600
N  -0.87800 42.86500 26.20500
C  -1.69600 42.50800 27.24200
C  -3.01800 42.27300 26.69300
C  -2.92200 42.55100 25.24500
C  -1.51000 42.78600 25.00300
C  -4.10800 41.64100 27.48900
C  -3.99400 42.42900 24.13300
O  -3.81800 42.52300 22.89900
C  -5.46300 42.08600 24.56000
N  1.41900 43.23200 24.29400
C  0.45200 43.08000 23.33700
C  0.95000 43.26400 21.86500
C  2.40500 43.76100 22.13200
C  2.59200 43.56000 23.65200
C  0.81400 41.93600 20.98300
C  2.71200 45.26300 21.73700
C  4.02800 45.44700 20.92300
N  3.09900 43.57600 26.62200
C  4.07900 43.76500 25.69000
C  5.32200 43.91300 26.34800
C  5.08400 43.63800 27.63200
C  3.70000 43.47400 27.80900
C  6.63200 44.14900 25.65400
C  5.77200 43.49000 28.92700
O  6.93100 43.48600 29.19400
C  4.58900 43.16200 29.89800
C  4.85200 41.91300 30.61200
O  5.20500 40.92800 30.04100
O  4.66300 42.10300 31.97100
C  5.21300 41.21000 33.02200
H  -2.14100 41.97600 29.27700
H  -1.61500 42.84500 22.90300
H  4.67400 44.04100 23.71500
H  2.23400 41.88200 31.52400
H  -0.46300 42.79800 31.34500
H  0.73000 40.20900 31.65500
H  -0.27000 40.18400 30.22000
H  -1.05000 40.59900 31.68600
H  0.91800 44.68700 31.47500
H  2.63300 44.36500 31.74600
H  0.44300 44.48000 33.45700
H  2.14600 44.54400 33.86000
H  -5.07400 41.56800 26.98900
H  -4.19000 42.22300 28.40700
H  -3.84700 40.61600 27.75300
H  -5.90400 42.60600 25.41100
H  -5.37300 41.06900 24.93900
H  -6.15000 42.05900 23.71400
H  0.33600 44.07600 21.47500
H  3.09800 43.03100 21.71500
H  0.80900 41.09800 21.68000
H  1.76300 41.86900 20.45200
H  -0.09000 41.98900 20.37600
H  2.75400 45.88200 22.63300
H  1.93800 45.50300 21.00800
H  4.48800 44.46600 20.79900
H  4.53200 46.28600 21.40200
H  3.83300 45.86400 19.93500
H  7.34300 44.42700 26.43200
H  6.60300 44.96600 24.93300
H  7.05300 43.24400 25.21500
H  4.35800 43.98300 30.57600
H  4.43200 40.67400 33.56100
H  5.70900 41.80700 33.78700
H  5.92000 40.54600 32.52500

