158

Mg 41.12800 7.91600 28.75700
C  42.93900 9.20300 31.44300
C  38.74500 6.75100 31.02200
C  39.52000 6.39800 26.19300
C  43.75900 8.84700 26.68000
N  40.94800 7.86300 31.02200
C  41.78500 8.57100 31.92200
C  41.26200 8.50600 33.32000
C  39.94500 7.67600 33.21000
C  39.90900 7.33600 31.68400
C  39.82800 6.43200 34.16500
C  41.24500 9.89900 34.03400
C  40.45400 10.04300 35.32800
H  41.36400 10.00000 36.63900
N  39.31400 6.84100 28.59100
C  38.46600 6.49700 29.66500
C  37.35400 5.77800 29.09000
C  37.47500 5.72700 27.64900
C  38.86200 6.25200 27.40800
C  36.24300 5.20900 29.85900
C  36.46200 5.42200 26.55700
O  36.64000 5.61600 25.40600
C  35.03800 5.03600 26.93800
N  41.58100 7.66400 26.74300
C  40.81600 6.93500 25.89800
C  41.37200 6.95200 24.43800
C  42.58600 7.96800 24.60400
C  42.61200 8.28600 26.08300
C  41.69700 5.55600 23.91200
C  42.38200 9.29700 23.80700
C  40.99900 10.00200 23.80200
N  43.01300 8.77800 28.94000
C  43.94200 9.12900 28.05100
C  45.02700 9.77600 28.64100
C  44.60300 9.88800 29.94900
C  43.42800 9.23700 30.10800
C  46.10700 10.47800 27.81000
C  44.91500 10.54300 31.18200
O  45.78700 11.43600 31.33400
C  43.83200 10.07000 32.22100
C  44.52700 9.24300 33.31800
O  44.73400 8.04500 33.44100
O  44.87900 10.14700 34.33800
C  45.72900 9.61000 35.38400
H  37.99200 6.52300 31.77900
H  38.98100 6.01300 25.32500
H  44.42500 9.35100 25.97600
H  42.04900 7.87200 33.72700
H  39.13000 8.38300 33.36400
H  39.61600 5.50800 33.62800
H  38.87300 6.61100 34.65900
H  40.57800 6.36900 34.95400
H  41.04200 10.71200 33.33700
H  42.29100 10.00600 34.32400
H  39.87000 9.13800 35.49400
H  39.83900 10.94300 35.32100
H  36.29600 5.29300 30.94500
H  36.07800 4.18700 29.51800
H  35.32600 5.67900 29.50600
H  34.98700 4.30400 27.74400
H  34.49500 4.74500 26.03800
H  34.46000 5.83300 27.40500
H  40.50000 7.32800 23.90300
H  43.54200 7.53600 24.31100
H  41.75900 4.94900 24.81500
H  42.70600 5.62600 23.50500
H  40.84700 5.28000 23.28900
H  42.59100 9.06700 22.76300
H  43.11900 9.97300 24.24200
H  41.25900 10.97800 24.21000
H  40.26600 9.57600 24.48700
H  40.55000 10.13300 22.81700
H  46.88600 10.90200 28.44500
H  45.49200 11.27500 27.39300
H  46.61900 10.02700 26.96000
H  43.40600 10.94300 32.71500
H  45.05200 9.52700 36.23400
H  46.56100 10.22900 35.72000
H  46.14400 8.60800 35.28200
Mg -0.20300 43.46700 24.72800
C  1.98900 43.10100 27.49000
C  -2.77600 42.72600 26.83100
C  -2.20900 43.57400 21.96500
C  2.65000 43.73500 22.59400
N  -0.38900 43.00500 26.87200
C  0.62400 43.04500 27.76100
C  0.06000 42.86600 29.19800
C  -1.43800 42.61900 29.05300
C  -1.56000 42.94100 27.53000
C  -1.88700 41.19200 29.55500
C  0.39100 44.03500 30.15500
C  0.42800 43.76100 31.68700
H  0.32900 42.33900 32.24600
N  -2.19300 43.09500 24.44500
C  -3.10100 42.83300 25.44000
C  -4.47300 42.73500 24.81900
C  -4.25100 42.87300 23.41800
C  -2.84700 43.26800 23.19700
C  -5.60700 42.25900 25.65000
C  -5.21800 42.53600 22.27500
O  -4.87600 42.64100 21.08300
C  -6.58800 42.16600 22.49000
N  0.18500 43.53400 22.59200
C  -0.80700 43.64100 21.64200
C  -0.30800 43.71500 20.13500
C  1.20300 43.93000 20.43400
C  1.39800 43.77500 21.96200
C  -0.67200 42.39000 19.50800
C  1.83400 45.17800 19.81800
C  1.62700 46.49700 20.61000
N  1.86900 43.46400 24.97500
C  2.89500 43.67200 24.05700
C  4.16500 43.61700 24.71900
C  3.84800 43.42400 26.06800
C  2.43500 43.30800 26.16800
C  5.51300 43.81500 24.09300
C  4.44200 43.09900 27.31000
O  5.57300 42.96400 27.62500
C  3.18400 42.91900 28.30500
C  3.41300 41.66400 29.13900
O  3.38800 40.52300 28.74700
O  3.64800 42.08300 30.43300
C  4.22500 41.07200 31.36400
H  -3.62700 42.45200 27.45800
H  -2.84300 43.66400 21.08000
H  3.57300 43.60300 22.02600
H  0.51800 41.98100 29.63900
H  -1.91700 43.42400 29.61200
H  -1.87400 40.37800 28.83100
H  -2.91300 41.24500 29.92100
H  -1.15100 40.78600 30.24900
H  -0.26400 44.87500 29.92400
H  1.36400 44.40100 29.82800
H  -0.42900 44.38200 31.94600
H  1.37600 44.16200 32.04600
H  -6.12000 43.15800 25.98900
H  -5.23500 41.60400 26.43800
H  -6.20700 41.62300 24.99900
H  -6.69500 41.15400 22.88100
H  -7.12500 42.28500 21.54900
H  -7.00100 42.84100 23.24000
H  -0.83000 44.58400 19.73300
H  1.79200 43.12500 19.99400
H  -0.39400 41.54900 20.14300
H  -0.11100 42.33900 18.57400
H  -1.75100 42.34200 19.36200
H  1.37500 45.40300 18.85500
H  2.87900 44.97500 19.58300
H  2.55500 46.81400 21.08500
H  0.90500 46.27100 21.39500
H  1.16900 47.26300 19.98400
H  5.65900 43.44900 23.07700
H  6.18500 43.20900 24.70000
H  5.73700 44.87200 24.23700
H  3.22000 43.77200 28.98300
H  3.57300 40.20700 31.47900
H  4.36400 41.51900 32.34900
H  5.17900 40.73200 30.95900

