158

Mg 41.28900 40.82800 26.44000
C  40.68600 43.16100 29.03300
C  42.24900 38.61000 29.02400
C  42.21000 38.76000 24.04000
C  40.62600 43.33600 24.14800
N  41.44100 40.88500 28.81500
C  41.11000 41.95500 29.59400
C  40.99900 41.45200 31.05400
C  41.81200 40.11100 31.00100
C  41.88200 39.82300 29.54100
C  43.27000 40.11500 31.62800
C  39.49800 41.48200 31.50400
C  39.24800 42.47600 32.67400
H  39.56600 41.95500 34.05300
N  42.02100 38.91300 26.50700
C  42.40900 38.17100 27.65300
C  43.03600 36.88400 27.28800
C  42.98700 36.90900 25.88600
C  42.43100 38.26500 25.38500
C  43.48700 35.85300 28.24300
C  43.30300 35.77400 24.93900
O  43.32700 35.83000 23.72500
C  43.73100 34.39700 25.49900
N  41.29900 41.00600 24.38500
C  41.68700 39.98600 23.57200
C  41.49500 40.28700 22.15600
C  40.74500 41.65400 22.19000
C  40.91700 42.05400 23.62400
C  42.82400 40.19700 21.34200
C  39.27200 41.51500 21.74500
C  38.30500 40.64200 22.67700
N  40.78100 42.81400 26.55600
C  40.55900 43.77800 25.48500
C  40.24100 45.07000 26.02000
C  40.20500 44.82400 27.46300
C  40.62700 43.46800 27.69800
C  40.08300 46.32200 25.21600
C  40.02700 45.56500 28.66600
O  39.67500 46.70600 29.00500
C  40.22500 44.45900 29.80500
C  41.21600 45.04100 30.66100
O  42.44800 44.86300 30.57300
O  40.66700 45.81100 31.67400
C  41.54700 46.35700 32.71000
H  42.58300 37.86200 29.74600
H  42.50600 38.04200 23.27300
H  40.28900 44.16000 23.51700
H  41.55500 42.16900 31.65900
H  41.21800 39.37500 31.54200
H  43.97400 39.75600 30.87700
H  43.22900 39.43600 32.48000
H  43.47800 41.10000 32.04500
H  39.20400 40.50400 31.88700
H  38.82300 41.68900 30.67400
H  38.22500 42.85200 32.70200
H  39.85600 43.34700 32.42900
H  42.72800 35.09100 28.41400
H  43.64100 36.29300 29.22800
H  44.45600 35.48900 27.90000
H  44.68700 34.65800 25.95400
H  43.68700 33.65600 24.70000
H  43.10700 34.06500 26.32900
H  40.82000 39.53900 21.74000
H  41.20600 42.43900 21.58900
H  42.77900 39.36100 20.64500
H  43.60600 40.13300 22.09900
H  42.96200 41.14300 20.81700
H  39.22600 41.05600 20.75800
H  38.85600 42.52200 21.71300
H  38.25100 39.59600 22.37400
H  37.37200 41.20500 22.68900
H  38.72300 40.68800 23.68200
H  39.15900 46.59700 24.70800
H  40.78800 46.35600 24.38500
H  40.37100 47.18300 25.81800
H  39.24300 44.38600 30.27400
H  41.61500 45.56300 33.45300
H  41.22400 47.31300 33.12400
H  42.54000 46.54500 32.30200
Mg -0.72600 34.58700 26.73500
C  -2.58600 32.86900 29.28900
C  0.26100 36.78000 29.24100
C  0.41000 36.62400 24.41600
C  -2.48100 32.64500 24.42800
N  -0.98700 34.62800 28.98500
C  -1.74800 33.83500 29.77100
C  -1.57600 34.06900 31.23100
C  -0.74900 35.41200 31.29700
C  -0.36200 35.59200 29.81100
C  -1.31800 36.61200 31.97000
C  -0.79400 32.87200 31.97100
C  -1.29900 32.49500 33.28200
H  -0.19400 32.25400 34.43000
N  0.32000 36.42700 26.77300
C  0.64700 37.11100 27.90200
C  1.45300 38.30200 27.46300
C  1.46800 38.32400 26.06500
C  0.77600 37.05200 25.71500
C  2.03000 39.19400 28.54000
C  2.05200 39.37500 25.04700
O  2.10800 39.22800 23.88200
C  2.50400 40.60000 25.63300
N  -1.33000 34.83400 24.65800
C  -0.50900 35.66400 23.91600
C  -0.64200 35.35300 22.38400
C  -1.19300 33.88900 22.51600
C  -1.76500 33.75200 23.95600
C  -1.49000 36.31900 21.58600
C  -0.24700 32.69000 22.08600
C  0.73500 32.07600 23.17400
N  -2.23900 33.17600 26.76000
C  -2.76400 32.39800 25.75700
C  -3.56900 31.31100 26.26300
C  -3.55900 31.51900 27.66100
C  -2.72400 32.61300 27.90700
C  -4.43900 30.28400 25.56000
C  -4.13200 31.01200 28.86300
O  -4.93000 30.15500 29.11000
C  -3.43100 31.84600 30.01600
C  -4.55400 32.37200 30.79400
O  -5.18000 33.40200 30.54100
O  -4.85300 31.50000 31.84900
C  -5.77500 32.06100 32.90800
H  0.58600 37.50800 29.98700
H  0.84400 37.15700 23.56800
H  -2.81300 32.02400 23.59300
H  -2.50600 34.23700 31.77400
H  0.18000 35.34400 31.86300
H  -2.04400 36.41000 32.75700
H  -1.79800 37.34100 31.31600
H  -0.48500 37.09000 32.48600
H  0.25600 33.13700 32.09400
H  -0.75600 31.96500 31.36800
H  -1.68500 31.49500 33.08600
H  -2.05300 33.18600 33.65800
H  2.54100 40.08600 28.17700
H  2.74500 38.68000 29.18300
H  1.23600 39.70800 29.08200
H  3.47800 40.39300 26.07700
H  1.87800 41.07700 26.38700
H  2.59300 41.29700 24.80000
H  0.38300 35.48600 22.03600
H  -2.02900 33.78300 21.82500
H  -1.92800 37.06600 22.24900
H  -2.32900 35.77900 21.14800
H  -1.00900 36.83900 20.75700
H  0.28100 33.20500 21.28300
H  -0.78300 31.87700 21.59700
H  0.47800 32.48600 24.15100
H  1.79200 32.26800 22.99000
H  0.63300 30.99400 23.26100
H  -5.45000 30.67100 25.68500
H  -4.36300 29.29200 26.00500
H  -4.20700 30.28800 24.49500
H  -2.98200 31.13000 30.70500
H  -6.64900 32.60400 32.54700
H  -5.09700 32.68000 33.49400
H  -6.06600 31.23900 33.56200

