158

Mg 8.76700 3.97800 28.02000
C  10.15500 2.18700 30.81300
C  6.93900 5.81300 30.34400
C  7.24600 5.44500 25.57600
C  10.16100 1.56300 25.94800
N  8.58600 3.97600 30.37000
C  9.39000 3.21800 31.23800
C  9.18100 3.74800 32.64800
C  7.98500 4.78400 32.45600
C  7.75500 4.83400 30.96000
C  6.67900 4.29800 33.15700
C  10.47000 4.52300 33.23600
C  10.34100 5.20300 34.60000
H  11.14800 4.57500 35.68100
N  7.33900 5.54300 27.96400
C  6.70800 6.13900 28.98200
C  5.84900 7.12500 28.51700
C  5.93700 7.06400 27.05700
C  6.89000 6.02700 26.79600
C  5.13300 8.04900 29.43900
C  5.17400 7.91300 25.98700
O  5.32000 7.73100 24.76700
C  4.29500 9.02000 26.41200
N  8.59100 3.44600 26.04200
C  7.99500 4.30000 25.21400
C  8.37200 3.97500 23.69800
C  9.41800 2.75800 23.84900
C  9.42200 2.61500 25.39300
C  7.10300 3.69600 22.81400
C  10.88300 3.13800 23.35200
C  11.51400 2.25400 22.15000
N  9.92600 2.23900 28.29900
C  10.37100 1.46800 27.29600
C  11.32500 0.47700 27.83700
C  11.17500 0.68800 29.27200
C  10.31400 1.78300 29.47300
C  12.10700 -0.62000 27.12400
C  11.67200 0.27300 30.52400
O  12.34300 -0.67300 30.87100
C  11.06300 1.26600 31.54700
C  10.33000 0.55800 32.70800
O  9.36600 -0.19800 32.68200
O  11.03200 0.90800 33.83500
C  10.42500 0.41700 35.06500
H  6.53900 6.43000 31.15100
H  6.85700 6.00300 24.72300
H  10.69300 0.78700 25.39400
H  8.88500 2.93100 33.30500
H  8.18000 5.77100 32.87400
H  6.66800 4.71700 34.16300
H  6.79000 3.21600 33.23400
H  5.74100 4.48400 32.63400
H  10.63800 5.32400 32.51600
H  11.31500 3.83500 33.24400
H  9.31300 5.33900 34.93500
H  10.75100 6.19700 34.42300
H  4.08100 7.86000 29.22600
H  5.40300 9.10300 29.37600
H  5.16400 7.78300 30.49500
H  3.91600 9.44500 25.48200
H  4.96800 9.74200 26.87400
H  3.47800 8.70300 27.06000
H  8.84500 4.87500 23.30400
H  8.89800 1.89200 23.43800
H  6.16700 3.76900 23.36800
H  7.19400 2.75700 22.26900
H  7.11600 4.40100 21.98300
H  11.64800 3.00400 24.11700
H  10.95200 4.17700 23.03100
H  10.89000 1.36400 22.06900
H  12.53600 1.90700 22.30200
H  11.62400 2.81900 21.22500
H  13.06000 -0.14000 26.90100
H  11.66100 -0.84300 26.15500
H  12.24700 -1.50200 27.74700
H  11.88600 1.85800 31.94800
H  9.34700 0.47400 35.21100
H  10.82900 0.99800 35.89500
H  10.79100 -0.60300 35.17700
Mg 25.86900 1.44100 29.10000
C  27.73300 1.03500 31.99800
C  23.00900 1.27900 31.09900
C  24.05500 1.60300 26.31400
C  28.73500 0.50000 27.19700
N  25.48800 1.16000 31.34500
C  26.37800 1.23100 32.34500
C  25.68300 1.31500 33.73300
C  24.17200 1.52200 33.38200
C  24.20400 1.22400 31.85000
C  23.30300 0.74000 34.37900
C  26.32500 2.46100 34.54000
C  25.49500 2.97400 35.76200
H  25.87400 2.63800 37.20900
N  23.83500 1.57200 28.78600
C  22.76700 1.39400 29.71200
C  21.57500 1.60700 29.05800
C  21.81000 1.75100 27.61100
C  23.27100 1.62300 27.48600
C  20.26300 1.65300 29.75600
C  20.86900 1.93800 26.50200
O  21.21600 1.80800 25.33700
C  19.40000 2.13300 26.77800
N  26.33800 0.95200 27.01200
C  25.44800 1.36100 26.02600
C  26.11700 1.49100 24.65800
C  27.56000 1.11500 24.99200
C  27.58900 0.80300 26.47500
C  25.49000 0.76900 23.43700
C  28.56800 2.20700 24.64800
C  30.03200 1.77100 24.20300
N  27.81100 1.01800 29.41000
C  28.83200 0.58800 28.58200
C  30.02700 0.42100 29.34200
C  29.67700 0.68800 30.60700
C  28.29600 0.93200 30.64600
C  31.34000 -0.05500 28.81500
C  30.20400 0.79100 31.95400
O  31.36900 0.62200 32.32000
C  28.97700 0.96400 32.89000
C  28.87000 -0.24600 33.81400
O  28.71900 -1.40800 33.46000
O  28.89900 0.19800 35.11300
C  28.45700 -0.81300 36.11300
H  22.16600 1.42300 31.77900
H  23.46600 1.79300 25.41500
H  29.62500 0.40600 26.57000
H  25.90700 0.40500 34.29000
H  23.74300 2.51300 33.53500
H  22.70000 0.05800 33.78000
H  22.71000 1.47400 34.92400
H  23.91900 0.02500 34.92500
H  26.50700 3.35700 33.94600
H  27.28900 2.21800 34.98700
H  24.46400 2.63200 35.67100
H  25.55800 4.05800 35.66100
H  19.77200 2.61700 29.62600
H  20.38700 1.63500 30.83800
H  19.64100 0.82200 29.42100
H  18.91800 1.21700 27.11800
H  18.91400 2.21500 25.80600
H  19.20200 2.95500 27.46600
H  26.05400 2.51900 24.29900
H  27.79400 0.19300 24.46100
H  24.74800 0.00100 23.65700
H  26.27800 0.41100 22.77400
H  24.79000 1.37000 22.85700
H  28.84100 2.85200 25.48300
H  28.22600 2.81700 23.81200
H  30.35100 2.43400 23.39900
H  29.89600 0.74100 23.87300
H  30.71500 1.83400 25.05100
H  31.93700 -0.40000 29.65900
H  31.85200 0.73200 28.26100
H  31.27300 -0.93400 28.17400
H  29.07400 1.82100 33.55700
H  28.97900 -1.76700 36.03900
H  27.38400 -1.00700 36.11000
H  28.80500 -0.36500 37.04400

