158

Mg 16.50400 51.66700 24.82200
C  18.01300 50.49000 27.70900
C  13.74000 52.60000 26.64500
C  14.80300 51.92500 21.94100
C  19.00000 50.03000 23.04100
N  15.90500 51.40400 26.99400
C  16.78400 51.07000 28.02600
C  16.17200 51.42700 29.37700
C  14.75800 51.93700 29.05800
C  14.75800 52.00200 27.47800
C  13.48500 51.15600 29.66500
C  17.12600 52.40100 30.13400
C  17.31900 52.30800 31.66100
H  16.53100 51.30700 32.50000
N  14.53400 52.26300 24.32900
C  13.53900 52.62100 25.25400
C  12.38900 52.95200 24.54400
C  12.64400 52.74200 23.16400
C  13.99300 52.28400 23.02400
C  11.12800 53.38200 25.26900
C  11.68800 52.91700 22.01700
O  12.05600 52.66700 20.86500
C  10.36400 53.59500 22.30100
N  16.83100 50.94900 22.80500
C  16.01100 51.34300 21.76800
C  16.58800 51.02300 20.40200
C  17.96600 50.53800 20.75200
C  17.98900 50.53700 22.25200
C  15.64000 50.05700 19.55500
C  19.22100 51.13900 20.06100
C  19.63500 52.55600 20.49800
N  18.19600 50.69700 25.24900
C  19.08100 50.06700 24.44200
C  20.12300 49.35300 25.11300
C  19.74000 49.50900 26.43200
C  18.61800 50.34200 26.47700
C  21.35500 48.77600 24.62500
C  20.04300 49.15800 27.80000
O  20.94900 48.52900 28.31300
C  18.94000 49.81500 28.69100
C  18.31300 48.67900 29.44700
O  17.27600 48.13400 29.22400
O  19.16600 48.31200 30.48700
C  18.83500 47.11400 31.29100
H  12.95900 53.03000 27.27500
H  14.31000 52.10000 20.98200
H  19.85900 49.54400 22.57500
H  16.02500 50.50600 29.94000
H  14.58100 52.93800 29.45000
H  12.82700 51.95900 29.99700
H  13.69100 50.41200 30.43500
H  13.00500 50.63100 28.83900
H  16.85300 53.40600 29.81300
H  18.12600 52.25700 29.72600
H  17.08300 53.29600 32.05600
H  18.35700 52.30900 31.99500
H  10.24700 52.89300 24.85400
H  11.12800 54.45600 25.08000
H  11.13700 53.07100 26.31300
H  10.52700 54.42000 22.99500
H  9.68700 52.81000 22.63900
H  9.92900 54.04900 21.41100
H  16.74700 51.96300 19.87300
H  17.87200 49.52200 20.36900
H  15.00500 50.49600 18.78500
H  14.87300 49.60800 20.18600
H  16.16500 49.33300 18.93200
H  19.05000 51.17900 18.98500
H  20.10600 50.54400 20.28300
H  19.67300 53.20700 19.62500
H  20.64100 52.45700 20.90600
H  18.91200 52.95900 21.20700
H  21.20600 48.10500 23.77900
H  21.99600 48.29200 25.36100
H  21.97300 49.51600 24.11600
H  19.32700 50.44900 29.48900
H  18.44900 46.26400 30.72700
H  18.13000 47.55300 31.99700
H  19.72700 46.83700 31.85200
Mg -0.92900 44.06100 26.09300
C  1.48000 43.39000 28.53000
C  -3.35800 43.36200 28.53100
C  -3.19200 43.55800 23.76700
C  1.56900 44.18200 23.61900
N  -0.89100 43.33800 28.28200
C  0.21000 43.46200 29.10200
C  -0.04700 43.21900 30.57900
C  -1.60900 42.95500 30.49800
C  -2.04000 43.34400 29.00700
C  -2.11300 41.55900 30.99000
C  0.42600 44.45500 31.42500
C  0.77000 44.07400 32.91600
H  0.18000 42.71600 33.37900
N  -3.08200 43.64800 26.13900
C  -3.90200 43.59400 27.22400
C  -5.24300 43.56600 26.77600
C  -5.19400 43.34400 25.40500
C  -3.71000 43.43300 25.06200
C  -6.41900 43.61900 27.74100
C  -6.31600 43.18600 24.50800
O  -6.15900 43.10000 23.35000
C  -7.75300 43.15900 25.04400
N  -0.87000 44.16400 24.01800
C  -1.92800 43.78700 23.32300
C  -1.70400 43.93700 21.76000
C  -0.18100 44.24600 21.74600
C  0.24900 44.20200 23.22600
C  -2.03000 42.64700 20.86900
C  0.16000 45.63200 21.09700
C  0.05200 46.91200 21.94800
N  1.13000 44.05400 26.06000
C  2.06800 44.07200 24.98300
C  3.39100 43.89100 25.51400
C  3.23300 43.68400 26.92900
C  1.81600 43.76700 27.19800
C  4.63500 44.02400 24.66500
C  3.89400 43.39300 28.12800
O  5.08000 43.22400 28.43100
C  2.78300 43.14500 29.16700
C  2.99500 41.84400 29.83800
O  2.78900 40.77900 29.32700
O  3.56200 42.04400 31.09600
C  3.90600 40.86900 31.91400
H  -4.15000 43.11300 29.24000
H  -3.87900 43.19200 23.00100
H  2.24400 44.22600 22.76200
H  0.41600 42.25700 30.79900
H  -2.13300 43.66700 31.13400
H  -2.59100 40.97400 30.20300
H  -2.83900 41.72300 31.78600
H  -1.24100 41.05300 31.40300
H  -0.41400 45.14000 31.53900
H  1.31000 44.92700 30.99500
H  0.38400 44.84900 33.57700
H  1.85700 44.15400 32.93400
H  -6.95000 42.66800 27.78300
H  -6.98300 44.42000 27.26200
H  -6.07900 44.06600 28.67500
H  -8.52500 42.92900 24.30900
H  -8.09200 44.12700 25.41200
H  -7.82800 42.33000 25.74800
H  -2.39400 44.68500 21.37000
H  0.37600 43.52200 21.15200
H  -2.08600 41.78800 21.53800
H  -1.32700 42.45100 20.06000
H  -3.01800 42.83700 20.45000
H  -0.35000 45.74500 20.14000
H  1.21500 45.55500 20.83500
H  -0.33100 47.77300 21.39900
H  1.05100 47.24600 22.23000
H  -0.52200 46.81700 22.86900
H  5.47900 44.35900 25.26800
H  4.37500 44.70300 23.85300
H  4.85700 43.00000 24.36800
H  2.92200 43.84500 29.99100
H  3.43800 40.66000 32.87600
H  4.92000 40.94300 32.30700
H  3.72400 39.98700 31.30000

