158

Mg 41.85800 41.52500 26.04800
C  41.58800 43.85100 28.67000
C  42.67900 39.14800 28.26700
C  43.09500 39.72800 23.41400
C  41.33800 44.26600 23.86600
N  42.12300 41.52100 28.27300
C  41.76600 42.53600 29.14800
C  41.71900 41.99600 30.55600
C  42.04100 40.43500 30.38900
C  42.28900 40.37500 28.86100
C  43.26500 39.94400 31.28500
C  40.29500 42.26100 31.21000
C  40.09500 41.73200 32.60800
H  39.73800 42.91600 33.56700
N  42.61300 39.54900 25.82400
C  42.88700 38.73700 26.86200
C  43.42300 37.50900 26.36700
C  43.53200 37.65900 24.94900
C  43.09300 39.03800 24.61600
C  43.80500 36.34000 27.27900
C  44.15100 36.73900 23.90400
O  44.14500 37.02400 22.73900
C  44.80100 35.46500 24.42900
N  42.17600 41.95300 23.89900
C  42.55900 40.99200 23.07300
C  42.18400 41.46500 21.55500
C  41.34300 42.78900 21.79000
C  41.57800 42.99600 23.28200
C  43.47600 41.67200 20.71400
C  39.85500 42.49500 21.43200
C  39.02000 41.42500 22.25600
N  41.41700 43.53400 26.19300
C  41.21100 44.55300 25.24100
C  40.80600 45.75000 25.81100
C  41.01500 45.56000 27.15200
C  41.44300 44.22200 27.32300
C  40.34400 47.02600 25.08600
C  40.83600 46.19200 28.42900
O  40.39800 47.27100 28.79400
C  41.17400 45.09800 29.48300
C  42.16300 45.59000 30.59500
O  43.36700 45.78100 30.41400
O  41.54700 45.75500 31.81600
C  42.39200 45.96200 32.96200
H  42.86200 38.30000 28.93100
H  43.49600 39.19800 22.54800
H  41.03700 44.97100 23.08800
H  42.41800 42.56500 31.17000
H  41.18400 39.84900 30.72000
H  43.14900 38.93000 31.66500
H  43.41800 40.65600 32.09600
H  44.09700 40.01800 30.58400
H  39.51800 41.95800 30.50700
H  40.12800 43.33300 31.31500
H  41.06500 41.40800 32.98700
H  39.31400 40.99400 32.79200
H  43.41900 36.43400 28.29400
H  44.89300 36.29100 27.31400
H  43.45600 35.34000 27.02300
H  44.01000 34.80500 24.78400
H  45.36300 35.64800 25.34500
H  45.43000 35.07700 23.62800
H  41.47700 40.78800 21.07600
H  41.62900 43.65100 21.18800
H  43.35200 41.39300 19.66800
H  44.31400 41.11600 21.13500
H  43.80500 42.70000 20.86600
H  39.77900 42.16800 20.39500
H  39.50900 43.52600 21.50700
H  38.13000 41.93700 22.62100
H  39.61800 40.99100 23.05700
H  38.67000 40.62800 21.60000
H  41.12200 47.71400 24.75700
H  39.74500 47.58200 25.80800
H  39.81500 46.71300 24.18600
H  40.15900 44.97700 29.86100
H  42.34500 45.02700 33.51900
H  42.00900 46.73500 33.62900
H  43.38100 46.29600 32.64900
Mg -1.37300 34.64100 26.79800
C  -3.14500 33.06700 29.19900
C  -0.42600 37.06300 29.10700
C  -0.45600 36.70700 24.27600
C  -2.66900 32.28700 24.49700
N  -1.80000 35.05600 28.87500
C  -2.45300 34.14800 29.69500
C  -2.30000 34.54300 31.20600
C  -1.66000 35.92500 31.13500
C  -1.28300 36.00600 29.63900
C  -2.62400 37.14900 31.60000
C  -1.44200 33.50200 32.01000
C  -2.21700 32.73200 33.10800
H  -1.34400 32.62900 34.47200
N  -0.49500 36.55500 26.75300
C  -0.05000 37.34900 27.76700
C  0.64100 38.42400 27.26500
C  0.61300 38.45300 25.84200
C  -0.14000 37.16900 25.54000
C  1.38100 39.37600 28.25200
C  1.05700 39.45600 24.84300
O  0.99700 39.40900 23.62100
C  1.70400 40.65700 25.41100
N  -1.51900 34.52700 24.71000
C  -0.98500 35.44600 23.82600
C  -1.05600 34.96600 22.32600
C  -1.57600 33.42900 22.48100
C  -2.03200 33.41100 23.97200
C  -1.99900 35.98700 21.52100
C  -0.56600 32.29500 22.05500
C  0.50100 31.95600 23.02100
N  -2.54800 32.97700 26.82400
C  -3.02100 32.11600 25.80300
C  -3.83500 31.06600 26.34200
C  -3.90700 31.34100 27.72800
C  -3.18400 32.59800 27.92500
C  -4.60500 30.07000 25.54800
C  -4.41300 31.02400 28.97500
O  -5.04300 29.98000 29.27300
C  -3.99600 32.07200 29.94200
C  -5.17100 32.66300 30.68800
O  -5.91900 33.51200 30.26200
O  -5.30300 32.11600 31.91500
C  -6.53100 32.39800 32.65400
H  -0.07500 37.75400 29.87600
H  -0.06500 37.21000 23.38900
H  -3.18200 31.64100 23.78200
H  -3.29800 34.62000 31.63800
H  -0.79900 36.04400 31.79300
H  -3.67800 36.97700 31.81800
H  -2.58300 37.93300 30.84300
H  -2.19700 37.64900 32.46900
H  -0.52500 33.85900 32.47900
H  -1.01700 32.71800 31.38300
H  -2.43600 31.69200 32.86500
H  -3.13400 33.28900 33.29600
H  2.32000 39.66200 27.77700
H  1.58000 39.14800 29.30000
H  0.77300 40.27900 28.28300
H  1.64900 41.34800 24.57000
H  2.72600 40.33400 25.61300
H  1.15400 40.96700 26.30000
H  -0.09800 35.08300 21.82000
H  -2.43500 33.27900 21.82700
H  -2.90900 35.39400 21.43600
H  -1.57400 36.09300 20.52300
H  -2.21800 36.90600 22.06700
H  -0.11200 32.70300 21.15200
H  -1.13700 31.39000 21.84500
H  0.38000 32.50700 23.95400
H  1.43600 32.29000 22.57200
H  0.55000 30.88200 23.19700
H  -4.13000 29.76100 24.61700
H  -5.52800 30.55700 25.23500
H  -4.88100 29.24400 26.20300
H  -3.34300 31.70800 30.73500
H  -6.28400 32.94100 33.56600
H  -6.97700 31.53900 33.15500
H  -7.31300 32.78000 31.99700

