158

Mg 2.61200 -0.61600 43.66500
C  6.21500 -0.07500 43.48600
C  2.15900 2.17600 41.88000
C  -0.46200 -1.72100 42.99000
C  3.48100 -3.92500 44.75000
N  4.10000 0.73400 42.67000
C  5.44500 0.83200 42.76900
C  5.95600 2.17000 42.25400
C  4.63500 3.01900 42.20600
C  3.53200 1.93300 42.20500
C  4.63200 4.13100 43.26600
C  6.77000 2.20300 40.97100
C  6.11900 1.53900 39.72900
H  6.21200 2.43500 38.47200
N  1.05200 0.14800 42.57700
C  0.99900 1.34800 42.01600
C  -0.31400 1.59900 41.54500
C  -1.16900 0.54500 41.91000
C  -0.19200 -0.41900 42.48800
C  -0.71900 2.86600 40.79300
C  -2.65100 0.41800 41.85100
O  -3.37500 1.16000 41.26100
C  -3.34100 -0.62000 42.65400
N  1.68300 -2.58200 43.66700
C  0.36200 -2.63700 43.59500
C  -0.25100 -4.00200 44.13600
C  1.05400 -4.74100 44.57000
C  2.16000 -3.71700 44.32200
C  -1.26300 -3.68600 45.30800
C  1.29800 -6.20300 44.05800
C  1.39300 -7.32400 45.16500
N  4.40900 -1.75400 44.22500
C  4.58900 -3.00900 44.76300
C  5.87400 -3.19500 45.30700
C  6.59100 -2.05400 44.74800
C  5.66400 -1.27900 44.10900
C  6.33100 -4.38800 46.06800
C  7.86400 -1.45300 44.66100
O  8.92000 -1.90000 45.08100
C  7.73300 -0.15700 43.77900
C  8.39400 1.00400 44.51700
O  9.37900 1.60600 44.05000
O  7.89600 1.10900 45.77300
C  8.45500 2.22600 46.63800
H  2.01000 3.23100 41.63800
H  -1.43500 -2.19700 42.85400
H  3.69000 -4.92000 45.14900
H  6.59200 2.61500 43.01800
H  4.58100 3.53800 41.24800
H  5.38700 4.03700 44.04600
H  3.64600 4.09700 43.72900
H  4.89300 5.05600 42.75000
H  7.75000 1.76600 41.16500
H  7.14100 3.20800 40.76600
H  5.05200 1.45700 39.93600
H  6.54000 0.54900 39.55600
H  -0.95200 2.62600 39.75500
H  0.06600 3.62200 40.78800
H  -1.59100 3.34400 41.23800
H  -4.17700 -0.03000 43.02900
H  -2.84200 -0.82700 43.60000
H  -3.59600 -1.49100 42.05000
H  -0.74500 -4.59000 43.36300
H  1.12800 -4.81100 45.65600
H  -1.60800 -2.67500 45.09200
H  -0.89600 -3.88500 46.31400
H  -2.17000 -4.28000 45.20100
H  2.18400 -6.11600 43.42900
H  0.43400 -6.51600 43.47200
H  2.34700 -7.84200 45.06400
H  0.64200 -8.10700 45.05500
H  1.21500 -6.89800 46.15200
H  7.03400 -4.85500 45.37900
H  5.53900 -5.08300 46.34800
H  6.82500 -4.15400 47.01100
H  8.42600 -0.25100 42.94300
H  9.43400 1.94100 47.02200
H  7.80400 2.35400 47.50400
H  8.47100 3.05000 45.92500
Mg 47.24900 14.49800 27.65700
C  45.39800 14.73800 30.70900
C  49.46900 16.74000 28.92300
C  48.61100 14.81300 24.60100
C  44.49800 12.88000 26.41200
N  47.43500 15.59800 29.64700
C  46.54800 15.48800 30.65300
C  47.13400 16.28000 31.87500
C  48.19600 17.23000 31.16200
C  48.43200 16.52500 29.83300
C  47.80500 18.69400 30.90700
C  47.75600 15.23600 32.92900
C  47.03500 15.18200 34.31200
H  48.01300 15.11900 35.49700
N  48.98500 15.42800 26.94800
C  49.80300 16.23900 27.63000
C  50.89000 16.67500 26.79400
C  50.59400 16.17300 25.50600
C  49.37800 15.41900 25.60000
C  51.99600 17.59600 27.19300
C  51.29500 16.37300 24.18800
O  51.04300 15.74700 23.14900
C  52.36200 17.45900 24.07600
N  46.60800 14.00000 25.80400
C  47.36300 14.16800 24.68900
C  46.68000 13.51300 23.48400
C  45.54900 12.64200 24.15600
C  45.59300 13.18900 25.60000
C  46.18300 14.61700 22.43800
C  45.72500 11.10200 23.97500
C  46.97100 10.43400 24.68600
N  45.37200 13.81200 28.36900
C  44.27600 13.24100 27.72800
C  43.27700 12.90200 28.64700
C  43.65900 13.38700 29.88200
C  44.90100 14.00900 29.62200
C  41.97600 12.22000 28.35600
C  43.35600 13.58900 31.29200
O  42.33100 13.31100 31.94800
C  44.49700 14.48800 31.89200
C  43.89800 15.62500 32.57500
O  43.55500 16.71200 32.07300
O  43.66000 15.34900 33.93800
C  43.00000 16.37100 34.63000
H  50.06300 17.56500 29.32300
H  48.94700 14.88300 23.56400
H  43.70000 12.26600 25.99000
H  46.34300 16.84200 32.37000
H  49.05000 17.41800 31.81400
H  46.72300 18.71000 31.03800
H  47.82200 18.97100 29.85300
H  48.39600 19.38900 31.50400
H  48.79100 15.50100 33.14500
H  47.75200 14.22600 32.51800
H  46.55600 14.21000 34.42900
H  46.29200 15.96300 34.47500
H  52.11500 17.50700 28.27300
H  51.68100 18.59800 26.90300
H  52.98600 17.44400 26.76200
H  53.28900 17.33600 24.63600
H  51.92800 18.41600 24.36600
H  52.69900 17.52700 23.04200
H  47.39500 12.89800 22.93700
H  44.62400 12.93500 23.65900
H  45.44300 15.25800 22.91800
H  45.84600 14.07700 21.55300
H  46.99600 15.27600 22.13000
H  45.82000 10.97500 22.89600
H  44.80800 10.61000 24.30100
H  46.53600 9.81500 25.47100
H  47.57600 11.23100 25.12000
H  47.43700 9.72900 23.99800
H  41.59700 12.09100 29.37000
H  41.94700 11.21500 27.93600
H  41.36600 12.86400 27.72100
H  45.00400 13.82600 32.59500
H  43.51400 16.37800 35.59100
H  42.02500 16.04400 34.99000
H  43.00400 17.39700 34.26100

