158

Mg 35.67900 0.76900 29.98600
C  33.34600 1.85200 32.48100
C  37.98800 0.41100 32.74500
C  37.97800 0.16100 27.80800
C  33.38700 1.52400 27.63800
N  35.62200 1.10700 32.29700
C  34.61000 1.60300 33.02400
C  34.98200 1.61800 34.49200
C  36.58000 1.53900 34.46200
C  36.74000 1.00700 33.05900
C  37.26900 2.91700 34.51400
C  34.38000 0.41600 35.23100
C  34.44700 0.42200 36.81000
H  35.27700 1.50000 37.49300
N  37.68500 0.29600 30.23800
C  38.45600 0.13200 31.39600
C  39.79800 -0.27700 31.03800
C  39.76500 -0.56800 29.63500
C  38.45400 -0.00600 29.15800
C  40.99900 -0.45100 32.02200
C  40.78800 -1.15300 28.71400
O  40.60400 -1.16600 27.46700
C  42.04200 -1.59900 29.27500
N  35.73900 0.91700 27.99100
C  36.77300 0.55100 27.25500
C  36.46500 0.66600 25.72500
C  34.92800 0.95100 25.67500
C  34.61200 1.13800 27.15300
C  37.37500 1.66600 24.87300
C  33.98100 -0.10900 25.07700
C  33.42600 -1.27300 25.93900
N  33.73900 1.49600 29.94300
C  32.85200 1.65400 28.91100
C  31.57100 2.07200 29.41800
C  31.69700 2.13800 30.82400
C  33.02200 1.76400 31.09500
C  30.31400 2.24100 28.55200
C  31.06100 2.43700 32.09600
O  29.86400 2.68900 32.33600
C  32.11000 2.31800 33.21800
C  32.26400 3.73600 33.70800
O  32.57100 4.74700 32.99200
O  31.98700 3.73700 35.05500
C  31.46400 4.97100 35.58700
H  38.78400 0.30900 33.48500
H  38.68700 -0.06600 27.00900
H  32.77100 1.93100 26.83300
H  34.56600 2.48400 35.00700
H  36.95700 0.86500 35.23200
H  36.57700 3.73200 34.72800
H  37.73700 3.07300 33.54200
H  38.05500 2.86500 35.26800
H  34.94300 -0.50400 35.07100
H  33.34400 0.24900 34.93500
H  34.84200 -0.54800 37.11100
H  33.40400 0.55700 37.09800
H  41.83600 0.07500 31.56200
H  41.10400 -1.52400 32.18600
H  40.92400 0.04500 32.98900
H  42.04700 -2.05300 30.26600
H  42.69800 -0.73100 29.33200
H  42.46300 -2.32300 28.57700
H  36.66500 -0.33500 25.34400
H  34.68300 1.85900 25.12300
H  38.19800 1.93600 25.53400
H  36.79800 2.56200 24.64100
H  37.59700 1.11700 23.95800
H  34.62100 -0.60500 24.34800
H  33.13900 0.45300 24.67000
H  33.83200 -2.22200 25.59000
H  32.33700 -1.22100 25.96700
H  33.80400 -1.28000 26.96100
H  30.62300 2.67600 27.60200
H  29.62000 2.93800 29.02200
H  29.98900 1.21200 28.39800
H  31.74400 1.71400 34.04800
H  30.59500 4.80600 36.22300
H  31.14200 5.68300 34.82700
H  32.22300 5.50500 36.15900
Mg 8.48200 47.95800 27.88500
C  6.91900 46.92100 30.82200
C  11.33300 48.28600 29.56200
C  9.88200 49.02700 24.94000
C  5.39300 47.86300 26.24100
N  8.92500 47.82100 29.99000
C  8.15300 47.30900 31.03300
C  8.89700 47.35700 32.33100
C  10.28700 48.08800 31.84200
C  10.20700 48.00600 30.35200
C  10.53500 49.53600 32.28800
C  9.17100 46.04800 33.07100
C  9.07700 46.16500 34.60500
H  9.89000 45.23300 35.50400
N  10.38200 48.35600 27.35800
C  11.43400 48.44000 28.17800
C  12.62300 48.77100 27.40300
C  12.25300 48.99500 26.07300
C  10.74600 48.79100 26.04000
C  13.95600 48.85500 27.99200
C  13.08200 49.37800 24.89300
O  12.62300 49.54400 23.76400
C  14.64900 49.44800 25.06400
N  7.71800 48.45400 25.90200
C  8.52200 48.91100 24.88900
C  7.68400 49.23300 23.62500
C  6.31500 48.55400 23.97600
C  6.48100 48.22100 25.43700
C  7.71300 50.76900 23.19600
C  5.94400 47.30200 23.11700
C  6.98400 46.19700 22.91400
N  6.51600 47.60500 28.39200
C  5.38500 47.51600 27.62500
C  4.22500 47.10400 28.43200
C  4.73900 46.86500 29.68200
C  6.16000 47.11500 29.60100
C  2.86900 46.93700 27.94100
C  4.39200 46.49000 31.00000
O  3.35200 46.32300 31.52600
C  5.76400 46.54200 31.80400
C  5.87400 45.17200 32.36900
O  6.25700 44.12500 31.83700
O  5.55600 45.27700 33.71100
C  5.79100 44.04800 34.57000
H  12.17300 48.37600 30.25300
H  10.28400 49.29200 23.96100
H  4.42400 47.57800 25.82700
H  8.29100 47.98900 32.98000
H  11.13700 47.54600 32.25600
H  10.43700 50.24000 31.46100
H  11.57600 49.64600 32.59000
H  9.87000 49.91000 33.06700
H  10.11100 45.54900 32.83900
H  8.43800 45.27000 32.85900
H  8.03100 46.06900 34.89800
H  9.38700 47.18900 34.81300
H  14.42000 47.99500 27.50800
H  13.94200 48.66700 29.06500
H  14.35500 49.83000 27.71300
H  14.87400 50.21500 25.80600
H  15.06000 49.72700 24.09400
H  15.08300 48.47200 25.28300
H  8.14000 48.62900 22.84000
H  5.52800 49.29600 23.84000
H  8.31600 50.77400 22.28800
H  8.28900 51.35500 23.91200
H  6.78900 51.29100 22.94600
H  5.56500 47.59600 22.13800
H  5.07800 46.86300 23.61200
H  7.25800 46.22400 21.86000
H  6.47200 45.23800 22.99600
H  7.76500 46.29600 23.66800
H  2.24300 46.47300 28.70300
H  2.83100 46.25100 27.09600
H  2.36200 47.85900 27.65800
H  5.66000 47.35600 32.52200
H  5.25100 43.14400 34.28800
H  5.45700 44.17500 35.60000
H  6.82600 43.72800 34.68900

