158

Mg 36.15600 49.56800 24.97500
C  36.13200 47.98500 28.16200
C  34.66900 52.25200 26.51200
C  35.50100 50.77900 21.93900
C  37.12800 46.52900 23.46100
N  35.25900 49.91400 27.08800
C  35.64100 49.27700 28.20700
C  35.38600 50.18400 29.47300
C  34.60500 51.36900 28.87200
C  34.77400 51.14000 27.36700
C  33.11700 51.45100 29.19400
C  36.75500 50.49800 30.16500
C  36.96000 49.88600 31.57800
H  35.64600 49.79200 32.44800
N  35.36300 51.32300 24.31500
C  34.92000 52.36300 25.11200
C  34.65800 53.51200 24.34200
C  34.90000 53.09400 23.00500
C  35.20300 51.64500 23.02100
C  34.10100 54.86500 24.77700
C  34.78000 53.92800 21.69400
O  34.76700 53.41200 20.60900
C  34.64500 55.41300 21.73500
N  36.24700 48.75100 22.92700
C  35.94000 49.48500 21.88300
C  36.46400 48.92300 20.58600
C  36.97500 47.47300 21.01900
C  36.70100 47.52400 22.58200
C  35.59000 48.87500 19.23400
C  38.44700 47.16800 20.67100
C  39.55400 47.85200 21.50300
N  36.58700 47.69100 25.60400
C  37.01000 46.55400 24.89300
C  37.31000 45.46600 25.85900
C  37.02900 46.01700 27.14500
C  36.58400 47.35700 26.94800
C  37.60400 43.99900 25.56500
C  37.05600 45.70100 28.55200
O  37.61200 44.78300 29.14000
C  36.35100 46.97100 29.29700
C  35.10000 46.45100 29.82700
O  33.93200 46.48400 29.48000
O  35.35700 45.86400 31.10300
C  34.19400 45.27400 31.80400
H  34.28300 53.16700 26.96400
H  35.32900 51.20600 20.94900
H  37.57000 45.60800 23.07600
H  34.78000 49.65800 30.21100
H  35.05000 52.34300 29.08000
H  32.69500 50.52300 29.58000
H  32.59900 51.80400 28.30300
H  33.04100 52.17000 30.00900
H  36.86300 51.57700 30.04900
H  37.54400 50.08500 29.53700
H  37.52700 50.64300 32.12000
H  37.54400 48.97800 31.72700
H  34.81000 55.69100 24.72100
H  33.80000 54.76700 25.82100
H  33.19400 54.95800 24.17900
H  33.60700 55.67400 21.94200
H  34.88500 55.78300 20.73800
H  35.50900 55.80600 22.27300
H  37.29200 49.62200 20.47400
H  36.23600 46.73000 20.71800
H  35.49300 47.87900 18.80300
H  36.13100 49.35900 18.42100
H  34.62800 49.38700 19.26500
H  38.67100 47.51000 19.66100
H  38.62700 46.10200 20.81100
H  39.02600 48.37600 22.30000
H  40.01400 48.60800 20.86600
H  40.29400 47.21000 21.98000
H  38.61800 43.96100 25.16700
H  36.93800 43.66300 24.77100
H  37.41900 43.47100 26.50100
H  36.82500 47.34600 30.20400
H  34.66500 44.87100 32.70100
H  33.76000 44.42200 31.28100
H  33.47000 46.06900 31.98000
Mg 26.77500 51.02400 26.49200
C  24.76400 51.93100 29.18500
C  29.19700 50.00500 28.72900
C  28.38800 49.88400 23.91400
C  24.15700 52.11600 24.27400
N  26.91800 50.97400 28.76400
C  25.97200 51.36100 29.68200
C  26.41400 51.24700 31.09500
C  27.86800 50.68600 30.90900
C  28.06600 50.54100 29.35800
C  28.89600 51.61200 31.51100
C  25.43800 50.25500 31.87300
C  26.01100 49.41500 32.96300
H  25.31000 49.37300 34.27600
N  28.61300 50.19100 26.36400
C  29.43700 49.78000 27.32800
C  30.64900 49.15000 26.70100
C  30.45200 49.13400 25.27800
C  29.09900 49.76600 25.13400
C  31.73900 48.50400 27.48100
C  31.41700 48.60800 24.23900
O  31.21500 48.83700 23.01800
C  32.81900 48.01900 24.58400
N  26.26600 51.07700 24.33100
C  27.16000 50.40800 23.51900
C  26.64500 50.40200 22.10000
C  25.30100 51.09700 22.23600
C  25.15000 51.43800 23.67500
C  27.66700 51.06500 21.16600
C  24.04900 50.25900 21.83200
C  23.29800 50.77200 20.51000
N  24.94300 51.98400 26.60100
C  24.04000 52.41600 25.67000
C  22.90800 53.05300 26.33300
C  23.18600 52.90600 27.67200
C  24.39100 52.19400 27.81300
C  21.82400 53.71800 25.70800
C  22.56600 53.15600 28.94500
O  21.48900 53.69300 29.20400
C  23.56500 52.43500 30.02500
C  23.89900 53.36900 31.18600
O  24.90300 54.12300 31.27400
O  23.00800 53.26700 32.17200
C  23.37500 54.02700 33.42000
H  29.98100 49.69900 29.42500
H  28.89400 49.40200 23.07500
H  23.46600 52.57500 23.56400
H  26.36400 52.27400 31.45600
H  28.00300 49.66900 31.27600
H  29.02800 52.53800 30.95200
H  29.80400 51.04900 31.29500
H  28.85800 51.64300 32.59900
H  24.93200 49.62100 31.14500
H  24.69200 50.92800 32.29600
H  26.90600 49.98000 33.22500
H  26.28600 48.45500 32.52700
H  31.54600 48.53200 28.55400
H  32.66300 48.96300 27.13000
H  31.70600 47.46200 27.16600
H  33.17300 47.66200 23.61700
H  32.87400 47.22500 25.32900
H  33.44200 48.88500 24.80700
H  26.60200 49.32500 21.93800
H  25.34200 52.07700 21.76100
H  28.30400 51.81700 21.63200
H  27.07700 51.58600 20.41200
H  28.27200 50.27400 20.72200
H  23.28700 50.19800 22.60800
H  24.46900 49.30100 21.52500
H  22.92500 49.94000 19.91200
H  24.03900 51.31600 19.92400
H  22.54400 51.49300 20.82800
H  21.47600 53.15700 24.84100
H  22.10500 54.64700 25.21100
H  21.00300 53.99100 26.37100
H  22.99100 51.61900 30.46400
H  23.53600 55.09400 33.26700
H  24.23000 53.56900 33.91700
H  22.45000 53.76400 33.93300

