158

Mg 26.85700 51.02000 25.91600
C  24.99800 52.22100 28.59800
C  29.25800 49.85700 28.31900
C  28.73700 49.87100 23.33700
C  24.83300 52.67900 23.62400
N  27.02100 50.79200 28.28200
C  26.12700 51.48200 29.14700
C  26.44900 51.13900 30.68100
C  27.89300 50.43900 30.49200
C  28.12200 50.36100 28.90400
C  29.06800 51.11300 31.27700
C  25.23600 50.38900 31.34800
C  25.53200 49.30900 32.44800
H  24.96100 49.68400 33.90300
N  28.63100 49.90900 25.84200
C  29.50800 49.62300 26.95100
C  30.76100 48.88200 26.48000
C  30.54900 48.75600 25.04100
C  29.23000 49.51500 24.66900
C  31.86900 48.45300 27.32000
C  31.51100 48.17400 23.99000
O  31.28300 48.31600 22.77900
C  32.78000 47.53100 24.49500
N  26.81300 51.27000 23.77900
C  27.64800 50.58400 22.90200
C  27.12100 50.67800 21.42700
C  25.84100 51.60300 21.69400
C  25.81600 51.89600 23.09200
C  28.15800 51.23800 20.41300
C  24.61800 50.89900 21.15000
C  24.37000 49.55400 21.80400
N  25.22700 52.21200 26.01900
C  24.53100 52.87400 25.01600
C  23.36100 53.49900 25.73100
C  23.49300 53.16600 27.07800
C  24.70100 52.49700 27.21000
C  22.24100 54.24900 25.11400
C  22.82200 53.30200 28.26900
O  21.70800 53.79000 28.51600
C  23.78800 52.73200 29.37100
C  24.22700 53.82200 30.32700
O  25.19400 54.55100 30.22600
O  23.36200 53.73800 31.37800
C  23.83900 54.36700 32.62500
H  30.04900 49.57300 29.01500
H  29.33500 49.42100 22.54100
H  24.13900 53.05000 22.86700
H  26.60600 52.08500 31.19800
H  27.86800 49.37800 30.73900
H  28.94400 52.16600 31.52800
H  30.01800 51.16400 30.74500
H  29.13700 50.72500 32.29400
H  24.71200 49.80400 30.59200
H  24.57600 51.14800 31.76700
H  26.61900 49.24900 32.50000
H  25.02400 48.35700 32.29300
H  31.94800 47.37300 27.19700
H  31.65400 48.67700 28.36500
H  32.78600 49.00400 27.11300
H  33.32800 48.16500 25.19300
H  33.51100 47.47600 23.68800
H  32.55800 46.58400 24.98600
H  26.80400 49.70400 21.05300
H  25.97900 52.56200 21.19500
H  27.77300 52.15700 19.96900
H  28.57600 50.62300 19.61600
H  28.91400 51.40300 21.18000
H  24.59600 50.85500 20.06100
H  23.74000 51.48400 21.42600
H  24.59600 49.57400 22.87000
H  24.79900 48.74300 21.21600
H  23.28500 49.49500 21.71300
H  21.50100 53.63900 24.59600
H  22.60300 54.95100 24.36300
H  21.69800 54.80800 25.87600
H  23.25300 51.99400 29.96900
H  24.10700 55.38400 32.33900
H  24.71800 53.85000 33.00800
H  23.01500 54.47200 33.33100
Mg 17.16900 52.85500 25.75200
C  18.95500 51.37100 28.52600
C  14.72400 53.70100 27.97800
C  15.37900 53.95600 23.17900
C  19.56800 51.51600 23.61000
N  16.85600 52.47500 27.95300
C  17.81400 52.10100 28.89500
C  17.30800 52.41600 30.29900
C  15.84800 52.89300 30.01200
C  15.75100 52.98000 28.54000
C  14.76800 51.94300 30.66600
C  18.19800 53.59500 31.02100
C  18.03600 53.87600 32.55800
H  17.12100 53.09300 33.42400
N  15.31900 53.80600 25.64800
C  14.44000 54.02500 26.67400
C  13.22400 54.66200 26.08200
C  13.39800 54.79100 24.68000
C  14.73800 54.13500 24.45000
C  12.00700 55.01900 26.84700
C  12.48100 55.34000 23.60500
O  12.81500 55.37200 22.41000
C  11.21600 55.92600 23.97200
N  17.37900 52.51000 23.67500
C  16.52000 53.23100 22.86100
C  17.02600 53.06100 21.41200
C  18.43700 52.27400 21.53700
C  18.42700 51.99000 22.98800
C  16.03100 52.30700 20.52000
C  19.63000 52.99300 20.92800
C  20.42700 52.36600 19.78100
N  18.91000 51.63800 25.91100
C  19.82500 51.32100 24.98900
C  20.98100 50.58600 25.59000
C  20.70600 50.64400 27.03300
C  19.40600 51.20600 27.13400
C  22.10200 50.03300 24.79800
C  21.09700 50.28200 28.41100
O  22.12000 49.73500 28.76500
C  20.03500 50.77000 29.35500
C  19.56100 49.51500 30.11700
O  19.25000 48.45200 29.52500
O  19.45300 49.74800 31.45900
C  18.83800 48.58600 32.20700
H  13.98500 54.08300 28.68600
H  14.73000 54.31000 22.37500
H  20.35600 51.22900 22.91000
H  17.42800 51.53400 30.92900
H  15.83100 53.81300 30.59600
H  15.16300 51.04400 31.13800
H  14.04500 51.76700 29.87000
H  14.27500 52.52700 31.44300
H  18.03600 54.53000 30.48300
H  19.25000 53.38400 30.83000
H  17.81700 54.93500 32.69600
H  18.98800 53.70200 33.05900
H  11.67200 56.02900 26.61100
H  12.27200 55.09200 27.90100
H  11.15200 54.34500 26.78300
H  11.42500 56.76700 24.63300
H  10.59500 55.16800 24.45100
H  10.78100 56.24600 23.02500
H  17.26800 54.09000 21.14400
H  18.38400 51.33100 20.99200
H  15.49900 52.92800 19.79900
H  15.27000 51.78200 21.09700
H  16.52000 51.61900 19.83000
H  20.35500 53.16200 21.72400
H  19.44500 54.02700 20.63600
H  20.49300 53.10200 18.97900
H  19.94200 51.45600 19.42900
H  21.42700 52.09900 20.12400
H  21.82200 50.02400 23.74500
H  22.18600 48.98100 25.07100
H  23.06500 50.54400 24.79800
H  20.51500 51.47400 30.03400
H  18.94300 48.88500 33.25000
H  19.34400 47.63800 32.02500
H  17.77100 48.47100 32.01600

