158

Mg 2.31600 -0.63100 44.12600
C  5.62200 0.33300 43.97500
C  1.39700 2.54100 43.09400
C  -0.76300 -1.66100 43.95600
C  3.53300 -3.98100 44.61800
N  3.41400 1.21500 43.37400
C  4.75800 1.39500 43.57100
C  5.17900 2.82500 43.25400
C  3.77200 3.53900 43.16300
C  2.78000 2.40000 43.16100
C  3.53400 4.53100 44.36600
C  5.97700 2.94400 41.94800
C  5.46100 2.18100 40.72300
H  5.32100 2.98700 39.42800
N  0.54000 0.40500 43.61000
C  0.32500 1.66900 43.16900
C  -1.10900 1.92000 42.97200
C  -1.72300 0.66700 43.11500
C  -0.65800 -0.23700 43.57600
C  -1.75800 3.18800 42.46600
C  -3.24200 0.36500 42.98900
O  -3.95600 1.17100 42.46400
C  -3.85500 -0.92800 43.60000
N  1.52100 -2.58500 44.21000
C  0.18100 -2.68300 44.35500
C  -0.23400 -4.15900 44.62000
C  1.08400 -4.92700 44.57000
C  2.13800 -3.80500 44.47200
C  -1.07600 -4.41600 45.84200
C  1.22800 -5.88000 43.35400
C  1.82300 -7.34200 43.48700
N  4.13900 -1.68200 44.37600
C  4.51200 -2.92700 44.75200
C  5.93800 -3.00000 45.02800
C  6.38900 -1.73800 44.71100
C  5.27600 -0.98400 44.30100
C  6.68400 -4.11000 45.61100
C  7.64200 -0.96400 44.55400
O  8.80800 -1.23000 44.78400
C  7.11000 0.50500 44.18900
C  7.46800 1.53200 45.19800
O  8.37800 2.36500 45.08300
O  6.76800 1.43400 46.44100
C  6.87400 2.62400 47.29600
H  0.99100 3.53700 42.90700
H  -1.74000 -2.12300 44.11200
H  3.83900 -4.98900 44.90500
H  5.86900 3.11500 44.04600
H  3.68900 4.09500 42.23000
H  4.29000 4.27900 45.10900
H  2.54700 4.28900 44.76100
H  3.57200 5.56600 44.02700
H  6.93800 2.46000 42.12000
H  6.24300 3.98700 41.77700
H  4.54100 1.66000 40.98800
H  6.15300 1.38300 40.45100
H  -1.10600 4.00700 42.77000
H  -2.59300 3.51000 43.08900
H  -2.03600 3.08800 41.41700
H  -3.56600 -1.08500 44.63900
H  -3.74500 -1.71500 42.85500
H  -4.84800 -0.48300 43.65800
H  -0.86900 -4.45400 43.78500
H  1.24900 -5.56300 45.44000
H  -1.81000 -3.63200 46.02900
H  -0.50000 -4.55700 46.75600
H  -1.72200 -5.28700 45.73200
H  1.79600 -5.38400 42.56600
H  0.26100 -6.00100 42.86600
H  1.04600 -8.09300 43.34300
H  2.33500 -7.47100 44.44000
H  2.60200 -7.58800 42.76500
H  5.91200 -4.81600 45.92000
H  7.33200 -3.71800 46.39500
H  7.31800 -4.47400 44.80300
H  7.57200 0.74300 43.23100
H  7.88800 3.00600 47.40900
H  6.42600 2.49200 48.28100
H  6.19200 3.30100 46.78200
Mg -9.97000 18.28300 42.62200
C  -6.64200 17.29500 42.52700
C  -9.05400 21.42400 41.64700
C  -13.22500 19.04000 41.81400
C  -10.82600 14.95100 42.93600
N  -8.12900 19.20200 42.04500
C  -6.86500 18.67400 42.15400
C  -5.75400 19.62500 41.75900
C  -6.54200 20.95100 41.95300
C  -8.02300 20.50400 41.81900
C  -6.27300 21.82000 43.26900
C  -5.09400 19.32600 40.43700
C  -6.02900 18.65700 39.46400
H  -5.41600 18.51500 38.07100
N  -11.00000 20.09800 42.03000
C  -10.42200 21.27600 41.74500
C  -11.46400 22.30300 41.48800
C  -12.73300 21.56900 41.61600
C  -12.37600 20.19100 41.87000
C  -11.15300 23.79900 41.17300
C  -14.05300 22.20600 41.48300
O  -14.06800 23.44700 41.36200
C  -15.26600 21.43900 41.58400
N  -11.85500 17.15700 42.49500
C  -13.02300 17.68800 42.10600
C  -14.11200 16.55600 41.90900
C  -13.41200 15.35100 42.70500
C  -11.89700 15.80700 42.59500
C  -15.48000 16.87800 42.52400
C  -13.79300 13.96300 42.05800
C  -13.75600 12.87800 43.04400
N  -8.91100 16.43600 42.82500
C  -9.42500 15.14800 43.04700
C  -8.38600 14.17100 43.19600
C  -7.22500 14.99800 43.07300
C  -7.62000 16.33800 42.83500
C  -8.52200 12.65000 43.13800
C  -5.77200 14.98300 42.94200
O  -4.96200 14.10000 42.88600
C  -5.30000 16.49700 42.73000
C  -4.59800 17.07800 43.85700
O  -3.47100 17.59400 43.75900
O  -5.33700 17.07100 45.02400
C  -4.74300 17.69200 46.19600
H  -8.76400 22.45500 41.43500
H  -14.15600 19.33500 41.32500
H  -11.16900 13.91700 43.02300
H  -4.95800 19.62400 42.50300
H  -6.40700 21.57100 41.06600
H  -7.14200 21.90200 43.92200
H  -5.89400 22.79200 42.95400
H  -5.52000 21.30400 43.86400
H  -4.28600 18.60500 40.56100
H  -4.73800 20.21100 39.91100
H  -6.93000 19.24000 39.27300
H  -6.16000 17.62700 39.79800
H  -11.87800 24.27800 40.51500
H  -10.27900 23.79300 40.52300
H  -11.00600 24.35800 42.09700
H  -15.23500 20.82400 42.48400
H  -15.40000 20.85400 40.67400
H  -16.06900 22.14700 41.78900
H  -14.26900 16.36100 40.84800
H  -13.73900 15.29900 43.74300
H  -15.57500 17.77300 43.13900
H  -15.77800 16.08700 43.21200
H  -16.18800 17.03800 41.71100
H  -13.06400 13.75500 41.27500
H  -14.79000 14.04700 41.62600
H  -13.32800 13.19800 43.99400
H  -13.17600 12.02300 42.69600
H  -14.73900 12.42900 43.19100
H  -9.30300 12.42300 42.41300
H  -8.92800 12.17400 44.03100
H  -7.65300 12.12500 42.74200
H  -4.59400 16.71300 41.92800
H  -3.69500 17.47700 46.40600
H  -5.35500 17.37400 47.04100
H  -5.00800 18.74500 46.10300

