158

Mg 9.99500 47.15500 25.88200
C  7.44400 47.45300 28.41700
C  12.19400 48.28700 28.24800
C  12.25100 47.04400 23.38400
C  7.41300 46.61000 23.46800
N  9.79700 47.94600 28.11200
C  8.72100 47.80000 28.93200
C  9.20000 47.77700 30.46200
C  10.64400 48.43100 30.30900
C  10.90400 48.19400 28.81100
C  10.76800 49.94000 30.62500
C  9.26000 46.30200 31.02100
C  8.76700 46.03400 32.40700
H  9.86800 45.67000 33.39400
N  11.95300 47.66800 25.81800
C  12.64300 48.07400 26.86400
C  14.01000 48.23400 26.40900
C  14.10400 47.98400 24.96900
C  12.72800 47.48400 24.67800
C  15.12400 48.61300 27.42100
C  15.27900 48.08900 23.94100
O  15.24200 47.93600 22.73800
C  16.62800 48.47800 24.52400
N  9.84400 46.77600 23.77700
C  10.93600 46.73800 23.00300
C  10.61400 46.27000 21.54500
C  9.06800 46.09900 21.53600
C  8.71200 46.54700 23.04000
C  11.07900 47.27400 20.44800
C  8.57100 44.63900 21.02800
C  8.16000 44.47100 19.55000
N  7.91400 47.12100 25.84100
C  7.04400 46.81300 24.77100
C  5.61600 46.84800 25.30600
C  5.76600 47.01100 26.71500
C  7.14800 47.24900 27.01200
C  4.33200 46.70700 24.50300
C  5.02500 47.04800 27.95800
O  3.86000 46.82000 28.14300
C  6.06600 47.41700 29.09800
C  5.85600 46.49400 30.23200
O  5.79900 45.23900 30.22800
O  5.66600 47.26000 31.35000
C  5.13200 46.71600 32.59700
H  12.90300 48.71200 28.96100
H  13.01300 47.10700 22.60400
H  6.69300 46.55800 22.64900
H  8.39800 48.29500 30.98900
H  11.35000 47.76700 30.80800
H  11.40700 50.15400 31.48200
H  9.75000 50.21900 30.89800
H  11.17400 50.40800 29.72800
H  10.30000 45.98300 30.94500
H  8.68400 45.64800 30.36700
H  8.10400 45.16900 32.39200
H  8.24500 46.91100 32.79000
H  15.90300 47.87800 27.22200
H  14.74600 48.49700 28.43700
H  15.45800 49.64200 27.29000
H  16.57200 49.29700 25.24100
H  17.29500 48.61800 23.67400
H  16.96200 47.57300 25.03200
H  11.04200 45.29700 21.30600
H  8.60200 46.84300 20.89000
H  11.45600 48.22200 20.83100
H  10.42700 47.45200 19.59300
H  11.92900 46.73300 20.03100
H  7.73900 44.25000 21.61600
H  9.40300 43.98500 21.29100
H  7.34300 45.17600 19.39800
H  7.82700 43.45500 19.33900
H  8.96300 44.77500 18.87900
H  3.83900 45.74600 24.64500
H  4.65000 46.85500 23.47000
H  3.55300 47.37900 24.86500
H  5.78000 48.43000 29.38200
H  5.14400 45.63400 32.72900
H  4.17700 47.18400 32.83700
H  5.87200 47.03500 33.33100
Mg -12.06300 16.27400 41.14700
C  -9.14500 14.58000 40.33000
C  -10.85400 19.03500 39.62100
C  -15.12400 17.68800 41.29700
C  -13.46500 13.13900 42.11600
N  -10.17600 16.70900 39.98100
C  -9.09500 15.92400 39.94100
C  -7.95000 16.63800 39.29700
C  -8.42200 18.13900 39.15800
C  -9.92400 17.98900 39.53500
C  -7.66000 19.14900 40.13900
C  -7.40700 16.02000 37.93800
C  -6.10700 16.62100 37.55800
H  -5.61100 16.43900 36.12100
N  -12.80900 18.15600 40.70300
C  -12.14400 19.14000 40.09300
C  -13.03100 20.33500 39.97600
C  -14.26800 19.95900 40.58500
C  -14.11300 18.56400 40.94900
C  -12.54100 21.67500 39.43100
C  -15.45100 20.86600 40.80400
O  -15.45200 21.95700 40.29300
C  -16.50300 20.48900 41.72200
N  -14.00700 15.45300 41.55600
C  -15.14100 16.28800 41.54700
C  -16.41400 15.52200 41.88200
C  -15.87400 14.08900 42.22900
C  -14.36700 14.21000 41.92900
C  -17.34900 16.10100 43.01800
C  -16.46700 12.93900 41.30000
C  -16.79600 11.61900 41.93700
N  -11.47100 14.29800 41.40700
C  -12.08800 13.15600 41.80200
C  -11.05800 12.05200 41.85200
C  -9.97400 12.56300 41.28400
C  -10.23000 13.90800 40.98800
C  -11.21400 10.67100 42.49300
C  -8.57400 12.26800 41.00700
O  -7.96800 11.21900 41.26200
C  -7.95500 13.56000 40.48500
C  -6.87300 14.03200 41.39200
O  -7.06900 14.31400 42.58500
O  -5.65300 14.07600 40.77100
C  -4.52400 13.97000 41.70000
H  -10.42800 19.96900 39.24800
H  -16.16100 18.02200 41.21300
H  -13.88400 12.23900 42.57100
H  -7.12100 16.66300 40.00400
H  -8.53400 18.47400 38.12700
H  -7.35700 18.64400 41.05600
H  -8.22700 20.05800 40.34200
H  -6.77600 19.52900 39.62800
H  -8.03200 16.43200 37.14600
H  -7.42500 14.93100 37.89300
H  -5.36900 16.32900 38.30600
H  -6.22400 17.70000 37.66000
H  -13.38300 22.28700 39.10900
H  -11.97200 21.40600 38.54200
H  -11.89300 22.26400 40.08100
H  -17.37900 20.15000 41.17000
H  -16.73600 21.38400 42.29900
H  -16.25100 19.65900 42.38100
H  -16.94300 15.45300 40.93100
H  -15.98400 13.89800 43.29600
H  -17.66300 15.25200 43.62600
H  -18.33700 16.42000 42.68600
H  -16.90000 16.79700 43.72600
H  -15.82200 12.84100 40.42700
H  -17.38200 13.31300 40.84100
H  -16.49300 10.77500 41.31700
H  -17.86000 11.50000 42.14200
H  -16.29200 11.45300 42.88900
H  -11.49400 10.03000 41.65700
H  -11.93300 10.62800 43.31100
H  -10.23400 10.35300 42.84900
H  -7.48900 13.42000 39.51000
H  -4.49800 14.86100 42.32800
H  -3.73600 14.02100 40.95000
H  -4.42700 13.00000 42.18800

