158

Mg 48.37300 34.53400 27.89900
C  46.68000 33.26700 30.67400
C  48.77400 37.40500 29.65500
C  49.29700 35.95300 25.13600
C  47.32600 31.63400 26.10700
N  47.79200 35.22900 29.97100
C  47.27700 34.49500 30.98000
C  47.61200 35.02300 32.42900
C  47.88500 36.53900 31.99500
C  48.13200 36.44500 30.38800
C  46.81300 37.57000 32.38100
C  48.78100 34.26900 33.12700
C  48.83800 34.26500 34.67200
H  47.92000 35.22600 35.45400
N  49.03500 36.25100 27.50600
C  49.24500 37.34800 28.34900
C  50.01600 38.32200 27.72600
C  50.22500 37.95000 26.37700
C  49.46400 36.67100 26.31800
C  50.54900 39.65500 28.41400
C  51.07900 38.63200 25.30200
O  51.13500 38.14700 24.16800
C  51.86800 39.93500 25.58600
N  48.31200 33.88600 25.89900
C  48.83000 34.70200 24.95300
C  48.92300 33.91100 23.66600
C  48.38800 32.44700 23.99300
C  48.02400 32.62400 25.41700
C  48.18500 34.53100 22.45800
C  49.27500 31.22800 23.63900
C  50.30000 30.92200 24.72000
N  47.37700 32.71800 28.29900
C  46.98600 31.69000 27.48800
C  46.31100 30.68800 28.29300
C  46.13800 31.29700 29.56600
C  46.71900 32.59800 29.45700
C  45.75100 29.41100 27.73800
C  45.63500 31.07100 30.83600
O  45.11300 30.08000 31.26600
C  45.76800 32.40900 31.56800
C  46.08500 32.11400 33.01700
O  47.19700 31.75600 33.49200
O  44.92700 31.96300 33.75400
C  44.93800 31.60800 35.20800
H  49.02900 38.26900 30.27200
H  49.72400 36.27800 24.18500
H  47.09300 30.71700 25.56100
H  46.75900 34.98700 33.10700
H  48.77100 36.90700 32.51300
H  47.13400 38.53400 32.77400
H  46.13900 37.14500 33.12500
H  46.25800 37.87700 31.49500
H  49.69700 34.68100 32.70500
H  48.80000 33.23900 32.76900
H  49.84600 34.42500 35.05400
H  48.45300 33.30400 35.01600
H  51.62800 39.52100 28.49700
H  50.15000 39.72300 29.42600
H  50.31000 40.50500 27.77500
H  52.46500 40.33600 24.76700
H  52.58900 39.84900 26.39900
H  51.13500 40.71100 25.80800
H  50.00000 33.91600 23.49900
H  47.45100 32.26800 23.46600
H  48.88000 35.10200 21.84300
H  47.49600 35.32900 22.73600
H  47.83600 33.68500 21.86600
H  49.81100 31.53400 22.74000
H  48.61700 30.41500 23.33200
H  51.14100 31.54500 24.41700
H  50.67700 29.91900 24.51800
H  50.08500 30.98200 25.78700
H  44.89900 29.00500 28.28400
H  46.45400 28.62900 28.02300
H  45.57300 29.33300 26.66500
H  44.74300 32.77800 31.57900
H  45.83800 31.16200 35.63200
H  44.10000 30.99600 35.54100
H  44.81800 32.57700 35.69300
Mg 0.79100 42.79400 26.79000
C  2.90600 42.69400 29.61600
C  -1.83200 42.12900 29.09700
C  -1.24700 42.45100 24.21100
C  3.47900 43.37400 24.84000
N  0.62200 42.50700 29.07100
C  1.60800 42.66500 30.05300
C  1.09500 42.60900 31.48100
C  -0.39200 42.22600 31.22300
C  -0.55400 42.27200 29.64600
C  -0.95500 40.90300 31.82300
C  1.41200 43.88900 32.20300
C  1.36400 43.77200 33.74400
H  1.03800 42.49600 34.53000
N  -1.23400 42.19000 26.62000
C  -2.14800 42.13700 27.66800
C  -3.45100 41.86400 27.13700
C  -3.33400 41.90900 25.66100
C  -1.91800 42.18600 25.43500
C  -4.75300 41.72400 27.96000
C  -4.37800 41.64600 24.56100
O  -4.10000 41.44400 23.34400
C  -5.89600 41.39800 24.94600
N  1.07500 42.82900 24.76600
C  0.03700 42.79800 23.85800
C  0.58200 42.88200 22.38200
C  2.14100 43.21300 22.61800
C  2.25300 43.12500 24.14000
C  0.26100 41.61300 21.53900
C  2.70600 44.51200 21.94700
C  2.37800 45.91200 22.64900
N  2.74800 43.05000 27.10400
C  3.74500 43.25900 26.21900
C  5.05000 43.30200 26.87400
C  4.77100 42.97900 28.19000
C  3.36700 42.83600 28.27100
C  6.32500 43.67600 26.23200
C  5.39800 42.82300 29.49100
O  6.58200 42.87200 29.80100
C  4.15900 42.67600 30.52800
C  4.24300 41.46600 31.40600
O  4.12600 40.32000 31.01200
O  4.57400 41.83900 32.68400
C  4.79700 40.68500 33.52700
H  -2.65300 42.05500 29.81400
H  -1.96400 42.62900 23.40600
H  4.33800 43.67200 24.23600
H  1.44300 41.70600 31.98300
H  -0.96000 43.09100 31.56700
H  -1.30100 40.29700 30.98600
H  -1.82700 41.20700 32.40300
H  -0.22600 40.33500 32.40100
H  0.58700 44.56200 31.97200
H  2.36400 44.29000 31.85600
H  0.91600 44.67000 34.17000
H  2.39600 44.07100 33.93200
H  -5.43400 40.97100 27.56300
H  -5.14400 42.73900 28.04000
H  -4.46700 41.40700 28.96300
H  -5.96900 40.39400 25.36500
H  -6.42300 41.41700 23.99300
H  -6.42500 42.17000 25.50500
H  0.11500 43.70800 21.84600
H  2.60000 42.34600 22.14200
H  -0.14400 40.79700 22.13700
H  1.22700 41.37300 21.09300
H  -0.61300 41.79500 20.91500
H  2.32200 44.56800 20.92800
H  3.75500 44.21600 21.97200
H  3.37300 46.24700 22.94100
H  1.81300 45.73600 23.56400
H  1.81800 46.58200 21.99600
H  6.24400 44.55900 25.59900
H  6.73800 42.84300 25.66400
H  6.89900 43.95300 27.11700
H  4.08800 43.50700 31.23000
H  5.81200 40.32300 33.36300
H  4.07500 39.87200 33.44700
H  4.89200 41.02800 34.55800

