158

Mg 6.08300 53.70500 41.61200
C  5.81500 50.26600 41.26700
C  9.23200 53.64800 40.10100
C  6.23600 57.11600 41.80400
C  2.72700 53.91600 42.61400
N  7.29400 52.10400 40.75200
C  7.03700 50.73700 40.72200
C  8.16000 49.95600 39.92500
C  9.29300 51.04300 39.97800
C  8.58100 52.36800 40.26900
C  10.39800 50.78900 41.04200
C  7.88900 49.29300 38.55800
C  6.81800 50.06000 37.69100
H  7.35200 50.39400 36.26300
N  7.58000 55.18200 41.07600
C  8.71100 54.94000 40.43400
C  9.44700 56.24500 40.26400
C  8.69000 57.26400 40.91800
C  7.42200 56.55300 41.25200
C  10.81300 56.36800 39.51500
C  9.06700 58.79300 41.14200
O  10.10100 59.17300 40.68300
C  8.16800 59.81500 41.84500
N  4.66600 55.27900 41.94600
C  4.95100 56.58500 42.01400
C  3.72900 57.48300 42.30300
C  2.65400 56.43700 42.55700
C  3.35300 55.10800 42.26000
C  3.98000 58.47700 43.51700
C  1.39800 56.63000 41.61800
C  0.65800 57.95100 41.57100
N  4.61600 52.35500 41.93800
C  3.30200 52.57500 42.47900
C  2.70800 51.33100 42.76000
C  3.68900 50.41600 42.35600
C  4.82800 51.08100 41.85100
C  1.27300 51.14100 43.31000
C  3.95900 49.00000 42.25000
O  3.19700 48.08500 42.54900
C  5.36400 48.86300 41.58100
C  5.08800 48.15300 40.36300
O  4.44300 48.55700 39.42900
O  5.73300 47.02400 40.49700
C  5.40600 46.01300 39.41700
H  10.22100 53.64200 39.63900
H  6.30200 58.20500 41.76000
H  1.68300 53.94900 42.93000
H  8.32100 49.18700 40.68100
H  9.69300 50.93900 38.97000
H  10.11500 49.93800 41.66200
H  10.49600 51.69100 41.64600
H  11.38500 50.59300 40.62200
H  7.87200 48.21800 38.73600
H  8.82000 49.39200 38.00000
H  6.33100 50.92400 38.14300
H  6.01600 49.33100 37.57800
H  11.29700 57.33600 39.65200
H  10.68000 56.18300 38.44900
H  11.37200 55.51500 39.90000
H  7.27500 60.16600 41.32700
H  8.86000 60.64500 41.98200
H  7.88200 59.47100 42.83900
H  3.54200 57.90200 41.31500
H  2.18000 56.49400 43.53700
H  5.02600 58.45500 43.82100
H  3.29400 58.20700 44.32000
H  3.80300 59.53300 43.31100
H  0.66000 55.86600 41.86200
H  1.81300 56.52000 40.61700
H  0.70800 58.19900 40.51100
H  1.11700 58.73700 42.17100
H  -0.40100 57.86500 41.81200
H  1.10900 51.89600 44.07900
H  1.11800 50.11800 43.65300
H  0.69200 51.29700 42.40200
H  6.04700 48.27200 42.19100
H  6.05400 46.14500 38.55000
H  4.36800 45.94500 39.09200
H  5.64400 45.04500 39.85600
Mg 0.84200 43.05200 25.89000
C  3.19500 43.33000 28.53600
C  -1.39300 42.03500 28.27000
C  -1.13200 42.42000 23.41300
C  3.50800 43.72600 23.61900
N  0.90800 42.92900 28.22800
C  1.93700 43.12000 29.04400
C  1.57800 42.93200 30.55800
C  0.08000 42.56000 30.42800
C  -0.18300 42.41200 28.87800
C  -0.34500 41.32200 31.19900
C  1.80800 44.22700 31.35500
C  1.14200 44.46800 32.72000
H  0.94000 43.11900 33.59000
N  -1.03100 42.39600 25.83100
C  -1.78200 41.93100 26.92900
C  -3.05500 41.34700 26.42100
C  -2.96900 41.43800 24.94500
C  -1.68600 42.12700 24.67200
C  -4.06900 40.74400 27.36100
C  -3.98100 41.02000 23.88100
O  -3.90700 41.27700 22.63100
C  -5.23200 40.21600 24.25800
N  1.19100 42.90000 23.78000
C  0.15000 42.66000 22.96500
C  0.48100 42.72400 21.43900
C  1.92700 43.46100 21.56800
C  2.26400 43.37600 23.07400
C  0.58900 41.33400 20.66400
C  1.86700 44.84900 20.88200
C  1.26200 45.98500 21.65200
N  2.91700 43.53700 25.95100
C  3.89200 43.71000 24.96900
C  5.16600 43.80800 25.62500
C  4.96900 43.63700 26.98900
C  3.61000 43.51300 27.18000
C  6.50300 43.84500 24.83600
C  5.63600 43.49900 28.24000
O  6.86200 43.40800 28.43400
C  4.51600 43.43900 29.36800
C  4.83600 42.30000 30.27100
O  5.21800 41.17300 29.99700
O  4.69800 42.77500 31.56700
C  5.09900 41.95200 32.70300
H  -2.12500 41.64000 28.97700
H  -1.82700 42.24000 22.59100
H  4.37800 44.06200 23.05000
H  2.17700 42.09300 30.91200
H  -0.59700 43.35200 30.74700
H  -1.03000 41.71000 31.95300
H  0.51300 41.01600 31.79800
H  -0.76100 40.54000 30.56300
H  1.50300 45.07000 30.73500
H  2.87400 44.44200 31.42800
H  0.23900 45.04600 32.52400
H  1.69500 45.19600 33.31300
H  -5.08000 40.87600 26.97400
H  -4.03500 41.25600 28.32300
H  -3.93600 39.67000 27.48900
H  -4.94700 39.42200 24.94900
H  -5.46800 39.64100 23.36300
H  -6.01600 40.93400 24.49700
H  -0.31600 43.29000 20.95700
H  2.71800 42.88100 21.09300
H  0.18400 40.55500 21.31100
H  1.59900 41.04200 20.37400
H  0.04700 41.35600 19.71900
H  1.42000 44.78400 19.89000
H  2.89200 45.18900 20.73200
H  0.87000 45.72000 22.63400
H  0.53300 46.38300 20.94600
H  2.04800 46.74000 21.68200
H  6.50000 43.43800 23.82500
H  7.16200 43.17100 25.38400
H  6.89500 44.86200 24.84900
H  4.56500 44.32300 30.00400
H  6.14300 42.18600 32.91600
H  4.87000 40.89100 32.60200
H  4.43000 42.19800 33.52800

