158

Mg 3.45600 0.69500 44.44300
C  6.25500 2.77800 44.25500
C  1.55300 3.20300 42.98100
C  0.89900 -1.55500 43.90900
C  5.64400 -1.95800 45.28900
N  3.87800 2.67300 43.70000
C  5.11400 3.30700 43.66400
C  4.97300 4.77500 43.28200
C  3.36000 4.95100 43.20600
C  2.86400 3.55500 43.33500
C  2.69900 5.89700 44.26000
C  5.74500 5.11700 41.89700
C  6.08800 3.97000 40.93300
H  6.51600 4.25300 39.50100
N  1.43100 0.79000 43.70400
C  0.88400 1.91400 43.13400
C  -0.42300 1.59600 42.66300
C  -0.64600 0.22400 42.97600
C  0.55700 -0.26200 43.59000
C  -1.41800 2.62800 42.03100
C  -1.92300 -0.64700 42.56000
O  -2.83200 -0.09000 41.98100
C  -2.20400 -2.06700 43.02300
N  3.32400 -1.46900 44.37800
C  2.11600 -2.12700 44.28900
C  2.36000 -3.59500 44.51300
C  3.78000 -3.73400 45.18400
C  4.30800 -2.32000 44.92600
C  1.30000 -4.42100 45.16700
C  4.68900 -4.98300 44.71800
C  5.35000 -5.73400 45.82300
N  5.50100 0.35200 44.67300
C  6.23600 -0.70900 45.16800
C  7.55900 -0.31000 45.49900
C  7.69100 1.00500 45.07900
C  6.39800 1.37700 44.65500
C  8.64200 -1.20200 45.98200
C  8.54600 2.20400 44.97300
O  9.73700 2.32000 45.14100
C  7.60400 3.35300 44.49500
C  7.61500 4.55600 45.35500
O  8.38700 5.47700 45.14800
O  6.69600 4.58300 46.34500
C  6.62000 5.81900 47.16300
H  1.01000 4.08300 42.63100
H  0.13500 -2.32500 43.78100
H  6.27300 -2.73600 45.72700
H  5.38200 5.31400 44.13700
H  3.11100 5.38000 42.23600
H  3.02400 5.48600 45.21600
H  1.64700 5.79900 43.99100
H  3.02000 6.93400 44.16400
H  6.64300 5.54600 42.34400
H  5.17800 5.89800 41.38900
H  5.40100 3.12500 40.96300
H  7.02500 3.52500 41.26500
H  -1.41400 2.38600 40.96800
H  -1.06200 3.65400 42.11900
H  -2.43200 2.42800 42.37700
H  -1.94600 -2.18700 44.07500
H  -1.55900 -2.59300 42.31900
H  -3.27000 -2.29100 42.97900
H  2.31200 -3.87000 43.45900
H  3.58100 -3.70300 46.25600
H  0.64400 -3.82600 45.80100
H  1.80500 -5.22900 45.69600
H  0.83500 -4.92400 44.31900
H  5.33500 -4.59100 43.93300
H  4.09200 -5.73100 44.19600
H  4.91600 -5.43000 46.77600
H  6.41200 -5.50200 45.75300
H  5.13100 -6.80100 45.82700
H  8.88800 -2.02800 45.31500
H  8.37500 -1.53300 46.98500
H  9.61600 -0.71400 46.01000
H  8.24700 3.59300 43.64800
H  5.84600 6.47500 46.76600
H  7.57600 6.34200 47.17700
H  6.32000 5.54500 48.17400
Mg 47.10300 34.57000 27.74300
C  45.37000 32.91900 30.15400
C  47.59800 37.24000 29.93100
C  48.32800 36.45200 25.24400
C  46.41700 32.06400 25.50000
N  46.59100 35.02400 29.81000
C  45.86700 34.11500 30.61500
C  46.02700 34.57100 32.14300
C  46.23500 36.11300 31.90000
C  46.82500 36.17300 30.44400
C  44.91800 36.97200 32.04800
C  47.17200 33.81900 32.82200
C  47.02500 33.68200 34.35500
H  46.02800 34.54300 35.13900
N  47.91100 36.57600 27.59100
C  48.05600 37.45700 28.63400
C  48.66600 38.65900 28.06900
C  48.81100 38.42700 26.70600
C  48.30700 37.17200 26.45800
C  49.02400 39.78000 28.97900
C  49.40300 39.31500 25.67900
O  49.28200 39.17300 24.47700
C  49.94800 40.59300 26.17700
N  47.22600 34.35300 25.63800
C  47.86400 35.20300 24.86800
C  48.15200 34.68700 23.46100
C  47.72800 33.19600 23.64300
C  47.06800 33.15600 25.02900
C  47.43500 35.46600 22.38500
C  48.79100 32.13900 23.68800
C  48.67300 30.90500 22.72800
N  46.03100 32.82200 27.73100
C  45.84100 31.84300 26.75500
C  45.24800 30.69400 27.32400
C  44.91700 31.15600 28.64900
C  45.45400 32.38900 28.89100
C  45.04700 29.35600 26.72500
C  44.33800 30.70800 29.84700
O  43.73900 29.67600 30.17500
C  44.44200 31.89400 30.83000
C  44.77900 31.40100 32.21500
O  45.68400 30.57200 32.47700
O  43.94600 31.85000 33.09900
C  44.15600 31.46500 34.46700
H  47.65800 38.02100 30.69200
H  48.67500 36.93000 24.32600
H  46.33500 31.23200 24.79800
H  45.09100 34.53000 32.70000
H  47.00200 36.45300 32.59600
H  43.94300 36.49300 31.97100
H  44.88300 37.72800 31.26300
H  45.00100 37.58900 32.94300
H  48.11000 34.32500 32.59600
H  47.24900 32.82400 32.38500
H  48.00400 34.01500 34.69900
H  46.90600 32.63200 34.62500
H  50.05800 40.12200 28.91900
H  48.68900 39.68800 30.01200
H  48.42300 40.67600 28.82700
H  49.21200 41.11400 26.78800
H  50.02200 41.19700 25.27300
H  50.93300 40.57400 26.64500
H  49.23300 34.68900 23.32100
H  47.05200 32.91600 22.83400
H  46.83500 36.23700 22.86900
H  46.71400 34.89200 21.80200
H  48.11600 35.71000 21.57000
H  48.99600 31.64300 24.63700
H  49.69000 32.65900 23.35600
H  47.74000 30.87500 22.16500
H  48.70800 29.92400 23.20200
H  49.49000 31.02100 22.01700
H  45.67800 29.08200 25.87900
H  44.01800 29.26000 26.38000
H  45.23400 28.73400 27.60100
H  43.47000 32.38800 30.83400
H  44.14600 30.41700 34.76800
H  43.41000 31.96800 35.08200
H  45.15400 31.76800 34.78500

