158

Mg 6.69400 54.61100 40.74900
C  5.83900 51.14400 40.57100
C  9.82900 53.80300 40.00100
C  7.18700 57.82100 39.93600
C  3.19100 55.27600 40.83700
N  7.65300 52.64800 40.21000
C  7.22300 51.38900 40.22700
C  8.27800 50.36200 39.84500
C  9.56400 51.16100 40.19100
C  9.01600 52.65700 40.12800
C  10.21400 50.74200 41.57700
C  8.19700 49.81100 38.34000
C  7.38600 50.68700 37.27200
H  6.78400 50.02900 36.02800
N  8.34700 55.76900 40.27200
C  9.60400 55.21200 39.95000
C  10.49500 56.26600 39.67200
C  9.75300 57.49200 39.81500
C  8.38100 57.04100 40.00900
C  11.91500 55.98700 39.35900
C  10.37500 58.86500 39.68000
O  11.53900 58.98500 39.42000
C  9.54600 60.09000 39.73700
N  5.35900 56.35700 40.44300
C  5.85000 57.53800 40.08700
C  4.74500 58.54800 39.74000
C  3.46600 57.80200 40.33900
C  4.01500 56.35500 40.54300
C  5.03500 60.00400 40.24600
C  2.14800 57.83200 39.48300
C  0.86500 58.30100 40.21200
N  4.84900 53.48300 40.83600
C  3.51700 53.90300 41.02200
C  2.68100 52.71500 41.18800
C  3.52400 51.68400 41.05000
C  4.86700 52.17700 40.82700
C  1.20000 52.74900 41.41700
C  3.58400 50.25900 41.06700
O  2.71900 49.41400 41.22700
C  5.10300 49.86800 40.81100
C  5.10100 48.97400 39.53100
O  4.82800 49.36900 38.41600
O  5.39900 47.65700 39.93200
C  5.11800 46.57900 38.98100
H  10.86200 53.45000 39.95600
H  7.36200 58.76600 39.41700
H  2.13100 55.47500 41.00900
H  8.14100 49.42800 40.39000
H  10.35800 50.91800 39.48500
H  10.38600 51.65200 42.15200
H  11.16400 50.28800 41.29500
H  9.65400 50.10200 42.26000
H  7.81000 48.79600 38.43100
H  9.22300 49.59600 38.03900
H  8.17700 51.36400 36.94800
H  6.59100 51.29400 37.70500
H  12.21500 56.31800 38.36400
H  12.06200 54.92000 39.52500
H  12.59900 56.33700 40.13200
H  8.89600 60.13200 38.86400
H  10.29900 60.87800 39.76800
H  8.98300 60.12900 40.66900
H  4.73500 58.63500 38.65400
H  3.29400 58.23300 41.32500
H  6.07600 60.08000 40.56000
H  4.57200 60.44900 41.12700
H  4.92700 60.73500 39.44600
H  2.00000 56.91700 38.91000
H  2.38900 58.55500 38.70300
H  0.41000 59.15100 39.70400
H  1.11900 58.71000 41.19000
H  0.17700 57.47500 40.39200
H  0.65100 52.02700 40.81200
H  0.89000 53.78400 41.27500
H  0.97400 52.70600 42.48200
H  5.38100 49.26200 41.67400
H  4.94900 45.57600 39.37400
H  5.84700 46.50700 38.17400
H  4.21200 46.82700 38.42800
Mg 16.89000 52.18200 26.48800
C  18.77600 50.65600 29.17100
C  14.55400 52.97000 28.88500
C  15.14600 53.51900 24.14600
C  19.07500 50.63900 24.26000
N  16.72500 51.88200 28.82200
C  17.66200 51.29300 29.71200
C  17.23400 51.51100 31.17500
C  15.77700 52.08100 30.98000
C  15.65400 52.33400 29.49700
C  14.61600 51.17900 31.58600
C  18.17300 52.52400 31.86700
C  17.84700 52.96600 33.39400
H  16.69200 52.22300 34.11400
N  15.08200 53.10700 26.52500
C  14.26700 53.35700 27.56700
C  13.08900 54.17500 27.15700
C  13.27100 54.29300 25.72200
C  14.55600 53.64400 25.41500
C  12.00700 54.82200 28.10800
C  12.39000 55.09700 24.74100
O  12.66600 55.22100 23.57400
C  11.08000 55.80600 25.16400
N  17.01200 52.04100 24.48100
C  16.21000 52.80400 23.68800
C  16.51900 52.57100 22.17600
C  17.84900 51.82900 22.20600
C  18.04800 51.47100 23.75400
C  15.44700 51.77100 21.39500
C  19.02900 52.64000 21.63100
C  19.55500 53.81700 22.45900
N  18.57000 50.90400 26.65400
C  19.34900 50.30500 25.65200
C  20.39400 49.49100 26.22300
C  20.19300 49.62900 27.58200
C  19.06900 50.44700 27.82200
C  21.39900 48.66200 25.54200
C  20.71400 49.28400 28.84900
O  21.71300 48.68500 29.09900
C  19.81200 49.90900 29.92000
C  19.24600 48.84700 30.87500
O  18.64900 47.79100 30.60800
O  19.77000 49.12300 32.12300
C  19.33700 48.24900 33.25700
H  13.74800 53.23800 29.57100
H  14.68500 54.00500 23.28300
H  19.81700 50.34900 23.51400
H  17.19200 50.49600 31.57200
H  15.70300 53.06300 31.44700
H  15.01100 50.29300 32.08300
H  14.04200 50.80100 30.74000
H  13.98500 51.71800 32.29200
H  18.00200 53.44500 31.30900
H  19.16300 52.08900 31.73100
H  17.60800 54.02300 33.27300
H  18.77100 52.77800 33.93900
H  11.94200 55.89100 27.90400
H  12.17200 54.68100 29.17600
H  11.09700 54.26800 27.88000
H  10.62300 55.22200 25.96200
H  10.49500 55.80500 24.24400
H  11.14100 56.86300 25.42100
H  16.59800 53.57100 21.75000
H  17.76600 50.85400 21.72700
H  14.50000 52.30700 21.46500
H  15.29900 50.79400 21.85500
H  15.76700 51.45200 20.40300
H  18.88600 52.90500 20.58300
H  19.86500 51.94200 21.64800
H  19.68900 54.65900 21.77900
H  20.28300 53.55600 23.22800
H  18.72200 54.11700 23.09400
H  21.57500 49.07300 24.54800
H  20.94400 47.67500 25.46100
H  22.32500 48.51600 26.09800
H  20.40000 50.64800 30.46400
H  20.27900 48.00300 33.74600
H  18.89800 47.31400 32.91100
H  18.64100 48.67100 33.98300

