158

Mg 0.03400 43.86900 25.90600
C  2.00100 43.21100 28.74900
C  -2.65100 42.27700 27.53900
C  -1.64600 43.81000 23.07300
C  2.97500 44.66200 24.18500
N  -0.23300 42.79100 27.83600
C  0.64900 42.87500 28.89500
C  0.00200 42.61600 30.26700
C  -1.40400 42.06800 29.85800
C  -1.44200 42.36000 28.30200
C  -1.80200 40.67100 30.25700
C  0.02700 43.87200 31.25700
C  0.34300 43.61000 32.74600
H  0.07400 42.22100 33.50300
N  -1.88800 43.21200 25.35300
C  -2.83400 42.57100 26.17600
C  -4.08900 42.35500 25.38900
C  -3.78100 42.83000 24.07100
C  -2.35200 43.32300 24.10800
C  -5.34000 41.68300 25.97300
C  -4.61600 42.94500 22.84200
O  -4.31000 43.44700 21.79100
C  -5.99100 42.37100 22.94700
N  0.62000 44.24700 23.89900
C  -0.33000 44.32900 22.94800
C  0.17500 44.87500 21.66900
C  1.66100 44.99400 21.93900
C  1.76500 44.61600 23.42500
C  -0.02800 43.92100 20.48000
C  2.20200 46.34200 21.46800
C  2.16200 47.43700 22.59000
N  2.02700 44.12000 26.32800
C  3.16700 44.41700 25.52500
C  4.38600 44.56600 26.32700
C  3.92200 44.08400 27.58500
C  2.58300 43.78400 27.59000
C  5.72000 45.08600 25.96000
C  4.31300 43.75100 28.94300
O  5.41200 43.78300 29.33600
C  3.11500 43.22900 29.74500
C  3.46700 41.88600 30.27700
O  3.49100 40.85600 29.56100
O  3.65200 41.92400 31.66100
C  4.09900 40.63700 32.32900
H  -3.55700 41.89500 28.01500
H  -2.16800 43.83500 22.11500
H  3.76900 45.13300 23.60100
H  0.58700 41.75900 30.60200
H  -2.08700 42.80500 30.28200
H  -2.48200 40.09900 29.62500
H  -2.21400 40.78900 31.25900
H  -0.87900 40.10300 30.37400
H  -0.89700 44.43900 31.14000
H  0.75300 44.53400 30.78400
H  -0.39000 44.26200 33.22200
H  1.37000 43.87800 32.99200
H  -6.15500 42.37500 25.76000
H  -5.30300 41.44900 27.03700
H  -5.40200 40.74700 25.41800
H  -5.83900 41.30800 23.13500
H  -6.49400 42.52100 21.99200
H  -6.58000 42.87300 23.71500
H  -0.43000 45.74700 21.42100
H  2.17500 44.16300 21.45700
H  -0.32400 44.46600 19.58400
H  -0.87700 43.23800 20.48100
H  0.87100 43.45100 20.08100
H  1.70300 46.72000 20.57600
H  3.18200 46.18400 21.01800
H  3.13900 47.88900 22.76100
H  1.71200 47.09400 23.52200
H  1.40200 48.17400 22.33000
H  6.30000 45.30600 26.85600
H  5.64800 46.06800 25.49300
H  6.36100 44.44200 25.35700
H  2.90900 43.87900 30.59500
H  4.06700 39.85600 31.56900
H  3.41800 40.40000 33.14600
H  5.12800 40.87300 32.60100
Mg -4.53400 25.82100 25.09800
C  -2.89500 27.10500 27.98200
C  -6.09900 23.60400 27.13500
C  -5.87500 24.58700 22.37900
C  -2.38800 27.86300 23.12100
N  -4.47900 25.41400 27.35300
C  -3.82300 26.14100 28.30200
C  -4.39700 25.80600 29.69400
C  -5.12300 24.40700 29.40400
C  -5.27000 24.46700 27.87500
C  -4.36700 23.10400 29.85500
C  -5.30600 26.95800 30.27900
C  -5.15900 27.33000 31.66700
H  -4.73900 26.15500 32.64500
N  -5.88400 24.42900 24.83500
C  -6.43500 23.51800 25.78300
C  -7.42000 22.68300 25.16400
C  -7.38300 22.96500 23.77700
C  -6.33400 24.00000 23.61500
C  -8.31900 21.68900 25.97600
C  -8.15800 22.39700 22.65900
O  -7.99600 22.68700 21.46500
C  -9.21900 21.40200 22.91800
N  -4.08800 26.12900 23.06300
C  -4.90400 25.54600 22.12000
C  -4.45000 25.97000 20.73700
C  -3.50100 27.12100 20.97300
C  -3.26700 27.03300 22.45000
C  -3.86900 24.80900 19.86700
C  -4.01000 28.57300 20.61300
C  -2.91600 29.48500 20.13200
N  -2.92500 27.09700 25.40500
C  -2.20700 27.96000 24.55000
C  -1.25400 28.78000 25.28600
C  -1.54000 28.43100 26.61800
C  -2.54600 27.45700 26.65500
C  -0.35700 29.81500 24.75000
C  -1.14800 28.75200 27.92100
O  -0.36300 29.52000 28.37100
C  -2.12200 27.95200 28.89100
C  -1.17700 27.34100 29.77200
O  -0.32700 26.53500 29.44100
O  -1.30900 27.69400 31.07500
C  -0.28400 27.23500 32.05100
H  -6.67800 22.96500 27.80400
H  -6.58600 24.42600 21.56600
H  -1.80400 28.46100 22.41800
H  -3.60900 25.60900 30.42100
H  -6.12400 24.46700 29.83100
H  -3.47100 23.25400 30.45600
H  -4.14400 22.43900 29.02000
H  -5.05900 22.63200 30.55300
H  -6.33900 26.62600 30.18300
H  -5.18500 27.87100 29.69600
H  -6.08500 27.72200 32.08800
H  -4.43700 28.14500 31.72400
H  -9.16800 22.28800 26.30500
H  -7.83900 21.45400 26.92600
H  -8.72900 20.83200 25.44000
H  -9.87100 21.34000 22.04600
H  -9.82500 21.80100 23.73200
H  -8.89000 20.37300 23.06200
H  -5.32900 26.40800 20.26500
H  -2.61900 26.85800 20.39000
H  -3.45000 23.96800 20.41800
H  -3.20600 25.06800 19.04200
H  -4.75100 24.42400 19.35500
H  -4.49900 29.05700 21.45800
H  -4.82600 28.57000 19.89000
H  -2.97400 30.39700 20.72600
H  -3.04700 29.65700 19.06300
H  -1.94500 28.99000 20.10600
H  0.61500 29.33900 24.61400
H  -0.24700 30.56600 25.53200
H  -0.82600 30.26500 23.87500
H  -2.72100 28.73800 29.35100
H  0.77300 27.27300 31.78600
H  -0.48700 26.28900 32.55500
H  -0.34200 27.98200 32.84300

