158

Mg 26.92000 49.56900 26.56300
C  24.96700 50.97400 29.14700
C  29.35600 48.68200 28.87000
C  28.93100 48.86100 24.00400
C  24.58400 51.14100 24.28400
N  27.14600 49.78100 28.78100
C  26.11200 50.31900 29.59600
C  26.57900 50.18000 31.04300
C  28.09300 49.74000 31.00500
C  28.21600 49.36400 29.48500
C  29.15400 50.74500 31.46100
C  25.58400 49.30200 31.96400
C  24.93400 50.05800 33.15600
H  24.92800 49.35100 34.54500
N  28.77100 48.73100 26.43100
C  29.55000 48.34600 27.51100
C  30.72800 47.68300 27.00300
C  30.75100 47.85900 25.56300
C  29.41600 48.49900 25.25000
C  31.81800 47.09600 27.83200
C  31.76900 47.53000 24.49900
O  31.75300 47.95900 23.36000
C  33.07800 46.87200 24.99700
N  26.80800 50.11000 24.49200
C  27.75200 49.53500 23.62400
C  27.39900 49.79300 22.17900
C  25.88400 50.29500 22.27400
C  25.74000 50.59200 23.79000
C  28.45800 50.68100 21.58500
C  24.97900 49.26700 21.69100
C  24.15600 49.70700 20.45800
N  25.14500 50.75400 26.70100
C  24.34000 51.33500 25.67200
C  23.17800 51.88400 26.27900
C  23.40600 51.74800 27.68300
C  24.58800 51.09800 27.83500
C  22.04200 52.47500 25.52500
C  22.79600 51.98900 28.98700
O  21.71200 52.43200 29.35400
C  23.83300 51.55400 30.00200
C  24.15500 52.74400 30.78800
O  24.93000 53.54300 30.42400
O  23.34800 52.76800 31.91700
C  23.50000 53.90600 32.81100
H  30.22700 48.45300 29.48700
H  29.49700 48.47100 23.15500
H  23.81900 51.55500 23.62300
H  26.58500 51.21500 31.38600
H  28.15000 48.81600 31.58100
H  28.95700 50.93500 32.51600
H  29.11700 51.57500 30.75500
H  30.11900 50.24100 31.51300
H  26.31600 48.65100 32.44100
H  24.80900 48.74200 31.44000
H  23.88900 50.31600 32.98600
H  25.59700 50.91000 33.30600
H  31.43700 46.89300 28.83300
H  32.65100 47.79300 27.92400
H  32.09400 46.10200 27.48100
H  32.81100 45.93400 25.48600
H  33.79600 47.53800 25.47500
H  33.62700 46.51400 24.12700
H  27.44100 48.80700 21.71400
H  25.57300 51.21500 21.78000
H  29.26500 50.96300 22.26100
H  27.94700 51.57500 21.22800
H  28.84300 50.23900 20.66600
H  24.40600 48.92400 22.55300
H  25.43200 48.32800 21.37200
H  24.31200 49.20000 19.50600
H  24.07100 50.78300 20.30500
H  23.14100 49.52100 20.81000
H  22.46200 53.39700 25.12300
H  21.28000 52.57700 26.29800
H  21.78500 51.69400 24.80800
H  23.41400 50.78000 30.64500
H  23.93300 54.72900 32.24200
H  24.13000 53.80700 33.69500
H  22.55000 54.13800 33.29300
Mg -6.44700 25.80700 25.57500
C  -4.45400 27.04600 28.11200
C  -7.65000 23.47500 27.77400
C  -8.03400 24.37200 22.95900
C  -4.80500 28.03100 23.31000
N  -6.14100 25.41300 27.68700
C  -5.30300 26.08500 28.54200
C  -5.56100 25.56000 29.98400
C  -6.26100 24.16300 29.80400
C  -6.74700 24.34000 28.33600
C  -5.36000 22.87300 29.98400
C  -6.41000 26.60600 30.79300
C  -6.28300 26.53500 32.37400
H  -5.67900 25.30400 33.09200
N  -7.77100 24.15000 25.39700
C  -8.10900 23.32800 26.43900
C  -9.03800 22.30700 25.94300
C  -9.17200 22.54700 24.51800
C  -8.25600 23.66400 24.20800
C  -9.78600 21.40300 26.91100
C  -9.98900 21.88000 23.41800
O  -10.03100 22.21500 22.24100
C  -10.96800 20.72900 23.78900
N  -6.32400 26.11600 23.47600
C  -7.20100 25.45200 22.59900
C  -6.85900 25.83000 21.15900
C  -6.20000 27.20500 21.32800
C  -5.72400 27.14300 22.79900
C  -6.00900 24.73700 20.31500
C  -7.28200 28.39700 21.27400
C  -7.50500 29.03300 19.88500
N  -4.91100 27.19800 25.66200
C  -4.36000 28.07500 24.67000
C  -3.37900 28.94200 25.30400
C  -3.40100 28.53800 26.62200
C  -4.32100 27.48400 26.79000
C  -2.62300 30.02100 24.64800
C  -2.78500 28.84600 27.92700
O  -1.86900 29.61800 28.13800
C  -3.52100 27.94100 29.00000
C  -2.56900 27.23800 29.84800
O  -1.74400 26.48900 29.34900
O  -2.74500 27.55400 31.11200
C  -1.89700 26.81800 32.01600
H  -7.82000 22.72500 28.54900
H  -8.46400 23.96500 22.04100
H  -4.63000 28.85000 22.60900
H  -4.66200 25.37400 30.57200
H  -7.00000 24.22200 30.60300
H  -5.22300 22.52100 28.96100
H  -6.04500 22.20200 30.50200
H  -4.40400 23.07000 30.47000
H  -7.40800 26.34000 30.44600
H  -6.23700 27.62300 30.44100
H  -7.31100 26.51700 32.73500
H  -5.94700 27.46300 32.83700
H  -9.21400 21.35500 27.83700
H  -10.04300 20.46600 26.41600
H  -10.76000 21.87500 27.03700
H  -11.64900 20.66100 22.94000
H  -11.46300 21.04100 24.70800
H  -10.45100 19.80800 24.05800
H  -7.75200 25.89000 20.53600
H  -5.46300 27.34600 20.53700
H  -5.11500 25.22500 19.92600
H  -6.46600 24.35200 19.40300
H  -5.84900 23.78500 20.82100
H  -6.86000 29.21300 21.86100
H  -8.27100 28.14200 21.65500
H  -6.88200 29.91300 19.72500
H  -8.55500 29.32600 19.85800
H  -7.41300 28.34200 19.04700
H  -3.29000 30.77200 24.22400
H  -2.24800 29.45800 23.79300
H  -1.81500 30.44300 25.24500
H  -4.12400 28.66500 29.54700
H  -2.33000 25.95600 32.52300
H  -1.81400 27.48900 32.87100
H  -0.86300 26.61900 31.73400

