158

Mg 23.65200 -5.08200 44.78900
C  25.89400 -2.68300 43.50600
C  21.29200 -3.72500 42.72600
C  21.77500 -7.81700 45.36600
C  26.32200 -6.53300 46.56000
N  23.68400 -3.47900 43.21400
C  24.61500 -2.53700 43.00600
C  24.17300 -1.43400 42.07900
C  22.58100 -1.66000 41.99800
C  22.50900 -3.05800 42.61900
C  21.74100 -0.71400 42.86700
C  24.99900 -1.38800 40.78900
C  24.89400 0.01200 40.10000
H  24.17800 0.03900 38.72800
N  21.78100 -5.70000 44.11600
C  20.96300 -4.94300 43.30700
C  19.73800 -5.62900 43.15700
C  19.77300 -6.87700 43.87400
C  21.15000 -6.86900 44.50400
C  18.55000 -4.98500 42.39300
C  18.71000 -7.96400 44.02000
O  17.54800 -7.67500 43.64700
C  18.94000 -9.40600 44.53900
N  24.05000 -7.00600 45.74000
C  23.05600 -7.97600 45.88900
C  23.50400 -9.06000 46.85400
C  24.94700 -8.62100 47.33600
C  25.12800 -7.33300 46.52700
C  22.63700 -9.39100 48.00700
C  26.11200 -9.69300 47.04100
C  26.13300 -10.83400 47.99600
N  25.67400 -4.70300 45.10600
C  26.64400 -5.34400 45.88800
C  27.89800 -4.69900 45.73000
C  27.68300 -3.65600 44.83700
C  26.36900 -3.71600 44.37900
C  29.14500 -4.94500 46.47400
C  28.25600 -2.52200 44.18100
O  29.42600 -2.10400 44.18000
C  27.18100 -1.84100 43.22700
C  26.94600 -0.44100 43.53500
O  26.47700 -0.09900 44.61100
O  27.28700 0.38800 42.52800
C  27.05600 1.83800 42.78300
H  20.44400 -3.26900 42.21100
H  21.06900 -8.52900 45.79900
H  27.13200 -6.96100 47.15500
H  24.27500 -0.47100 42.58000
H  22.22100 -1.49700 40.98300
H  20.67200 -0.87900 42.72700
H  21.86900 0.32200 42.55200
H  21.98400 -0.82800 43.92300
H  24.57800 -2.10200 40.08100
H  26.02300 -1.74200 40.90700
H  25.92700 0.27500 39.87100
H  24.42100 0.73700 40.76100
H  17.61600 -5.29600 42.86000
H  18.47600 -5.27200 41.34400
H  18.46800 -3.89800 42.39400
H  17.99900 -9.90700 44.31300
H  19.20400 -9.58300 45.58200
H  19.81000 -9.80700 44.02000
H  23.46600 -10.00300 46.30900
H  24.91300 -8.40000 48.40300
H  22.45800 -8.57600 48.70800
H  23.11900 -10.18300 48.58000
H  21.62600 -9.58200 47.64400
H  27.02500 -9.11400 46.89700
H  25.85100 -10.17400 46.09900
H  26.12400 -11.74400 47.39600
H  25.25800 -10.82900 48.64500
H  26.99800 -10.75400 48.65500
H  29.46300 -5.98700 46.44300
H  28.84200 -4.74300 47.50100
H  29.85900 -4.15800 46.23100
H  27.60700 -1.90100 42.22500
H  27.83600 2.24600 43.42500
H  26.01400 1.99200 43.06500
H  27.10500 2.33300 41.81300
Mg 17.55500 50.82900 26.63200
C  19.48200 49.27800 29.09100
C  15.21900 51.71800 28.93000
C  15.42500 51.45500 24.09300
C  19.72100 49.30700 24.14500
N  17.31000 50.39400 28.73700
C  18.35800 49.98500 29.57300
C  17.98100 50.18300 31.00000
C  16.45600 50.68800 30.88800
C  16.28900 50.99900 29.41800
C  15.43600 49.64900 31.47200
C  18.94900 51.24500 31.53700
C  18.74500 51.73400 32.95900
H  17.83700 50.89800 33.91200
N  15.74000 51.79000 26.50500
C  14.92500 52.03700 27.56800
C  13.76600 52.68400 27.13600
C  13.80900 52.64800 25.71900
C  15.05000 51.91900 25.37900
C  12.85800 53.36800 28.16700
C  12.88700 53.34100 24.76200
O  13.14400 53.54100 23.57600
C  11.60200 53.95900 25.24900
N  17.50200 50.27600 24.48200
C  16.46700 50.66300 23.70400
C  16.79800 50.46300 22.18000
C  18.25800 50.05300 22.26000
C  18.56200 49.88300 23.70100
C  15.78900 49.46200 21.45300
C  19.25100 51.04700 21.55100
C  20.24900 50.40300 20.51400
N  19.25800 49.54400 26.55200
C  20.02400 49.03300 25.53100
C  21.07700 48.18300 26.11700
C  20.93600 48.29000 27.48800
C  19.87800 49.16400 27.74200
C  22.18000 47.57000 25.20700
C  21.46200 47.77800 28.79100
O  22.41200 47.07600 29.02200
C  20.61200 48.52800 29.87800
C  20.10600 47.62200 30.95800
O  19.33400 46.69700 30.79400
O  20.73700 48.02400 32.16200
C  20.21300 47.30000 33.32400
H  14.61900 52.13400 29.74200
H  14.69500 51.54700 23.28500
H  20.42100 48.99300 23.36800
H  18.03200 49.23400 31.53400
H  16.34800 51.56500 31.52700
H  15.89300 48.83200 32.03100
H  14.97600 49.10200 30.64900
H  14.70400 50.07200 32.16000
H  18.81200 52.15000 30.94600
H  20.01400 51.05100 31.41500
H  18.34700 52.74300 32.85300
H  19.74000 51.82400 33.39500
H  13.31600 54.33500 28.37600
H  12.76800 52.83700 29.11400
H  11.83000 53.35300 27.80500
H  10.89200 53.29100 25.73700
H  11.19000 54.41000 24.34700
H  11.85800 54.77300 25.92800
H  16.73200 51.43400 21.68900
H  18.25300 49.07300 21.78200
H  14.98700 49.27900 22.16700
H  16.36100 48.56100 21.23000
H  15.43000 49.84300 20.49700
H  19.95700 51.55400 22.21000
H  18.73700 51.83300 20.99700
H  20.16400 50.76800 19.49100
H  19.95700 49.35600 20.43400
H  21.29300 50.35300 20.82300
H  23.00000 47.19600 25.81900
H  22.55300 48.34900 24.54200
H  21.70400 46.78700 24.61600
H  21.22500 49.27900 30.37600
H  20.01800 46.23600 33.19200
H  19.43000 47.84600 33.85200
H  21.13100 47.27700 33.91000

