158

Mg 52.91700 23.44600 44.91200
C  50.64700 25.57000 43.50700
C  51.34300 20.78700 43.39900
C  55.59600 21.37100 45.48200
C  54.76700 26.21300 45.81200
N  51.28300 23.31300 43.53400
C  50.41900 24.24300 43.15800
C  49.21600 23.70900 42.41700
C  49.30500 22.22500 42.65800
C  50.76000 22.03200 43.23900
C  48.19900 21.73600 43.65600
C  49.10500 23.99500 40.88300
C  50.46700 24.33300 40.22500
H  51.62100 23.30200 40.15400
N  53.37500 21.30400 44.53300
C  52.50300 20.36300 44.04400
C  53.19500 19.06600 44.11200
C  54.43000 19.20200 44.78700
C  54.50900 20.64400 45.01900
C  52.61200 17.84600 43.58000
C  55.42400 18.05900 45.06700
O  55.11300 16.90500 44.81700
C  56.80600 18.21500 45.69600
N  54.93300 23.73100 45.30300
C  55.86100 22.73700 45.52600
C  57.16500 23.31100 46.09000
C  56.87700 24.84100 46.11400
C  55.43300 25.00800 45.75300
C  57.74400 22.83100 47.39400
C  57.77500 25.71500 45.11100
C  57.41600 25.80600 43.64500
N  52.71800 25.42100 44.90800
C  53.46800 26.42600 45.43400
C  52.68700 27.64000 45.46400
C  51.60300 27.34700 44.69800
C  51.66600 26.04400 44.30200
C  53.04900 28.95800 46.19200
C  50.39000 27.95200 44.17100
O  49.86500 29.02000 44.34900
C  49.80600 26.80700 43.29200
C  49.69100 27.38100 41.91700
O  50.62000 28.02600 41.45100
O  48.46900 27.21500 41.31800
C  48.42400 27.78900 39.90400
H  50.78400 19.97700 42.92500
H  56.32600 20.60900 45.76100
H  55.22200 27.13600 46.17700
H  48.33200 24.13200 42.89400
H  49.22500 21.60200 41.76700
H  47.97100 22.37900 44.50600
H  48.47400 20.72600 43.95900
H  47.21600 21.60400 43.20400
H  48.32900 24.72600 40.65700
H  48.80700 23.13800 40.28000
H  50.97000 25.14200 40.75400
H  50.21400 24.85300 39.30100
H  53.42700 17.29500 43.11100
H  51.93800 18.18000 42.79100
H  52.11300 17.29500 44.37700
H  57.35000 17.27700 45.79900
H  56.87000 18.81700 46.60300
H  57.38900 18.66900 44.89400
H  57.86800 23.15700 45.27100
H  56.94800 25.27100 47.11300
H  57.76400 21.74100 47.40400
H  57.23500 23.21500 48.27800
H  58.82900 22.92800 47.43900
H  58.76500 25.25900 45.10100
H  57.76600 26.74400 45.47000
H  58.33600 26.12500 43.15600
H  56.56200 26.42000 43.36000
H  57.14400 24.80200 43.32000
H  53.61800 28.75700 47.09900
H  52.10500 29.50000 46.26100
H  53.61700 29.55400 45.47900
H  48.81400 26.66600 43.72200
H  49.19400 28.43400 39.48200
H  47.48300 28.32700 40.01800
H  48.08000 26.98700 39.25000
Mg 36.81700 50.18800 24.59200
C  37.06600 48.38800 27.38800
C  35.56100 52.81900 26.41500
C  35.99500 51.88300 21.60100
C  37.52600 47.42100 22.65000
N  36.40800 50.57600 26.65800
C  36.55300 49.65800 27.64500
C  36.34300 50.32900 29.03300
C  35.57800 51.56600 28.62600
C  35.86300 51.68300 27.14400
C  34.04200 51.62800 28.92300
C  37.79000 50.58500 29.68400
C  38.03300 50.19100 31.13300
H  36.87700 50.34600 32.05900
N  36.01700 52.13100 24.11100
C  35.62200 53.03600 24.98800
C  35.09500 54.25300 24.32000
C  35.25500 53.99900 22.97000
C  35.83600 52.65800 22.81200
C  34.52200 55.47400 25.08400
C  34.71200 54.85900 21.83000
O  34.93500 54.51700 20.60700
C  33.88000 56.06500 22.09000
N  36.70100 49.73400 22.47600
C  36.40100 50.57100 21.47800
C  36.44400 49.90100 20.07100
C  37.22800 48.64400 20.43400
C  37.21300 48.60000 21.96500
C  34.99400 49.78800 19.43700
C  38.59900 48.44700 19.78900
C  39.81000 49.20100 20.35200
N  37.18700 48.21100 24.93100
C  37.60100 47.23700 24.08800
C  37.99700 46.06400 24.82900
C  37.80300 46.44600 26.14600
C  37.37600 47.80100 26.15700
C  38.57400 44.77400 24.19900
C  37.85700 46.03300 27.52700
O  38.11800 44.91600 28.04700
C  37.36500 47.31200 28.38400
C  36.25900 46.89800 29.32900
O  35.14000 46.59200 29.04100
O  36.80900 46.70200 30.57000
C  35.96300 46.23100 31.66500
H  35.11200 53.63000 26.99100
H  35.64100 52.29100 20.65200
H  37.96200 46.62500 22.04300
H  35.74700 49.64800 29.64000
H  35.91600 52.49900 29.07700
H  33.55200 50.90600 29.57700
H  33.45200 51.78100 28.02000
H  33.87100 52.61300 29.35600
H  38.07500 51.63600 29.64800
H  38.60500 50.09700 29.14900
H  38.94700 50.61600 31.54800
H  38.26400 49.12600 31.15700
H  34.90800 55.62400 26.09200
H  33.44100 55.34100 25.11000
H  34.62700 56.38500 24.49400
H  33.48200 56.41300 21.13700
H  34.47300 56.90400 22.45400
H  33.07300 55.89300 22.80200
H  37.04200 50.52700 19.40900
H  36.58100 47.83800 20.08900
H  34.33000 50.62500 19.65000
H  34.50600 48.83400 19.63700
H  35.25000 49.76300 18.37800
H  38.60100 48.50600 18.70100
H  38.74700 47.38600 19.99200
H  39.62100 49.98100 21.08900
H  40.39700 49.61900 19.53400
H  40.46000 48.43300 20.77100
H  39.05300 45.08900 23.27100
H  37.73700 44.13500 23.91800
H  39.40400 44.35400 24.76800
H  38.12500 47.73600 29.04100
H  36.59100 45.61100 32.30500
H  35.17100 45.62200 31.23000
H  35.59500 46.94900 32.39800

