158

Mg 48.29700 35.14400 28.18400
C  46.50100 33.54500 30.83000
C  48.31100 37.95000 29.99700
C  49.51700 36.52500 25.50500
C  47.95600 32.07900 26.29100
N  47.65900 35.57600 30.23300
C  47.06800 34.76900 31.15800
C  47.16700 35.35600 32.56200
C  47.41400 36.84800 32.30300
C  47.84400 36.83100 30.74200
C  46.31400 37.84400 32.62800
C  48.24900 34.62300 33.41000
C  48.14300 34.50100 34.98700
H  47.10100 35.40600 35.58600
N  48.90500 36.92900 27.78700
C  48.82100 38.08800 28.65200
C  49.37900 39.24700 28.06100
C  49.91600 38.74200 26.82200
C  49.44000 37.39400 26.62900
C  49.57200 40.57800 28.82500
C  50.80700 39.52900 25.81600
O  51.04400 39.05200 24.73700
C  51.40100 40.89800 26.16200
N  48.78000 34.34900 26.15400
C  49.14600 35.17500 25.21500
C  49.48200 34.62400 23.81700
C  49.38400 33.10100 24.25200
C  48.57700 33.19400 25.61100
C  48.38000 35.04100 22.71100
C  50.68900 32.33800 24.52300
C  51.29900 31.64900 23.32200
N  47.46900 33.18900 28.46300
C  47.34800 32.07500 27.58100
C  46.62100 31.00500 28.23800
C  46.25200 31.56800 29.49300
C  46.76500 32.86100 29.57700
C  46.44600 29.57800 27.84700
C  45.57100 31.18400 30.68300
O  45.06700 30.12100 31.08200
C  45.52900 32.58800 31.52200
C  45.59200 32.39100 33.00600
O  46.53600 31.94400 33.64400
O  44.37800 32.66400 33.53500
C  44.13200 32.21400 34.88700
H  48.41300 38.93700 30.45200
H  50.02500 37.02000 24.67600
H  48.03400 31.11900 25.77600
H  46.23000 35.24600 33.10800
H  48.26000 37.14400 32.92300
H  45.79300 38.21400 31.74500
H  46.63400 38.79900 33.04300
H  45.61700 37.38200 33.32700
H  49.25600 34.97800 33.19000
H  48.35400 33.63300 32.96700
H  49.12400 34.78600 35.36900
H  47.81500 33.47500 35.15100
H  50.59800 40.46500 29.17500
H  48.96000 40.73300 29.71300
H  49.67200 41.50400 28.25800
H  50.59600 41.63400 26.18200
H  52.04500 41.16200 25.32300
H  51.93600 40.86900 27.11200
H  50.50100 34.78200 23.46300
H  48.78900 32.56400 23.51300
H  47.95300 36.01100 22.96300
H  47.52500 34.36800 22.64600
H  48.87900 35.15700 21.74800
H  50.51800 31.67600 25.37300
H  51.39300 33.07200 24.91500
H  50.97700 32.18300 22.42900
H  50.96900 30.61200 23.25500
H  52.37600 31.80000 23.25900
H  46.92800 29.20400 26.94400
H  45.42200 29.23600 27.69700
H  46.94900 29.06100 28.66400
H  44.52500 32.80100 31.15700
H  44.37000 31.17300 35.10400
H  43.10800 32.40700 35.20800
H  44.74600 32.83500 35.53900
Mg -11.50700 15.86800 41.57100
C  -8.66200 14.02300 41.09900
C  -9.84200 18.71500 40.30200
C  -14.52200 17.52000 41.40800
C  -13.14500 12.86900 42.29200
N  -9.56000 16.27800 40.62400
C  -8.49600 15.37500 40.71100
C  -7.23300 16.03600 40.11200
C  -7.59500 17.55900 40.31500
C  -9.07000 17.53000 40.34700
C  -7.11100 18.17300 41.59700
C  -6.75600 15.67900 38.64500
C  -5.24900 15.61800 38.47400
H  -4.67700 16.16100 37.22200
N  -12.04200 17.83500 40.98500
C  -11.25200 18.87000 40.54600
C  -12.04500 20.09200 40.27000
C  -13.36200 19.77600 40.57900
C  -13.39200 18.28500 41.03100
C  -11.46100 21.29800 39.55800
C  -14.54100 20.67600 40.49400
O  -14.28100 21.81700 40.18700
C  -16.13600 20.32600 40.69400
N  -13.59700 15.32500 41.85300
C  -14.64600 16.14000 41.78200
C  -15.99200 15.41300 41.75200
C  -15.55700 13.97400 42.28900
C  -13.99900 14.04500 42.25100
C  -17.13200 16.04500 42.62600
C  -16.06700 12.84100 41.47700
C  -17.42100 12.92600 40.79800
N  -10.96900 13.82300 41.87600
C  -11.82000 12.75500 42.04700
C  -11.00100 11.56100 42.07400
C  -9.71800 12.04100 41.76800
C  -9.82900 13.39000 41.48100
C  -11.36800 10.19400 42.35900
C  -8.35800 11.65500 41.46200
O  -7.78700 10.59100 41.34800
C  -7.59700 12.94500 41.11700
C  -6.66800 13.29600 42.08700
O  -6.83900 13.54000 43.25600
O  -5.41700 13.08500 41.61300
C  -4.24200 13.23500 42.47000
H  -9.27800 19.64100 40.17600
H  -15.53500 17.87700 41.21500
H  -13.73900 11.96300 42.43000
H  -6.40900 15.89600 40.81100
H  -7.29700 18.17800 39.47000
H  -6.39900 17.51100 42.09000
H  -7.87900 18.34000 42.35200
H  -6.69500 19.14700 41.34100
H  -7.28000 16.30600 37.92400
H  -7.12500 14.65600 38.58000
H  -4.85700 14.61100 38.61100
H  -4.81400 16.28400 39.21900
H  -11.99900 21.50200 38.63200
H  -10.42700 21.24000 39.21600
H  -11.49400 22.19400 40.17700
H  -16.62200 21.30000 40.74500
H  -16.17400 19.74300 41.61400
H  -16.33900 19.75700 39.78700
H  -16.15500 15.37600 40.67500
H  -15.83400 13.79200 43.32700
H  -18.00800 16.14500 41.98500
H  -16.70500 16.98300 42.97900
H  -17.35800 15.40200 43.47600
H  -16.22100 12.05700 42.21800
H  -15.27400 12.60000 40.76900
H  -18.00800 13.71100 41.27500
H  -17.83900 11.94000 41.00200
H  -17.27600 13.16100 39.74400
H  -10.45700 9.65500 42.61900
H  -11.88900 9.71400 41.53000
H  -11.97200 10.20100 43.26700
H  -7.22700 12.84800 40.09600
H  -3.46400 12.66200 41.96700
H  -4.45700 12.86200 43.47100
H  -3.83800 14.24700 42.43200

