158

Mg 47.75300 24.22200 28.06500
C  48.23100 26.48400 30.81500
C  46.79100 21.88500 30.32900
C  47.42800 22.08600 25.47100
C  48.92500 26.74500 25.97700
N  47.52600 24.23800 30.30500
C  47.72200 25.22700 31.18700
C  47.21000 24.78700 32.58700
C  46.77700 23.27700 32.40700
C  47.07400 23.11700 30.87800
C  47.60800 22.23700 33.28600
C  46.13700 25.79200 33.12700
C  46.42300 26.26700 34.60700
H  46.28300 25.15200 35.62200
N  47.27700 22.12600 27.93900
C  46.86500 21.40200 28.99300
C  46.42200 20.09400 28.50800
C  46.52200 20.22200 27.10700
C  47.10400 21.47600 26.76000
C  46.01800 18.97400 29.31800
C  46.07400 19.15400 26.02200
O  46.38100 19.30000 24.83500
C  45.20100 18.04200 26.40100
N  48.33600 24.31000 26.02000
C  48.06300 23.27400 25.15800
C  48.30800 23.77900 23.69900
C  48.54800 25.29800 23.83300
C  48.65400 25.45100 25.36600
C  49.44600 23.02000 22.95200
C  47.39100 26.13700 23.23700
C  45.92600 25.74700 23.53700
N  48.38500 26.22400 28.29000
C  48.89900 27.09000 27.38100
C  49.24000 28.32400 27.97400
C  48.99900 28.13300 29.31200
C  48.50800 26.89200 29.47100
C  49.89400 29.51800 27.33800
C  49.05700 28.73700 30.57200
O  49.49300 29.84100 30.88600
C  48.44100 27.67400 31.63000
C  49.39900 27.43200 32.81700
O  50.21600 26.59500 33.06100
O  49.16400 28.53200 33.71000
C  49.75100 28.48900 35.04900
H  46.51700 21.09600 31.03300
H  47.36400 21.54400 24.52600
H  49.17800 27.52400 25.25600
H  48.11000 24.86600 33.19800
H  45.72600 23.11200 32.64600
H  46.92000 21.59100 33.83200
H  48.22800 22.70700 34.05000
H  48.32300 21.63300 32.72700
H  45.15400 25.32400 33.19300
H  46.06300 26.68300 32.50300
H  45.69400 27.07100 34.70700
H  47.43500 26.66800 34.66400
H  46.41700 18.92400 30.33100
H  46.45400 18.06000 28.91500
H  44.95800 18.90300 29.56300
H  44.50300 18.41000 27.15200
H  45.69900 17.18400 26.85300
H  44.70100 17.80800 25.46100
H  47.34800 23.60500 23.21400
H  49.45300 25.69400 23.37200
H  49.97400 22.43400 23.70400
H  50.22400 23.74700 22.71700
H  49.30200 22.32900 22.12100
H  47.59300 25.86500 22.20100
H  47.67200 27.16900 23.44900
H  46.01800 25.05200 24.37100
H  45.49800 25.35600 22.61400
H  45.46800 26.66700 23.90000
H  50.67600 29.16000 26.66800
H  50.33000 30.06800 28.17200
H  49.15100 29.95700 26.67300
H  47.52200 28.14200 31.98500
H  50.82800 28.33900 34.97300
H  49.27300 27.75500 35.69800
H  49.55800 29.43400 35.55600
Mg -6.50800 25.53600 26.22900
C  -5.26900 27.06100 29.01900
C  -7.91900 23.17000 28.18500
C  -7.70800 24.09000 23.43400
C  -4.96400 28.09300 24.16600
N  -6.46600 25.13000 28.29700
C  -6.12600 26.00700 29.27600
C  -6.69600 25.67300 30.59200
C  -7.40400 24.29600 30.31900
C  -7.26100 24.15400 28.81700
C  -7.10000 23.13700 31.26800
C  -7.59100 26.83700 31.11800
C  -7.59800 27.03900 32.67300
H  -7.23200 25.79700 33.67300
N  -7.54100 23.77800 25.86500
C  -8.10800 22.99800 26.81500
C  -9.02800 22.06200 26.16000
C  -8.90300 22.25800 24.78700
C  -8.04000 23.42600 24.65400
C  -10.07000 21.07300 26.80800
C  -9.53900 21.46600 23.60900
O  -9.42300 21.70600 22.40900
C  -10.37100 20.20400 23.90100
N  -6.32000 26.04000 24.16700
C  -6.99300 25.26900 23.20800
C  -6.83500 25.79000 21.78500
C  -6.31200 27.28600 22.18000
C  -5.85200 27.12600 23.63200
C  -5.64800 25.02400 21.01700
C  -7.47300 28.31800 21.98000
C  -7.32900 29.05100 20.64700
N  -5.32500 27.33800 26.50700
C  -4.75200 28.17900 25.61200
C  -3.96800 29.12600 26.35900
C  -4.03500 28.79300 27.77800
C  -4.95600 27.69900 27.76200
C  -3.39800 30.30900 25.70400
C  -3.69500 29.03300 29.17100
O  -2.93700 29.81500 29.69700
C  -4.52300 27.94100 30.02800
C  -3.54100 27.19000 30.91600
O  -2.65600 26.48300 30.49600
O  -3.77300 27.37900 32.26100
C  -2.85900 26.73200 33.24100
H  -8.51900 22.46900 28.76900
H  -8.11900 23.67200 22.51200
H  -4.56800 28.86600 23.50400
H  -5.81300 25.39200 31.16600
H  -8.47400 24.47100 30.42800
H  -6.53500 22.29800 30.86200
H  -7.95300 22.55100 31.61200
H  -6.42500 23.54200 32.02200
H  -8.63400 26.81900 30.80200
H  -7.38500 27.82300 30.70000
H  -8.56600 27.36300 33.05600
H  -6.88600 27.84200 32.86600
H  -11.05300 21.09900 26.33900
H  -10.34400 21.51500 27.76600
H  -9.68000 20.05700 26.86800
H  -11.41200 20.28600 24.21300
H  -9.81900 19.47300 24.49300
H  -10.53700 19.88100 22.87300
H  -7.79200 25.61900 21.29200
H  -5.53400 27.62400 21.49600
H  -5.04600 25.71700 20.42900
H  -6.15700 24.34500 20.33300
H  -4.95300 24.55800 21.71600
H  -7.33200 29.13200 22.69200
H  -8.51300 28.02100 22.11600
H  -8.30500 29.18100 20.18000
H  -6.80300 28.46300 19.89500
H  -6.81700 30.01000 20.72600
H  -2.76900 30.04000 24.85500
H  -2.84700 30.89500 26.43900
H  -4.18000 30.95600 25.30900
H  -5.22000 28.43700 30.70400
H  -3.45600 26.64800 34.14800
H  -2.04700 27.43300 33.44000
H  -2.66100 25.73900 32.83900

