158

Mg 25.01000 1.55000 29.40500
C  27.03100 1.55400 32.28700
C  22.27700 1.94500 31.43400
C  23.12800 1.21400 26.64400
C  27.82900 0.86600 27.50500
N  24.71700 1.67300 31.62700
C  25.72200 1.91300 32.60400
C  25.12200 2.21600 33.93800
C  23.52300 2.09200 33.67600
C  23.44300 1.91900 32.12800
C  22.82300 0.99500 34.54500
C  25.66100 3.58000 34.47900
C  26.36800 3.57500 35.83000
H  25.81900 4.63500 36.84700
N  23.00100 1.58500 29.12200
C  21.99300 1.70200 30.02300
C  20.67800 1.64500 29.43800
C  20.89800 1.45500 28.04500
C  22.41000 1.45400 27.84000
C  19.33100 1.82400 30.23500
C  19.82500 1.19600 26.98800
O  20.19200 1.17200 25.77100
C  18.44500 0.98900 27.42800
N  25.39900 1.06900 27.36900
C  24.47900 1.13700 26.37100
C  25.10300 1.43400 24.91900
C  26.60800 1.33300 25.21200
C  26.61300 1.02400 26.80000
C  24.53300 0.37600 23.93100
C  27.40500 2.53600 24.76900
C  27.31000 3.77500 25.50700
N  26.98100 1.07100 29.81000
C  27.98200 0.84300 28.95100
C  29.25400 0.68300 29.62700
C  28.94000 0.89000 31.01800
C  27.52000 1.11900 31.03200
C  30.51900 0.66600 29.02700
C  29.51800 1.04900 32.31700
O  30.64200 0.85000 32.82700
C  28.24800 1.56500 33.22100
C  28.28300 0.66200 34.41900
O  27.82300 -0.45100 34.41700
O  28.80500 1.36200 35.47100
C  29.14200 0.35700 36.53700
H  21.41600 2.18300 32.06200
H  22.53200 1.22500 25.72900
H  28.70500 0.86300 26.85300
H  25.31000 1.44600 34.68700
H  23.03000 2.98200 34.06700
H  23.53300 0.35600 35.07100
H  22.24700 0.29400 33.94200
H  22.15700 1.48400 35.25600
H  24.83700 4.28700 34.58100
H  26.39100 4.03500 33.81000
H  27.39400 3.76700 35.51600
H  26.49100 2.62900 36.35700
H  19.44600 2.09000 31.28500
H  18.86400 0.84600 30.35400
H  18.74300 2.64000 29.81400
H  18.32000 0.24200 28.21200
H  17.91400 0.77900 26.50000
H  18.13900 1.97300 27.78300
H  24.82200 2.40000 24.50000
H  26.99900 0.52900 24.58800
H  23.96100 0.95300 23.20400
H  23.95200 -0.41200 24.41100
H  25.36400 -0.06500 23.38100
H  27.00600 2.81700 23.79400
H  28.40700 2.11600 24.67900
H  26.72400 3.59800 26.40900
H  26.85400 4.67200 25.08600
H  28.34100 4.05700 25.72100
H  30.93100 -0.32800 28.85600
H  31.24800 1.14000 29.68400
H  30.53100 1.18400 28.06800
H  28.54600 2.57700 33.49300
H  28.26500 -0.13000 36.96400
H  29.72700 0.82700 37.32900
H  29.80900 -0.34100 36.03200
Mg 54.80700 24.48400 43.47800
C  52.42200 27.15700 43.27100
C  52.48800 22.31300 42.42400
C  57.31000 22.24900 43.32600
C  57.24000 27.01000 44.17100
N  52.68500 24.83500 42.68900
C  51.92800 25.88800 42.76100
C  50.58900 25.48300 42.16500
C  50.51900 23.97100 42.40800
C  52.01800 23.64700 42.52300
C  49.82800 23.48000 43.70000
C  50.19800 25.96700 40.76500
C  51.37100 26.28400 39.82900
H  51.33300 25.67200 38.36300
N  54.86200 22.62500 42.93900
C  53.84400 21.81800 42.68300
C  54.17400 20.50700 42.67000
C  55.56000 20.43900 42.75300
C  55.95100 21.85600 42.99100
C  53.12700 19.44100 42.47700
C  56.38500 19.15400 42.69100
O  55.82200 18.04100 42.56300
C  57.82100 19.13700 43.04600
N  57.00400 24.64600 43.68600
C  57.81700 23.51200 43.52800
C  59.34200 23.89500 43.58300
C  59.28900 25.43500 43.95600
C  57.75000 25.75800 43.83200
C  60.43700 23.04600 44.37600
C  60.24100 26.44400 43.16200
C  59.58500 27.16800 41.96800
N  54.78400 26.56100 43.78100
C  55.86400 27.36200 44.19200
C  55.30000 28.65600 44.58100
C  53.95400 28.61600 44.20600
C  53.71100 27.36400 43.72600
C  56.01000 29.83700 45.09600
C  52.75900 29.42400 44.15900
O  52.56500 30.54200 44.55900
C  51.63900 28.48900 43.51000
C  51.07100 29.06900 42.23900
O  51.74100 29.42200 41.29000
O  49.69400 29.05400 42.26600
C  48.95100 29.52500 41.09100
H  51.72000 21.60500 42.10600
H  58.17100 21.59800 43.49000
H  58.05800 27.69700 44.39600
H  49.74100 25.83500 42.75200
H  50.29300 23.26500 41.61000
H  50.49000 22.87100 44.31600
H  48.97600 22.84300 43.46300
H  49.46500 24.29400 44.32800
H  49.63500 26.88100 40.95100
H  49.62600 25.16800 40.29400
H  52.34400 25.99000 40.22300
H  51.45700 27.34800 39.60800
H  53.47000 18.89500 41.59800
H  52.09700 19.74500 42.28900
H  53.11400 18.77700 43.34100
H  58.35300 18.19100 42.94700
H  57.83400 19.42500 44.09700
H  58.40800 19.81700 42.42800
H  59.62500 23.71700 42.54500
H  59.40100 25.74900 44.99400
H  60.47500 23.22200 45.45100
H  61.45600 23.24300 44.04500
H  60.28800 21.96800 44.31500
H  60.98200 25.79900 42.69000
H  60.79800 26.96100 43.94300
H  59.58500 28.22600 42.23100
H  58.71600 26.59500 41.64600
H  60.29800 27.12000 41.14500
H  55.28100 30.60900 45.34400
H  56.75600 30.19900 44.38800
H  56.48800 29.53500 46.02700
H  50.82100 28.32400 44.21200
H  49.12000 30.60100 41.05400
H  47.88000 29.32500 41.05200
H  49.36300 28.99600 40.23200

