158

Mg 24.82900 1.24100 29.39300
C  27.04900 1.01300 32.08600
C  22.20600 1.53300 31.70800
C  22.66300 1.25000 26.87000
C  27.52500 0.48700 27.18900
N  24.69500 1.33600 31.64700
C  25.71200 1.22500 32.53800
C  25.23400 1.57000 33.96300
C  23.65900 1.54500 33.88800
C  23.48900 1.54900 32.35900
C  23.02400 0.27500 34.48300
C  25.95200 2.79600 34.73700
C  26.45100 2.43700 36.17500
H  26.38200 3.35400 37.33900
N  22.78000 1.49600 29.36200
C  21.81100 1.56400 30.36500
C  20.51500 1.68000 29.78500
C  20.63900 1.55900 28.40000
C  22.07100 1.46800 28.16000
C  19.32700 1.71000 30.70300
C  19.57200 1.55600 27.29000
O  19.87100 1.65000 26.10000
C  18.11200 1.50100 27.78400
N  25.01000 0.71400 27.38300
C  23.98700 0.99100 26.52900
C  24.46400 1.07700 25.06000
C  25.98300 0.77000 25.17700
C  26.20500 0.67800 26.66100
C  23.78100 0.08700 24.14100
C  26.84400 1.86500 24.46700
C  26.84800 3.21800 25.11100
N  26.77600 0.82300 29.54500
C  27.76000 0.43300 28.59600
C  29.12800 0.27700 29.21100
C  28.82700 0.47600 30.61800
C  27.41000 0.77100 30.75400
C  30.42700 -0.11100 28.49700
C  29.44100 0.50200 32.01100
O  30.64700 0.33200 32.26700
C  28.23200 0.72900 33.00700
C  28.07300 -0.44500 33.79200
O  27.16600 -1.20000 33.74400
O  28.90300 -0.29900 34.89200
C  28.50400 -0.92900 36.12000
H  21.37000 1.61600 32.40600
H  22.09300 1.41200 25.95300
H  28.35800 0.50400 26.48300
H  25.41900 0.63100 34.48500
H  23.22800 2.42000 34.37500
H  23.49100 -0.65500 34.15700
H  21.95600 0.16400 34.29500
H  23.04800 0.33000 35.57100
H  25.26600 3.64100 34.79200
H  26.80200 3.20400 34.19200
H  27.51900 2.32900 35.98400
H  26.11600 1.48000 36.57400
H  18.89000 0.72200 30.84400
H  18.67200 2.40400 30.17600
H  19.45900 2.15000 31.69100
H  18.14800 0.83300 28.64500
H  17.38200 1.07600 27.09500
H  17.89600 2.54000 28.03400
H  24.35000 2.09000 24.67400
H  26.34300 -0.16600 24.74900
H  22.80000 -0.19700 24.52300
H  24.36200 -0.83300 24.07400
H  23.57900 0.51500 23.15900
H  26.48200 2.09600 23.46500
H  27.86500 1.48500 24.44400
H  26.41300 3.93800 24.41700
H  27.83900 3.52500 25.44400
H  26.20900 3.26300 25.99300
H  31.37800 0.33000 28.79700
H  30.28700 0.00200 27.42200
H  30.45100 -1.18300 28.69200
H  28.52800 1.58600 33.61200
H  28.41700 -1.98200 35.85300
H  27.55200 -0.53000 36.46900
H  29.31700 -0.70300 36.80900
Mg -4.62900 24.80400 25.33300
C  -3.41300 26.13300 28.35300
C  -6.67600 22.58700 27.30500
C  -5.39000 22.99000 22.59300
C  -2.48400 26.74200 23.64800
N  -4.95400 24.28800 27.62000
C  -4.36200 25.09100 28.62500
C  -5.00300 24.74100 29.92600
C  -5.98100 23.45300 29.62200
C  -5.84900 23.43100 28.09700
C  -5.53600 22.05900 30.18500
C  -5.81200 25.93900 30.56500
C  -5.62000 26.14600 32.11400
H  -4.94300 25.09800 33.01400
N  -5.96000 23.19900 24.97200
C  -6.69900 22.49400 25.88900
C  -7.57000 21.64000 25.15800
C  -7.14400 21.66100 23.79900
C  -6.14400 22.66300 23.74900
C  -8.79300 20.99700 25.80200
C  -7.64100 20.79900 22.59500
O  -7.21300 20.90500 21.42200
C  -8.75300 19.80100 22.89100
N  -4.12900 24.90900 23.30500
C  -4.42600 23.96800 22.39200
C  -3.56000 24.21800 21.13700
C  -2.85200 25.54800 21.44900
C  -3.19800 25.82800 22.88300
C  -2.63400 23.06400 20.62100
C  -3.36300 26.80200 20.66700
C  -2.34700 27.48500 19.74700
N  -3.20400 26.17100 25.81900
C  -2.47800 27.04600 25.04200
C  -1.70900 27.93700 25.76900
C  -2.05500 27.66700 27.11500
C  -2.98300 26.53900 27.09800
C  -0.70300 29.02300 25.23100
C  -1.68400 27.98500 28.49600
O  -0.93000 28.75100 29.07300
C  -2.65200 27.05800 29.29200
C  -1.87500 26.23200 30.31200
O  -1.39000 25.11400 30.10400
O  -1.89100 26.89200 31.55500
C  -1.18400 26.19600 32.64700
H  -7.33300 21.94800 27.89800
H  -5.60100 22.42100 21.68600
H  -1.73100 27.29500 23.08200
H  -4.23500 24.45300 30.64400
H  -6.98800 23.67700 29.97400
H  -5.06700 21.55300 29.34100
H  -6.34200 21.45700 30.60500
H  -4.85200 22.17800 31.02500
H  -6.89900 25.85100 30.57300
H  -5.76200 26.83100 29.94100
H  -6.59900 26.18200 32.59300
H  -5.09700 27.09500 32.23000
H  -8.99300 21.38700 26.80000
H  -8.80500 19.91400 25.92400
H  -9.54200 21.52500 25.21200
H  -9.08800 19.26800 22.00100
H  -9.53600 20.46700 23.25400
H  -8.39100 19.05700 23.60000
H  -4.33100 24.41400 20.39200
H  -1.78200 25.48400 21.25100
H  -3.03000 22.67500 19.68400
H  -2.68100 22.29200 21.38900
H  -1.61100 23.37400 20.40700
H  -3.78000 27.54200 21.35000
H  -4.26100 26.51800 20.11800
H  -2.21900 28.54300 19.97900
H  -2.74700 27.42900 18.73500
H  -1.38600 26.97300 19.77200
H  -0.12300 28.51400 24.46100
H  -0.11200 29.47600 26.02700
H  -1.25600 29.84600 24.77900
H  -3.31100 27.70000 29.87800
H  -0.19300 26.65000 32.63100
H  -0.95900 25.12900 32.62300
H  -1.60300 26.51600 33.60100

