158

Mg 1.74200 -1.82200 44.28900
C  4.82900 -0.60700 43.48000
C  0.30800 0.67000 42.30500
C  -1.37200 -3.25700 44.55100
C  3.11500 -4.54900 45.82200
N  2.53400 -0.26600 42.81900
C  3.85800 0.10600 42.74900
C  3.97500 1.41800 42.02700
C  2.53000 1.78700 41.68300
C  1.70900 0.62800 42.31900
C  2.13700 3.21900 42.15100
C  4.96600 1.45400 40.82700
C  5.86500 2.72500 40.60600
H  6.39800 3.08700 39.21900
N  -0.24800 -1.36000 43.63900
C  -0.58800 -0.25300 42.87900
C  -2.09700 -0.24400 42.68600
C  -2.56000 -1.39800 43.29900
C  -1.39200 -2.10100 43.79400
C  -2.86400 0.79900 41.80000
C  -4.07500 -1.79200 43.34000
O  -4.92700 -1.01600 42.86800
C  -4.64300 -3.07900 43.98400
N  0.98700 -3.57300 45.00200
C  -0.31800 -3.93400 45.12500
C  -0.58000 -5.10400 46.10500
C  0.85100 -5.54000 46.47300
C  1.67200 -4.56000 45.63200
C  -1.49400 -4.78700 47.29200
C  1.21000 -6.97800 45.98100
C  2.06300 -7.76300 46.93300
N  3.60500 -2.42300 44.72100
C  4.06900 -3.57300 45.38900
C  5.48400 -3.49400 45.56700
C  5.87200 -2.32100 44.87800
C  4.67300 -1.80400 44.31400
C  6.40600 -4.43400 46.26600
C  6.97200 -1.47200 44.59300
O  8.14400 -1.57100 44.92400
C  6.32100 -0.34400 43.66200
C  6.48400 0.94800 44.38200
O  5.72300 1.26900 45.23900
O  7.48800 1.80100 43.82400
C  7.38200 3.15000 44.34600
H  -0.19300 1.42300 41.69300
H  -2.27800 -3.79900 44.82800
H  3.46500 -5.43700 46.35200
H  4.35400 2.16400 42.72600
H  2.45000 1.63000 40.60700
H  2.31300 3.96900 41.38000
H  2.73400 3.52700 43.00900
H  1.10300 3.38700 42.45300
H  4.45500 1.35700 39.87000
H  5.62300 0.59800 40.98100
H  6.71500 2.63600 41.28300
H  5.31200 3.63500 40.83800
H  -3.29900 0.33700 40.91300
H  -2.06800 1.50500 41.56600
H  -3.69000 1.31700 42.28800
H  -4.25900 -3.03900 45.00300
H  -4.33000 -3.96300 43.42900
H  -5.72900 -3.10600 44.08000
H  -1.12200 -5.88900 45.57800
H  1.01700 -5.32500 47.52800
H  -1.77800 -3.75900 47.06500
H  -1.12100 -4.90800 48.30900
H  -2.35800 -5.42400 47.10300
H  1.71600 -7.02800 45.01700
H  0.26700 -7.50500 45.83900
H  1.53000 -8.67600 47.19800
H  2.37800 -7.36000 47.89600
H  2.99300 -7.96200 46.40100
H  5.87900 -4.72400 47.17500
H  7.33700 -4.00600 46.63900
H  6.69200 -5.26400 45.62100
H  6.89800 -0.25600 42.74100
H  8.28000 3.64800 43.98100
H  7.42400 3.18700 45.43500
H  6.45600 3.59900 43.98700
Mg 17.54600 -1.07300 27.53500
C  16.14300 0.85200 30.15100
C  19.33000 -2.75000 29.75100
C  18.77200 -2.72200 24.92700
C  15.81700 1.15900 25.22100
N  17.65800 -0.81000 29.73900
C  17.06100 -0.05300 30.68600
C  17.59700 -0.23500 32.11400
C  18.68300 -1.26800 31.77100
C  18.57700 -1.65700 30.28000
C  20.08100 -0.65000 32.17100
C  16.66400 -0.75100 33.19500
C  16.94200 -0.14000 34.61100
H  18.37700 0.07700 35.14900
N  18.73200 -2.65600 27.36500
C  19.36600 -3.22800 28.38700
C  20.00200 -4.47500 27.98300
C  19.94900 -4.45300 26.56200
C  19.11500 -3.28100 26.24000
C  20.73100 -5.40100 28.87200
C  20.48200 -5.41800 25.47100
O  20.20400 -5.30900 24.27600
C  21.31800 -6.66000 25.94700
N  17.32200 -0.82000 25.34400
C  17.98700 -1.63800 24.53500
C  17.87200 -1.19800 23.11500
C  16.83000 -0.04300 23.16000
C  16.61700 0.17600 24.62800
C  19.14300 -0.96400 22.27500
C  15.49000 -0.28800 22.38400
C  15.46000 0.03800 20.91400
N  16.19300 0.52200 27.61500
C  15.57500 1.30200 26.58200
C  14.57800 2.20600 27.31100
C  14.75700 1.98100 28.67000
C  15.80400 1.02700 28.83000
C  13.75000 3.25600 26.63700
C  14.42200 2.60000 29.92600
O  13.66900 3.48500 30.24000
C  15.25900 1.77600 30.93800
C  16.04200 2.84400 31.68900
O  17.08000 3.36800 31.32200
O  15.42500 2.97000 32.86400
C  16.09200 3.94100 33.75700
H  19.94800 -3.16400 30.55000
H  19.19800 -3.26100 24.07800
H  15.18900 1.76900 24.56800
H  17.92300 0.78900 32.29800
H  18.66300 -2.20700 32.32300
H  20.65600 -0.49300 31.25800
H  20.57900 -1.42400 32.75500
H  19.95300 0.29300 32.70300
H  16.79100 -1.83000 33.29100
H  15.66300 -0.51300 32.83500
H  16.52700 -0.90700 35.26500
H  16.38000 0.74500 34.91200
H  21.74000 -5.33800 28.46500
H  20.31600 -6.40700 28.81400
H  20.68600 -5.08000 29.91300
H  22.35400 -6.44500 26.20700
H  21.38200 -7.32900 25.08900
H  20.87200 -7.10900 26.83500
H  17.36200 -2.02700 22.62500
H  17.33400 0.85200 22.79400
H  20.00000 -1.06800 22.94100
H  19.21900 -0.00400 21.76500
H  19.19000 -1.81500 21.59500
H  14.73300 0.24800 22.95700
H  15.25100 -1.35100 22.41600
H  14.71200 0.79400 20.67500
H  15.22700 -0.90100 20.41100
H  16.46100 0.25400 20.54100
H  13.63200 3.05600 25.57200
H  14.25900 4.21500 26.73000
H  12.72100 3.33100 26.98900
H  14.58900 1.40900 31.71400
H  15.75300 3.83600 34.78700
H  16.02900 4.99400 33.48200
H  17.16400 3.76600 33.66000

