158

Mg 27.04100 51.22100 26.14000
C  25.12700 52.14200 29.03100
C  29.39700 50.04900 28.38500
C  28.98900 50.72800 23.54200
C  24.65200 52.81200 24.11600
N  27.24200 51.16800 28.44300
C  26.31100 51.40100 29.39900
C  26.73900 50.97600 30.72400
C  28.24500 50.47400 30.57300
C  28.32500 50.58500 29.04000
C  29.28600 51.45200 31.17500
C  25.67500 49.91500 31.30200
C  24.91800 50.32200 32.60600
H  24.63300 49.22300 33.71700
N  28.86300 50.48200 25.97300
C  29.69400 49.99700 26.97300
C  30.90800 49.54600 26.39600
C  30.87900 49.75700 24.98100
C  29.55100 50.35300 24.80700
C  31.97700 48.72100 27.15200
C  31.93900 49.50400 24.01100
O  31.84800 49.86700 22.84800
C  33.25400 48.87700 24.45000
N  26.79400 51.56800 24.09600
C  27.76500 51.28800 23.18600
C  27.26800 51.58100 21.67500
C  25.79200 52.15100 21.93400
C  25.75500 52.25200 23.43100
C  28.22400 52.47800 20.78800
C  24.65600 51.21100 21.34300
C  23.55300 52.04700 20.71800
N  25.28700 52.24800 26.41200
C  24.44800 52.81900 25.50900
C  23.38200 53.43500 26.17700
C  23.57500 53.20400 27.51100
C  24.78800 52.49500 27.65500
C  22.23900 54.08700 25.60600
C  22.97300 53.34400 28.84900
O  21.93100 53.81200 29.25700
C  23.98300 52.71200 29.80500
C  24.47200 53.87100 30.70200
O  25.04100 54.87200 30.34100
O  24.23200 53.47300 32.02400
C  24.82100 54.48600 32.96500
H  30.04400 49.71600 29.20000
H  29.60900 50.52100 22.66800
H  24.04900 53.47000 23.48700
H  26.82400 51.81700 31.41200
H  28.33300 49.44700 30.92800
H  28.76900 52.29700 31.63000
H  29.99000 51.84600 30.44200
H  29.88300 50.87800 31.88300
H  26.20600 49.03300 31.66000
H  24.95400 49.50500 30.59500
H  23.92900 50.71800 32.37500
H  25.38800 51.20500 33.03800
H  32.87700 49.33500 27.12800
H  32.20600 47.75900 26.69500
H  31.74400 48.67700 28.21600
H  33.93200 48.71800 23.61000
H  33.00900 47.87800 24.81000
H  33.72800 49.54500 25.16800
H  27.24200 50.60100 21.19900
H  25.72700 53.18900 21.60800
H  28.86100 51.92400 20.09900
H  28.92200 53.08600 21.36300
H  27.57500 53.18100 20.26700
H  24.26100 50.45800 22.02500
H  25.02900 50.65200 20.48400
H  22.62400 51.71700 21.18300
H  23.43600 52.01100 19.63500
H  23.70700 53.09100 20.99400
H  21.50400 54.11600 26.41100
H  21.90300 53.42000 24.81300
H  22.43300 55.08800 25.22000
H  23.50100 51.85000 30.26700
H  23.98700 55.16900 33.12500
H  25.77900 54.92900 32.69200
H  24.98800 54.03900 33.94500
Mg 1.17900 42.34800 24.82300
C  1.80300 42.45700 28.27500
C  -1.79200 40.69500 25.66000
C  0.79900 41.70400 21.60500
C  4.37900 43.66900 24.27900
N  0.15400 41.67300 26.73500
C  0.53300 41.93100 28.03000
C  -0.63900 41.59900 29.02400
C  -1.58100 40.70900 28.10400
C  -1.03900 41.11900 26.75500
C  -1.54800 39.22800 28.39300
C  -1.39100 42.87300 29.58700
C  -1.22500 43.21200 31.07100
H  -1.49200 42.09600 32.06600
N  -0.40600 41.57700 23.80400
C  -1.53500 40.92800 24.31300
C  -2.35000 40.47600 23.16700
C  -1.75200 41.01200 21.96900
C  -0.36400 41.45500 22.39800
C  -3.62700 39.78400 23.45700
C  -2.15400 40.86100 20.56500
O  -1.35000 41.02100 19.67200
C  -3.55300 40.48100 20.18900
N  2.41900 42.48100 23.22600
C  2.05300 42.24100 21.97400
C  3.18500 42.48200 21.02400
C  4.05900 43.54800 21.72000
C  3.56600 43.25800 23.19000
C  3.93500 41.21800 20.62900
C  3.74700 44.98900 21.15100
C  2.81800 45.92700 21.89800
N  2.76700 42.93400 25.97000
C  4.00300 43.44800 25.62000
C  4.74100 43.81900 26.85600
C  3.87300 43.46700 27.85000
C  2.71800 42.86300 27.32000
C  6.02100 44.43900 27.02000
C  3.77300 43.47400 29.29600
O  4.52300 44.03800 30.16200
C  2.52500 42.74800 29.62400
C  2.83100 41.60000 30.53700
O  3.72200 40.74100 30.29800
O  2.01800 41.60200 31.57700
C  2.10900 40.38800 32.47900
H  -2.69300 40.11600 25.87100
H  0.75500 41.56500 20.52300
H  5.29000 44.21900 24.03500
H  -0.17800 41.02100 29.82500
H  -2.59600 41.06400 28.28000
H  -0.74800 39.09900 29.12100
H  -1.18200 38.72200 27.50000
H  -2.55600 38.98300 28.72800
H  -2.47100 42.76100 29.49900
H  -1.00200 43.65800 28.93800
H  -1.87900 44.02000 31.39800
H  -0.23200 43.63000 31.22900
H  -4.25700 39.84300 22.57000
H  -4.25200 40.29600 24.18900
H  -3.40100 38.73800 23.66500
H  -3.90300 39.51100 20.54200
H  -3.50700 40.31400 19.11300
H  -4.13400 41.31800 20.57800
H  2.69200 42.95100 20.17300
H  5.10800 43.26700 21.62300
H  3.87900 41.15700 19.54200
H  3.43100 40.34200 21.03700
H  4.98300 41.31400 20.91200
H  3.39600 44.85800 20.12700
H  4.72800 45.45700 21.23200
H  2.21600 45.48400 22.69100
H  2.11400 46.56600 21.36400
H  3.41400 46.66900 22.42900
H  6.69600 43.76400 27.54600
H  6.03500 45.36200 27.60000
H  6.44500 44.79300 26.08000
H  1.93600 43.48300 30.17300
H  2.92500 39.70700 32.23600
H  1.22400 39.75700 32.55400
H  2.34500 40.70100 33.49600

