158

Mg 26.29400 51.15200 26.18600
C  24.18000 52.31600 28.73600
C  28.61000 50.50400 28.74900
C  28.78500 50.95300 23.88200
C  24.20200 52.66200 23.90200
N  26.33200 51.44700 28.45500
C  25.33100 51.80800 29.25900
C  25.57500 51.43200 30.75600
C  27.10500 51.20800 30.70100
C  27.39600 50.99000 29.17900
C  27.95800 52.31000 31.44800
C  24.76300 50.23700 31.23200
C  25.20600 49.54300 32.51000
H  24.41700 49.84800 33.82000
N  28.34100 50.56900 26.30200
C  29.12100 50.29300 27.41000
C  30.45500 49.98500 27.03000
C  30.46300 50.02400 25.59200
C  29.17500 50.54500 25.22600
C  31.52900 49.55800 27.95600
C  31.59000 49.62500 24.62600
O  31.51300 49.82600 23.37400
C  32.85300 48.98700 25.17900
N  26.46800 51.72100 24.19800
C  27.60000 51.42300 23.43500
C  27.19900 51.56100 21.94800
C  25.86100 52.40800 21.97100
C  25.47700 52.26100 23.44300
C  28.24800 52.28200 21.12500
C  24.83200 51.88400 20.97600
C  24.23900 52.99100 20.08200
N  24.45200 52.12100 26.19700
C  23.67400 52.56400 25.18900
C  22.39500 53.01700 25.72500
C  22.60500 52.98600 27.08800
C  23.87500 52.44700 27.35400
C  21.18100 53.51600 24.98900
C  21.97100 53.24400 28.36300
O  20.82900 53.65700 28.55500
C  22.92900 52.70800 29.44100
C  23.12300 53.68700 30.49200
O  23.85500 54.65800 30.49400
O  22.34300 53.27400 31.51900
C  22.43300 53.74900 32.90400
H  29.28100 50.36300 29.59900
H  29.38500 50.65000 23.02100
H  23.41000 52.98300 23.22200
H  25.26600 52.31300 31.31900
H  27.44400 50.26700 31.13300
H  28.34700 51.80400 32.33300
H  27.26600 53.12800 31.64800
H  28.71100 52.72500 30.77800
H  24.69200 49.57600 30.36800
H  23.71300 50.50600 31.35300
H  26.25500 49.75400 32.71500
H  25.14700 48.46900 32.33400
H  31.15100 49.52500 28.97700
H  32.51800 50.00200 27.84100
H  31.69300 48.49400 27.78600
H  33.54800 48.75800 24.37100
H  32.53300 47.99400 25.49400
H  33.27400 49.66200 25.92400
H  26.95700 50.58300 21.53100
H  26.01700 53.47700 21.82300
H  28.94200 52.87900 21.71700
H  27.66300 52.95300 20.49500
H  28.76600 51.45800 20.63500
H  23.95600 51.40700 21.41600
H  25.37200 51.19300 20.32800
H  23.17900 52.74000 20.03400
H  24.62700 52.93300 19.06500
H  24.45200 53.99700 20.44300
H  20.34100 53.09800 25.54400
H  21.18600 53.19300 23.94800
H  21.16500 54.60200 24.90100
H  22.49200 51.82800 29.91200
H  23.17100 53.22700 33.51200
H  21.48000 53.73900 33.43400
H  22.76700 54.78300 32.98000
Mg -5.20700 24.99200 26.47900
C  -3.76900 26.40100 29.37600
C  -6.36700 22.41100 28.55600
C  -6.19800 23.34200 23.69200
C  -3.61900 27.29600 24.58200
N  -5.07400 24.45400 28.74500
C  -4.46200 25.21700 29.68500
C  -4.84100 24.71600 31.08800
C  -5.37200 23.31600 30.76500
C  -5.69500 23.39300 29.26200
C  -4.24300 22.32500 31.02300
C  -5.90800 25.69500 31.63600
C  -5.67200 26.28500 33.00200
H  -5.52600 25.26000 34.11400
N  -6.29900 23.30300 26.17700
C  -6.66700 22.35100 27.13500
C  -7.26700 21.19900 26.53200
C  -7.42700 21.48400 25.16800
C  -6.63300 22.80400 24.92600
C  -7.72800 20.14200 27.40500
C  -8.15300 20.78500 24.01700
O  -8.18300 21.25600 22.89200
C  -9.01700 19.57900 24.32800
N  -4.97300 25.24000 24.40100
C  -5.52900 24.50500 23.38900
C  -5.14000 24.95400 21.98800
C  -4.53600 26.41800 22.36300
C  -4.44600 26.40400 23.90800
C  -4.01800 24.05400 21.36000
C  -5.32800 27.75300 21.97300
C  -6.28900 27.76400 20.81100
N  -3.81300 26.41500 26.85000
C  -3.24800 27.31800 25.93400
C  -2.33700 28.22700 26.65400
C  -2.65500 27.96000 28.03400
C  -3.51100 26.84600 28.06000
C  -1.45300 29.32400 26.10800
C  -2.40100 28.36800 29.37200
O  -1.64400 29.27400 29.74200
C  -3.11300 27.34400 30.31800
C  -2.03600 26.80500 31.14100
O  -1.12300 26.01700 30.87500
O  -2.33300 27.21400 32.40000
C  -1.47500 26.81100 33.48800
H  -6.73100 21.59600 29.18500
H  -6.34900 22.62700 22.88100
H  -3.15000 28.03400 23.92700
H  -3.99300 24.84800 31.75900
H  -6.13400 23.02400 31.48800
H  -3.98000 21.91400 30.04800
H  -4.61300 21.51400 31.65100
H  -3.28700 22.68700 31.40000
H  -6.83200 25.11900 31.64600
H  -6.03400 26.51900 30.93400
H  -6.55300 26.91500 33.12600
H  -4.72100 26.81600 33.04400
H  -8.46500 20.58300 28.07700
H  -6.89300 19.85400 28.04300
H  -8.21100 19.32700 26.86600
H  -9.56100 19.93000 25.20600
H  -8.36100 18.73300 24.53200
H  -9.61200 19.10700 23.54600
H  -5.96300 24.99900 21.27400
H  -3.55600 26.42700 21.88700
H  -3.19500 24.65900 20.97900
H  -4.54600 23.51100 20.57600
H  -3.66300 23.28700 22.04800
H  -4.50800 28.45200 21.81100
H  -5.92200 28.09800 22.81900
H  -6.02900 27.10200 19.98500
H  -6.30200 28.75000 20.34500
H  -7.27700 27.52000 21.20200
H  -1.83700 29.61400 25.13100
H  -0.39300 29.10000 25.98700
H  -1.39100 30.23900 26.69700
H  -3.82400 27.84400 30.97500
H  -0.82300 27.67900 33.58800
H  -0.88100 25.93900 33.21700
H  -2.02500 26.63900 34.41400

