158

Mg 41.26100 9.09500 30.67400
C  42.79800 10.49500 33.42600
C  38.76700 7.92700 32.73600
C  39.65000 8.03500 27.93300
C  44.09200 9.79700 28.62000
N  40.71700 9.31300 32.80100
C  41.54300 9.84700 33.72800
C  40.93200 9.72600 35.17200
C  39.78800 8.72200 34.96500
C  39.80000 8.54200 33.41300
C  39.93900 7.39300 35.76400
C  40.48900 11.12400 35.81000
C  40.07000 11.12100 37.20800
H  41.02300 11.81300 38.24100
N  39.42400 8.24600 30.41200
C  38.59600 7.69500 31.36900
C  37.41600 7.10300 30.71600
C  37.58900 7.33100 29.32500
C  38.91200 7.90300 29.14300
C  36.48700 6.31300 31.53200
C  36.72800 6.87100 28.16000
O  37.01000 6.88300 26.96200
C  35.39200 6.46300 28.52600
N  41.77000 8.92300 28.59400
C  40.92500 8.46400 27.60700
C  41.52000 8.33400 26.22700
C  42.94100 9.06200 26.48700
C  42.97300 9.23200 27.98500
C  41.68400 6.92100 25.70700
C  43.23900 10.37700 25.77000
C  42.24700 11.46500 25.88500
N  43.08200 9.92200 30.92600
C  44.11800 10.18200 30.03600
C  45.05200 10.97300 30.73700
C  44.58900 11.14100 32.07100
C  43.39200 10.44000 32.13200
C  46.20200 11.56300 30.05500
C  45.02500 11.65600 33.32100
O  46.03000 12.25300 33.74400
C  43.84400 11.20000 34.25400
C  44.48200 10.33600 35.34800
O  45.11900 9.30600 35.16600
O  44.08400 10.82700 36.61400
C  44.45100 9.95700 37.72200
H  37.98800 7.59000 33.42300
H  39.09800 7.79700 27.02200
H  44.99500 10.11000 28.09300
H  41.61600 9.25800 35.88000
H  38.78600 9.11500 35.14000
H  40.53800 7.45300 36.67300
H  40.43500 6.76500 35.02300
H  38.88600 7.23200 35.99100
H  39.67700 11.60300 35.26400
H  41.39300 11.71800 35.67500
H  39.93700 10.07900 37.49800
H  39.08100 11.55500 37.35800
H  36.97400 5.99600 32.45400
H  36.26500 5.36600 31.04100
H  35.51000 6.74700 31.74500
H  34.95100 7.05700 29.32600
H  35.53400 5.42100 28.81100
H  34.71800 6.47100 27.66900
H  40.89600 8.87700 25.51800
H  43.78100 8.48700 26.09700
H  41.33700 6.08100 26.30900
H  42.72300 6.74200 25.43000
H  41.09400 6.81100 24.79700
H  43.32500 10.26800 24.68900
H  44.14500 10.72400 26.26700
H  41.48200 11.61500 25.12300
H  42.54100 12.47700 26.16500
H  41.65800 11.12400 26.73700
H  46.34200 12.56200 30.46900
H  46.00900 11.53400 28.98200
H  47.05500 10.91700 30.26200
H  43.47700 12.14200 34.66100
H  44.54700 8.89500 37.49700
H  43.67000 9.94400 38.48300
H  45.36600 10.36800 38.14900
Mg -13.04900 16.00000 42.37300
C  -9.99200 14.47500 41.69500
C  -11.75400 18.82500 40.45200
C  -16.13200 17.30200 41.92500
C  -14.40300 12.90100 43.18200
N  -11.15200 16.53700 41.16700
C  -10.00700 15.73500 41.12000
C  -8.82300 16.49600 40.38100
C  -9.40900 17.94300 40.21100
C  -10.89600 17.73600 40.59200
C  -8.73600 19.06500 41.06400
C  -8.30700 15.93400 39.01100
C  -6.78400 16.26300 38.91400
H  -6.39300 16.88400 37.66300
N  -13.82800 17.85900 41.61000
C  -13.08300 18.84200 40.88000
C  -14.08800 19.88500 40.42800
C  -15.39200 19.30400 40.46100
C  -15.17100 18.09700 41.34800
C  -13.77900 21.21000 39.86700
C  -16.65000 19.95700 40.01200
O  -16.60900 20.99200 39.39200
C  -17.94900 19.33500 40.28700
N  -14.96600 15.15800 42.37800
C  -16.04800 15.97400 42.39200
C  -17.30000 15.16000 42.77300
C  -16.82600 13.64600 42.81000
C  -15.31600 13.87700 42.80200
C  -17.83900 15.65900 44.13200
C  -17.41800 12.75800 41.67100
C  -18.03700 11.41300 42.19500
N  -12.33600 14.06700 42.75700
C  -12.94800 12.98000 43.12400
C  -11.96000 11.98200 43.27500
C  -10.77300 12.48200 42.74500
C  -11.05900 13.76100 42.38700
C  -12.19700 10.56000 43.66600
C  -9.38200 12.27100 42.47200
O  -8.69500 11.26400 42.61900
C  -8.83200 13.58300 41.76500
C  -7.72500 14.05700 42.60900
O  -7.79200 14.19700 43.82200
O  -6.63400 14.23600 41.75100
C  -5.29300 14.66900 42.31300
H  -11.51100 19.76200 39.94600
H  -17.08900 17.82600 41.96500
H  -14.81900 11.95500 43.53500
H  -8.03600 16.56400 41.13200
H  -9.42000 18.20900 39.15400
H  -7.93700 18.69400 41.70500
H  -9.40400 19.51200 41.80000
H  -8.38000 19.75200 40.29600
H  -8.84700 16.37600 38.17300
H  -8.45800 14.85900 39.11300
H  -6.17600 15.38100 39.11400
H  -6.55500 17.01400 39.67000
H  -14.18400 22.04900 40.43300
H  -14.13400 21.16600 38.83700
H  -12.72400 21.45000 39.73300
H  -18.02200 18.26800 40.07600
H  -18.63700 19.87800 39.63900
H  -18.26800 19.52200 41.31300
H  -17.91000 15.45200 41.91800
H  -17.02600 13.26700 43.81100
H  -17.01600 16.16400 44.63800
H  -17.92200 14.80800 44.80700
H  -18.75200 16.23700 43.99000
H  -16.54000 12.37400 41.15200
H  -18.05800 13.24800 40.93600
H  -19.12600 11.43800 42.16200
H  -17.86600 11.23900 43.25700
H  -17.69200 10.49000 41.73000
H  -12.89600 10.19300 42.91400
H  -12.70700 10.53500 44.62800
H  -11.30800 9.93000 43.69100
H  -8.64200 13.26300 40.74000
H  -4.61200 14.78400 41.46900
H  -4.88200 13.93400 43.00500
H  -5.40300 15.63400 42.80800

