158

Mg 1.48100 -1.23000 44.43500
C  4.87600 -0.83800 43.52500
C  0.70700 1.52500 42.55400
C  -1.72700 -2.04100 44.67900
C  2.42200 -4.25500 45.94400
N  2.62700 0.04400 43.01200
C  4.00400 0.05200 42.93000
C  4.49800 1.13900 41.94800
C  3.17200 2.09900 41.81800
C  2.09100 1.16500 42.50000
C  3.28200 3.47700 42.48100
C  5.05100 0.54900 40.60700
C  6.45700 1.27100 40.19700
H  6.49700 2.15700 39.01600
N  -0.25600 -0.38300 43.76800
C  -0.38400 0.74700 43.05100
C  -1.80400 1.05800 42.76600
C  -2.57200 -0.06100 43.26800
C  -1.51000 -0.86500 43.95400
C  -2.26300 2.31500 42.03200
C  -4.10300 -0.11400 43.24100
O  -4.80800 0.80800 42.84400
C  -4.81700 -1.34300 43.62900
N  0.44400 -2.90700 45.24900
C  -0.91200 -2.94800 45.27100
C  -1.37200 -4.24500 45.91800
C  -0.07400 -4.88200 46.47100
C  1.01500 -4.00600 45.87200
C  -2.62700 -4.18400 46.95000
C  0.14500 -6.45200 46.18800
C  0.57800 -7.16100 47.45400
N  3.23800 -2.33400 44.80100
C  3.47600 -3.51700 45.45500
C  4.86100 -3.85800 45.46700
C  5.47600 -2.73100 44.80700
C  4.39100 -1.90800 44.34700
C  5.46700 -5.05800 46.15000
C  6.71500 -2.14000 44.36700
O  7.88100 -2.46700 44.51400
C  6.34500 -0.81900 43.57300
C  6.84500 0.38300 44.35000
O  6.78500 0.58100 45.54100
O  7.32900 1.34600 43.52200
C  7.87300 2.52800 44.22000
H  0.43400 2.43700 42.01900
H  -2.79900 -2.18700 44.82300
H  2.69800 -5.06800 46.61900
H  5.35300 1.68100 42.35400
H  3.01000 2.06400 40.74000
H  2.97500 4.24800 41.77400
H  4.27400 3.71300 42.86600
H  2.59800 3.51600 43.32900
H  4.26400 0.59000 39.85400
H  5.31900 -0.48800 40.80600
H  7.31400 0.61700 40.03600
H  6.84700 1.85700 41.02900
H  -1.60500 2.35600 41.16300
H  -1.91800 3.08600 42.72100
H  -3.32900 2.34600 41.80700
H  -4.96100 -1.41100 44.70800
H  -4.17900 -2.17000 43.31800
H  -5.76200 -1.53600 43.12200
H  -1.65100 -4.85200 45.05600
H  -0.08600 -4.66000 47.53800
H  -3.04600 -3.18700 47.08800
H  -2.35400 -4.59700 47.92100
H  -3.47000 -4.74400 46.54600
H  0.77500 -6.70800 45.33600
H  -0.82800 -6.91700 46.02900
H  1.44700 -7.72600 47.11800
H  -0.25600 -7.81700 47.70100
H  1.02700 -6.62200 48.28900
H  5.59500 -5.86700 45.43100
H  4.77600 -5.58700 46.80600
H  6.43600 -4.81000 46.58300
H  6.73400 -0.63100 42.57300
H  7.12100 3.17300 44.67400
H  8.50700 3.04800 43.50100
H  8.61700 2.17500 44.93500
Mg 36.61300 49.62900 25.13600
C  36.76800 47.62600 28.04300
C  35.66900 52.26000 27.05000
C  36.32300 51.37100 22.37600
C  37.67100 46.78300 23.28600
N  36.34300 49.86300 27.32200
C  36.47900 48.94500 28.34300
C  36.20800 49.50900 29.70400
C  35.74300 50.99900 29.33500
C  35.90700 51.04600 27.80400
C  34.36800 51.42600 29.90100
C  37.41000 49.43500 30.68200
C  37.11200 48.78700 32.09600
H  35.73400 48.90100 32.67100
N  36.16300 51.63600 24.74300
C  35.79000 52.56100 25.67500
C  35.54500 53.82300 25.00400
C  35.69100 53.52800 23.64300
C  36.06800 52.11600 23.51400
C  35.08600 55.09700 25.73100
C  35.59400 54.57400 22.50300
O  35.81000 54.33000 21.28000
C  35.13800 56.02600 22.78500
N  36.98700 49.13800 23.22600
C  36.72500 50.06700 22.23000
C  36.76600 49.46000 20.85000
C  37.64500 48.09800 21.14000
C  37.45700 47.96300 22.67100
C  35.43400 49.13100 20.18300
C  39.10500 48.16000 20.60000
C  39.83000 46.78300 20.52000
N  37.10800 47.57600 25.51500
C  37.47800 46.59500 24.69800
C  37.61400 45.43300 25.41300
C  37.27900 45.77100 26.66400
C  36.99900 47.12000 26.72500
C  37.85700 44.17000 24.89800
C  37.22300 45.21000 28.00800
O  37.43700 44.08200 28.32900
C  36.88300 46.42600 28.97500
C  35.61400 46.19200 29.83600
O  34.47700 46.41700 29.49400
O  36.00600 45.61600 31.01600
C  34.97400 45.15100 32.00000
H  35.42400 53.14700 27.63800
H  35.91700 51.79000 21.45300
H  37.93100 45.91100 22.68200
H  35.43500 48.89100 30.16100
H  36.44400 51.76000 29.67700
H  33.70000 51.66400 29.07300
H  34.53200 52.31000 30.51800
H  34.01200 50.59800 30.51400
H  38.02300 50.33400 30.75600
H  38.04500 48.79500 30.07000
H  37.65400 49.33600 32.86600
H  37.61900 47.82200 32.08800
H  35.62700 55.97400 25.37700
H  35.28600 54.99800 26.79800
H  34.02700 55.23500 25.51400
H  34.92600 56.44000 21.79900
H  36.01100 56.52100 23.21100
H  34.21000 55.96700 23.35400
H  37.33600 50.24000 20.34500
H  37.19300 47.21300 20.69300
H  34.57600 49.38200 20.80700
H  35.28900 48.12700 19.78500
H  35.33800 49.84100 19.36100
H  39.72300 48.72700 21.29500
H  39.12700 48.67700 19.64000
H  40.51000 46.74600 21.37100
H  40.32300 46.54000 19.57900
H  39.19500 45.91000 20.66800
H  38.92300 43.95700 24.82200
H  37.50200 44.11400 23.86900
H  37.36100 43.36300 25.43700
H  37.77100 46.47000 29.60600
H  34.81700 44.10000 31.76000
H  34.09300 45.78400 31.89500
H  35.37000 45.19800 33.01400

