158

Mg 47.56200 25.18600 28.37700
C  48.49700 27.53000 30.79200
C  46.68800 23.05500 31.01200
C  46.96400 22.86600 26.16300
C  48.68800 27.26400 25.87300
N  47.56500 25.36300 30.57700
C  47.96300 26.38900 31.34000
C  47.67400 26.22200 32.83500
C  47.10300 24.72800 32.85600
C  47.10800 24.36600 31.35200
C  47.87700 23.78000 33.70800
C  46.78500 27.29400 33.45900
C  46.02000 26.83200 34.68200
H  45.88100 27.80500 35.88000
N  46.88600 23.29700 28.53800
C  46.55700 22.61900 29.64800
C  45.98300 21.32600 29.29100
C  46.15900 21.16200 27.88100
C  46.66800 22.48100 27.47400
C  45.38100 20.35400 30.33300
C  45.85800 19.91800 27.06600
O  46.14700 19.84400 25.86100
C  45.30200 18.70900 27.62800
N  47.76900 25.12100 26.25700
C  47.38400 24.04900 25.56900
C  47.80900 24.24300 24.07500
C  48.02100 25.80200 23.93200
C  48.10500 26.13400 25.44800
C  49.07900 23.36200 23.87000
C  46.97400 26.54800 23.07800
C  47.10300 26.63400 21.51200
N  48.36500 27.04300 28.33900
C  48.84700 27.70600 27.23100
C  49.48300 28.84100 27.73600
C  49.39400 28.86500 29.13000
C  48.65600 27.74600 29.40800
C  50.21800 29.83800 26.87600
C  49.67100 29.56800 30.35900
O  50.23400 30.67500 30.53700
C  49.09800 28.68100 31.51600
C  50.35300 28.21200 32.23300
O  51.12100 27.34400 31.86600
O  50.49700 28.86600 33.41100
C  51.58800 28.50800 34.30400
H  46.35700 22.54000 31.91600
H  46.88600 22.07400 25.41500
H  48.90800 27.96500 25.06600
H  48.68100 26.33900 33.23500
H  46.05300 24.70100 33.14700
H  48.25800 22.94100 33.12500
H  47.25500 23.40400 34.52000
H  48.70900 24.27600 34.20700
H  46.04600 27.64900 32.74100
H  47.39000 28.15300 33.74900
H  46.45500 25.93600 35.12400
H  44.97100 26.67900 34.43000
H  45.91300 19.40300 30.31600
H  44.32300 20.22400 30.10500
H  45.44300 20.77900 31.33500
H  45.75000 18.26000 28.51400
H  45.35300 17.95500 26.84200
H  44.29200 19.09800 27.75400
H  47.05400 23.91300 23.36200
H  48.99900 26.09200 23.54900
H  49.99400 23.94000 23.74000
H  48.82400 22.76300 22.99600
H  49.37400 22.69400 24.67900
H  47.02200 27.55100 23.50100
H  46.00400 26.19100 23.42500
H  47.79500 25.89800 21.10300
H  47.41200 27.66800 21.35800
H  46.17000 26.29000 21.06500
H  49.60400 30.73600 26.80400
H  50.45700 29.53800 25.85600
H  51.17400 30.05600 27.35200
H  48.28300 29.17500 32.04500
H  51.24200 27.60700 34.81000
H  51.64100 29.32400 35.02500
H  52.56300 28.32200 33.85300
Mg 6.49100 53.06900 40.56300
C  6.01600 49.60300 40.05800
C  9.83700 52.74000 39.96900
C  6.81700 56.40200 40.32200
C  3.11500 53.41700 41.09000
N  7.73800 51.41300 40.07200
C  7.37600 50.09500 39.88000
C  8.69300 49.19300 39.89300
C  9.81800 50.21700 40.15400
C  9.09400 51.54900 40.02700
C  10.55500 50.13600 41.50300
C  8.98200 48.44100 38.54600
C  8.74200 49.17500 37.22000
H  7.66600 48.78000 36.26900
N  8.16800 54.40000 40.32200
C  9.45300 54.06700 40.00600
C  10.24300 55.27400 39.94100
C  9.39900 56.35300 40.11000
C  8.05500 55.76200 40.26800
C  11.76400 55.21300 39.65300
C  9.80700 57.82000 40.07700
O  10.99700 58.07100 39.85600
C  8.91600 58.95900 40.20700
N  5.21900 54.64400 40.46400
C  5.54300 55.92100 40.49800
C  4.32400 56.86500 40.77000
C  3.22400 55.88100 41.22400
C  3.91500 54.55100 40.95800
C  4.56200 58.04900 41.79000
C  1.81000 56.07500 40.50800
C  0.65900 56.34500 41.43300
N  4.84100 51.78300 40.62700
C  3.58000 52.06200 40.99400
C  2.84700 50.83100 41.15000
C  3.76900 49.81100 40.72400
C  4.96400 50.47900 40.37600
C  1.36000 50.70600 41.40600
C  4.00500 48.37300 40.61000
O  3.21800 47.45300 40.92700
C  5.47800 48.22100 40.16600
C  5.50300 47.50400 38.94300
O  5.16800 48.06800 37.90300
O  5.93300 46.27400 39.14700
C  5.90700 45.28200 38.01100
H  10.89200 52.46500 39.89800
H  6.82100 57.48400 40.17000
H  2.11700 53.39500 41.53300
H  8.49800 48.46400 40.68000
H  10.58400 50.17700 39.37900
H  10.27300 51.03600 42.05100
H  11.63600 50.04300 41.39900
H  10.30100 49.27700 42.12400
H  8.43900 47.49600 38.58400
H  10.02000 48.12100 38.63200
H  9.60500 49.05900 36.56500
H  8.60500 50.22400 37.48000
H  11.92700 55.63700 38.66200
H  12.13200 54.18700 39.62400
H  12.32100 55.77900 40.40000
H  9.38200 59.94200 40.14900
H  8.37800 58.84800 41.14800
H  8.08200 58.95000 39.50500
H  4.05400 57.29800 39.80700
H  3.07900 56.01000 42.29700
H  4.75000 58.98100 41.25600
H  5.36000 57.76700 42.47700
H  3.65100 58.22500 42.36000
H  1.65200 55.27300 39.78700
H  1.76600 56.94900 39.85800
H  0.02900 55.48900 41.67900
H  -0.00400 57.10700 41.02400
H  1.11200 56.66800 42.37000
H  0.68600 51.15300 40.67600
H  1.30000 51.21600 42.36700
H  1.15200 49.70200 41.77400
H  5.97500 47.68600 40.97500
H  5.41400 44.38500 38.38500
H  6.93600 44.96500 37.84200
H  5.48600 45.65100 37.07500

