158

Mg 54.31800 24.95700 46.07300
C  51.73800 26.92500 44.90900
C  52.86400 22.25500 44.24400
C  57.31000 23.14700 46.29700
C  55.84700 27.59800 47.49700
N  52.57100 24.68900 44.66200
C  51.62100 25.61900 44.32000
C  50.51600 24.98900 43.49900
C  50.68600 23.52800 43.72000
C  52.11700 23.41900 44.37400
C  49.66900 22.86200 44.66100
C  50.76900 25.28500 41.96300
C  52.18000 25.78900 41.49500
H  53.30400 24.75900 41.39900
N  55.01100 23.04000 45.42200
C  54.23200 22.13900 44.64400
C  54.98900 20.90300 44.41500
C  56.24300 21.10400 45.12200
C  56.27600 22.44800 45.59000
C  54.45800 19.67500 43.74600
C  57.35400 20.03900 45.09500
O  57.15600 18.98900 44.55600
C  58.78900 20.28200 45.55400
N  56.37200 25.24600 46.82900
C  57.39600 24.39300 46.85300
C  58.69000 25.05000 47.38700
C  58.24100 26.54400 47.70800
C  56.68500 26.42500 47.40600
C  59.32500 24.29300 48.60200
C  58.89700 27.65300 46.83700
C  58.73600 27.52000 45.35200
N  53.94100 26.82800 46.29400
C  54.59000 27.74700 46.99300
C  53.75300 28.93000 46.96000
C  52.56700 28.66800 46.15300
C  52.78900 27.31400 45.71300
C  54.05800 30.24100 47.61400
C  51.35200 29.19000 45.64400
O  50.85100 30.29800 45.74300
C  50.69900 28.04600 44.75800
C  50.68100 28.64400 43.42700
O  51.61900 29.12500 42.76900
O  49.39600 28.31700 42.84200
C  49.24000 28.49800 41.38000
H  52.22900 21.45600 43.85700
H  58.24400 22.61700 46.49700
H  56.32600 28.53200 47.79600
H  49.54900 25.41900 43.75900
H  50.63200 22.92900 42.81000
H  48.75700 23.42400 44.46000
H  49.83700 22.82300 45.73700
H  49.55900 21.85100 44.27100
H  50.09400 26.08500 41.65700
H  50.45700 24.48500 41.29200
H  52.42900 26.67100 42.08500
H  52.17300 26.10400 40.45200
H  55.16100 19.31100 42.99700
H  53.48100 19.82000 43.28500
H  54.32500 18.87300 44.47300
H  59.42000 19.46100 45.21400
H  58.87600 20.39800 46.63400
H  59.23000 21.12800 45.02600
H  59.40700 24.98100 46.56800
H  58.50400 26.76700 48.74200
H  59.22500 24.92300 49.48600
H  60.34200 24.09700 48.26100
H  58.76600 23.38300 48.81900
H  59.93500 27.34500 46.96300
H  58.82200 28.68000 47.19300
H  57.79800 26.99700 45.16600
H  59.52000 27.03300 44.77200
H  58.51700 28.47800 44.88000
H  54.87200 30.21200 48.33900
H  53.17100 30.72600 48.02200
H  54.41200 31.01200 46.92900
H  49.69000 27.68300 44.95500
H  50.19100 28.35900 40.86500
H  48.75000 29.45600 41.20800
H  48.50300 27.76200 41.06000
Mg 17.41400 50.87400 26.34300
C  19.50100 49.64800 28.80700
C  14.93800 51.59500 28.62400
C  15.68200 51.96800 23.78200
C  20.08800 49.88200 24.09100
N  17.19100 50.61400 28.42400
C  18.21900 50.19800 29.25200
C  17.97800 50.50800 30.71700
C  16.40200 50.89100 30.61700
C  16.09700 51.05100 29.14400
C  15.48000 49.81300 31.23400
C  18.81800 51.61000 31.29000
C  18.86600 51.66100 32.87800
H  17.76500 51.04200 33.75200
N  15.49600 51.66800 26.20100
C  14.67700 51.97600 27.26300
C  13.61600 52.80100 26.79500
C  13.82700 52.95800 25.39100
C  14.97100 52.09300 25.05300
C  12.52900 53.33700 27.70600
C  12.99200 53.89800 24.38900
O  13.35600 53.94800 23.22200
C  11.73400 54.64500 24.85700
N  17.82500 50.83200 24.23100
C  16.86300 51.27800 23.39800
C  17.34900 51.10000 21.96800
C  18.83000 50.64600 22.01700
C  18.92700 50.43300 23.49200
C  16.34800 50.21500 21.24300
C  19.85400 51.83800 21.59300
C  20.67700 51.54400 20.27100
N  19.33700 49.82200 26.38300
C  20.25100 49.51300 25.41400
C  21.34600 48.82100 25.94400
C  21.13700 48.79800 27.31500
C  19.92100 49.49300 27.48300
C  22.49100 48.39200 25.15400
C  21.71300 48.49100 28.62300
O  22.74900 48.10800 28.99900
C  20.64000 49.02100 29.60900
C  20.29500 47.92600 30.61100
O  19.44800 47.11700 30.47600
O  21.01100 48.20400 31.70800
C  20.61400 47.46800 32.89600
H  14.22500 52.00200 29.34400
H  15.19600 52.40300 22.90600
H  20.93200 49.85100 23.39900
H  18.17400 49.68500 31.40400
H  16.25900 51.87600 31.06200
H  14.82800 49.34200 30.49800
H  14.94100 50.28700 32.05400
H  16.06000 48.96200 31.59100
H  18.50200 52.61100 30.99600
H  19.84000 51.50400 30.92500
H  19.11100 52.66100 33.23500
H  19.79500 51.09700 32.94800
H  11.63900 52.89800 27.25500
H  12.58400 54.42400 27.75300
H  12.65100 52.95500 28.72000
H  11.06000 54.04500 25.46800
H  11.19500 55.01600 23.98500
H  12.01300 55.54400 25.40600
H  17.36500 52.04900 21.43200
H  19.00700 49.69700 21.51000
H  16.01200 50.66600 20.31000
H  15.46000 50.15900 21.87200
H  16.70000 49.18400 21.23800
H  20.41200 52.29000 22.41300
H  19.28200 52.70800 21.27200
H  20.31900 50.66700 19.73200
H  21.75200 51.60800 20.43900
H  20.48200 52.37900 19.59800
H  23.19200 47.85500 25.79300
H  22.98500 49.18800 24.59600
H  22.13900 47.65700 24.43000
H  21.28300 49.74000 30.11500
H  19.56500 47.59300 33.16500
H  21.22700 47.90000 33.68800
H  20.88900 46.41800 32.78600

