158

Mg 39.93900 9.12000 28.91500
C  41.86100 10.25500 31.55200
C  37.65400 7.76600 31.07300
C  38.18400 8.01400 26.25700
C  42.60400 9.90900 26.76300
N  39.90600 8.91600 31.06100
C  40.71800 9.54400 31.92900
C  40.15900 9.51200 33.32800
C  38.92500 8.52100 33.19500
C  38.76700 8.43200 31.67800
C  38.96900 7.19300 33.93800
C  39.85100 10.91700 33.86100
C  39.51000 11.17500 35.34800
H  40.50300 11.96100 36.19400
N  38.16000 8.06000 28.72200
C  37.29700 7.61300 29.72300
C  36.03800 7.12500 29.20800
C  36.22400 7.20900 27.73600
C  37.56800 7.79600 27.49700
C  34.85700 6.58700 30.03100
C  35.23600 6.99200 26.71900
O  35.49700 7.09200 25.51800
C  33.75100 6.59500 27.06300
N  40.41600 8.94300 26.83100
C  39.44900 8.52000 25.86200
C  40.00100 8.41200 24.41600
C  41.42500 9.11300 24.61800
C  41.52600 9.35200 26.15600
C  39.98100 6.98200 23.87500
C  41.45300 10.59600 23.92100
C  40.73800 11.81500 24.52700
N  41.81700 10.04200 29.03000
C  42.77700 10.33000 28.11200
C  43.88000 11.02700 28.71600
C  43.63500 11.00700 30.12700
C  42.34000 10.41100 30.21500
C  45.06900 11.61400 28.01400
C  44.11900 11.29200 31.43800
O  45.18100 11.75700 31.87600
C  42.94600 10.94300 32.42400
C  43.42200 10.10900 33.50500
O  44.16900 9.16600 33.33600
O  42.96000 10.63200 34.67300
C  43.36500 10.04600 35.90500
H  36.96600 7.37200 31.82400
H  37.62300 7.78400 25.34900
H  43.45900 10.05600 26.10000
H  40.83900 9.06600 34.05400
H  38.04300 9.07600 33.51600
H  39.81700 7.22600 34.62200
H  39.05400 6.36700 33.23200
H  38.04300 7.10100 34.50500
H  38.94200 11.22900 33.34700
H  40.74900 11.47900 33.60400
H  39.56200 10.13800 35.67700
H  38.50900 11.60800 35.34000
H  34.89800 6.76400 31.10500
H  34.62500 5.53500 29.86100
H  33.97300 7.14000 29.71100
H  33.59100 5.95500 27.93100
H  33.25300 6.14200 26.20600
H  33.18700 7.49900 27.29400
H  39.46700 9.01000 23.67700
H  42.29900 8.51600 24.35500
H  39.09100 6.85000 23.25900
H  39.88300 6.42100 24.80400
H  40.91000 6.81500 23.33100
H  41.04700 10.40300 22.92900
H  42.52500 10.74800 23.79100
H  40.12000 11.55400 25.38700
H  39.96400 12.13200 23.82900
H  41.41800 12.65800 24.64700
H  44.64200 11.81600 27.03200
H  45.82600 10.83000 27.99400
H  45.46100 12.54200 28.43200
H  42.59100 11.89800 32.81200
H  42.49700 9.88100 36.54300
H  44.03700 10.79200 36.32900
H  43.92900 9.11300 35.90200
Mg 1.04200 43.38500 26.20200
C  2.60700 43.59400 29.38200
C  -1.84400 42.32200 27.80300
C  -0.18300 42.78900 23.21200
C  4.15600 43.85700 24.73800
N  0.45200 43.12100 28.39600
C  1.23300 43.34600 29.48600
C  0.40900 43.20400 30.72400
C  -0.93200 42.54000 30.24600
C  -0.79800 42.60300 28.68400
C  -1.23900 41.08000 30.70500
C  0.23400 44.61400 31.46300
C  0.58800 44.67100 33.00400
H  -0.26200 43.94100 34.00900
N  -0.77700 42.71700 25.61000
C  -1.81700 42.39600 26.36200
C  -2.90200 42.05700 25.49600
C  -2.47800 42.06700 24.13200
C  -1.08100 42.55000 24.27000
C  -4.27100 41.73700 26.08500
C  -3.20200 41.75800 22.87800
O  -2.71400 41.84600 21.73700
C  -4.54200 41.21300 22.84100
N  1.92400 43.14400 24.23500
C  1.18800 42.96100 23.16500
C  1.89000 43.11500 21.81200
C  3.17500 43.88300 22.36200
C  3.16300 43.59100 23.84500
C  2.13400 41.89600 21.00200
C  3.23100 45.47900 22.02500
C  4.30400 46.00000 21.04800
N  2.93600 43.80200 26.87600
C  4.10900 43.99400 26.15000
C  5.25500 44.10800 27.02000
C  4.68500 43.99300 28.33900
C  3.28400 43.73000 28.19500
C  6.62100 44.54500 26.61900
C  4.96400 43.92500 29.78000
O  5.97500 44.07800 30.46700
C  3.58800 43.76800 30.51800
C  3.64700 42.63000 31.43400
O  3.36900 41.50000 31.11700
O  3.82600 43.13200 32.68800
C  3.68800 42.11600 33.68500
H  -2.78300 42.09300 28.31100
H  -0.60500 42.71700 22.20800
H  5.09100 44.17600 24.27400
H  0.91900 42.50700 31.38900
H  -1.70000 43.25300 30.54600
H  -0.53900 40.92000 31.52500
H  -1.10800 40.29900 29.95600
H  -2.29800 40.99000 30.94800
H  -0.81600 44.87600 31.59200
H  0.75900 45.47700 31.05400
H  0.64900 45.71700 33.30700
H  1.62200 44.33000 33.05800
H  -4.39400 42.35500 26.97400
H  -4.39100 40.71200 26.43400
H  -4.96900 42.01600 25.29600
H  -5.27300 42.01400 22.73500
H  -4.74700 40.57100 23.69800
H  -4.51400 40.57500 21.95800
H  1.33400 43.86100 21.24300
H  4.13300 43.50700 22.00300
H  3.06900 41.44300 21.33200
H  2.34300 42.24300 19.99100
H  1.32500 41.16800 21.05800
H  3.27500 45.98700 22.98900
H  2.27600 45.65400 21.53000
H  4.83200 46.84300 21.49400
H  3.74200 46.32000 20.17000
H  5.00100 45.19000 20.83700
H  7.39900 44.04100 27.19200
H  6.61800 45.49600 27.15000
H  6.73400 44.60300 25.53600
H  3.49200 44.70600 31.06600
H  4.22900 42.66800 34.45300
H  4.20600 41.18300 33.46100
H  2.69700 41.86800 34.06600

