158

Mg 46.80300 16.06700 27.95200
C  44.97400 15.62700 30.88500
C  49.27300 17.48000 29.76900
C  48.21000 17.12000 25.02700
C  43.99200 14.83300 26.19200
N  46.87800 16.82000 30.06500
C  46.17700 16.31000 31.11600
C  46.71500 16.69900 32.47000
C  47.93000 17.56000 31.95600
C  48.13900 17.16100 30.50700
C  47.70400 19.09200 31.89800
C  47.16300 15.43100 33.23600
C  46.94300 15.38200 34.78000
H  46.79500 16.59800 35.59600
N  48.55300 17.00000 27.53600
C  49.41900 17.51200 28.38200
C  50.53700 18.11700 27.72100
C  50.25900 18.04100 26.35300
C  48.95700 17.39900 26.21500
C  51.62900 18.87200 28.41900
C  51.04700 18.59400 25.14800
O  50.56400 18.62500 24.01100
C  52.45900 18.98300 25.40300
N  46.24400 15.89700 25.95000
C  47.01900 16.45800 24.90000
C  46.27400 16.27900 23.52600
C  45.17300 15.30800 23.93500
C  45.13200 15.32800 25.46400
C  45.81200 17.53400 22.75200
C  45.18500 13.77200 23.44300
C  43.73700 13.28300 23.12200
N  44.86600 15.33200 28.38700
C  43.86500 14.82800 27.57500
C  42.74300 14.34300 28.37400
C  43.15100 14.69400 29.71400
C  44.46300 15.27700 29.63800
C  41.40600 13.87200 27.89800
C  42.73200 14.67900 31.09600
O  41.64600 14.30700 31.53400
C  43.88600 15.31300 31.91400
C  43.35600 16.52700 32.60700
O  43.30800 17.63400 32.16200
O  42.85900 16.03400 33.84600
C  42.67500 17.10900 34.85300
H  49.97900 18.00400 30.41800
H  48.63000 17.39000 24.05600
H  43.17800 14.46000 25.56600
H  46.18100 17.45800 33.04100
H  48.84000 17.41500 32.53900
H  46.76600 19.29100 32.41500
H  47.52700 19.49900 30.90300
H  48.50400 19.69200 32.33000
H  48.22800 15.36300 33.01600
H  46.75800 14.53300 32.76900
H  47.71000 14.72700 35.19400
H  46.06900 14.73800 34.88200
H  52.54000 18.46400 27.98100
H  51.68100 18.61000 29.47600
H  51.66500 19.95800 28.32900
H  52.57700 19.88300 26.00700
H  52.88700 19.16900 24.41800
H  52.94000 18.09900 25.82300
H  46.99400 15.82000 22.84900
H  44.26700 15.78200 23.55600
H  46.11400 18.43000 23.29500
H  44.76500 17.51500 22.45100
H  46.42300 17.47700 21.85100
H  45.65300 13.04800 24.11000
H  45.79300 13.53900 22.56800
H  43.42400 12.54900 23.86400
H  43.61000 12.85200 22.12900
H  43.02700 14.10300 23.23600
H  41.05300 13.11200 28.59600
H  41.51300 13.39400 26.92500
H  40.74100 14.71700 27.72000
H  44.16400 14.63100 32.71700
H  43.23200 17.98700 34.52700
H  42.96100 16.90800 35.88500
H  41.61100 17.32800 34.76000
Mg -0.04700 34.43500 26.85100
C  -2.23700 32.83000 29.17400
C  0.61700 36.78600 29.49000
C  1.47000 36.31700 24.63700
C  -1.48500 32.50200 24.22900
N  -0.71700 34.76000 29.04700
C  -1.52000 33.86600 29.75000
C  -1.54700 34.20700 31.21800
C  -0.70600 35.53400 31.28300
C  -0.27700 35.75300 29.83600
C  -1.51800 36.71900 31.89000
C  -1.04600 33.06800 32.07100
C  -1.88800 32.69000 33.25000
H  -1.44600 33.33900 34.64800
N  1.04300 36.15700 27.06200
C  1.22400 36.99800 28.20400
C  2.14800 38.07400 27.78800
C  2.50000 37.89100 26.41100
C  1.65900 36.75900 25.98500
C  2.58500 39.10300 28.81200
C  3.40800 38.67900 25.52700
O  3.56200 38.45000 24.33300
C  4.30300 39.69700 26.08800
N  -0.04000 34.41100 24.69700
C  0.80000 35.24400 24.07300
C  0.69800 34.99300 22.50200
C  -0.21200 33.67400 22.41500
C  -0.62700 33.51000 23.83900
C  0.06400 36.22400 21.79100
C  0.57300 32.49200 21.81200
C  1.51100 31.79800 22.71200
N  -1.47100 32.94900 26.70500
C  -1.90700 32.22400 25.57100
C  -2.83000 31.16600 26.05300
C  -2.94800 31.36600 27.46500
C  -2.19300 32.52300 27.76900
C  -3.63300 30.11000 25.25800
C  -3.67100 30.87500 28.63600
O  -4.56400 30.03300 28.69800
C  -3.11800 31.72300 29.79900
C  -4.36700 32.23900 30.46200
O  -5.06200 33.17200 30.08800
O  -4.48000 31.64200 31.68200
C  -5.55100 32.01700 32.56600
H  1.00600 37.50300 30.21500
H  1.94900 37.00500 23.93800
H  -1.91100 31.89600 23.42600
H  -2.60800 34.29100 31.45500
H  0.11800 35.39300 31.98100
H  -2.31200 36.43900 32.58200
H  -1.78400 37.35300 31.04400
H  -0.77300 37.14800 32.56000
H  -0.06800 33.35000 32.46200
H  -0.88100 32.21200 31.41600
H  -1.98200 31.60900 33.34800
H  -2.88600 33.07300 33.03500
H  1.73300 39.64000 29.22900
H  3.36300 39.78200 28.46200
H  2.90600 38.52600 29.67900
H  3.61700 40.49600 26.37200
H  4.98400 40.02900 25.30500
H  4.86300 39.41400 26.98000
H  1.63900 34.76000 22.00400
H  -1.06900 33.89500 21.77900
H  -0.52400 36.68900 22.58200
H  -0.61000 36.02400 20.95800
H  0.83900 36.92600 21.48200
H  1.16900 32.84600 20.97100
H  -0.12800 31.77600 21.38200
H  1.75700 32.28400 23.65600
H  2.50500 31.64700 22.29000
H  1.11600 30.79300 22.86500
H  -3.90200 29.32800 25.96800
H  -3.12400 29.80200 24.34500
H  -4.55300 30.59900 24.93600
H  -2.53800 31.12600 30.50300
H  -5.21300 32.73000 33.31800
H  -6.02000 31.14000 33.01200
H  -6.30500 32.48600 31.93300

