158

Mg -2.07800 16.93300 27.41200
C  -2.31700 14.95000 30.37000
C  -2.34800 19.74400 29.31200
C  -1.78000 18.72100 24.60500
C  -1.41200 14.06200 25.65500
N  -2.41300 17.30700 29.61300
C  -2.30700 16.36100 30.56100
C  -2.47400 17.05000 31.94100
C  -2.45900 18.54700 31.62800
C  -2.31900 18.55100 30.11500
C  -3.62100 19.40000 32.25000
C  -1.45500 16.61600 33.00400
C  -1.08600 17.53800 34.16300
H  -0.67700 16.98800 35.49000
N  -2.23000 18.87900 26.95400
C  -2.30400 19.88600 27.88300
C  -2.24300 21.20400 27.23800
C  -2.10900 20.87100 25.83400
C  -2.05500 19.44800 25.72000
C  -2.22700 22.48500 27.97200
C  -2.05400 21.82300 24.58500
O  -2.14800 21.51200 23.34600
C  -1.76100 23.33400 24.89200
N  -1.66100 16.48800 25.41600
C  -1.62800 17.40900 24.40500
C  -1.35300 16.73300 23.06800
C  -0.95500 15.27300 23.49800
C  -1.38500 15.22900 24.93100
C  -2.65000 16.76900 22.13700
C  0.55200 14.85400 23.23100
C  1.62500 15.86600 23.62300
N  -1.99800 14.90800 27.88000
C  -1.75700 13.84500 27.01400
C  -1.82000 12.60400 27.74500
C  -2.02300 12.97300 29.08500
C  -2.09900 14.39500 29.08700
C  -1.96000 11.23700 27.17600
C  -2.35500 12.48400 30.40400
O  -2.46800 11.28400 30.72100
C  -2.28600 13.75400 31.30900
C  -0.92600 13.59700 31.98200
O  0.17300 13.74000 31.53500
O  -1.28800 13.20000 33.22600
C  -0.29200 13.50900 34.22800
H  -2.30700 20.62500 29.95700
H  -1.68600 19.30000 23.68400
H  -1.21900 13.10600 25.16500
H  -3.44600 16.74200 32.32500
H  -1.51600 18.96700 31.97700
H  -4.38000 18.67100 32.53300
H  -4.15400 19.95500 31.47800
H  -3.37500 20.08300 33.06300
H  -0.48900 16.30500 32.60800
H  -1.98200 15.81700 33.52600
H  -2.01800 18.08800 34.29700
H  -0.25100 18.18900 33.90400
H  -2.08400 22.46800 29.05200
H  -3.14300 23.04400 27.78200
H  -1.42500 23.12800 27.60800
H  -2.02500 23.97900 24.05400
H  -0.67300 23.30100 24.94800
H  -2.21400 23.76900 25.78200
H  -0.46400 17.14800 22.59200
H  -1.53400 14.50700 22.98200
H  -3.35400 17.36400 22.71900
H  -3.04500 15.77800 21.91100
H  -2.50100 17.32800 21.21400
H  0.69400 14.50900 22.20700
H  0.56900 13.92500 23.80100
H  2.13800 16.12000 22.69600
H  2.27500 15.41300 24.37200
H  1.21200 16.79000 24.02700
H  -3.03000 11.02900 27.16300
H  -1.48900 10.55600 27.88400
H  -1.47400 11.17000 26.20300
H  -3.05800 13.80400 32.07700
H  0.29500 14.36900 33.90700
H  0.41300 12.72300 34.49900
H  -0.85300 13.79700 35.11700
Mg -12.01400 37.69300 41.92500
C  -10.23900 34.70000 41.29600
C  -9.39800 39.44500 40.55800
C  -14.09700 40.31900 41.68300
C  -14.64100 35.77600 42.95900
N  -9.99100 37.12600 41.11600
C  -9.50500 35.84700 40.90900
C  -8.09700 35.98700 40.21600
C  -7.71300 37.48500 40.39800
C  -9.12500 38.09200 40.79200
C  -6.53700 37.81100 41.41700
C  -8.12800 35.44200 38.72000
C  -6.97200 34.49900 38.52200
H  -5.79200 35.10500 37.79700
N  -11.76400 39.59600 41.25500
C  -10.60800 40.15600 40.73800
C  -10.81500 41.58600 40.50400
C  -12.23000 41.74600 40.56300
C  -12.78500 40.52300 41.14100
C  -9.67800 42.55400 40.00300
C  -12.94000 43.00500 40.20100
O  -12.21500 43.92600 39.78700
C  -14.36100 43.29200 40.36600
N  -14.14800 38.04600 42.38700
C  -14.74700 39.24600 42.26800
C  -16.29400 39.22400 42.48500
C  -16.38300 37.69800 43.09300
C  -15.00500 37.12400 42.75100
C  -16.90900 40.20500 43.46600
C  -17.53900 36.80500 42.45400
C  -17.84400 36.95300 40.96000
N  -12.39500 35.71900 42.14600
C  -13.46200 35.06800 42.71200
C  -13.18900 33.64700 42.79700
C  -11.92800 33.44700 42.22600
C  -11.48500 34.73000 41.81800
C  -14.11300 32.67200 43.46400
C  -10.87000 32.42300 41.83500
O  -10.79600 31.21200 41.90500
C  -9.71200 33.29500 41.14900
C  -8.35200 33.01100 41.71100
O  -7.49800 32.35700 41.15500
O  -8.23600 33.52000 43.02200
C  -7.25600 32.90300 43.86800
H  -8.58900 40.00400 40.08300
H  -14.72300 41.21300 41.63900
H  -15.51200 35.17900 43.24000
H  -7.48400 35.40700 40.90600
H  -7.30600 37.81500 39.44300
H  -6.94200 37.85200 42.42800
H  -6.02600 38.76700 41.30300
H  -5.73900 37.09400 41.22400
H  -8.11200 36.23100 37.96900
H  -9.04900 34.86100 38.66900
H  -7.31300 33.60500 37.99800
H  -6.48200 34.16200 39.43500
H  -9.71300 42.69100 38.92200
H  -8.66600 42.15500 40.07700
H  -9.79700 43.53800 40.45800
H  -14.91700 42.42900 40.00000
H  -14.75600 44.09700 39.74700
H  -14.53300 43.52300 41.41800
H  -16.80000 39.28800 41.52200
H  -16.55400 37.66900 44.16900
H  -17.66200 40.82500 42.97900
H  -16.17500 40.72200 44.08300
H  -17.42400 39.64900 44.25000
H  -18.44400 37.01800 43.02400
H  -17.34800 35.73800 42.56700
H  -17.01600 37.51200 40.52400
H  -18.79000 37.48200 40.84200
H  -18.01400 35.98200 40.49500
H  -15.02300 32.38100 42.93800
H  -14.31700 33.17300 44.41000
H  -13.56600 31.77100 43.74100
H  -9.75700 32.99800 40.10100
H  -7.30200 31.82400 43.72100
H  -7.45300 33.21600 44.89400
H  -6.25000 33.23600 43.61200

