158

Mg 39.83600 9.14300 29.16100
C  41.92200 10.14500 31.73300
C  37.66700 7.67000 31.55000
C  38.00600 7.82300 26.70100
C  42.26500 10.22600 26.88000
N  39.83600 8.90500 31.38900
C  40.72100 9.53100 32.25300
C  40.26300 9.55400 33.70900
C  39.02600 8.62800 33.61400
C  38.78500 8.33600 32.10100
C  39.16200 7.37100 34.53800
C  39.75300 11.07200 34.10000
C  39.25200 11.17400 35.57200
H  40.01700 12.23400 36.41800
N  38.02100 8.05200 29.15400
C  37.39000 7.47900 30.21800
C  36.22700 6.75000 29.71700
C  36.10900 6.96900 28.34600
C  37.43100 7.63100 27.99500
C  35.21100 6.13500 30.67900
C  35.08600 6.53300 27.42400
O  35.28200 6.64400 26.20400
C  33.74400 5.92900 27.88700
N  40.20900 8.93700 27.03500
C  39.22600 8.35700 26.28200
C  39.56000 8.50900 24.82600
C  40.86700 9.43400 24.85400
C  41.16200 9.51800 26.31100
C  39.65400 7.19100 24.05500
C  40.64700 10.77900 24.15800
C  39.83900 11.86000 24.89600
N  41.75800 10.02500 29.22600
C  42.62200 10.46700 28.22800
C  43.69800 11.24600 28.75300
C  43.50400 11.09300 30.13500
C  42.32300 10.33400 30.40100
C  44.70800 11.84000 27.91700
C  43.97500 11.39500 31.44700
O  44.97200 12.01900 31.79900
C  43.06900 10.75800 32.53000
C  43.94100 9.79700 33.39600
O  44.45200 8.75900 33.02900
O  44.06600 10.32100 34.65800
C  44.94700 9.52100 35.57300
H  37.01400 7.35300 32.36600
H  37.41000 7.39000 25.89600
H  42.90500 10.72700 26.15000
H  41.03500 9.15400 34.36600
H  38.06700 9.09600 33.83500
H  38.66200 7.60600 35.47800
H  40.20900 7.19000 34.78200
H  38.65800 6.47100 34.18500
H  38.82300 11.37400 33.61800
H  40.50500 11.85200 33.98700
H  39.31400 10.19600 36.04800
H  38.17700 11.34300 35.62800
H  34.21900 6.58800 30.65700
H  35.43600 5.93200 31.72600
H  34.93800 5.14200 30.32400
H  33.25900 6.52600 28.66000
H  33.97900 4.94000 28.28100
H  33.06000 5.82300 27.04500
H  38.67700 8.99100 24.40500
H  41.69400 8.91300 24.37200
H  40.54200 7.04500 23.43900
H  38.75500 7.10100 23.44500
H  39.62200 6.31800 24.70700
H  40.03600 10.49200 23.30100
H  41.54800 11.28700 23.81600
H  40.47600 12.73500 24.77100
H  39.81500 11.62500 25.96000
H  38.83700 11.95400 24.47700
H  45.40600 11.08300 27.56000
H  45.21100 12.59500 28.52000
H  44.28300 12.43500 27.10900
H  42.71300 11.59600 33.12900
H  44.63800 9.48300 36.61800
H  45.93500 9.98100 35.59900
H  45.12600 8.49900 35.23800
Mg -4.06800 25.60500 25.93300
C  -2.73700 26.90000 28.91700
C  -6.18600 23.68500 27.76100
C  -4.70000 24.01200 23.18100
C  -1.42200 27.28800 24.22800
N  -4.42100 25.40100 28.11600
C  -3.81900 26.05300 29.09200
C  -4.60800 25.83000 30.39500
C  -5.45800 24.58300 30.08600
C  -5.40500 24.54000 28.55200
C  -4.98900 23.28300 30.72200
C  -5.54100 27.07500 30.64400
C  -5.97000 27.23600 32.15900
H  -5.53900 26.19400 33.21600
N  -5.37800 24.15100 25.48300
C  -6.21900 23.54300 26.34100
C  -7.08600 22.58800 25.63400
C  -6.74100 22.73200 24.22100
C  -5.55800 23.67200 24.24100
C  -8.19700 21.78800 26.22000
C  -7.26700 22.11000 22.90700
O  -6.97300 22.55800 21.83000
C  -8.50200 21.26900 23.03700
N  -3.19300 25.57800 23.96000
C  -3.61100 24.78000 23.04600
C  -2.84400 24.90000 21.75000
C  -1.87000 26.19400 22.02800
C  -2.15800 26.40300 23.51300
C  -2.17000 23.57700 21.24100
C  -2.26800 27.44100 21.10500
C  -1.17500 28.29300 20.51700
N  -2.50300 26.91800 26.39100
C  -1.59400 27.59500 25.58700
C  -0.75200 28.55600 26.36800
C  -1.19400 28.22700 27.69700
C  -2.22800 27.26100 27.65400
C  0.31100 29.47100 25.84800
C  -1.00300 28.59600 29.08700
O  -0.17000 29.34200 29.59700
C  -1.96000 27.73900 29.95800
C  -1.11600 26.87700 30.91800
O  -0.52000 25.83100 30.63400
O  -1.50600 27.24700 32.22600
C  -1.13600 26.28500 33.23200
H  -6.84200 23.00100 28.30400
H  -4.81300 23.42700 22.26600
H  -0.66600 27.93500 23.78000
H  -3.88700 25.66700 31.19500
H  -6.48400 24.77900 30.39700
H  -4.60100 23.47300 31.72300
H  -4.27300 22.82000 30.04200
H  -5.83400 22.60900 30.86000
H  -6.34800 27.02200 29.91300
H  -5.01700 28.01700 30.48400
H  -7.05600 27.30400 32.23100
H  -5.50400 28.20700 32.32900
H  -9.12200 22.21700 25.83400
H  -8.03400 21.80300 27.29700
H  -8.02900 20.73600 25.99000
H  -8.62200 20.75500 22.08300
H  -9.31000 21.96300 23.27200
H  -8.38900 20.48800 23.78900
H  -3.61200 25.10900 21.00500
H  -0.82900 25.88800 21.92700
H  -2.56100 23.32500 20.25500
H  -2.36800 22.85800 22.03700
H  -1.12100 23.78100 21.02900
H  -2.84600 28.22600 21.59200
H  -2.87500 27.08700 20.27200
H  -0.17300 27.90500 20.70100
H  -1.17200 29.28300 20.97400
H  -1.38900 28.35800 19.45000
H  0.72700 30.22300 26.51800
H  -0.10000 30.00700 24.99200
H  1.06100 28.73900 25.54800
H  -2.52800 28.45500 30.55200
H  -1.68900 25.35000 33.13600
H  -1.32100 26.65800 34.23900
H  -0.06300 26.09600 33.22000

