158

Mg 42.29600 41.35400 26.11100
C  41.55600 43.77200 28.53700
C  43.62900 39.43900 28.55400
C  43.51600 39.47500 23.68200
C  41.92000 44.00000 23.71900
N  42.48500 41.62200 28.34800
C  41.94400 42.59900 29.15000
C  41.97100 42.20900 30.67100
C  42.86300 40.98900 30.66500
C  43.01900 40.65700 29.11500
C  44.22500 41.20700 31.39800
C  40.55500 41.88200 31.23200
C  40.57500 41.51200 32.70600
H  39.90700 42.52000 33.67400
N  43.29200 39.65500 26.11700
C  43.77400 38.99200 27.22600
C  44.40500 37.83800 26.81800
C  44.41100 37.77700 25.38100
C  43.69100 38.98700 24.97700
C  45.04100 36.89400 27.84900
C  45.04600 36.78300 24.44100
O  45.14200 36.99400 23.24500
C  45.81000 35.49400 25.00100
N  42.48800 41.66900 23.97600
C  42.97700 40.67100 23.22000
C  42.87900 41.02300 21.73100
C  42.41400 42.47600 21.73400
C  42.18900 42.75900 23.22100
C  44.09900 40.74000 20.83700
C  41.10800 42.56400 20.89200
C  40.68500 43.92800 20.36500
N  41.64100 43.40600 26.06400
C  41.58700 44.34700 25.05100
C  41.24800 45.61900 25.51400
C  41.02700 45.37700 26.89100
C  41.38600 44.07800 27.15100
C  41.04600 46.85000 24.65100
C  40.70800 46.06300 28.16500
O  40.37400 47.21000 28.37200
C  40.96900 44.97100 29.24900
C  41.96800 45.53100 30.24400
O  43.16300 45.64800 30.01000
O  41.40600 45.61100 31.43300
C  42.31800 45.51100 32.59200
H  44.07300 38.84300 29.35400
H  43.60400 38.76800 22.85500
H  41.79100 44.86000 23.05900
H  42.51000 43.00400 31.18700
H  42.45000 40.09500 31.13300
H  44.21500 40.72100 32.37400
H  44.29300 42.27200 31.61600
H  45.02100 40.83900 30.75100
H  40.35100 40.97700 30.65900
H  39.80600 42.63100 30.97500
H  41.61400 41.59700 33.02300
H  40.18300 40.54400 33.02000
H  44.83900 35.86600 27.54900
H  44.56800 36.89300 28.83100
H  46.12600 37.00300 27.83900
H  46.48000 35.82900 25.79300
H  46.37900 35.09500 24.16200
H  45.20200 34.74900 25.51400
H  42.10500 40.37500 21.32000
H  43.18800 43.14400 21.35400
H  44.38400 41.52100 20.13200
H  43.89300 39.92400 20.14400
H  44.92600 40.49900 21.50500
H  40.33400 42.17000 21.55000
H  41.09800 41.81900 20.09600
H  41.23300 44.83300 20.62900
H  39.67100 44.27900 20.55700
H  40.89000 43.92500 19.29400
H  40.02100 46.94400 24.29400
H  41.82700 46.90000 23.89200
H  41.14200 47.71600 25.30600
H  40.07900 44.63900 29.78400
H  43.08400 46.27900 32.70000
H  42.85300 44.56300 32.55400
H  41.67900 45.57700 33.47300
Mg 26.81100 50.13200 26.45600
C  24.72500 51.11900 29.05900
C  29.06600 48.92600 28.49600
C  28.90700 49.73200 23.74900
C  24.30100 51.46400 24.34000
N  26.78300 49.98500 28.51300
C  25.85500 50.34900 29.43900
C  26.24800 49.87600 30.82500
C  27.78100 49.61600 30.63600
C  27.99400 49.51200 29.14800
C  28.75100 50.46800 31.50600
C  25.43900 48.66100 31.36800
C  24.79500 48.85600 32.75000
H  25.49100 49.68600 33.92000
N  28.66300 49.30200 26.11400
C  29.43800 48.84200 27.12700
C  30.70600 48.31400 26.57900
C  30.69500 48.53900 25.18200
C  29.40500 49.23200 24.95900
C  31.70900 47.69800 27.55200
C  31.72300 48.19400 24.13400
O  31.46500 48.43000 22.96400
C  33.04200 47.57100 24.48400
N  26.71900 50.70900 24.38700
C  27.62400 50.30100 23.48700
C  27.15100 50.56700 22.10800
C  25.63100 50.81900 22.29500
C  25.48700 50.95500 23.76300
C  27.93200 51.75100 21.48900
C  24.64500 49.68900 21.71100
C  23.38900 50.21900 20.91700
N  24.99300 51.32500 26.62500
C  24.12000 51.75400 25.71100
C  22.95700 52.40000 26.32600
C  23.11200 52.14000 27.67700
C  24.40100 51.54000 27.77800
C  21.83300 53.02100 25.66100
C  22.52700 52.21000 28.98600
O  21.46500 52.70900 29.33200
C  23.53600 51.59200 29.99900
C  23.88200 52.62400 31.05900
O  24.97000 53.18700 31.18300
O  22.82800 52.72400 31.93200
C  23.21300 53.43400 33.15000
H  29.73200 48.48900 29.24300
H  29.46400 49.56100 22.82600
H  23.39200 51.70300 23.78500
H  26.09900 50.66700 31.55900
H  28.02000 48.62200 31.01200
H  29.18900 49.92100 32.34100
H  28.20300 51.32500 31.89800
H  29.57800 50.71400 30.84000
H  26.20200 47.91700 31.59700
H  24.74400 48.47300 30.55000
H  24.74900 47.82600 33.10400
H  23.76200 49.19600 32.66900
H  31.62800 48.03300 28.58600
H  32.74600 47.83200 27.24200
H  31.56300 46.61900 27.60500
H  33.57200 48.25000 25.15100
H  33.50100 47.35400 23.52000
H  32.65400 46.72400 25.05100
H  27.29400 49.65000 21.53500
H  25.34000 51.75600 21.82200
H  28.72100 52.02800 22.18800
H  27.26900 52.58000 21.24200
H  28.38800 51.32800 20.59400
H  24.29700 49.16200 22.60000
H  25.15300 48.96000 21.07900
H  22.70900 49.39300 21.12800
H  23.50100 50.40200 19.84900
H  22.95500 51.17200 21.22100
H  21.36200 52.45100 24.86000
H  22.17000 54.00100 25.32300
H  21.01100 53.20600 26.35300
H  22.92900 50.76500 30.36800
H  23.38000 54.48600 32.92000
H  24.08600 53.01100 33.64600
H  22.46500 53.32100 33.93600

