158

Mg 46.14700 24.94400 29.24800
C  46.72000 27.37200 31.66700
C  45.49600 22.70600 31.65400
C  45.93700 22.77700 26.77500
C  47.41400 27.43600 26.76200
N  46.10700 25.01800 31.31000
C  46.34000 26.11900 32.14000
C  46.01200 25.90600 33.57200
C  45.69200 24.37300 33.55000
C  45.76800 23.99100 32.04600
C  46.54400 23.50900 34.49800
C  44.99500 26.78100 34.28700
C  45.32200 27.36100 35.66400
H  44.20000 27.21600 36.76900
N  45.78600 22.98900 29.27200
C  45.38400 22.23300 30.32300
C  45.12900 20.89100 29.86100
C  45.25100 20.93700 28.40700
C  45.63700 22.30400 28.07600
C  44.73800 19.79000 30.82300
C  45.07400 19.79200 27.42500
O  45.16500 20.00200 26.18600
C  44.74600 18.33600 27.88500
N  46.70600 25.03300 27.00600
C  46.46100 23.97600 26.23100
C  46.95600 24.30200 24.76900
C  46.93600 25.87100 24.82200
C  47.07700 26.16300 26.27000
C  48.47300 23.78900 24.64100
C  45.57600 26.50000 24.22800
C  44.63000 27.35100 25.10800
N  46.92200 26.98000 29.13800
C  47.25400 27.87800 28.11100
C  47.68300 29.11000 28.74100
C  47.54400 29.00600 30.10700
C  47.02600 27.66100 30.32700
C  48.22500 30.26400 27.99900
C  47.64200 29.65900 31.40100
O  47.98400 30.80300 31.58800
C  47.14600 28.58500 32.47300
C  48.37500 28.30300 33.34300
O  49.21000 27.48500 33.05100
O  48.25600 28.99900 34.49600
C  49.28800 28.68200 35.49700
H  45.19900 22.04700 32.47300
H  45.84200 22.08800 25.93200
H  47.69200 28.08000 25.92500
H  46.86000 26.05600 34.24000
H  44.67200 24.17300 33.88000
H  46.68800 22.59600 33.92100
H  46.01800 23.34000 35.43800
H  47.48600 23.99400 34.75500
H  44.06000 26.24700 34.45700
H  44.76600 27.60700 33.61400
H  45.35600 28.42100 35.41500
H  46.27300 27.01300 36.06800
H  43.69800 19.53000 30.62400
H  44.92000 20.00300 31.87600
H  45.42100 18.98600 30.54900
H  44.70600 17.67500 27.01900
H  43.82300 18.32500 28.46500
H  45.49900 17.96600 28.58100
H  46.21100 23.88100 24.09300
H  47.82000 26.38400 24.44500
H  48.98700 24.33600 23.85200
H  48.38900 22.75700 24.29800
H  49.03400 23.77500 25.57500
H  45.03400 25.76200 23.63600
H  45.93700 27.17600 23.45300
H  43.58200 27.26100 24.82200
H  44.81000 28.42400 25.04400
H  44.64200 27.08200 26.16500
H  47.66300 31.17600 28.20200
H  48.12800 30.15500 26.91900
H  49.27600 30.44300 28.22400
H  46.36000 29.04100 33.07500
H  48.95000 27.82200 36.07500
H  49.32300 29.51200 36.20300
H  50.23800 28.46400 35.01000
Mg 46.16400 44.93000 43.81500
C  42.73600 44.70800 43.17500
C  46.45400 41.54300 43.14200
C  49.51700 45.29200 43.52100
C  45.89700 48.48900 43.74700
N  44.76300 43.38900 43.08700
C  43.37300 43.46800 42.94500
C  42.79600 42.11400 42.75700
C  43.97600 41.15400 43.04200
C  45.13600 42.07300 43.19400
C  43.71600 40.31200 44.33500
C  41.95500 41.88800 41.37600
C  42.31900 42.61500 40.06900
H  42.48800 41.80200 38.84700
N  47.78900 43.55200 43.40200
C  47.69100 42.19900 43.10300
C  48.94700 41.59300 42.96200
C  49.88000 42.62800 43.15200
C  49.11300 43.88800 43.38800
C  49.18400 40.12600 42.65700
C  51.33200 42.48600 42.98400
O  51.84000 41.46200 42.63000
C  52.18600 43.73800 43.16700
N  47.55200 46.60100 43.93100
C  48.85900 46.45200 43.74100
C  49.66800 47.76900 43.70300
C  48.51300 48.82500 43.80200
C  47.23100 47.94600 43.73300
C  50.83500 47.81100 44.72300
C  48.43200 50.00700 42.73000
C  48.34700 51.42800 43.29500
N  44.67300 46.29800 43.75600
C  44.70300 47.75900 43.72700
C  43.28400 48.20900 43.85000
C  42.58200 47.03100 43.63500
C  43.43400 45.92400 43.55000
C  42.84300 49.65200 43.85600
C  41.16300 46.59600 43.43300
O  40.19000 47.28000 43.30200
C  41.22500 45.03800 43.18000
C  40.42500 44.26500 44.23900
O  39.45000 43.58700 44.06300
O  41.21300 44.33700 45.36000
C  40.95900 43.27800 46.34800
H  46.55000 40.46700 42.98500
H  50.56500 45.52000 43.31300
H  45.78300 49.57400 43.78100
H  42.13400 42.16400 43.62200
H  44.23800 40.49200 42.21700
H  44.13900 39.31700 44.47000
H  42.63300 40.28800 44.45600
H  44.14500 40.85300 45.17900
H  40.87900 41.91200 41.54400
H  41.91400 40.81100 41.21400
H  43.30200 43.08300 40.11100
H  41.59700 43.40600 39.86500
H  50.19400 39.72500 42.57300
H  48.51000 39.58200 41.99600
H  49.13600 39.78600 43.69200
H  52.06900 44.17600 44.15800
H  52.02600 44.37500 42.29700
H  53.20900 43.37300 43.07800
H  50.18600 47.82700 42.74600
H  48.56100 49.27300 44.79400
H  50.61600 48.69800 45.31800
H  51.72100 47.79000 44.08800
H  50.86200 46.87700 45.28600
H  47.58300 49.79600 42.08000
H  49.40500 49.89600 42.25100
H  49.18700 52.00700 42.90900
H  48.41800 51.37400 44.38100
H  47.39800 51.89800 43.03500
H  41.77500 49.69800 43.64600
H  43.39000 50.31700 43.18700
H  42.99400 49.99100 44.88100
H  40.79500 44.76400 42.21700
H  40.09700 42.63700 46.16100
H  40.81000 43.67500 47.35200
H  41.80800 42.61900 46.53000

