158

Mg 30.46900 57.86500 40.56000
C  27.47100 56.30300 39.69600
C  32.18300 55.37800 38.95800
C  33.11600 59.89600 40.51900
C  28.43900 60.70000 41.47800
N  29.82300 56.08700 39.45300
C  28.57400 55.49400 39.35300
C  28.68300 54.15800 38.65400
C  30.18000 53.84200 38.68200
C  30.83000 55.18300 39.07000
C  30.54600 52.60600 39.54200
C  28.13600 53.99200 37.24600
C  28.15900 55.20100 36.34700
H  28.23600 54.88600 34.81500
N  32.43500 57.55400 39.98400
C  33.01300 56.49900 39.35000
C  34.41000 56.74900 39.17100
C  34.74500 58.05800 39.60800
C  33.41000 58.54900 40.07700
C  35.30400 55.70400 38.39600
C  36.15000 58.69100 39.54300
O  37.09000 58.01400 39.08200
C  36.41700 60.07500 40.10100
N  30.78800 59.98000 41.00600
C  32.00400 60.45200 41.03200
C  31.95500 61.96000 41.47000
C  30.46800 62.19900 41.88300
C  29.84900 60.86500 41.46100
C  33.04200 62.39100 42.56000
C  29.75500 63.41000 41.19900
C  30.50000 64.70300 40.81800
N  28.32500 58.48700 40.58000
C  27.68500 59.56000 41.06000
C  26.27400 59.34600 40.83800
C  26.19400 58.03900 40.37200
C  27.44300 57.57000 40.19700
C  25.24700 60.37300 41.03200
C  25.22500 57.10500 39.88600
O  24.02300 57.23100 39.73400
C  26.08800 55.90400 39.31100
C  25.52700 54.69300 39.97900
O  25.25400 54.55600 41.16700
O  25.28000 53.73100 39.02300
C  24.44800 52.58800 39.50500
H  32.74300 54.48500 38.67200
H  33.88000 60.66100 40.36100
H  27.84400 61.54500 41.83300
H  28.00000 53.56400 39.26100
H  30.41100 53.80800 37.61800
H  30.47800 51.80000 38.81100
H  29.68200 52.37200 40.16500
H  31.47400 52.70900 40.10400
H  27.09300 53.74000 37.43700
H  28.47200 53.06000 36.79300
H  28.86300 55.99600 36.59500
H  27.16600 55.64500 36.42100
H  36.19100 56.08600 37.89100
H  34.68500 55.09700 37.73600
H  35.76800 55.12100 39.19200
H  36.36200 59.95300 41.18200
H  35.76000 60.89000 39.79700
H  37.39500 60.48500 39.84600
H  32.08600 62.46400 40.51300
H  30.27700 62.25200 42.95500
H  32.62000 62.94800 43.39600
H  33.78400 63.08000 42.15600
H  33.53500 61.44900 42.80200
H  29.01400 63.76700 41.91500
H  29.30000 63.09500 40.26000
H  30.11800 64.83000 39.80500
H  31.57600 64.56900 40.92600
H  30.11700 65.53700 41.40600
H  24.92900 60.74400 40.05700
H  25.69700 61.14500 41.65600
H  24.42200 59.81200 41.47100
H  25.82300 55.82200 38.25700
H  24.94500 51.81500 40.09100
H  24.23600 52.02300 38.59800
H  23.55800 52.96900 40.00600
Mg 17.40800 51.01000 26.20700
C  19.03500 49.61000 28.89600
C  14.99800 52.14100 28.26800
C  15.60300 52.04900 23.43100
C  19.71400 49.51100 24.07900
N  17.00100 50.75500 28.34600
C  17.87800 50.28400 29.26800
C  17.38300 50.71800 30.62900
C  15.99000 51.27900 30.34900
C  15.99500 51.42200 28.92900
C  14.81300 50.53600 30.99400
C  18.46500 51.73300 31.27100
C  18.18900 52.28100 32.69800
H  17.28800 51.39300 33.60000
N  15.68000 52.09000 25.93000
C  14.82900 52.38900 26.92700
C  13.71000 53.21700 26.38100
C  13.86800 53.15200 24.96600
C  15.11400 52.41900 24.72700
C  12.58800 53.79800 27.20900
C  12.79600 53.68000 23.87500
O  12.96900 53.63300 22.64200
C  11.55100 54.28100 24.33800
N  17.58200 50.89100 24.05400
C  16.73100 51.33100 23.16500
C  17.17600 51.10800 21.74100
C  18.57300 50.34900 21.96200
C  18.64800 50.25700 23.49900
C  16.25600 50.25300 20.87700
C  19.83700 51.07100 21.33200
C  20.70200 52.03700 22.15600
N  19.07700 49.82700 26.40200
C  19.93100 49.28300 25.44800
C  20.94100 48.49300 26.05900
C  20.66300 48.57900 27.45800
C  19.50800 49.40400 27.58100
C  21.89900 47.63400 25.31600
C  21.01600 48.16300 28.79300
O  21.82000 47.37100 29.22200
C  20.08500 48.95200 29.75700
C  19.52200 48.12600 30.77800
O  18.62300 47.28000 30.70800
O  20.03400 48.44500 31.94700
C  19.58500 47.71700 33.09600
H  14.25900 52.51000 28.98200
H  14.95400 52.24000 22.57400
H  20.51500 49.09000 23.46800
H  17.26500 49.79500 31.19700
H  16.01900 52.33800 30.60700
H  14.97900 50.47200 32.06900
H  14.65700 49.52500 30.61900
H  13.87600 51.09300 30.97300
H  18.44700 52.58500 30.59100
H  19.46700 51.33900 31.10400
H  17.90700 53.31600 32.50400
H  19.16900 52.31500 33.17300
H  12.66200 53.66300 28.28800
H  11.58600 53.44700 26.96500
H  12.65600 54.84500 26.91400
H  11.85700 55.06200 25.03300
H  11.02200 53.54800 24.94600
H  10.95200 54.59500 23.48300
H  17.33400 52.08200 21.27700
H  18.48700 49.30700 21.65400
H  16.78400 49.60100 20.18100
H  15.51500 50.90400 20.41300
H  15.92200 49.56500 21.65300
H  19.38700 51.54000 20.45600
H  20.57300 50.36800 20.94200
H  20.99500 52.87900 21.53000
H  21.51000 51.51500 22.66900
H  20.11500 52.55100 22.91800
H  21.48700 47.04300 24.49700
H  22.44000 46.88100 25.89000
H  22.51600 48.43800 24.91500
H  20.58900 49.74300 30.31100
H  19.79500 46.65800 32.94500
H  18.52000 47.78300 33.31600
H  20.11700 48.07100 33.97900

