158

Mg 26.53100 0.27900 29.72000
C  28.41900 0.09500 32.61300
C  23.68700 0.78500 31.69700
C  24.70500 0.50900 26.88500
C  29.41100 -0.36400 27.79000
N  26.12400 0.10700 31.95400
C  27.08200 0.29200 32.93400
C  26.54800 0.83400 34.29000
C  25.00800 0.90600 34.03200
C  24.91000 0.63700 32.43000
C  24.28300 -0.22900 34.91100
C  27.31200 2.17300 34.76900
C  27.97000 2.09800 36.12100
H  27.57800 3.19200 37.20000
N  24.44300 0.60200 29.40100
C  23.48600 0.70000 30.33000
C  22.24100 0.89500 29.67400
C  22.42600 0.74300 28.24600
C  23.95500 0.61600 28.09800
C  20.99000 1.18500 30.47400
C  21.50500 0.74100 27.09600
O  21.90300 0.61000 25.93900
C  20.00300 0.98400 27.25100
N  26.89200 0.04100 27.62800
C  26.03400 0.30800 26.63400
C  26.67800 0.40200 25.26700
C  28.16800 0.05900 25.56100
C  28.16700 -0.13600 27.11700
C  26.01000 -0.58900 24.27000
C  29.17700 1.15700 25.13500
C  28.71500 2.04200 23.89600
N  28.46600 -0.19100 30.06400
C  29.52400 -0.35800 29.19300
C  30.73200 -0.62800 29.97400
C  30.33200 -0.43200 31.28300
C  28.96700 -0.15100 31.33000
C  32.12300 -1.02500 29.47600
C  30.76000 -0.45400 32.62000
O  31.83500 -0.84200 33.07200
C  29.56100 -0.03000 33.52300
C  29.43600 -1.15000 34.52300
O  28.86400 -2.24400 34.32700
O  30.01200 -0.81800 35.72200
C  29.95300 -1.78000 36.83200
H  22.85200 1.06100 32.34400
H  24.23000 0.78300 25.94000
H  30.30300 -0.52300 27.18100
H  26.73300 0.07900 35.05400
H  24.59800 1.91000 34.14900
H  23.91600 -1.03100 34.27100
H  23.48600 0.22600 35.49800
H  24.93200 -0.72400 35.63400
H  26.45400 2.82700 34.92600
H  27.91000 2.62500 33.97800
H  28.97300 2.43200 35.85700
H  28.03900 1.12500 36.60800
H  20.37700 0.29500 30.33200
H  20.44000 2.07400 30.16500
H  21.16100 1.36200 31.53600
H  19.66200 0.25700 27.98900
H  19.52200 0.74100 26.30400
H  19.89000 2.04700 27.46100
H  26.34700 1.34900 24.84000
H  28.43200 -0.89400 25.10200
H  25.30700 -1.20100 24.83500
H  26.63600 -1.28700 23.71300
H  25.40400 -0.04300 23.54700
H  30.06900 0.60700 24.83400
H  29.49400 1.74000 26.00000
H  27.85000 1.61500 23.38900
H  29.56400 2.20100 23.23100
H  28.43200 3.01200 24.30500
H  32.07300 -1.74000 28.65500
H  32.72000 -1.42900 30.29400
H  32.55800 -0.15700 28.98100
H  29.81900 0.91500 34.00000
H  30.89800 -1.64200 37.35700
H  29.77000 -2.82200 36.57200
H  29.20200 -1.44900 37.54900
Mg 40.49700 9.38400 29.39000
C  42.46100 10.94200 32.05300
C  38.49400 8.18500 31.80100
C  39.02800 7.92300 26.89600
C  43.32500 10.22600 27.21200
N  40.61000 9.47700 31.71300
C  41.30600 10.36200 32.50000
C  40.77500 10.38400 33.94500
C  39.51500 9.33600 33.78400
C  39.54800 8.92800 32.35000
C  39.45100 8.22800 34.83100
C  40.31900 11.84200 34.35300
C  39.88000 11.97100 35.87000
H  40.59100 13.02700 36.68100
N  39.03000 8.15900 29.37400
C  38.26500 7.82800 30.43500
C  37.20400 6.99300 29.94600
C  37.24500 6.96800 28.49900
C  38.49200 7.69100 28.19000
C  36.21100 6.28100 30.88200
C  36.32500 6.26400 27.48100
O  36.70700 6.13400 26.34700
C  35.16000 5.46900 27.98900
N  41.15200 9.13400 27.39500
C  40.22100 8.63300 26.50500
C  40.65000 8.93200 25.00400
C  42.08800 9.32500 25.21500
C  42.17500 9.59600 26.68800
C  40.50800 7.94100 23.85000
C  42.52800 10.53300 24.34500
C  41.86500 11.87000 24.66100
N  42.43300 10.47000 29.47400
C  43.47700 10.68700 28.53900
C  44.55900 11.51900 29.18200
C  44.16200 11.63500 30.51200
C  42.91800 10.94200 30.66900
C  45.74500 12.05800 28.45000
C  44.58100 12.10500 31.83200
O  45.57100 12.74800 32.16200
C  43.45300 11.73600 32.88100
C  44.01800 10.95200 34.01300
O  44.74700 9.98300 33.86100
O  43.61200 11.43500 35.24400
C  43.97600 10.64100 36.40400
H  37.69300 7.94600 32.50300
H  38.45800 7.55300 26.04100
H  44.08800 10.55900 26.50600
H  41.51700 10.00700 34.64800
H  38.69200 10.01400 34.00800
H  38.63100 8.42100 35.52200
H  40.36300 8.31300 35.42200
H  39.39800 7.17900 34.53900
H  39.47900 12.18000 33.74600
H  41.17100 12.51100 34.23100
H  39.81800 10.98200 36.32300
H  38.84900 12.32100 35.81100
H  35.19400 6.57200 30.62100
H  36.26800 6.57200 31.93100
H  36.51100 5.23900 30.76600
H  35.42900 4.95500 28.91100
H  35.02900 4.80000 27.13900
H  34.30000 6.13800 28.02300
H  39.97600 9.71800 24.66400
H  42.60300 8.38500 25.01600
H  39.44900 8.02700 23.60600
H  40.47700 6.91100 24.20600
H  41.02700 8.19000 22.92400
H  42.13000 10.22300 23.37900
H  43.61300 10.63900 24.33100
H  41.58400 11.92300 25.71300
H  41.01200 11.94200 23.98600
H  42.44500 12.76800 24.44800
H  45.60400 12.58700 27.50800
H  46.44200 11.22700 28.33600
H  46.26800 12.79300 29.06300
H  42.96300 12.66300 33.18000
H  43.16600 10.45800 37.11100
H  44.75700 11.21700 36.90000
H  44.50700 9.70200 36.24800

