158

Mg 25.98000 -0.21700 29.52800
C  27.73400 -0.64300 32.60300
C  23.14800 0.18000 31.28500
C  24.43400 -0.24100 26.55300
C  28.96100 -1.04900 27.91500
N  25.56700 -0.24200 31.71800
C  26.39100 -0.35000 32.82800
C  25.65400 -0.05000 34.14200
C  24.14400 0.09200 33.66100
C  24.24900 -0.00700 32.09900
C  23.14200 -0.86700 34.32700
C  26.22600 1.25900 34.90900
C  26.89100 1.05700 36.28500
H  26.38500 1.93800 37.41900
N  24.07400 -0.02700 29.00300
C  23.00700 0.02100 29.86400
C  21.81100 0.01500 29.10700
C  22.13700 0.14600 27.70800
C  23.60100 -0.09200 27.64500
C  20.46800 -0.11200 29.73400
C  21.25400 0.49500 26.47800
O  21.69600 0.77700 25.36400
C  19.72100 0.52500 26.63400
N  26.64300 -0.42400 27.48400
C  25.77700 -0.46600 26.46500
C  26.46000 -0.79300 25.14000
C  27.96500 -0.77000 25.54100
C  27.94400 -0.69100 27.02800
C  25.97300 -1.99200 24.41800
C  28.76500 0.46400 25.03400
C  28.92400 0.74000 23.47500
N  27.98000 -0.81600 30.07200
C  29.06400 -1.07600 29.29000
C  30.22500 -1.38500 30.11800
C  29.77300 -1.15400 31.37900
C  28.35200 -0.84900 31.36000
C  31.55800 -1.89400 29.58100
C  30.14600 -1.08200 32.80300
O  31.23600 -1.10400 33.41000
C  28.85800 -0.82100 33.61700
C  28.51900 -1.99400 34.47800
O  27.69800 -2.89000 34.26900
O  29.10700 -1.79500 35.66900
C  28.66600 -2.70400 36.76000
H  22.17900 0.41500 31.73000
H  23.90200 -0.34500 25.60500
H  29.92900 -0.93200 27.42300
H  25.71100 -0.94300 34.76400
H  23.79000 1.04500 34.05700
H  22.34300 -1.16900 33.64900
H  22.72900 -0.32900 35.18000
H  23.59400 -1.82500 34.58400
H  25.46900 2.03800 34.99400
H  26.89400 1.80600 34.24400
H  27.97500 1.16800 36.25100
H  26.83400 -0.00900 36.50200
H  19.93300 -0.87900 29.17400
H  19.95900 0.84400 29.85800
H  20.62100 -0.46900 30.75300
H  19.16100 1.11200 25.90600
H  19.63900 0.99600 27.61400
H  19.32200 -0.48800 26.59600
H  26.20500 0.13000 24.61900
H  28.43400 -1.72100 25.29000
H  26.75500 -2.71000 24.17000
H  25.43900 -1.68400 23.51900
H  25.18700 -2.40000 25.05300
H  29.75800 0.19200 25.39300
H  28.20700 1.30200 25.45300
H  28.68800 1.79500 23.33700
H  28.20800 0.06800 23.00100
H  29.93400 0.59200 23.09100
H  32.30300 -1.61400 30.32500
H  31.78200 -1.41200 28.62900
H  31.50300 -2.98000 29.50500
H  28.91900 0.10900 34.18400
H  29.38600 -3.50500 36.92500
H  27.71300 -3.19100 36.55100
H  28.52400 -2.02500 37.60100
Mg 30.57900 59.42200 39.72000
C  27.59700 57.73700 38.66300
C  32.32400 56.69400 38.60400
C  33.27400 61.17700 40.07000
C  28.52400 62.31200 39.86100
N  30.05800 57.48700 38.69800
C  28.79200 57.00600 38.30200
C  28.85100 55.65800 37.51300
C  30.31200 55.19100 37.82700
C  30.98000 56.50600 38.49900
C  30.42400 53.90500 38.71600
C  28.41800 55.71700 36.01300
C  27.30500 54.72600 35.51600
H  26.07200 55.22300 34.86900
N  32.54700 58.96500 39.54800
C  33.07700 57.75300 39.12200
C  34.54500 57.84100 39.29000
C  34.85600 59.16700 39.80200
C  33.49100 59.82600 39.84600
C  35.43700 56.78200 39.07200
C  36.25500 59.72400 40.25600
O  37.30200 59.05400 40.22700
C  36.33200 60.93600 41.12500
N  30.88100 61.51000 39.93200
C  32.08600 61.98000 40.18800
C  32.04100 63.42900 40.40200
C  30.54200 63.76600 40.15600
C  29.91300 62.44100 39.93300
C  32.63600 63.95600 41.73900
C  30.25800 64.74700 38.95000
C  29.14500 65.80200 39.23800
N  28.53000 59.93100 39.49300
C  27.86600 61.14800 39.62200
C  26.41700 60.99500 39.50000
C  26.28400 59.64200 39.13500
C  27.58100 59.02200 39.15900
C  25.28500 62.02300 39.78700
C  25.29500 58.62100 38.77500
O  24.07300 58.65800 38.69600
C  26.10500 57.34500 38.36400
C  25.50100 56.13600 39.07800
O  25.64000 55.85300 40.26700
O  24.76500 55.34100 38.22100
C  24.13300 54.13200 38.81400
H  32.89600 55.80600 38.32600
H  34.16200 61.79600 40.21700
H  27.85300 63.13400 40.11700
H  28.14100 55.06900 38.09400
H  30.82800 55.04300 36.87900
H  30.56400 53.02800 38.08400
H  29.56200 53.63900 39.32800
H  31.21500 53.96300 39.46400
H  29.28100 55.35000 35.45600
H  28.32400 56.72900 35.61900
H  26.86800 54.10200 36.29600
H  27.68100 54.00200 34.79300
H  36.26100 56.68600 39.78000
H  35.97200 56.89300 38.12800
H  34.88700 55.84300 39.13100
H  37.15700 60.75400 41.81400
H  35.36300 60.96600 41.62400
H  36.43900 61.83500 40.51800
H  32.59800 63.98200 39.64600
H  30.01800 63.96700 41.09000
H  32.86700 63.29500 42.57500
H  31.98400 64.76500 42.06600
H  33.55000 64.44900 41.40600
H  29.88700 64.07000 38.18100
H  31.14300 65.35300 38.75700
H  29.16500 65.97100 40.31500
H  28.12800 65.52800 38.95800
H  29.35600 66.76700 38.77600
H  24.31100 61.70000 39.42100
H  25.50800 62.95000 39.25900
H  25.23600 62.19900 40.86200
H  26.05800 57.22300 37.28200
H  23.27400 54.36900 39.44100
H  24.75700 53.54800 39.49100
H  23.63100 53.51200 38.07200

