158

Mg 40.35500 9.45800 29.62700
C  41.96600 10.91800 32.44700
C  38.14600 7.97800 31.84000
C  38.93200 7.98900 26.92500
C  43.15200 10.30900 27.73500
N  40.12500 9.49900 31.89700
C  40.88700 10.14100 32.77200
C  40.41200 9.97400 34.19700
C  39.34300 8.81800 34.01900
C  39.18800 8.66900 32.48100
C  39.67800 7.50300 34.74800
C  39.91400 11.33300 34.79800
C  40.70400 11.75100 36.04800
H  39.93800 12.46400 37.10300
N  38.75800 8.17900 29.41300
C  37.95000 7.70900 30.42600
C  36.85600 7.02900 29.78100
C  36.99000 7.19700 28.33700
C  38.28100 7.80200 28.19500
C  35.72300 6.44900 30.57800
C  36.08000 6.76300 27.16200
O  36.22600 7.14700 25.96700
C  34.89600 5.94300 27.43400
N  41.01600 9.12900 27.65100
C  40.16400 8.61100 26.69800
C  40.56200 9.06500 25.28500
C  42.09200 9.48800 25.56400
C  42.14400 9.56700 27.08700
C  40.50600 7.98900 24.21400
C  42.36600 10.82400 24.83600
C  41.47400 12.08100 25.11000
N  42.18400 10.36700 29.94700
C  43.16300 10.72700 29.06500
C  44.24500 11.46900 29.74500
C  43.81600 11.56300 31.06400
C  42.52600 10.91300 31.11100
C  45.58400 11.89900 29.08700
C  44.08500 12.11700 32.36900
O  45.00000 12.80400 32.74800
C  42.93500 11.58600 33.34200
C  43.56600 10.76300 34.40000
O  43.77200 9.53500 34.25300
O  44.25600 11.53000 35.26000
C  44.86700 10.76900 36.38100
H  37.35700 7.66500 32.52600
H  38.42900 7.55500 26.05900
H  43.90300 10.76200 27.08400
H  41.24500 9.53900 34.74900
H  38.35000 9.05400 34.40300
H  39.78200 6.69200 34.02800
H  38.84000 7.31400 35.41900
H  40.65200 7.35100 35.21200
H  38.87400 11.18700 35.08900
H  40.06400 12.12000 34.05900
H  41.40500 12.47200 35.62800
H  41.37300 11.00000 36.46900
H  35.88200 5.37900 30.45000
H  34.77600 6.78000 30.15300
H  35.86800 6.65600 31.63800
H  34.28800 5.96700 26.53000
H  34.24800 6.37800 28.19500
H  35.18500 4.89900 27.55500
H  39.95400 9.88400 24.90200
H  42.68200 8.71400 25.07300
H  39.48200 7.70700 23.97100
H  41.08300 7.11600 24.52200
H  40.90600 8.32600 23.25800
H  42.16500 10.68300 23.77400
H  43.42200 11.09400 24.87000
H  41.28800 12.58600 24.16200
H  42.09400 12.74300 25.71500
H  40.51400 11.86200 25.57800
H  45.49300 12.44500 28.14800
H  46.17600 11.00100 28.90700
H  46.08700 12.46200 29.87300
H  42.57400 12.48600 33.84000
H  44.11500 10.61000 37.15400
H  45.70600 11.29500 36.83700
H  45.29500 9.83000 36.02900
Mg 46.63900 16.87500 28.83600
C  44.55400 16.33100 31.50900
C  48.69700 18.69500 30.85500
C  48.24500 17.92600 26.09300
C  44.16500 15.36400 26.76500
N  46.63100 17.39400 31.00400
C  45.68700 17.06200 31.90500
C  46.27000 17.34700 33.37200
C  47.46000 18.37400 33.07500
C  47.67000 18.12700 31.56200
C  47.25400 19.88300 33.35600
C  46.69600 16.03900 34.18900
C  46.20800 15.99500 35.61000
H  45.83500 17.29500 36.36000
N  48.26200 18.13600 28.56600
C  49.04600 18.75600 29.56200
C  50.15600 19.40200 28.95200
C  50.03400 19.20900 27.49700
C  48.74500 18.40300 27.32300
C  51.19900 20.22000 29.76500
C  50.94300 19.60900 26.41300
O  50.66000 19.47200 25.24300
C  52.35900 20.19300 26.80300
N  46.34700 16.55100 26.68900
C  47.07200 17.23500 25.75800
C  46.57600 16.91400 24.35500
C  45.45100 15.88400 24.62700
C  45.27700 15.89900 26.11900
C  46.14200 18.18700 23.52600
C  45.86000 14.44000 24.08400
C  44.80900 13.55300 23.37000
N  44.76100 15.97200 29.05400
C  43.89200 15.43200 28.17500
C  42.68500 14.95900 28.85800
C  42.90500 15.24300 30.20600
C  44.22000 15.79300 30.25000
C  41.49300 14.49100 28.25700
C  42.40800 15.14100 31.56900
O  41.38700 14.64100 32.06200
C  43.42200 15.85700 32.44900
C  42.72200 16.92200 33.15700
O  42.70300 18.06600 32.78500
O  42.21900 16.38800 34.31900
C  41.38800 17.29600 35.04800
H  49.43700 19.20400 31.47500
H  48.82900 18.03800 25.17700
H  43.40900 14.97700 26.07900
H  45.49800 17.84200 33.96200
H  48.25900 17.99500 33.71300
H  48.09600 20.24600 33.94500
H  46.34000 20.01200 33.93600
H  47.16000 20.46600 32.44000
H  47.76500 15.82600 34.17000
H  46.22700 15.22800 33.63100
H  46.94100 15.70600 36.36300
H  45.42800 15.23600 35.67700
H  52.11000 19.70900 30.07700
H  50.72800 20.56700 30.68500
H  51.29500 21.17700 29.25200
H  52.73500 19.53000 27.58200
H  52.14000 21.11400 27.34200
H  53.02300 20.30900 25.94600
H  47.40100 16.49700 23.77700
H  44.49400 16.15800 24.18200
H  45.10900 18.09200 23.19200
H  46.65600 18.36900 22.58200
H  46.21900 19.02300 24.22000
H  46.26300 13.95800 24.97500
H  46.73700 14.56100 23.44800
H  45.17900 13.37400 22.36000
H  43.77000 13.86100 23.48700
H  44.82800 12.62300 23.93700
H  41.52200 13.40900 28.13300
H  41.43400 14.99500 27.29200
H  40.63200 14.79900 28.85100
H  43.88400 15.17200 33.15900
H  40.61000 17.81600 34.48900
H  42.05800 18.07200 35.41700
H  40.95400 16.88100 35.95800

