158

Mg 47.68700 16.67600 27.53500
C  45.73900 16.69800 30.40500
C  49.99300 18.71500 28.95800
C  49.16100 17.00100 24.49400
C  44.90200 15.28400 25.85600
N  47.83200 17.57100 29.44800
C  47.01400 17.29800 30.49700
C  47.72600 17.74000 31.75900
C  48.97900 18.52300 31.25700
C  48.96500 18.26100 29.80800
C  49.03100 20.05200 31.48400
C  48.05700 16.63500 32.78000
C  48.35300 17.00600 34.23700
H  47.92000 18.35100 34.71800
N  49.38400 17.69600 26.86700
C  50.26600 18.41600 27.59900
C  51.36800 18.85300 26.81100
C  50.98900 18.50300 25.47000
C  49.81200 17.67000 25.56300
C  52.50200 19.67200 27.34800
C  51.62100 19.08700 24.12000
O  51.13000 18.92300 23.02700
C  52.85300 19.97800 24.06400
N  47.04500 16.32300 25.41100
C  47.95800 16.47100 24.42200
C  47.34900 15.96400 23.08400
C  45.95200 15.38400 23.51300
C  45.90000 15.68300 25.03200
C  47.18500 17.17200 22.11600
C  45.59200 13.95300 23.09600
C  44.33600 13.81900 22.25500
N  45.79000 16.07600 28.01900
C  44.71900 15.54600 27.24500
C  43.58800 15.16200 28.11900
C  43.98500 15.60600 29.37800
C  45.23500 16.21400 29.24100
C  42.35700 14.49500 27.70400
C  43.54900 15.63600 30.75600
O  42.60300 15.10400 31.26600
C  44.72900 16.44000 31.53900
C  44.13300 17.59400 32.21400
O  43.85800 18.68600 31.73800
O  43.96000 17.31500 33.57900
C  43.34500 18.35000 34.36800
H  50.62600 19.43800 29.47700
H  49.62400 16.99100 23.50400
H  44.04900 14.76400 25.41500
H  46.96500 18.44300 32.09800
H  49.87900 18.12800 31.72900
H  48.30000 20.39700 32.21600
H  48.84500 20.75000 30.66800
H  50.06700 20.32700 31.68600
H  48.89600 16.07600 32.36500
H  47.21700 15.94800 32.88200
H  49.39700 16.71600 34.35600
H  47.97200 16.23000 34.90100
H  52.19300 20.71300 27.44300
H  53.38300 19.68300 26.70600
H  52.70900 19.24700 28.33100
H  53.67400 19.46400 24.56300
H  52.61900 20.84700 24.67900
H  53.06300 20.22200 23.02200
H  48.01900 15.16400 22.77000
H  45.24900 16.07700 23.05100
H  47.28500 18.11700 22.65000
H  46.25000 17.16400 21.55600
H  47.94600 17.04000 21.34600
H  45.68500 13.35800 24.00400
H  46.30300 13.59400 22.35100
H  44.59200 13.32700 21.31700
H  43.78600 14.73100 22.02300
H  43.59200 13.15000 22.68800
H  42.52900 13.69000 26.99000
H  41.74300 15.21400 27.16100
H  41.80800 13.98000 28.49300
H  45.14200 15.71600 32.24100
H  42.27900 18.19400 34.53400
H  43.63800 19.33900 34.01500
H  43.82700 18.18800 35.33200
Mg 9.80100 47.96100 26.32400
C  7.86500 47.75900 29.37700
C  12.48100 48.90700 28.08000
C  11.42400 48.44500 23.42800
C  6.83300 47.16100 24.57800
N  10.11200 48.25500 28.56300
C  9.23300 48.16000 29.63100
C  9.96000 48.46200 30.95500
C  11.36200 49.08200 30.49100
C  11.37800 48.68000 28.96100
C  11.47800 50.62500 30.51700
C  10.10400 47.20800 31.91800
C  9.88200 47.38600 33.41100
H  10.17200 46.19400 34.38600
N  11.68300 48.42800 25.82400
C  12.69600 48.77100 26.71400
C  13.93100 48.97700 26.01000
C  13.66200 48.75700 24.61800
C  12.18200 48.54400 24.52100
C  15.21600 49.43600 26.68900
C  14.67500 48.70400 23.43300
O  14.35800 48.57700 22.29000
C  16.06600 48.65900 23.80500
N  9.14800 47.80000 24.25600
C  10.04900 48.07500 23.20900
C  9.36200 47.88300 21.84400
C  7.91900 47.27400 22.27600
C  7.94000 47.38100 23.77400
C  9.15600 49.19600 21.09400
C  7.63900 45.92000 21.66300
C  7.95900 44.86000 22.69100
N  7.89500 47.53100 26.82600
C  6.76100 47.18700 25.96300
C  5.60700 47.06900 26.75300
C  5.97900 47.26900 28.07900
C  7.34800 47.52600 28.06800
C  4.26200 46.57900 26.21800
C  5.42300 47.31200 29.40600
O  4.24500 47.08700 29.85600
C  6.71000 47.42200 30.32500
C  6.80600 46.08000 30.90300
O  7.19300 45.05800 30.29600
O  6.55200 46.05800 32.26000
C  6.95700 44.80500 32.97000
H  13.34600 49.05900 28.73000
H  11.98000 48.71700 22.52800
H  5.94300 46.87300 24.01500
H  9.33300 49.13700 31.53700
H  12.21700 48.68200 31.03500
H  11.44900 51.06900 29.52200
H  12.40300 51.00100 30.95500
H  10.67100 51.12500 31.05300
H  10.97200 46.56700 31.76600
H  9.37700 46.48500 31.54800
H  8.86000 47.69900 33.62400
H  10.43800 48.27600 33.70700
H  14.99700 49.74500 27.71100
H  15.61000 50.28000 26.12400
H  15.98300 48.66400 26.75300
H  16.18200 49.68700 24.14800
H  16.66200 48.48600 22.90800
H  16.10800 47.89900 24.58500
H  9.92500 47.11400 21.31600
H  7.13900 47.94600 21.91800
H  9.48100 50.04800 21.69100
H  8.11000 49.36800 20.83800
H  9.82200 49.12000 20.23500
H  8.19300 45.81100 20.73100
H  6.57600 46.02600 21.44900
H  7.07300 44.66200 23.29600
H  8.80000 45.10200 23.34000
H  8.04700 43.89000 22.20200
H  4.50800 45.69300 25.63200
H  3.73800 47.31700 25.61200
H  3.65800 46.29600 27.08000
H  6.63200 48.26300 31.01400
H  7.94300 44.51500 32.60500
H  6.25600 43.97600 32.87700
H  6.97200 45.05600 34.03100

