158

Mg 48.48900 35.20300 27.20200
C  46.87900 33.52000 29.59300
C  48.53400 37.94900 29.36000
C  50.03900 37.02200 24.92100
C  48.40400 32.40200 25.10700
N  47.88400 35.65800 29.19600
C  47.33300 34.75200 30.00300
C  47.19600 35.22000 31.50000
C  47.34500 36.77300 31.30200
C  47.92600 36.78800 29.82300
C  46.02300 37.49600 31.46900
C  48.23700 34.45100 32.41000
C  48.93700 35.16100 33.55600
H  48.03800 35.94800 34.55400
N  49.03300 37.26400 27.10100
C  49.05300 38.22900 28.10800
C  49.66800 39.46800 27.61300
C  50.03600 39.24300 26.25100
C  49.80600 37.74100 26.04700
C  49.72200 40.78400 28.40200
C  50.61400 40.17600 25.20300
O  50.91700 39.90000 24.07100
C  50.80100 41.67300 25.63500
N  49.06100 34.84600 25.23200
C  49.77100 35.77000 24.52900
C  50.32300 35.15700 23.19200
C  49.88200 33.64300 23.34400
C  49.04600 33.60100 24.61400
C  49.84300 35.82600 21.92700
C  51.13600 32.70700 23.37900
C  51.02200 31.34500 22.81700
N  47.81900 33.33500 27.26800
C  47.78000 32.30500 26.35400
C  47.00600 31.19000 26.89000
C  46.57800 31.62400 28.14400
C  47.12000 32.93000 28.38100
C  46.68100 29.88900 26.21000
C  45.83600 31.17900 29.31700
O  45.26800 30.12900 29.59600
C  45.83500 32.53900 30.19500
C  45.96200 32.19500 31.61200
O  46.77900 31.40700 32.05400
O  44.95200 32.78900 32.34000
C  44.79700 32.54300 33.77600
H  48.55300 38.77000 30.07900
H  50.72800 37.52500 24.24000
H  48.43700 31.43700 24.59600
H  46.18000 34.94400 31.78300
H  48.11400 37.20000 31.94500
H  46.23600 38.48200 31.05800
H  45.70900 37.77400 32.47500
H  45.19900 36.94900 31.01000
H  48.95600 33.92400 31.78300
H  47.80800 33.58300 32.91000
H  49.60900 35.85600 33.05300
H  49.66700 34.51000 34.03800
H  50.77100 41.06000 28.50800
H  49.46300 40.59100 29.44300
H  49.22900 41.64600 27.95100
H  49.85500 42.11800 25.94200
H  51.23200 42.23400 24.80600
H  51.57200 41.57700 26.40000
H  51.40300 35.29800 23.24700
H  49.16700 33.24900 22.62100
H  49.47300 35.09400 21.20900
H  50.71000 36.26800 21.43700
H  49.20100 36.65000 22.23900
H  51.40800 32.56100 24.42500
H  51.88600 33.20200 22.76300
H  50.02100 31.20800 22.40800
H  51.02000 30.61400 23.62600
H  51.80900 31.12900 22.09400
H  47.65400 29.53000 25.87600
H  45.97600 30.15400 25.42200
H  46.25600 29.11200 26.84600
H  44.85300 32.99700 30.07400
H  43.85300 32.02400 33.94100
H  44.69400 33.45700 34.36100
H  45.65300 31.97100 34.13400
Mg 17.69500 53.31100 26.01000
C  19.58800 51.89300 28.66300
C  15.46200 54.30600 28.43500
C  15.77300 54.28500 23.64900
C  20.00800 51.89500 23.72300
N  17.53400 53.13800 28.33600
C  18.42100 52.51100 29.17200
C  17.95900 52.68000 30.59900
C  16.54900 53.24600 30.44600
C  16.56700 53.71500 29.02100
C  15.48200 52.14900 30.71300
C  18.91600 53.67900 31.39800
C  19.07500 53.45000 32.90900
H  18.04500 52.66600 33.72500
N  15.80700 54.20300 26.07700
C  15.09500 54.61800 27.12500
C  13.85700 55.30300 26.67400
C  13.89900 55.20500 25.23600
C  15.20000 54.52800 24.93600
C  12.77600 55.64200 27.60800
C  12.85300 55.65500 24.21700
O  13.00300 55.57400 23.03200
C  11.53200 56.31400 24.70200
N  17.91300 53.13100 24.02500
C  16.94500 53.60600 23.18800
C  17.43500 53.79100 21.77800
C  18.83300 53.07100 21.82800
C  18.98300 52.73500 23.28800
C  16.55700 53.34500 20.53600
C  20.06600 54.00200 21.33800
C  21.29400 53.26500 20.82300
N  19.46800 52.27100 26.08900
C  20.32900 51.79200 25.08900
C  21.44100 51.03200 25.68600
C  21.14700 51.07300 27.05900
C  19.96200 51.78800 27.25700
C  22.50800 50.36800 24.96400
C  21.66200 50.65200 28.31700
O  22.65600 49.95700 28.55600
C  20.72500 51.25300 29.43100
C  20.28300 50.20300 30.36300
O  19.46800 49.35300 30.08100
O  20.81900 50.46900 31.61000
C  20.55400 49.54300 32.72500
H  14.72500 54.68500 29.14600
H  15.22100 54.63600 22.77500
H  20.82800 51.54800 23.09100
H  18.00800 51.73100 31.13300
H  16.37900 54.12800 31.06400
H  15.08600 51.90700 29.72700
H  14.67800 52.51100 31.35300
H  15.76500 51.24900 31.25900
H  18.71600 54.72500 31.16400
H  19.89100 53.53000 30.93500
H  19.07900 54.43700 33.37100
H  20.07700 53.07100 33.10600
H  11.76400 55.44900 27.25300
H  12.78300 56.68200 27.93400
H  12.93800 55.09600 28.53700
H  11.76300 56.98000 25.53300
H  10.92400 55.48500 25.06500
H  11.10100 56.79500 23.82400
H  17.59100 54.84400 21.54300
H  18.95600 52.08200 21.38500
H  15.53700 53.02300 20.74900
H  16.97900 52.42900 20.12400
H  16.67200 54.01400 19.68300
H  20.34100 54.51500 22.25900
H  19.67300 54.74500 20.64400
H  21.30100 52.18200 20.94800
H  22.17000 53.75900 21.24200
H  21.32700 53.46900 19.75300
H  23.43400 50.37200 25.54000
H  22.77900 51.07600 24.18200
H  22.35100 49.31200 24.74500
H  21.27700 51.99100 30.01300
H  20.99500 48.57300 32.49600
H  19.48800 49.44600 32.92700
H  20.99800 49.85200 33.67100

