158

Mg 30.71100 58.88700 39.94200
C  27.97400 56.80400 39.11100
C  32.74900 56.44500 38.86500
C  33.36400 61.01600 40.45900
C  28.56600 61.49300 40.45800
N  30.36000 56.86900 39.13300
C  29.16100 56.19300 38.80700
C  29.50800 54.74500 38.34100
C  31.02700 54.59400 38.59900
C  31.41600 56.09900 38.74500
C  31.37400 53.79000 39.87500
C  29.11300 54.47400 36.85400
C  27.87500 53.63500 36.51900
H  27.03200 54.12300 35.32100
N  32.76400 58.76400 39.66300
C  33.37500 57.66400 39.21700
C  34.81300 57.93600 39.08200
C  35.10800 59.17700 39.67200
C  33.66900 59.73100 40.02100
C  35.82700 56.94600 38.39100
C  36.50800 59.88400 39.78600
O  37.44800 59.36000 39.18700
C  36.63300 61.27000 40.51000
N  31.01000 61.04600 40.21900
C  32.18700 61.69700 40.52900
C  31.93000 63.12700 41.05300
C  30.32100 63.29400 40.92400
C  29.94400 61.83100 40.55300
C  32.55400 63.57500 42.41300
C  29.84500 64.28600 39.87900
C  29.60500 65.67500 40.45800
N  28.65500 59.10900 39.96900
C  27.95200 60.22000 40.26000
C  26.52900 59.96200 40.13100
C  26.49700 58.63900 39.66400
C  27.84200 58.11200 39.65700
C  25.46500 61.00300 40.23600
C  25.64300 57.54700 39.13200
O  24.37700 57.46900 38.92700
C  26.61900 56.40000 38.79100
C  25.97600 55.34000 39.65100
O  26.15700 55.22700 40.84000
O  25.22800 54.54400 38.84500
C  24.60300 53.30600 39.30800
H  33.33900 55.56700 38.59400
H  34.18200 61.64200 40.82300
H  27.83600 62.27200 40.69100
H  28.83400 54.09800 38.90300
H  31.60700 54.13100 37.80000
H  30.47100 53.18400 39.94600
H  31.40400 54.46200 40.73300
H  32.28800 53.25100 39.62300
H  29.92600 54.01400 36.29300
H  29.06000 55.42100 36.31800
H  27.28100 53.60000 37.43200
H  28.12600 52.66000 36.10200
H  36.35600 57.37000 37.53700
H  35.24700 56.05400 38.15500
H  36.58900 56.69600 39.13000
H  36.29900 61.06100 41.52600
H  35.97800 61.96300 39.98100
H  37.65000 61.65800 40.56200
H  32.48700 63.81700 40.41800
H  29.94900 63.36300 41.94600
H  32.49600 64.66300 42.43600
H  33.51100 63.15800 42.72800
H  31.85900 63.24200 43.18300
H  29.01200 63.95600 39.25800
H  30.63700 64.55500 39.18000
H  30.47200 66.33400 40.49600
H  29.29800 65.52600 41.49400
H  28.78800 66.16300 39.92700
H  24.70400 60.77600 39.48900
H  25.92900 61.97200 40.05000
H  25.10700 61.02100 41.26600
H  26.43300 56.21800 37.73300
H  23.52300 53.44100 39.26000
H  24.88800 53.03500 40.32400
H  24.77700 52.46800 38.63300
Mg -1.17800 33.95800 26.32200
C  -2.91800 32.41800 28.82800
C  0.34700 36.03200 28.72500
C  0.42800 35.43600 23.89800
C  -2.84100 31.88700 23.97500
N  -1.19700 34.17400 28.53700
C  -1.99800 33.37600 29.28600
C  -1.77200 33.79200 30.76700
C  -0.91500 35.07100 30.75500
C  -0.55000 35.14100 29.25300
C  -1.64800 36.35100 31.28000
C  -1.15000 32.58300 31.61000
C  -1.97800 32.18200 32.83300
H  -1.16600 31.93700 34.10900
N  0.24700 35.49200 26.26000
C  0.71200 36.26300 27.33000
C  1.77600 37.17200 26.84400
C  1.98100 36.83400 25.44200
C  0.90800 35.87000 25.16500
C  2.56000 38.10000 27.75000
C  2.99600 37.15700 24.38000
O  3.00300 36.72800 23.24600
C  4.11100 38.01300 24.72600
N  -1.37400 33.79700 24.22000
C  -0.61500 34.53300 23.43800
C  -0.86600 34.20400 21.94400
C  -1.76000 32.98200 21.96500
C  -1.99900 32.84700 23.48300
C  -1.36600 35.42100 21.11300
C  -1.20500 31.81300 21.23800
C  -0.53600 30.70900 22.09800
N  -2.71300 32.62900 26.32100
C  -3.24900 31.79600 25.31300
C  -4.16300 30.80300 25.84100
C  -4.04800 31.04800 27.24900
C  -3.19100 32.14100 27.47500
C  -4.93500 29.77600 25.02900
C  -4.64800 30.59500 28.49600
O  -5.51700 29.77800 28.65800
C  -3.85000 31.45100 29.61300
C  -4.82400 32.26000 30.37100
O  -5.46900 33.18300 29.87800
O  -4.97800 31.74200 31.70300
C  -6.12100 32.37700 32.36500
H  0.92700 36.53900 29.49900
H  0.91700 35.76600 22.97900
H  -3.30500 31.27700 23.19700
H  -2.80600 33.99100 31.05000
H  -0.03400 34.92100 31.38000
H  -1.81000 37.07400 30.48000
H  -0.99700 36.78600 32.03800
H  -2.60800 36.14600 31.75400
H  -0.07700 32.60400 31.79800
H  -1.16200 31.72600 30.93600
H  -2.43100 31.23000 32.55600
H  -2.70900 32.95900 33.05700
H  2.13600 38.20100 28.74900
H  2.54600 39.10800 27.33500
H  3.60200 37.79600 27.85100
H  3.86900 38.62700 25.59300
H  4.37200 38.63500 23.86900
H  5.02200 37.45900 24.94800
H  0.11800 33.94800 21.54900
H  -2.70500 33.02600 21.42500
H  -1.30600 36.35400 21.67200
H  -2.42500 35.18600 21.00200
H  -0.82600 35.43700 20.16600
H  -0.54900 32.15000 20.43500
H  -1.98800 31.27500 20.70400
H  -1.19200 29.85000 22.23900
H  -0.27400 31.11100 23.07600
H  0.34400 30.39600 21.53500
H  -4.30900 29.31000 24.26900
H  -5.64700 30.41200 24.50200
H  -5.49900 29.02800 25.58500
H  -3.39200 30.86000 30.40600
H  -5.65800 33.25400 32.81700
H  -6.61800 31.81500 33.15600
H  -6.84500 32.80200 31.66900

