158

Mg 24.12100 -6.03000 46.08300
C  26.24700 -3.69100 44.39500
C  21.61000 -4.88800 43.96900
C  22.38000 -8.82700 46.74600
C  26.99900 -7.44100 47.54900
N  23.95100 -4.50100 44.53600
C  24.92100 -3.65200 43.96500
C  24.39700 -2.63400 43.00500
C  22.84500 -2.82200 43.10700
C  22.77400 -4.19300 43.91100
C  22.17700 -1.65300 43.79800
C  24.84800 -2.86800 41.55800
C  25.29600 -1.62700 40.79200
H  24.54900 -1.28500 39.44400
N  22.18700 -6.78100 45.44700
C  21.34200 -6.14200 44.60600
C  20.03900 -6.90300 44.59300
C  20.22600 -8.07800 45.43600
C  21.66100 -7.90900 45.96100
C  18.95900 -6.35000 43.82000
C  19.23000 -9.19000 45.79600
O  18.12000 -9.09100 45.31000
C  19.41900 -10.35700 46.66600
N  24.60800 -7.87400 47.04900
C  23.73000 -8.89400 47.21500
C  24.25400 -10.04800 48.12900
C  25.68000 -9.44200 48.47200
C  25.79000 -8.19100 47.61300
C  23.42800 -10.44900 49.41700
C  26.86300 -10.42100 48.37300
C  27.98500 -10.40200 49.45200
N  26.20900 -5.57100 46.19400
C  27.21200 -6.29300 46.75500
C  28.40300 -5.50700 46.63300
C  28.13400 -4.55800 45.64900
C  26.78300 -4.66200 45.36800
C  29.73400 -5.81500 47.20300
C  28.67100 -3.53000 44.79000
O  29.79100 -3.05900 44.63100
C  27.42600 -2.91000 43.97300
C  27.29700 -1.49000 44.31200
O  26.99200 -1.08700 45.42700
O  27.56400 -0.69700 43.18600
C  27.56200 0.76700 43.45600
H  20.85600 -4.43500 43.32200
H  21.70000 -9.67600 46.84200
H  27.84400 -7.75300 48.16600
H  24.64100 -1.63900 43.37900
H  22.44300 -2.99200 42.10800
H  22.25500 -0.78700 43.14100
H  22.45900 -1.47000 44.83500
H  21.09700 -1.79500 43.82200
H  24.19000 -3.54700 41.01600
H  25.82600 -3.32800 41.41700
H  26.37200 -1.52900 40.64700
H  25.20100 -0.76200 41.44800
H  19.41500 -6.21000 42.84000
H  18.60700 -5.38700 44.18800
H  18.12000 -7.01400 43.61100
H  18.46200 -10.87800 46.69600
H  19.52200 -9.97900 47.68300
H  20.18700 -11.00200 46.23800
H  24.47200 -10.90600 47.49300
H  25.59700 -9.07100 49.49300
H  22.43700 -9.99800 49.47300
H  23.92400 -10.50400 50.38600
H  23.19300 -11.48000 49.15300
H  27.30400 -10.22400 47.39600
H  26.35900 -11.38600 48.43600
H  28.89700 -10.28800 48.86600
H  27.97000 -11.39700 49.89500
H  27.79000 -9.67400 50.24000
H  29.84400 -6.90000 47.22500
H  29.65600 -5.38600 48.20100
H  30.44600 -5.19600 46.65600
H  27.57300 -3.08800 42.90800
H  28.28300 1.08200 44.21000
H  26.53300 0.94500 43.76900
H  27.74700 1.23900 42.49200
Mg 47.95400 34.72400 26.73600
C  46.01700 33.03800 29.38600
C  48.05900 37.41300 28.60700
C  49.33800 36.16400 24.12000
C  47.05900 31.75400 24.71400
N  47.01300 35.15200 28.75700
C  46.41200 34.34900 29.66200
C  46.57600 35.03400 31.05400
C  46.66800 36.59100 30.76700
C  47.21100 36.42500 29.26200
C  45.42100 37.45800 30.92100
C  47.66900 34.44900 31.99700
C  47.72800 35.05900 33.42000
H  46.50400 35.82000 33.96800
N  48.60300 36.58400 26.41300
C  48.68500 37.49300 27.38400
C  49.51000 38.61100 26.88400
C  49.80900 38.36500 25.58100
C  49.25800 36.97400 25.30600
C  50.03200 39.85200 27.65200
C  50.44700 39.21600 24.54100
O  50.60600 38.85300 23.39200
C  50.89400 40.55600 24.83400
N  48.10700 34.06600 24.75700
C  48.76400 34.91900 23.90800
C  49.11300 34.03100 22.60600
C  48.45500 32.64800 22.75000
C  47.86100 32.78800 24.12800
C  48.85000 34.85500 21.23500
C  49.36900 31.37700 22.54600
C  49.10700 30.54900 21.35100
N  46.86800 32.73300 26.99700
C  46.58100 31.72900 26.04900
C  45.82600 30.67000 26.64300
C  45.61400 31.17200 27.95500
C  46.19700 32.45700 28.08100
C  45.29400 29.46700 25.94000
C  44.87700 30.88700 29.21500
O  44.11900 29.94100 29.45000
C  45.25100 31.99400 30.22000
C  46.11200 31.35000 31.28500
O  47.31300 31.13700 31.25800
O  45.38300 31.19900 32.38100
C  45.91000 30.67700 33.65800
H  48.14700 38.28600 29.25700
H  49.85600 36.50200 23.22000
H  46.82900 30.95400 24.00800
H  45.65600 34.71300 31.54300
H  47.43800 36.97500 31.43700
H  44.64000 36.89200 31.42900
H  45.01600 37.78600 29.96400
H  45.66600 38.39300 31.42400
H  48.65600 34.65600 31.58400
H  47.53000 33.37800 32.14500
H  48.60800 35.69500 33.51800
H  47.90400 34.19100 34.05600
H  51.09100 39.90900 27.40100
H  50.13800 39.84100 28.73700
H  49.36500 40.67000 27.38000
H  50.03500 41.04900 25.28800
H  51.13600 41.02600 23.88000
H  51.78200 40.55100 25.46500
H  50.18300 33.87800 22.74400
H  47.54200 32.64400 22.15400
H  48.78200 34.01100 20.54800
H  49.58800 35.56000 20.85300
H  47.88400 35.34800 21.12800
H  49.28600 30.81000 23.47300
H  50.43700 31.59600 22.53900
H  49.93200 30.63300 20.64400
H  48.11900 30.64100 20.90100
H  49.23500 29.54000 21.74100
H  46.11500 28.78800 25.71000
H  44.69000 29.81000 25.10000
H  44.58200 28.92700 26.56500
H  44.44400 32.54100 30.70800
H  45.17400 29.92600 33.94300
H  45.85800 31.48800 34.38500
H  46.89800 30.23800 33.51700

