158

Mg 16.39000 -2.29100 27.67000
C  15.33600 -0.13500 30.28100
C  18.53700 -3.80100 29.81100
C  17.82700 -3.63800 25.07700
C  14.58700 -0.08000 25.52700
N  16.78000 -2.03300 29.87900
C  16.21500 -1.18000 30.69200
C  16.66900 -1.41500 32.14100
C  17.74800 -2.49300 32.00400
C  17.66100 -2.83700 30.50200
C  19.16200 -2.19000 32.46500
C  15.52900 -1.82500 33.10300
C  15.49600 -0.88100 34.37900
H  16.84900 -0.36700 35.05800
N  17.90100 -3.69300 27.46300
C  18.62500 -4.22600 28.46600
C  19.52900 -5.31600 27.92700
C  19.32300 -5.33400 26.46300
C  18.28400 -4.22400 26.23800
C  20.42700 -6.19800 28.75100
C  19.86900 -6.14400 25.32100
O  19.55500 -5.94800 24.14800
C  20.73900 -7.35100 25.77900
N  16.10400 -2.02900 25.56600
C  16.93400 -2.65400 24.72400
C  16.93900 -2.01200 23.31500
C  15.80100 -1.02300 23.44300
C  15.43500 -1.04700 24.90900
C  18.30300 -1.32800 22.90600
C  14.51300 -1.12300 22.54100
C  14.14900 0.01500 21.55700
N  15.06800 -0.52000 27.81500
C  14.33600 0.15200 26.82900
C  13.56400 1.19200 27.44400
C  14.01400 1.16600 28.79400
C  14.91200 0.10600 28.96000
C  12.51700 2.04500 26.82200
C  13.75900 1.75100 30.10300
O  12.92100 2.54300 30.48500
C  14.71700 0.96100 31.10600
C  15.72800 1.92700 31.59300
O  16.56300 2.51500 30.89400
O  15.44900 2.32900 32.89900
C  16.22400 3.50600 33.31200
H  19.30300 -4.17700 30.49300
H  18.31100 -4.14200 24.23800
H  13.99200 0.44300 24.77500
H  17.09600 -0.47000 32.47700
H  17.35600 -3.42600 32.40900
H  19.98400 -2.04900 31.76400
H  19.28700 -2.96000 33.22700
H  19.18900 -1.25500 33.02500
H  15.60700 -2.87300 33.39200
H  14.54300 -1.66500 32.66700
H  14.91200 -1.43000 35.11700
H  14.80200 -0.07200 34.15400
H  20.07200 -7.22600 28.82700
H  20.61400 -5.78500 29.74200
H  21.40300 -6.15400 28.26800
H  20.15300 -7.86200 26.54300
H  21.61500 -6.77500 26.07800
H  20.93200 -7.92700 24.87400
H  16.65900 -2.73700 22.55000
H  16.20000 -0.00900 23.40800
H  18.94400 -1.54500 23.76100
H  18.27400 -0.24200 22.80800
H  18.68000 -1.90400 22.06100
H  13.55700 -1.26200 23.04600
H  14.62100 -2.01000 21.91700
H  13.84100 -0.41100 20.60100
H  15.12400 0.47400 21.39300
H  13.47500 0.76800 21.96400
H  12.07800 2.83200 27.43600
H  11.66400 1.42400 26.54800
H  12.89800 2.58900 25.95800
H  14.19900 0.42900 31.90400
H  16.14200 4.39400 32.68500
H  17.28400 3.25500 33.34200
H  15.89100 3.86700 34.28500
Mg 30.77300 58.57000 40.65500
C  28.17700 56.63300 39.64500
C  33.00600 56.03200 39.54300
C  33.38800 60.73000 40.84900
C  28.52100 61.29100 41.12300
N  30.61900 56.61400 39.69400
C  29.42500 55.98800 39.48400
C  29.53100 54.55000 38.92300
C  31.04900 54.38300 39.10600
C  31.62300 55.77300 39.54400
C  31.52900 53.16900 40.10000
C  29.10700 54.47200 37.33000
C  28.03700 53.46600 36.84300
H  27.15500 53.94200 35.69700
N  32.93200 58.39200 40.24500
C  33.61600 57.29300 39.82300
C  35.01900 57.59500 39.72600
C  35.18000 58.96900 40.18300
C  33.80300 59.47400 40.42200
C  36.02500 56.53200 39.17300
C  36.54300 59.69600 40.36300
O  37.58100 59.26600 39.94700
C  36.60700 60.99400 40.97100
N  30.92600 60.70600 40.76900
C  32.09300 61.32900 41.07000
C  31.90400 62.84300 41.27700
C  30.39400 62.95700 41.60000
C  29.87700 61.60100 41.03100
C  32.91600 63.54700 42.18600
C  29.66100 64.16800 40.90000
C  28.51100 64.70900 41.64400
N  28.71800 58.88100 40.66100
C  27.92300 60.02400 40.85100
C  26.51700 59.63100 40.69500
C  26.60000 58.26900 40.21900
C  27.96200 57.93700 40.18600
C  25.25800 60.50900 40.83100
C  25.75900 57.18300 39.75800
O  24.54100 57.07400 39.59900
C  26.73900 56.01100 39.44500
C  26.34700 54.88800 40.35300
O  26.88700 54.57200 41.42300
O  25.19600 54.33700 39.86300
C  24.61800 53.33900 40.77500
H  33.64700 55.18600 39.28600
H  34.16800 61.48000 40.99600
H  27.74900 62.03400 41.33500
H  28.90400 53.90100 39.53600
H  31.53300 54.15100 38.15700
H  30.67800 52.97400 40.75200
H  32.43900 53.46800 40.62100
H  31.73000 52.29800 39.47700
H  30.06200 54.28100 36.84100
H  28.73400 55.37600 36.84800
H  27.45300 53.23800 37.73500
H  28.44400 52.50300 36.53500
H  36.66800 56.88200 38.36500
H  35.57000 55.60300 38.82700
H  36.73600 56.18200 39.92200
H  36.03700 60.86800 41.89200
H  36.16600 61.74000 40.31000
H  37.58300 61.34500 41.30600
H  31.99800 63.25000 40.27100
H  30.25100 62.89600 42.67900
H  33.48000 64.34500 41.70300
H  33.53700 62.86600 42.76700
H  32.36200 64.07100 42.96400
H  29.31500 63.76500 39.94900
H  30.27900 65.01500 40.60200
H  28.94200 65.60000 42.10000
H  28.29700 64.06900 42.50000
H  27.62200 64.96500 41.06800
H  24.98800 60.91900 39.85800
H  25.50300 61.36100 41.46500
H  24.39300 60.02000 41.28000
H  26.38900 55.77400 38.44100
H  25.32900 52.67300 41.26400
H  23.90900 52.71400 40.23300
H  24.15600 53.85500 41.61700

