158

Mg 15.82900 51.06300 25.74300
C  17.80100 50.03600 28.41900
C  13.36900 51.80800 28.00600
C  13.78900 51.84600 23.16400
C  18.21100 49.85900 23.55700
N  15.54800 50.82400 28.00500
C  16.55300 50.54400 28.89800
C  16.18300 50.82000 30.35500
C  14.58000 51.06400 30.18800
C  14.46300 51.21200 28.63400
C  13.66700 49.90200 30.80400
C  16.94100 52.08300 30.94300
C  16.85500 52.39400 32.42500
H  16.07300 51.39200 33.26400
N  13.81800 51.73100 25.61900
C  13.02400 52.03400 26.66000
C  11.83600 52.62800 26.19300
C  11.95700 52.72500 24.75000
C  13.19300 52.07400 24.41100
C  10.77000 53.15300 27.16500
C  11.07900 53.39100 23.78600
O  11.31900 53.44300 22.56500
C  9.85000 54.08100 24.21400
N  15.93100 50.67100 23.68500
C  14.96700 51.19900 22.82700
C  15.48400 50.93200 21.30700
C  16.90300 50.37900 21.41000
C  17.03400 50.31100 22.97700
C  14.47300 50.08800 20.53400
C  17.99100 51.25600 20.81900
C  18.97600 50.48900 19.95900
N  17.67700 50.17200 25.89600
C  18.47800 49.70300 24.91400
C  19.64000 49.16400 25.58200
C  19.47400 49.30500 26.94900
C  18.19100 49.82400 27.09600
C  20.85400 48.49600 24.84700
C  20.06800 48.96300 28.21900
O  21.09900 48.46300 28.49100
C  19.02000 49.59000 29.23800
C  18.62600 48.51100 30.12400
O  17.84100 47.59500 29.92400
O  19.35100 48.65200 31.33800
C  18.98900 47.61800 32.37400
H  12.72600 52.18900 28.80200
H  13.23400 52.13600 22.26900
H  18.98800 49.50200 22.87800
H  16.35700 49.88600 30.88900
H  14.37400 52.02300 30.66300
H  13.07300 50.52800 31.47000
H  14.30800 49.28700 31.43500
H  13.09300 49.26400 30.13200
H  16.69400 52.94300 30.32000
H  17.96800 51.83200 30.67700
H  16.44600 53.39100 32.58800
H  17.87400 52.33400 32.80800
H  10.25500 52.27800 27.56200
H  10.05900 53.87400 26.76200
H  11.24800 53.59200 28.04100
H  9.40200 54.67600 23.41900
H  10.05600 54.79900 25.00800
H  9.12100 53.30700 24.45600
H  15.42100 51.96000 20.95000
H  16.97800 49.34600 21.07000
H  15.07100 49.35600 19.99100
H  13.98600 50.81900 19.88800
H  13.79500 49.53500 21.18400
H  18.55800 51.71100 21.63100
H  17.46600 52.09600 20.36500
H  19.35400 51.19500 19.22000
H  18.70500 49.46800 19.68900
H  19.83900 50.38000 20.61600
H  21.72600 48.76900 25.44100
H  20.91600 48.86600 23.82400
H  20.57100 47.44400 24.83100
H  19.54100 50.35100 29.82100
H  19.35300 47.83400 33.37800
H  19.30900 46.64800 31.99300
H  17.90200 47.69500 32.40400
Mg -0.44900 42.43700 25.91500
C  2.09500 41.97900 28.17400
C  -2.73600 41.52500 28.48500
C  -2.92000 42.48800 23.60300
C  1.87200 42.76300 23.29300
N  -0.31500 41.90600 28.10300
C  0.82500 41.89300 28.80000
C  0.61100 41.71000 30.28600
C  -0.86600 41.29700 30.32900
C  -1.35200 41.61000 28.88200
C  -1.12500 39.80500 30.59200
C  0.79200 43.03900 31.06400
C  0.89700 42.96000 32.54800
H  0.36000 41.76100 33.21100
N  -2.53400 42.02900 26.06000
C  -3.31000 41.83200 27.24100
C  -4.70000 41.81400 26.79400
C  -4.75800 42.20300 25.42100
C  -3.34000 42.23300 24.93500
C  -5.81800 41.49000 27.78000
C  -6.03500 42.36800 24.51600
O  -5.91900 42.65500 23.27900
C  -7.45200 42.29400 25.11700
N  -0.51000 42.58000 23.73800
C  -1.65000 42.52300 23.01200
C  -1.45200 42.80300 21.47600
C  0.10900 43.06300 21.47400
C  0.53500 42.73000 22.91500
C  -1.98900 41.60400 20.71600
C  0.57700 44.53700 21.06900
C  -0.10400 45.73900 21.88700
N  1.54800 42.39200 25.75700
C  2.37000 42.52100 24.60500
C  3.72200 42.42100 25.02800
C  3.70900 42.17600 26.44500
C  2.35700 42.30100 26.78500
C  4.97700 42.59500 24.12300
C  4.48000 41.84400 27.62100
O  5.63900 41.56300 27.74100
C  3.51000 41.94000 28.82100
C  3.73600 40.75800 29.75100
O  3.23300 39.71600 29.65300
O  4.58700 41.12800 30.77700
C  4.84700 40.28800 31.94100
H  -3.33300 41.44500 29.39500
H  -3.61000 42.63500 22.77000
H  2.67900 42.82500 22.55900
H  1.19300 40.84400 30.59900
H  -1.46300 41.88000 31.03000
H  -1.74700 39.78500 31.48700
H  -0.19100 39.33200 30.89700
H  -1.75800 39.23900 29.90900
H  -0.12000 43.61500 30.90600
H  1.64400 43.45800 30.52800
H  0.49800 43.85300 33.03000
H  1.96900 42.96200 32.75000
H  -5.61800 40.92300 28.68900
H  -6.58800 40.90600 27.27600
H  -6.23200 42.44800 28.09300
H  -8.13900 42.79300 24.43400
H  -7.36000 42.92600 26.00000
H  -7.74800 41.25900 25.29000
H  -1.91500 43.67400 21.01200
H  0.63600 42.41700 20.77100
H  -2.88100 41.87700 20.15200
H  -2.14500 40.70500 21.31200
H  -1.26600 41.41300 19.92300
H  0.42400 44.66300 19.99800
H  1.63300 44.71200 21.27400
H  -0.71700 46.42400 21.30000
H  0.76300 46.27600 22.27200
H  -0.71500 45.28800 22.66900
H  4.92400 43.58800 23.67700
H  4.92600 41.90100 23.28400
H  5.92000 42.47100 24.65600
H  3.73000 42.89500 29.29900
H  4.43300 40.75800 32.83400
H  5.91900 40.09300 31.96500
H  4.43500 39.29000 31.79000

