158

Mg 25.86700 50.01100 27.18500
C  23.71200 50.87800 29.87500
C  28.07600 48.92200 29.50800
C  27.96300 49.69600 24.71800
C  23.39700 51.45300 25.01000
N  25.94300 49.96900 29.37500
C  24.96900 50.35400 30.25800
C  25.34200 49.92100 31.77400
C  26.82100 49.48700 31.59800
C  26.95000 49.44600 30.04500
C  27.77700 50.39500 32.38500
C  24.36800 48.86100 32.44500
C  23.60300 49.09100 33.80100
H  24.23300 49.96000 34.91200
N  27.73800 49.32500 27.10000
C  28.53400 48.87700 28.14300
C  29.78100 48.36200 27.65600
C  29.80400 48.60600 26.24800
C  28.46100 49.24600 25.97500
C  30.80100 47.86800 28.56200
C  30.81900 48.39900 25.26500
O  30.81800 49.03700 24.21700
C  31.96700 47.55800 25.66800
N  25.69300 50.57400 25.20500
C  26.72400 50.31400 24.36600
C  26.33600 50.59400 22.95200
C  24.83300 50.95100 23.00600
C  24.63900 50.97000 24.50400
C  27.09500 51.75000 22.20700
C  24.02200 49.83600 22.24100
C  24.23600 48.31400 22.56200
N  23.87900 50.84100 27.34200
C  23.10600 51.46000 26.38200
C  21.89800 51.84300 27.05600
C  22.07700 51.66100 28.42300
C  23.32200 51.00900 28.54500
C  20.67700 52.37100 26.46100
C  21.53400 51.93500 29.72000
O  20.46600 52.49700 30.01700
C  22.63100 51.51800 30.76700
C  23.04500 52.76500 31.52100
O  23.54500 53.77000 31.07200
O  22.69300 52.52400 32.77300
C  22.95200 53.47500 33.80000
H  28.65100 48.45700 30.31100
H  28.61000 49.42600 23.88100
H  22.60800 51.72400 24.30500
H  25.19200 50.91400 32.19700
H  26.88700 48.46000 31.95800
H  28.10300 49.97100 33.33500
H  27.30500 51.34500 32.63500
H  28.59200 50.64800 31.70600
H  24.88900 47.92100 32.62800
H  23.60300 48.55600 31.73200
H  23.42900 48.09700 34.21300
H  22.64100 49.55600 33.58500
H  30.77100 46.77800 28.54800
H  30.53500 48.02400 29.60800
H  31.80400 48.27700 28.44500
H  31.61800 46.60200 26.05700
H  32.63300 47.99500 26.41300
H  32.43200 47.37600 24.69900
H  26.52200 49.70100 22.35500
H  24.51600 51.93200 22.65400
H  26.49900 52.42900 21.59800
H  27.86900 51.29700 21.58700
H  27.55500 52.33000 23.00700
H  24.35000 49.93700 21.20600
H  22.96900 50.12000 22.26200
H  23.27300 47.82400 22.70700
H  24.77800 48.10700 23.48500
H  24.82700 47.80000 21.80400
H  20.40100 51.81500 25.56600
H  20.69900 53.40700 26.12400
H  19.83900 52.25500 27.14900
H  22.22900 50.80700 31.48900
H  22.06200 53.81500 34.32900
H  23.58100 54.23100 33.33000
H  23.54500 52.94500 34.54500
Mg -8.90200 40.78400 41.15400
C  -8.14700 37.48900 40.47000
C  -5.96600 41.71500 39.58500
C  -10.04400 43.82900 41.07800
C  -12.18900 39.57300 42.22000
N  -7.28800 39.76900 40.05600
C  -7.22500 38.41000 39.94300
C  -5.97700 37.98400 39.12000
C  -5.11800 39.27500 39.19100
C  -6.19400 40.34700 39.56700
C  -3.98500 39.25800 40.33100
C  -6.34700 37.56200 37.73200
C  -5.87300 36.20100 37.29000
H  -4.91100 36.29600 36.04400
N  -8.12200 42.54100 40.50100
C  -6.86000 42.73600 40.02200
C  -6.64800 44.20400 39.97400
C  -7.76000 44.81800 40.45100
C  -8.73200 43.69300 40.65000
C  -5.35000 44.71300 39.48500
C  -8.02600 46.35800 40.65800
O  -7.14900 47.15800 40.41700
C  -9.28000 46.90600 41.18000
N  -10.94100 41.56400 41.54300
C  -11.02400 42.93900 41.47200
C  -12.46500 43.28600 41.65700
C  -13.22700 41.97000 42.18300
C  -12.09500 40.96200 41.96500
C  -12.86300 44.53800 42.46000
C  -14.56000 41.78500 41.44100
C  -15.79400 41.38800 42.29900
N  -9.88500 38.90600 41.47700
C  -11.18200 38.59400 41.89800
C  -11.26100 37.19300 42.08000
C  -10.07700 36.66900 41.50700
C  -9.31800 37.78100 41.17500
C  -12.48700 36.44600 42.63500
C  -9.32400 35.51100 41.19100
O  -9.52100 34.35200 41.49300
C  -8.05600 35.98600 40.45200
C  -6.88700 35.39800 41.13900
O  -6.38800 35.80100 42.17900
O  -6.65300 34.16000 40.54200
C  -5.60700 33.30300 41.12000
H  -4.92800 42.00500 39.41200
H  -10.53100 44.79200 40.91000
H  -13.20600 39.20500 42.36800
H  -5.48400 37.15200 39.62300
H  -4.61400 39.56600 38.26900
H  -3.99800 38.27200 40.79400
H  -4.22700 40.00200 41.09100
H  -3.01000 39.41700 39.87100
H  -6.00600 38.34800 37.05900
H  -7.40400 37.70000 37.50500
H  -6.72000 35.52200 37.19800
H  -5.23600 35.68500 38.00800
H  -4.56700 44.37800 40.16500
H  -5.35100 45.80000 39.40900
H  -5.15000 44.46800 38.44100
H  -9.64400 46.46400 42.10700
H  -10.08800 46.87500 40.44900
H  -9.08300 47.97000 41.31300
H  -12.83000 43.59800 40.67900
H  -13.39800 42.18200 43.23800
H  -11.98100 45.02100 42.88100
H  -13.50900 44.41600 43.33000
H  -13.23800 45.35600 41.84400
H  -14.47000 41.02800 40.66200
H  -14.77200 42.71900 40.92000
H  -16.03100 40.38000 41.96000
H  -16.61700 42.04200 42.01000
H  -15.49900 41.37100 43.34900
H  -13.31800 36.48200 41.93100
H  -12.75300 36.91500 43.58200
H  -12.36900 35.41400 42.96700
H  -8.02200 35.72500 39.39500
H  -5.09600 33.82300 41.93100
H  -4.88600 33.12200 40.32300
H  -6.04200 32.37100 41.47900

