158

Mg 9.03200 4.10400 27.08400
C  9.90800 2.26300 29.91900
C  6.88500 5.99800 28.89100
C  7.76000 5.33300 24.13600
C  10.89300 1.71800 25.17000
N  8.40100 4.04800 29.15500
C  9.11400 3.41000 30.23800
C  8.62300 3.82600 31.61000
C  7.54100 4.97900 31.14800
C  7.59500 5.01300 29.57500
C  6.13000 4.77400 31.75600
C  9.65300 4.31300 32.66500
C  8.96400 5.07500 33.85900
H  9.75300 5.18800 35.19300
N  7.42100 5.43100 26.55400
C  6.70700 6.16200 27.48900
C  5.95500 7.09900 26.79900
C  6.28200 6.96900 25.41100
C  7.19000 5.89600 25.32000
C  4.99700 8.06400 27.52800
C  5.85200 7.90400 24.25800
O  6.18800 7.74500 23.08100
C  5.05600 9.03500 24.52600
N  9.30000 3.54900 24.96900
C  8.68500 4.30700 24.00800
C  9.20500 3.84400 22.62100
C  10.23000 2.73400 22.91300
C  10.20500 2.69200 24.46200
C  8.07800 3.48800 21.63800
C  11.69600 3.05400 22.24900
C  12.55300 4.04500 23.06900
N  10.35600 2.43100 27.46100
C  10.95800 1.54500 26.58400
C  11.67300 0.49400 27.28900
C  11.38400 0.74300 28.69000
C  10.46300 1.90200 28.69700
C  12.47500 -0.66200 26.67000
C  11.39600 0.26100 30.05800
O  11.90600 -0.73600 30.47100
C  10.64800 1.32900 30.92000
C  9.78200 0.61500 31.88700
O  8.63500 0.27800 31.67500
O  10.36600 0.75100 33.11700
C  9.58100 0.42800 34.27200
H  6.54600 6.65000 29.69800
H  7.35200 5.62700 23.16700
H  11.44600 1.00800 24.55300
H  8.17700 2.93300 32.04900
H  7.85400 6.01000 31.30600
H  5.89600 5.73000 32.22400
H  6.03200 4.05300 32.56800
H  5.46300 4.47800 30.94600
H  10.38700 4.99000 32.22800
H  9.99700 3.33400 32.99800
H  7.96500 4.66500 34.00800
H  8.91900 6.07800 33.43400
H  5.03400 7.91000 28.60600
H  4.04100 7.75500 27.10700
H  5.29500 9.10900 27.44300
H  5.54500 9.57500 25.33700
H  4.15200 8.50900 24.83400
H  4.99300 9.70100 23.66500
H  9.77800 4.69600 22.25500
H  9.92100 1.72600 22.63600
H  7.07500 3.61400 22.04500
H  8.19400 2.49200 21.21100
H  8.14300 4.10800 20.74300
H  11.46200 3.50400 21.28400
H  12.22300 2.11500 22.08100
H  13.46800 3.55000 23.39600
H  12.08000 4.40900 23.98100
H  12.93200 4.90100 22.50900
H  12.86000 -0.37700 25.69100
H  11.86700 -1.55500 26.52800
H  13.30000 -0.99700 27.29900
H  11.38700 1.92200 31.45900
H  10.02500 0.98800 35.09500
H  9.52400 -0.60100 34.62600
H  8.55200 0.76600 34.14400
Mg 9.36900 48.29900 25.50000
C  6.99400 48.54700 28.15200
C  11.69000 49.63800 27.66800
C  11.58300 47.86000 23.08100
C  6.70000 47.51600 23.46100
N  9.29300 49.01600 27.61200
C  8.29100 48.86300 28.53000
C  8.76700 49.30500 29.95400
C  10.07000 50.08600 29.62100
C  10.40400 49.51100 28.21000
C  9.95800 51.63700 29.52200
C  8.93300 48.11700 30.92800
C  8.48400 48.32200 32.33400
H  8.29700 47.04100 33.16900
N  11.40900 48.55200 25.38400
C  12.15300 49.11100 26.40000
C  13.55900 49.11200 26.00100
C  13.55300 48.70700 24.56700
C  12.14800 48.33500 24.30100
C  14.61900 49.73500 26.83600
C  14.65000 48.68900 23.57400
O  14.33900 48.28500 22.48200
C  15.94100 49.33200 23.78700
N  9.12600 47.84500 23.50300
C  10.22900 47.67300 22.71300
C  9.70600 47.12600 21.35300
C  8.23800 46.97000 21.48700
C  7.98000 47.39800 22.93100
C  10.21400 47.95500 20.11100
C  7.73600 45.52500 21.25200
C  8.46200 44.34400 21.95200
N  7.19500 48.08500 25.70000
C  6.29000 47.84200 24.73200
C  4.95600 47.79900 25.34300
C  5.19000 48.12400 26.70700
C  6.55200 48.18500 26.87500
C  3.68900 47.50300 24.55300
C  4.51200 48.27700 27.96500
O  3.34600 48.21200 28.29000
C  5.68000 48.62200 29.06300
C  5.63800 47.53500 30.06800
O  6.28200 46.48600 30.03400
O  4.81000 47.86200 31.12200
C  4.57100 46.80600 32.18000
H  12.46000 50.00700 28.34800
H  12.18500 47.73500 22.17900
H  5.88800 47.14300 22.83400
H  8.17700 50.10400 30.40300
H  10.85700 49.81100 30.32400
H  10.53800 52.10500 30.31800
H  8.98900 52.13200 29.57600
H  10.35700 51.81100 28.52300
H  9.97800 47.87700 31.12700
H  8.55000 47.19900 30.48300
H  7.57700 48.91600 32.44500
H  9.33000 48.74600 32.87500
H  14.88100 50.71900 26.44600
H  15.48800 49.08100 26.75700
H  14.35600 49.78800 27.89200
H  16.38400 49.20800 24.77500
H  15.67400 50.38100 23.66000
H  16.58100 49.13200 22.92700
H  10.18500 46.14700 21.33800
H  7.67300 47.61200 20.81100
H  11.03900 48.58800 20.43900
H  9.39800 48.60200 19.79000
H  10.50000 47.26400 19.31800
H  7.85800 45.37100 20.18000
H  6.70100 45.39000 21.56700
H  9.20500 44.66800 22.68100
H  8.87500 43.77400 21.12000
H  7.73200 43.73700 22.48700
H  3.85700 47.24300 23.50800
H  2.97800 48.32900 24.51800
H  3.16600 46.74200 25.13200
H  5.62600 49.62600 29.48300
H  4.81900 45.82800 31.76800
H  3.58400 46.86700 32.64000
H  5.28200 47.11100 32.94700

