158

Mg 40.88400 8.22600 29.81800
C  42.59900 9.79800 32.48600
C  38.40300 7.35500 32.14000
C  39.60200 6.13600 27.50600
C  43.70000 8.57500 27.92700
N  40.50400 8.57200 32.14800
C  41.39900 9.21700 32.97500
C  40.80400 9.31200 34.41600
C  39.36400 8.58200 34.26300
C  39.40600 8.04800 32.74200
C  39.13800 7.32400 35.16900
C  40.81000 10.65000 35.20700
C  39.56800 11.01100 36.06000
H  39.95900 12.09400 37.17600
N  39.24400 7.03100 29.82400
C  38.30000 6.89800 30.77400
C  37.14800 6.23600 30.24500
C  37.36200 6.07200 28.86500
C  38.82800 6.39100 28.67900
C  35.95100 5.92400 31.10400
C  36.36600 5.64500 27.82800
O  36.63400 5.45500 26.62900
C  35.01000 5.25100 28.21400
N  41.53700 7.54700 27.85700
C  40.85300 6.62300 27.13400
C  41.59200 6.30800 25.84100
C  42.87300 7.27200 25.93000
C  42.74800 7.87100 27.31700
C  41.99300 4.83100 25.80500
C  43.18900 8.41100 24.90000
C  42.06500 9.43400 24.65800
N  42.70400 9.14100 30.02300
C  43.72600 9.27800 29.14100
C  44.89200 9.91000 29.79800
C  44.40700 10.23900 31.05100
C  43.08300 9.65100 31.19100
C  46.22300 10.17700 29.12500
C  44.76000 10.89200 32.33700
O  45.77100 11.59700 32.66200
C  43.62700 10.49500 33.30700
C  44.20700 9.69000 34.44300
O  44.59400 8.52800 34.34400
O  44.28500 10.54200 35.54900
C  44.74800 9.86800 36.76100
H  37.48500 7.13200 32.68800
H  39.10000 5.63800 26.67400
H  44.56600 8.89600 27.34400
H  41.43400 8.65300 35.01400
H  38.54100 9.29700 34.23900
H  39.32900 6.49400 34.48900
H  38.12200 7.41300 35.55500
H  39.83900 7.27800 36.00300
H  40.94700 11.46400 34.49600
H  41.65100 10.59300 35.89900
H  39.12400 10.15800 36.57400
H  38.69500 11.27800 35.46400
H  36.41400 5.53200 32.00900
H  35.21700 5.20600 30.74000
H  35.48300 6.80500 31.54500
H  34.53600 5.91200 28.94000
H  35.12500 4.22200 28.55300
H  34.30000 5.22800 27.38800
H  41.08500 6.46800 24.88900
H  43.76900 6.65100 25.94400
H  41.04100 4.30400 25.87700
H  42.59400 4.53800 26.66600
H  42.55100 4.75100 24.87200
H  43.52500 8.03200 23.93500
H  44.01600 8.95800 25.35400
H  41.12100 9.27900 25.18000
H  41.87200 9.39500 23.58500
H  42.42900 10.44100 24.85800
H  46.54200 11.20600 29.29000
H  46.19500 10.02000 28.04600
H  46.99300 9.66700 29.70300
H  43.24600 11.41700 33.74700
H  45.58100 10.47400 37.11800
H  45.06100 8.82700 36.67900
H  44.03700 9.95200 37.58400
Mg 47.77100 15.16300 28.36800
C  45.86500 15.26400 31.34200
C  49.93600 17.35300 29.82100
C  49.32600 15.30800 25.47900
C  45.16500 13.19700 26.87500
N  47.89300 16.19300 30.42100
C  47.07000 16.06300 31.48200
C  47.68100 16.73500 32.70300
C  48.89500 17.51000 32.11600
C  48.87400 17.06500 30.67100
C  48.82500 19.01500 32.34600
C  47.88700 15.83900 33.86100
C  47.14900 16.08000 35.23500
H  47.02500 17.49000 35.76500
N  49.35000 16.16600 27.72300
C  50.12200 17.06300 28.43800
C  51.29000 17.43500 27.65100
C  51.18400 16.79600 26.39700
C  49.92000 16.01900 26.50500
C  52.34100 18.36300 28.14500
C  51.99800 16.99600 25.16100
O  51.81900 16.36500 24.12500
C  53.22600 17.86400 25.25000
N  47.32400 14.31700 26.46400
C  48.12600 14.50700 25.41500
C  47.59700 13.95700 24.10500
C  46.32300 13.26600 24.57000
C  46.27500 13.58300 26.06300
C  47.36200 15.12200 22.97800
C  46.18300 11.67400 24.28600
C  46.87600 10.66900 25.23100
N  45.98000 14.37800 28.95200
C  45.00700 13.60800 28.22800
C  43.85600 13.31000 29.05300
C  44.22100 13.96400 30.26700
C  45.46600 14.56600 30.14000
C  42.66300 12.42400 28.69300
C  43.70800 14.16300 31.62200
O  42.65800 13.65700 32.08300
C  44.82400 14.96300 32.44400
C  44.02100 16.13900 32.94700
O  43.82800 17.17400 32.33900
O  43.55100 15.89700 34.24000
C  42.75800 16.98000 34.85100
H  50.64500 18.07400 30.23200
H  49.92000 15.27600 24.56400
H  44.29500 12.64200 26.51800
H  46.86600 17.39300 33.00700
H  49.75000 17.01700 32.57900
H  48.10900 19.24800 33.13400
H  48.56800 19.61100 31.47100
H  49.77700 19.43400 32.67400
H  48.93100 15.82800 34.17300
H  47.51500 14.89300 33.46500
H  47.72800 15.37000 35.82600
H  46.09700 15.81300 35.13200
H  52.07200 19.40400 27.96200
H  53.36700 18.16100 27.83700
H  52.45500 18.36300 29.22900
H  53.17100 18.85000 25.71000
H  53.39300 18.06000 24.19100
H  54.05800 17.34900 25.72900
H  48.39000 13.26800 23.81500
H  45.45400 13.68000 24.05800
H  46.49600 14.85900 22.37000
H  48.21200 15.04500 22.30000
H  47.36300 16.10400 23.45100
H  46.49400 11.54000 23.25000
H  45.14600 11.36800 24.42800
H  47.39200 11.11800 26.07900
H  47.63900 10.10800 24.69100
H  46.19200 9.90300 25.59600
H  42.99900 11.56300 28.11600
H  42.05500 13.07500 28.06400
H  42.06100 12.03500 29.51500
H  45.11800 14.51200 33.39200
H  41.74300 16.67500 35.10700
H  42.60100 17.90000 34.28800
H  43.25300 17.31000 35.76400

