158

Mg 41.08500 9.57800 29.49400
C  43.27600 10.88500 32.03400
C  38.97100 8.40600 31.95500
C  39.25500 8.49400 27.04800
C  43.59900 10.44500 27.17600
N  41.24000 9.51500 31.78600
C  42.10500 10.20700 32.58300
C  41.64800 10.29800 34.02100
C  40.39200 9.32300 34.05300
C  40.21900 8.91300 32.50800
C  40.53900 8.04000 34.83700
C  41.40000 11.74400 34.50400
C  40.41000 12.05500 35.59500
H  40.85700 12.79400 36.91500
N  39.40000 8.59500 29.49600
C  38.62300 8.24500 30.59200
C  37.43800 7.59500 30.12600
C  37.39800 7.67900 28.68700
C  38.73100 8.31100 28.33900
C  36.50200 6.94100 31.08000
C  36.34400 7.20400 27.68100
O  36.39300 7.24400 26.48000
C  35.06700 6.56700 28.31200
N  41.50800 9.18900 27.38800
C  40.44100 8.93500 26.54700
C  40.73800 9.16400 25.10000
C  42.25600 9.76300 25.15200
C  42.49800 9.73900 26.68600
C  40.52800 7.94400 24.23800
C  42.63400 11.08700 24.45000
C  42.01200 12.30600 25.16600
N  43.08600 10.37300 29.55300
C  43.90700 10.70000 28.51200
C  45.14800 11.27600 29.07900
C  44.90800 11.39900 30.45100
C  43.67600 10.84300 30.68000
C  46.27900 11.91000 28.28000
C  45.50100 11.86500 31.69100
O  46.60300 12.25000 32.07300
C  44.39600 11.69600 32.75000
C  44.95200 11.03000 33.91700
O  45.04900 9.85800 34.06900
O  45.35200 12.04900 34.86300
C  45.41000 11.68600 36.32200
H  38.15300 8.20500 32.65000
H  38.63900 8.19200 26.19800
H  44.26500 10.74900 26.36600
H  42.48300 9.94200 34.62400
H  39.47800 9.79900 34.40900
H  41.49800 7.94900 35.34900
H  40.26500 7.12200 34.31700
H  39.76800 8.02400 35.60700
H  41.08600 12.33400 33.64300
H  42.36700 12.14900 34.80200
H  39.88500 11.15300 35.90700
H  39.61100 12.69600 35.22400
H  35.68200 7.61600 31.32200
H  36.82800 6.69500 32.09100
H  36.05600 6.06100 30.61600
H  35.42300 5.62100 28.71800
H  34.38700 6.33000 27.49400
H  34.61600 7.21000 29.06700
H  40.16000 10.00800 24.72300
H  42.82900 8.95300 24.70000
H  40.48500 7.15100 24.98500
H  41.40400 7.74700 23.61900
H  39.52200 8.02500 23.82700
H  42.27500 11.15600 23.42300
H  43.71800 11.19400 24.42800
H  42.90900 12.88000 25.39600
H  41.26700 12.03500 25.91500
H  41.53100 12.87500 24.37100
H  45.89900 12.24100 27.31400
H  47.07600 11.17800 28.14700
H  46.68200 12.72500 28.88100
H  44.11300 12.72100 32.99100
H  44.41800 11.53400 36.74800
H  45.89600 12.50200 36.85600
H  45.93300 10.73600 36.43700
Mg -12.06600 16.77100 41.47100
C  -8.89700 15.27400 41.19800
C  -10.82000 19.51300 40.17900
C  -15.30100 17.90400 40.96500
C  -13.42900 13.57900 42.37800
N  -10.09400 17.27500 40.71100
C  -8.93600 16.56500 40.72300
C  -7.68700 17.31700 40.14800
C  -8.35700 18.73300 39.89600
C  -9.87800 18.50200 40.28100
C  -7.66200 19.96200 40.61600
C  -7.12100 16.62400 38.88700
C  -5.65200 16.34800 38.89900
H  -5.01700 16.51700 37.49700
N  -12.92800 18.54900 40.72300
C  -12.23600 19.58200 40.28500
C  -13.12900 20.65300 39.90300
C  -14.45200 20.22600 40.09100
C  -14.29600 18.82000 40.58000
C  -12.63700 21.97000 39.41100
C  -15.75500 20.95500 39.62900
O  -15.67300 22.11900 39.15300
C  -17.15900 20.31100 39.55300
N  -14.03600 16.01900 41.80500
C  -15.19300 16.65100 41.48500
C  -16.51500 15.88800 41.87000
C  -15.85900 14.49000 42.39100
C  -14.35500 14.68000 42.18300
C  -17.55300 16.65400 42.80600
C  -16.47600 13.17000 41.60700
C  -16.74300 12.00200 42.54000
N  -11.37900 14.89300 41.88800
C  -11.99300 13.66200 42.27800
C  -10.93100 12.65500 42.46400
C  -9.79300 13.26000 42.01700
C  -10.08800 14.61800 41.63700
C  -11.21800 11.27400 42.98000
C  -8.44200 12.91000 41.73800
O  -7.81800 11.78400 41.80200
C  -7.74300 14.33100 41.35300
C  -6.95700 14.84700 42.55800
O  -7.14300 14.49700 43.75400
O  -5.93600 15.63400 42.13600
C  -4.91400 15.88600 43.14600
H  -10.41200 20.48400 39.89000
H  -16.33500 18.13800 40.70300
H  -13.79500 12.56800 42.56600
H  -6.97800 17.47300 40.96100
H  -8.29200 19.07900 38.86500
H  -8.35400 20.29000 41.39200
H  -7.59900 20.85000 39.98600
H  -6.77300 19.67000 41.17400
H  -7.51200 17.14300 38.01200
H  -7.62100 15.65900 38.80000
H  -5.44200 15.29600 39.09600
H  -5.14100 17.01200 39.59500
H  -13.19800 22.11200 38.48700
H  -11.57200 21.98700 39.18000
H  -12.92300 22.75600 40.11100
H  -17.03200 19.53600 38.79700
H  -17.94700 20.97300 39.19400
H  -17.46400 19.88800 40.51100
H  -17.00900 15.66100 40.92500
H  -15.88100 14.41500 43.47800
H  -17.26000 17.70200 42.86700
H  -17.57500 16.27100 43.82600
H  -18.53000 16.54400 42.33500
H  -15.63400 12.88500 40.97600
H  -17.30400 13.36900 40.92600
H  -17.00500 12.47100 43.48800
H  -15.90800 11.31900 42.69700
H  -17.61100 11.49000 42.12200
H  -11.72900 10.71200 42.19800
H  -11.87400 11.41300 43.83900
H  -10.29100 10.76700 43.24800
H  -7.09600 14.20400 40.48500
H  -4.63000 16.93300 43.03100
H  -3.98700 15.34800 42.94800
H  -5.18400 15.78700 44.19700

