158

Mg -2.71400 17.03900 26.91800
C  -3.07600 14.74100 29.50500
C  -3.08600 19.59900 29.36900
C  -2.61800 19.36100 24.47800
C  -3.10900 14.59700 24.48700
N  -2.80600 17.16200 29.24000
C  -3.02400 16.05900 29.99800
C  -3.25500 16.47300 31.45900
C  -3.35000 18.08400 31.35000
C  -3.10700 18.33000 29.85700
C  -4.81700 18.61800 31.80700
C  -2.19000 15.93400 32.44600
C  -1.66900 16.84200 33.61100
H  -1.31600 16.10500 34.92300
N  -2.80100 19.21300 26.99200
C  -2.99400 20.05200 28.03600
C  -2.87000 21.36900 27.57300
C  -2.56800 21.32400 26.16000
C  -2.65100 19.89100 25.79700
C  -2.93400 22.62200 28.47600
C  -2.22700 22.48200 25.21400
O  -1.83200 22.26000 24.07100
C  -2.28500 23.86200 25.63400
N  -2.75700 16.95700 24.75000
C  -2.68700 18.07100 24.02600
C  -2.91400 17.79100 22.54600
C  -3.11500 16.18200 22.50800
C  -2.92900 15.88100 23.99100
C  -4.19400 18.51900 21.91600
C  -2.21100 15.48000 21.53300
C  -1.00700 14.66600 22.07600
N  -2.97700 15.09400 26.90000
C  -3.06600 14.14600 25.86700
C  -3.06600 12.75900 26.43300
C  -3.14700 13.02300 27.80600
C  -3.01400 14.42000 28.06500
C  -3.09900 11.41800 25.72700
C  -3.32200 12.33100 29.05100
O  -3.46300 11.13200 29.33800
C  -3.39400 13.45800 30.21600
C  -2.41200 12.99800 31.28100
O  -1.22800 13.19200 31.36300
O  -3.08900 12.31900 32.25000
C  -2.34200 12.07500 33.46200
H  -3.10300 20.33500 30.17500
H  -2.51200 20.06200 23.64700
H  -3.17500 13.84700 23.69600
H  -4.23600 16.05100 31.67800
H  -2.62200 18.58500 31.98800
H  -5.05500 19.41900 31.10700
H  -4.67400 18.93400 32.84000
H  -5.71300 18.00300 31.89200
H  -1.30800 15.72800 31.83900
H  -2.64100 15.01800 32.82600
H  -2.50700 17.51600 33.78500
H  -0.80600 17.43700 33.31200
H  -3.03800 22.43500 29.54500
H  -3.70900 23.31500 28.14600
H  -2.02100 23.21100 28.39600
H  -3.22000 24.13900 26.12000
H  -2.15300 24.50600 24.76500
H  -1.41200 24.12400 26.23200
H  -1.97900 18.13100 22.09900
H  -4.11300 15.87300 22.19500
H  -3.91700 19.07200 21.01800
H  -4.59600 19.27900 22.58600
H  -5.01900 17.90800 21.55000
H  -1.69900 16.34300 21.10700
H  -2.75100 14.83300 20.84200
H  -0.62300 15.20000 22.94600
H  -0.20100 14.57600 21.34800
H  -1.33200 13.66700 22.36500
H  -3.03900 11.64300 24.66200
H  -4.01100 10.83800 25.86900
H  -2.26200 10.77700 26.00400
H  -4.32900 13.51700 30.77400
H  -3.07400 12.00300 34.26700
H  -1.69700 12.91200 33.72700
H  -1.71000 11.20000 33.31300
Mg 36.43200 49.03900 24.91200
C  36.72400 47.52900 28.01200
C  34.54900 51.62000 26.52600
C  35.64400 50.34000 21.97500
C  37.94200 46.42100 23.38700
N  35.59800 49.47300 26.99300
C  36.04000 48.74200 28.12000
C  35.74200 49.53200 29.38100
C  34.91700 50.80100 28.86600
C  35.01700 50.61600 27.39400
C  33.52200 50.97300 29.49000
C  36.95500 50.02300 30.25400
C  36.89500 49.82500 31.73900
H  35.51400 49.58800 32.39400
N  35.23100 50.72100 24.32500
C  34.65000 51.71900 25.10300
C  34.04100 52.68900 24.26300
C  34.54100 52.35400 22.95700
C  35.16000 51.12400 23.02300
C  33.33300 53.97100 24.78700
C  34.44800 53.14700 21.69600
O  34.85800 52.76200 20.55500
C  33.86700 54.56200 21.68300
N  36.45000 48.27100 22.93900
C  36.18500 49.04900 21.89200
C  36.55200 48.39800 20.58100
C  37.47000 47.23800 21.06200
C  37.31200 47.32900 22.57200
C  35.34700 47.84400 19.74200
C  38.98700 47.46800 20.61300
C  39.33400 46.52900 19.46200
N  37.36600 47.36400 25.54700
C  37.93200 46.34800 24.81500
C  38.58100 45.34900 25.69200
C  38.06800 45.76200 26.99300
C  37.36500 46.97200 26.84800
C  39.32600 44.06700 25.38000
C  37.97800 45.42200 28.38300
O  38.50200 44.46700 29.05500
C  37.09600 46.58200 29.06100
C  35.95600 46.07700 29.84200
O  34.89700 45.79000 29.44500
O  36.44000 45.70800 31.06500
C  35.59500 44.94700 32.01900
H  33.96600 52.42000 26.98700
H  35.60900 50.75400 20.96500
H  38.54600 45.63200 22.93500
H  35.16800 48.78700 29.93400
H  35.49100 51.70900 29.04900
H  33.22300 50.11900 30.09700
H  32.71400 50.99700 28.75900
H  33.35200 51.86000 30.10100
H  37.18100 51.08900 30.22600
H  37.82900 49.45300 29.94100
H  37.35000 50.69400 32.21500
H  37.47500 48.93400 31.97800
H  34.03800 54.80200 24.79200
H  32.89000 53.69600 25.74500
H  32.56100 54.15700 24.04100
H  33.88900 54.91600 20.65200
H  34.25300 55.36200 22.31400
H  32.78500 54.48700 21.79100
H  36.99600 49.17700 19.96100
H  37.03700 46.27200 20.80200
H  34.43800 47.99200 20.32500
H  35.47300 46.79400 19.47600
H  35.31500 48.43100 18.82500
H  39.75200 47.20300 21.34300
H  39.08500 48.53300 20.40500
H  40.20100 45.96700 19.81100
H  39.54100 46.97700 18.49000
H  38.49500 45.84700 19.32600
H  38.78600 43.39700 24.71100
H  39.52900 43.65400 26.36800
H  40.20700 44.37800 24.81900
H  37.80700 47.09500 29.70800
H  36.15800 44.08400 32.37200
H  34.59100 44.65500 31.71000
H  35.52900 45.65200 32.84800

