158

Mg 54.63600 25.39400 45.19100
C  51.93400 27.41000 43.96100
C  52.90100 22.76000 43.81300
C  57.40400 23.44900 45.53400
C  56.22200 28.18500 46.25400
N  52.84400 25.22800 43.61800
C  51.93400 26.14800 43.40300
C  50.77700 25.56600 42.54400
C  50.97800 24.01300 42.76700
C  52.30400 23.93800 43.49600
C  49.88400 23.27400 43.57300
C  50.76000 25.89800 41.00900
C  52.05500 26.42600 40.25200
H  52.96300 25.43900 39.52800
N  55.08700 23.37100 44.77300
C  54.16200 22.48000 44.30400
C  54.76800 21.12500 44.32200
C  56.11100 21.34100 44.76600
C  56.25900 22.77700 45.00200
C  54.11400 19.81200 43.86900
C  57.19900 20.19200 44.80200
O  56.86900 19.02100 44.51200
C  58.58200 20.50600 45.07500
N  56.60200 25.84100 45.57800
C  57.57700 24.86200 45.77200
C  58.93300 25.52000 46.13900
C  58.48100 26.98400 46.41700
C  56.99600 27.05100 46.05900
C  59.67200 24.95400 47.30300
C  59.38200 28.03900 45.65900
C  58.87900 28.63300 44.24500
N  54.16900 27.39500 45.31600
C  54.89100 28.37400 45.87200
C  54.08100 29.59000 45.84900
C  52.85600 29.21800 45.11900
C  53.01000 27.88300 44.83000
C  54.37800 30.87400 46.49800
C  51.68900 29.76000 44.61200
O  51.28400 30.94800 44.61700
C  50.94700 28.60700 43.93600
C  50.61100 29.13000 42.55600
O  51.36700 29.63500 41.78500
O  49.25500 28.82700 42.21900
C  48.86400 29.09000 40.81300
H  52.36300 21.91400 43.37800
H  58.30600 22.85400 45.69300
H  56.74300 28.94200 46.84300
H  49.88000 25.96800 43.01400
H  51.17000 23.45200 41.85300
H  50.23000 22.82500 44.50400
H  49.48300 22.41300 43.03800
H  48.98400 23.85400 43.77400
H  50.01700 26.62200 40.67600
H  50.39800 25.12000 40.33700
H  52.60700 26.90000 41.06400
H  51.72000 27.22800 39.59300
H  54.29200 19.05100 44.62900
H  54.63000 19.49100 42.96400
H  53.04800 19.87800 43.64700
H  59.16100 19.60400 44.87200
H  58.69900 20.80000 46.11800
H  58.86600 21.33700 44.43000
H  59.56700 25.37800 45.26400
H  58.52400 27.28100 47.46500
H  60.53600 24.41600 46.91100
H  59.00400 24.33200 47.89900
H  60.08300 25.76400 47.90500
H  60.33400 27.55700 45.43600
H  59.62300 28.79900 46.40200
H  59.49300 28.10000 43.51900
H  59.23500 29.66300 44.26100
H  57.79700 28.59700 44.11900
H  53.56200 31.52000 46.17200
H  55.31000 31.32100 46.15200
H  54.27900 30.81400 47.58200
H  49.98500 28.42400 44.41400
H  49.70000 29.15200 40.11600
H  48.22400 29.97200 40.83300
H  48.30700 28.20600 40.50500
Mg 42.76700 42.15300 25.99100
C  42.17200 44.49900 28.42900
C  43.95700 39.96500 28.44000
C  43.90200 40.08500 23.47900
C  41.95800 44.47700 23.61800
N  42.97600 42.19700 28.21800
C  42.59700 43.25700 29.00900
C  42.74600 42.98200 30.51300
C  43.37600 41.55900 30.48400
C  43.50700 41.24300 28.95500
C  44.65600 41.30700 31.32500
C  41.38800 43.06500 31.32500
C  41.38600 43.82300 32.64400
H  42.31900 43.41300 33.81400
N  43.70500 40.21800 25.96800
C  44.08100 39.45500 27.11900
C  44.64100 38.15600 26.66500
C  44.57400 38.18200 25.18300
C  44.07700 39.53400 24.83300
C  45.13100 37.09600 27.67200
C  44.87500 37.10400 24.23800
O  44.94000 37.18000 22.99200
C  45.14600 35.73100 24.80000
N  43.11200 42.37000 23.80900
C  43.43700 41.32600 23.00500
C  43.27200 41.76100 21.53800
C  42.30000 43.00000 21.64400
C  42.41100 43.29500 23.11200
C  44.54700 42.02400 20.61200
C  40.92700 42.75200 21.08400
C  39.97500 41.86600 21.96400
N  42.15000 44.12300 25.99400
C  41.87200 44.95200 24.98200
C  41.60300 46.30200 25.41700
C  41.72200 46.17000 26.82300
C  42.05400 44.80200 27.08900
C  41.19000 47.46600 24.53200
C  41.59900 46.88700 28.06900
O  41.40900 48.02300 28.35500
C  41.78200 45.79600 29.14100
C  42.70000 46.37300 30.15400
O  43.91500 46.44000 30.02700
O  41.97900 46.94500 31.18700
C  42.66000 47.62400 32.26200
H  44.13500 39.28700 29.27700
H  44.13400 39.37000 22.68800
H  41.56800 45.20800 22.90600
H  43.41100 43.73100 30.94300
H  42.68700 40.79200 30.83900
H  44.81200 42.05900 32.09800
H  45.60800 41.18800 30.80700
H  44.44500 40.35600 31.81400
H  40.99700 42.07000 31.53900
H  40.68700 43.53700 30.63700
H  40.36200 43.94500 33.00000
H  41.71900 44.84700 32.47400
H  44.68500 36.11700 27.50000
H  45.02900 37.35800 28.72500
H  46.20100 37.00500 27.48400
H  44.25700 35.48400 25.38200
H  46.02900 36.01800 25.37100
H  45.40200 34.97600 24.05700
H  42.75100 40.90000 21.12100
H  42.71500 43.80500 21.03800
H  45.40900 42.06100 21.27800
H  44.43800 42.95100 20.04900
H  44.62300 41.16000 19.95200
H  41.01800 42.38100 20.06300
H  40.42000 43.71700 21.06800
H  39.34500 41.19900 21.37500
H  39.40200 42.51800 22.62300
H  40.57400 41.23800 22.62400
H  40.56900 48.10700 25.15800
H  40.64900 47.12800 23.64800
H  42.05700 48.01500 24.16400
H  40.86000 45.63000 29.69800
H  42.98400 46.80100 32.89800
H  41.91300 48.19100 32.81900
H  43.42400 48.34100 31.96000

