158

Mg 2.04900 -0.91800 45.65700
C  5.27000 0.23000 44.52400
C  0.77100 1.70900 43.89800
C  -0.78200 -2.41300 45.87600
C  3.72400 -3.82800 46.85300
N  2.98600 0.71000 44.35400
C  4.26100 1.08200 44.11300
C  4.44500 2.44500 43.44600
C  3.04300 2.98600 43.64200
C  2.18600 1.74600 44.02000
C  2.94800 4.17600 44.65200
C  4.73100 2.31400 42.03000
C  6.08700 2.94400 41.57500
H  6.10300 3.37900 40.06100
N  0.16700 -0.32600 45.08500
C  -0.20400 0.77700 44.36800
C  -1.55100 0.81100 44.28500
C  -2.07800 -0.40200 44.83000
C  -0.86000 -1.11400 45.30900
C  -2.35200 1.98200 43.47000
C  -3.51300 -0.85300 44.85200
O  -4.29100 -0.09800 44.31400
C  -3.99600 -2.11400 45.41200
N  1.61100 -2.86300 46.04100
C  0.32000 -3.15600 46.21900
C  0.05000 -4.57100 46.79000
C  1.47300 -4.99100 47.10900
C  2.32600 -3.83800 46.68500
C  -0.95000 -4.65300 48.03300
C  1.92600 -6.30100 46.46900
C  2.32300 -7.35200 47.45800
N  4.11400 -1.59900 45.84300
C  4.60900 -2.84900 46.30600
C  6.07100 -2.79400 46.18800
C  6.29100 -1.59100 45.48800
C  5.10000 -0.96100 45.28300
C  7.01500 -3.83700 46.61700
C  7.38500 -0.85100 44.90000
O  8.57000 -1.11200 44.69500
C  6.75300 0.47400 44.42200
C  7.13400 1.46600 45.34500
O  6.94200 1.46800 46.57300
O  7.78700 2.45400 44.59300
C  8.06100 3.68500 45.41400
H  0.37700 2.62700 43.45600
H  -1.74400 -2.86100 46.13600
H  4.17200 -4.69400 47.34600
H  5.24900 2.86400 44.05100
H  2.64000 3.51100 42.77700
H  3.80500 4.85000 44.65000
H  2.84100 3.80700 45.67200
H  2.12000 4.85300 44.44200
H  4.10000 2.78300 41.27500
H  4.68000 1.25900 41.76300
H  6.97900 2.32500 41.67100
H  6.23300 3.75300 42.29100
H  -2.78000 1.69600 42.51000
H  -1.78100 2.87600 43.21900
H  -3.14600 2.35400 44.12000
H  -3.90100 -2.21600 46.49300
H  -3.48400 -2.94000 44.91700
H  -5.06700 -2.21900 45.23700
H  -0.55000 -5.27900 46.22000
H  1.58800 -4.94200 48.19100
H  -1.88100 -5.12900 47.72400
H  -1.19400 -3.66000 48.41000
H  -0.54800 -5.33500 48.78400
H  2.87200 -6.12900 45.95400
H  1.20800 -6.54700 45.68700
H  1.74700 -8.21900 47.13300
H  2.09800 -7.17000 48.50900
H  3.37600 -7.62300 47.38900
H  8.01200 -3.66100 46.21500
H  6.63400 -4.77700 46.21800
H  6.96400 -3.88200 47.70500
H  7.07000 0.63900 43.39200
H  8.30800 4.54200 44.78700
H  8.94700 3.29200 45.91300
H  7.23200 3.93500 46.07600
Mg 24.44300 1.91600 29.51700
C  26.68700 1.77100 32.32900
C  21.87600 1.90300 31.74400
C  22.42800 1.87400 26.91700
C  27.22000 1.34300 27.37000
N  24.26600 1.79300 31.86200
C  25.32800 1.83100 32.79300
C  24.78600 1.90300 34.21000
C  23.21800 1.94800 33.99300
C  23.10000 1.91300 32.46300
C  22.44200 0.86700 34.68000
C  25.46600 3.12700 34.94300
C  24.74400 3.56200 36.25400
H  25.54100 3.67500 37.52600
N  22.51700 1.79400 29.30900
C  21.60600 1.95900 30.40500
C  20.26400 1.89900 29.87300
C  20.39500 2.01100 28.47400
C  21.82900 1.89000 28.17600
C  19.07400 1.90600 30.74900
C  19.22800 2.16000 27.36700
O  19.45800 2.26600 26.14900
C  17.79500 2.06300 27.76600
N  24.79700 1.65700 27.54900
C  23.79900 1.84000 26.64000
C  24.25400 1.93700 25.12000
C  25.81000 1.92100 25.36600
C  25.96800 1.58300 26.83300
C  23.67400 0.90400 24.17800
C  26.52800 3.28300 25.01500
C  25.98100 4.58000 25.64800
N  26.52500 1.64400 29.74400
C  27.51400 1.28800 28.78900
C  28.73600 1.08700 29.42800
C  28.43600 1.33700 30.80300
C  27.11300 1.69400 30.94800
C  30.06700 0.68600 28.82200
C  29.07100 1.32100 32.09100
O  30.24300 1.12900 32.38200
C  28.01400 1.78200 33.16900
C  28.06100 0.74700 34.28100
O  27.78700 -0.40900 34.10500
O  28.50800 1.27800 35.49100
C  28.64500 0.28800 36.57400
H  21.07400 2.07800 32.46500
H  21.70800 1.93300 26.09800
H  27.94600 1.35900 26.55500
H  25.16200 0.96400 34.61700
H  22.81100 2.91500 34.28600
H  21.88000 0.36300 33.89300
H  21.76900 1.33300 35.40000
H  23.05300 0.20300 35.29200
H  25.54400 4.00600 34.30400
H  26.50700 2.93400 35.20300
H  23.93400 2.87200 36.48700
H  24.32300 4.52100 35.95200
H  18.08700 2.02500 30.30100
H  19.22700 2.66600 31.51500
H  18.93900 0.96000 31.27300
H  17.19800 2.12000 26.85600
H  17.38300 2.88000 28.35800
H  17.67200 1.16600 28.37400
H  23.96100 2.93200 24.78600
H  26.32400 1.18400 24.74900
H  23.20700 0.12600 24.78200
H  24.52800 0.44300 23.68000
H  23.00700 1.32100 23.42300
H  26.57500 3.28500 23.92600
H  27.59500 3.21200 25.23100
H  26.92300 4.98600 26.01700
H  25.23200 4.40200 26.42000
H  25.60800 5.19600 24.83000
H  29.89100 0.22300 27.85100
H  30.55500 -0.07000 29.43700
H  30.60200 1.61900 28.64600
H  28.26200 2.78400 33.52000
H  27.96500 0.53800 37.38800
H  29.67300 0.12400 36.89900
H  28.45300 -0.74900 36.30000

