158

Mg 0.12600 8.03500 26.90500
C  0.48000 10.18100 29.69000
C  0.57300 5.30200 29.26400
C  -0.25700 5.97900 24.45500
C  0.07200 10.82100 24.81500
N  0.36800 7.77700 29.24400
C  0.33600 8.82700 30.10000
C  0.30600 8.30200 31.54500
C  0.80900 6.83600 31.38000
C  0.56400 6.59500 29.88300
C  2.27500 6.58800 31.81300
C  -1.12900 8.58400 32.14700
C  -1.45800 7.77400 33.41700
H  -0.35900 7.56300 34.40600
N  0.11600 6.03600 26.85900
C  0.23100 5.06800 27.95800
C  0.14500 3.71400 27.33100
C  -0.21300 3.88900 25.96900
C  -0.06700 5.36800 25.64100
C  0.45800 2.40600 28.08100
C  -0.46400 2.82300 24.89200
O  -0.81800 3.10500 23.79200
C  -0.51100 1.35100 25.19000
N  0.15600 8.33900 24.92500
C  -0.10100 7.31400 24.06200
C  -0.42400 7.79800 22.60100
C  -0.46200 9.37100 22.75900
C  -0.05100 9.52000 24.25000
C  0.45200 7.16100 21.53800
C  -1.96200 9.95500 22.59700
C  -2.05500 11.41900 22.07600
N  0.39200 10.00900 27.04600
C  0.30400 11.10000 26.15500
C  0.62100 12.32100 26.82800
C  0.73400 11.95100 28.15700
C  0.46400 10.60200 28.28000
C  0.76600 13.71600 26.24600
C  0.99400 12.50800 29.43100
O  1.20100 13.68600 29.72700
C  0.75400 11.43500 30.46000
C  1.93000 11.40500 31.36600
O  2.97100 10.80700 31.20000
O  1.52200 12.04600 32.50200
C  2.37900 11.92300 33.67600
H  0.91300 4.51900 29.94600
H  -0.41300 5.32700 23.59300
H  0.06500 11.70300 24.17100
H  0.98900 8.98800 32.04600
H  0.11300 6.15200 31.86600
H  2.80600 7.48900 32.12000
H  2.88200 6.03000 31.10000
H  2.29900 5.96100 32.70400
H  -1.87200 8.12700 31.49400
H  -1.34900 9.64500 32.27200
H  -1.85300 6.80600 33.10700
H  -2.28000 8.18700 34.00200
H  -0.47500 1.90500 28.33700
H  0.99500 2.55700 29.01800
H  1.09100 1.85200 27.38800
H  0.42000 0.96000 25.60000
H  -0.72200 0.79300 24.27800
H  -1.29200 1.12600 25.91700
H  -1.36700 7.27600 22.43500
H  0.13600 10.03300 22.13300
H  1.31100 6.72500 22.04800
H  0.78300 7.90300 20.81000
H  -0.11700 6.39000 21.01800
H  -2.39500 9.87000 23.59300
H  -2.71900 9.37400 22.07000
H  -2.59600 11.33100 21.13400
H  -1.08800 11.89600 21.91900
H  -2.59600 12.06200 22.77000
H  0.64500 13.63500 25.16600
H  1.71800 14.17400 26.51300
H  -0.05500 14.32300 26.62900
H  -0.21900 11.55800 30.93500
H  3.43600 11.73700 33.48500
H  1.94900 11.30500 34.46300
H  2.35700 12.92800 34.09800
Mg 49.71800 47.41700 43.16400
C  46.33400 47.36600 42.31500
C  50.01700 44.24800 42.03800
C  53.15600 47.68300 43.36600
C  49.51400 50.89300 43.70300
N  48.25800 46.05400 42.23000
C  46.96900 46.14800 42.01500
C  46.33900 44.90300 41.46900
C  47.49300 43.85400 41.65800
C  48.71100 44.75800 42.02800
C  47.14700 42.69300 42.65400
C  46.01200 45.00700 39.93500
C  44.65800 44.36400 39.60500
H  44.73600 43.36800 38.47300
N  51.32500 46.15100 42.78500
C  51.16800 44.85700 42.31900
C  52.46400 44.23900 42.22200
C  53.47500 45.20000 42.65200
C  52.64500 46.40500 42.94400
C  52.73600 42.84000 41.70200
C  54.99500 45.01400 42.73500
O  55.45400 43.99500 42.24000
C  55.95000 45.97700 43.30000
N  51.17300 49.12900 43.48400
C  52.50500 48.91800 43.56100
C  53.19900 50.18200 44.06200
C  52.08400 51.25200 44.15800
C  50.82200 50.40500 43.81100
C  54.11500 49.99900 45.22500
C  52.21800 52.43000 43.14000
C  53.24700 53.48300 43.60900
N  48.28100 48.83300 43.22500
C  48.29100 50.21500 43.36700
C  46.94400 50.73100 43.24700
C  46.19200 49.63700 42.87800
C  47.01000 48.49700 42.86500
C  46.49400 52.14100 43.47900
C  44.85500 49.33900 42.50900
O  43.84400 50.01200 42.39500
C  44.92400 47.89500 42.07400
C  44.07100 47.01600 42.85200
O  43.99400 47.16700 44.08300
O  43.38600 46.09100 42.05400
C  42.51400 45.24500 42.79800
H  50.12800 43.22200 41.68200
H  54.24300 47.71400 43.46300
H  49.48800 51.96800 43.89000
H  45.44900 44.60400 42.02300
H  47.67400 43.31700 40.72600
H  46.81400 41.78900 42.14300
H  46.39500 43.08300 43.33900
H  47.98000 42.44800 43.31200
H  46.82800 44.57400 39.35600
H  45.96300 46.08300 39.77300
H  43.99400 45.17200 39.29900
H  44.12700 43.96800 40.47100
H  53.55000 42.83700 40.97600
H  51.92400 42.31000 41.20400
H  53.02200 42.33500 42.62400
H  55.71700 45.99600 44.36500
H  55.90900 46.92300 42.76000
H  56.96500 45.59300 43.19400
H  53.83600 50.62800 43.29700
H  51.81500 51.59600 45.15600
H  53.50500 49.65900 46.06200
H  54.54700 50.95300 45.52800
H  54.90800 49.27400 45.04300
H  51.23400 52.87600 43.00000
H  52.46600 51.95400 42.19200
H  54.13100 53.33100 42.99000
H  53.45400 53.45600 44.67900
H  52.81300 54.45400 43.37200
H  47.18200 52.69400 44.11900
H  45.49800 52.02700 43.90700
H  46.55800 52.61500 42.50000
H  44.74800 47.84700 40.99900
H  42.93400 44.79600 43.69900
H  42.23700 44.35500 42.23300
H  41.55900 45.70700 43.04900

