158

Mg 6.98500 56.58300 41.83000
C  6.03800 53.09600 41.97600
C  10.07100 55.65400 40.50300
C  7.72200 59.83000 41.35600
C  4.05900 57.40100 43.40800
N  7.88200 54.63800 41.22700
C  7.29100 53.30000 41.34800
C  8.28800 52.33400 40.86600
C  9.66500 53.09000 40.88400
C  9.21500 54.57000 40.83300
C  10.53100 52.77800 42.14300
C  7.90900 51.81700 39.35900
C  8.19600 50.28100 39.27000
H  7.38900 49.47100 38.28000
N  8.57900 57.63300 40.92000
C  9.80100 57.04300 40.53600
C  10.77800 58.07400 40.30000
C  10.09400 59.30500 40.31400
C  8.68500 58.93400 40.83600
C  12.24000 57.78700 39.82500
C  10.73000 60.62900 40.02200
O  11.91900 60.70300 39.74800
C  9.98700 61.97700 40.20600
N  5.90000 58.34000 42.19600
C  6.45900 59.58200 41.93900
C  5.42800 60.64700 42.42700
C  4.27100 59.91600 43.14000
C  4.77700 58.46100 42.95000
C  6.06000 61.87200 43.25100
C  2.84700 60.20500 42.61900
C  1.66800 60.09400 43.64800
N  5.41400 55.51600 42.55600
C  4.31600 55.99300 43.22300
C  3.45900 54.93000 43.60500
C  4.06600 53.76800 43.11900
C  5.24200 54.19100 42.41600
C  2.13700 54.88000 44.25600
C  3.98000 52.33400 43.03300
O  3.14300 51.47600 43.39700
C  5.23000 51.90500 42.19000
C  4.68200 51.32100 40.95900
O  4.25100 51.86200 39.90800
O  4.69500 49.95800 41.03100
C  3.88700 49.26300 40.03200
H  11.09400 55.34600 40.28000
H  8.01400 60.87900 41.27400
H  3.13100 57.60000 43.94800
H  8.38500 51.43200 41.46900
H  10.30700 52.85900 40.03400
H  11.52200 52.53500 41.75900
H  10.18500 51.87500 42.64500
H  10.76700 53.56600 42.85900
H  8.64700 52.34700 38.75700
H  6.92500 52.19200 39.07700
H  7.90400 49.70400 40.14700
H  9.26000 50.12900 39.09000
H  13.01800 58.55100 39.82700
H  12.24900 57.59800 38.75200
H  12.65900 56.90600 40.31200
H  9.89600 62.26700 41.25200
H  9.01700 61.78500 39.74700
H  10.59900 62.68800 39.65000
H  5.03400 61.01400 41.48000
H  4.26200 60.12800 44.20900
H  6.09600 62.83200 42.73700
H  7.09000 61.62000 43.50400
H  5.48300 61.98700 44.16900
H  2.74800 59.43700 41.85200
H  2.60200 61.08700 42.02600
H  1.47100 61.04900 44.13500
H  1.82600 59.33400 44.41300
H  0.79300 59.69500 43.13500
H  1.94300 55.83800 44.73900
H  2.19300 54.19700 45.10300
H  1.30100 54.62500 43.60400
H  5.71800 51.12900 42.78200
H  2.81200 49.42100 40.12300
H  3.99900 48.18900 40.17600
H  4.18500 49.42900 38.99700
Mg -5.52900 24.73900 26.77600
C  -3.73800 26.17500 29.33200
C  -6.88800 22.60200 29.21600
C  -7.36200 23.25000 24.37800
C  -3.77500 26.52700 24.44400
N  -5.25200 24.41600 28.88000
C  -4.67900 25.27400 29.76100
C  -5.00100 24.99600 31.19000
C  -5.70600 23.63600 31.14000
C  -5.97600 23.52800 29.64700
C  -5.07600 22.42400 31.87000
C  -5.82300 26.20900 31.77000
C  -5.52800 26.74600 33.23100
H  -4.78100 25.87300 34.25300
N  -6.86800 23.15200 26.75600
C  -7.35100 22.41500 27.88400
C  -8.31600 21.38300 27.44900
C  -8.43300 21.45000 26.03800
C  -7.50300 22.66100 25.64300
C  -8.98600 20.39300 28.39700
C  -9.21200 20.56600 25.02400
O  -8.98900 20.66500 23.81900
C  -10.11600 19.53700 25.57900
N  -5.59000 24.90000 24.74700
C  -6.48300 24.24800 23.99300
C  -6.21100 24.52300 22.48100
C  -4.95700 25.48600 22.43700
C  -4.72400 25.65600 23.92800
C  -6.08700 23.26500 21.60200
C  -5.10500 26.76700 21.62800
C  -3.97400 27.07000 20.55200
N  -4.02300 26.10500 26.77300
C  -3.40100 26.74700 25.80900
C  -2.45700 27.72900 26.37100
C  -2.59600 27.59500 27.75900
C  -3.50200 26.48500 27.97600
C  -1.57900 28.83500 25.59000
C  -2.15900 28.05200 29.05800
O  -1.41500 28.95400 29.38100
C  -2.86700 27.14400 30.11000
C  -1.79500 26.43100 30.79700
O  -0.95100 25.73000 30.21800
O  -1.79600 26.76600 32.16200
C  -0.71600 26.08200 32.93300
H  -7.31900 22.10800 30.08900
H  -7.98200 22.84000 23.57800
H  -3.20300 27.06200 23.68300
H  -4.09700 24.96500 31.79800
H  -6.68000 23.82000 31.59300
H  -5.76900 21.90800 32.53500
H  -4.29700 22.81300 32.52600
H  -4.59300 21.82900 31.09500
H  -6.90900 26.14700 31.70900
H  -5.56900 27.08200 31.16700
H  -6.47300 27.12000 33.62400
H  -4.94000 27.64600 33.05000
H  -10.02400 20.69000 28.54700
H  -8.51900 20.26800 29.37500
H  -9.03100 19.37900 28.00000
H  -9.68200 18.65000 26.04200
H  -10.95100 19.30100 24.91900
H  -10.78500 19.90600 26.35600
H  -7.10800 25.07600 22.20300
H  -4.15700 24.84900 22.06000
H  -7.07500 23.17300 21.15000
H  -5.86700 22.39900 22.22700
H  -5.36700 23.44600 20.80400
H  -5.13000 27.60500 22.32400
H  -6.10100 26.64500 21.20300
H  -4.37400 27.09800 19.53800
H  -3.04000 26.51500 20.63700
H  -3.74200 28.13000 20.66000
H  -1.86000 29.86100 25.83000
H  -1.70400 28.63300 24.52600
H  -0.51500 28.67400 25.76400
H  -3.39700 27.69100 30.89000
H  -0.44200 25.13200 32.47300
H  -1.11000 25.86300 33.92600
H  0.12900 26.74500 33.11800

