158

Mg 40.27600 7.17000 29.14300
C  41.92500 8.73400 31.99800
C  38.29200 5.56700 31.30400
C  39.06500 5.55300 26.46100
C  42.93600 8.47400 27.23300
N  40.08300 7.30200 31.37600
C  40.89300 7.89600 32.31600
C  40.34000 7.65800 33.71000
C  39.36300 6.52000 33.51400
C  39.19700 6.44300 31.96500
C  39.90900 5.19400 34.10600
C  39.75900 8.93100 34.27700
C  39.40500 9.03800 35.74600
H  40.29500 10.06000 36.57100
N  38.71900 5.87500 28.97300
C  37.96300 5.37300 29.90500
C  36.92100 4.53600 29.33600
C  37.08500 4.69300 27.88200
C  38.35500 5.34500 27.71000
C  35.92600 3.81800 30.16500
C  36.11700 4.36300 26.69200
O  36.36300 4.47900 25.47800
C  34.81100 3.88500 27.15600
N  40.97100 6.94600 27.11500
C  40.26200 6.28300 26.22000
C  40.76700 6.52900 24.79300
C  41.94400 7.57600 25.03700
C  42.03500 7.64900 26.56800
C  41.24300 5.23800 23.94700
C  41.91300 8.96800 24.25300
C  40.91100 9.99200 24.65500
N  42.07100 8.28300 29.49900
C  43.05100 8.67000 28.60700
C  44.04000 9.41300 29.29600
C  43.62300 9.49300 30.61900
C  42.37900 8.82400 30.70200
C  45.36000 9.82800 28.81700
C  43.97800 10.01800 31.91800
O  44.93300 10.71000 32.23900
C  42.84800 9.55700 32.84800
C  43.45800 8.61800 33.84800
O  44.12900 7.63800 33.61600
O  43.40400 9.16300 35.11900
C  44.02700 8.34100 36.13700
H  37.63400 5.08400 32.02900
H  38.73400 5.09000 25.53000
H  43.60700 8.97600 26.53300
H  41.21200 7.41800 34.31800
H  38.34400 6.74000 33.83100
H  40.88100 5.28800 34.59200
H  40.07400 4.45400 33.32300
H  39.19400 4.76000 34.80500
H  38.77900 8.96900 33.80100
H  40.25800 9.83600 33.92800
H  39.55200 8.07600 36.23700
H  38.33600 9.24400 35.79400
H  36.21200 3.82200 31.21700
H  35.89100 2.75800 29.91100
H  34.92000 4.21700 30.03800
H  34.31800 4.51400 27.89700
H  35.13000 2.97000 27.65600
H  34.13300 3.63600 26.33900
H  39.93900 7.04800 24.31000
H  42.87100 7.09800 24.72100
H  40.87700 5.16200 22.92300
H  41.07400 4.28800 24.45400
H  42.32900 5.29100 23.86900
H  41.60400 8.77300 23.22500
H  42.93400 9.32000 24.39700
H  40.21500 9.64600 25.41900
H  40.35300 10.31500 23.77600
H  41.51000 10.77000 25.12900
H  45.29300 9.72200 27.73400
H  46.09300 9.15800 29.26700
H  45.65500 10.82200 29.15200
H  42.32600 10.38500 33.32800
H  43.50600 7.38300 36.14400
H  43.93300 8.72400 37.15300
H  45.11100 8.37700 36.02900
Mg -4.75500 24.87900 25.85700
C  -3.03800 26.58200 28.35400
C  -6.18000 22.90000 28.27000
C  -6.51100 23.37900 23.41500
C  -3.10500 26.92500 23.53500
N  -4.52500 24.65500 28.07000
C  -3.84300 25.54500 28.88900
C  -4.11800 25.24400 30.35200
C  -5.17100 24.04100 30.29400
C  -5.31300 23.84200 28.80700
C  -4.75100 22.71700 31.08200
C  -4.67700 26.50100 31.07100
C  -4.18000 26.74500 32.44900
H  -3.95000 25.51600 33.34300
N  -6.17100 23.33300 25.86100
C  -6.54200 22.60900 26.93400
C  -7.48000 21.53100 26.50900
C  -7.57300 21.70400 25.12400
C  -6.77600 22.87700 24.69600
C  -8.09900 20.54200 27.50400
C  -8.44800 20.92700 24.12900
O  -8.39000 21.16500 22.92600
C  -9.52100 19.86600 24.60600
N  -4.44400 24.87200 23.67300
C  -5.58900 24.39000 23.03400
C  -5.76500 25.00500 21.67200
C  -4.61700 26.08600 21.59600
C  -3.98100 25.96100 23.00800
C  -5.70200 23.91200 20.51500
C  -5.16500 27.49300 21.31900
C  -4.65100 28.18700 20.02600
N  -3.24100 26.23800 25.83800
C  -2.72600 27.10100 24.85700
C  -1.97600 28.19500 25.37600
C  -1.97700 27.92100 26.76100
C  -2.77800 26.83700 27.00400
C  -1.28300 29.29500 24.65800
C  -1.38600 28.39000 28.00200
O  -0.53100 29.20500 28.29300
C  -2.14600 27.55000 29.08100
C  -1.15800 26.79600 29.97900
O  -0.45400 25.89500 29.61600
O  -1.10300 27.28000 31.29400
C  -0.23300 26.64400 32.24600
H  -6.79800 22.42700 29.03600
H  -7.23800 23.15100 22.63300
H  -2.79900 27.71700 22.84800
H  -3.17000 25.00800 30.83600
H  -6.15900 24.32200 30.65700
H  -4.54500 21.93500 30.35200
H  -5.56200 22.28900 31.67000
H  -3.92600 22.92200 31.76400
H  -5.75400 26.37400 31.18200
H  -4.49500 27.27200 30.32200
H  -4.91000 27.25800 33.07500
H  -3.37600 27.45800 32.26400
H  -7.57400 20.57700 28.45800
H  -8.02000 19.53200 27.10100
H  -9.14100 20.82000 27.66300
H  -9.03500 19.08200 25.18700
H  -9.82100 19.39600 23.67000
H  -10.27500 20.44200 25.14300
H  -6.79600 25.35800 21.69100
H  -4.04200 25.83000 20.70600
H  -5.35400 22.96200 20.92100
H  -5.12800 24.12200 19.61200
H  -6.71300 23.65000 20.20100
H  -5.08100 28.17500 22.16500
H  -6.23700 27.48300 21.12100
H  -5.39900 28.14100 19.23400
H  -3.67200 27.85700 19.68000
H  -4.46100 29.25400 20.14300
H  -1.10800 30.14100 25.32200
H  -1.91600 29.69000 23.86300
H  -0.30000 29.17300 24.20300
H  -2.81000 28.20800 29.64100
H  0.78000 27.04600 32.28200
H  -0.23900 25.55700 32.17100
H  -0.46300 27.02000 33.24300

