158

Mg 1.38500 42.06000 25.94500
C  2.77700 42.31100 29.14300
C  -1.67200 41.25300 27.42500
C  0.12600 41.32900 22.92200
C  4.47700 42.65600 24.57700
N  0.67100 41.78900 28.11700
C  1.42000 42.01300 29.20000
C  0.41200 41.97000 30.40400
C  -0.95600 41.48200 29.87500
C  -0.64600 41.51200 28.41400
C  -1.37300 40.00900 30.22300
C  0.26500 43.36900 31.12200
C  0.20200 43.44300 32.63700
H  0.01800 42.08700 33.54900
N  -0.53700 41.53800 25.29000
C  -1.62800 41.21600 25.99700
C  -2.72100 40.86600 25.14200
C  -2.25600 40.98600 23.80800
C  -0.83600 41.38700 23.93800
C  -4.07800 40.32100 25.66600
C  -3.03600 40.77300 22.50600
O  -2.52500 40.90200 21.39200
C  -4.54600 40.41400 22.51400
N  2.17400 42.08300 24.05000
C  1.46600 41.62800 22.91300
C  2.29400 41.77500 21.66100
C  3.60100 42.48300 22.16700
C  3.46300 42.41400 23.69800
C  2.44300 40.40400 21.04600
C  3.90900 44.02300 21.73500
C  2.66800 44.93100 21.49500
N  3.31600 42.33500 26.65800
C  4.49600 42.63700 25.98100
C  5.61500 42.65700 26.98200
C  4.97900 42.48800 28.22600
C  3.56500 42.37200 27.97600
C  7.04600 42.78000 26.59200
C  5.13200 42.37900 29.67800
O  6.17600 42.26900 30.33900
C  3.66900 42.31400 30.29800
C  3.60300 41.20300 31.13000
O  3.32500 40.08200 30.79000
O  4.04400 41.58600 32.35200
C  4.24100 40.63700 33.44000
H  -2.65500 41.18900 27.89600
H  -0.22600 41.05700 21.92500
H  5.38200 42.77800 23.97800
H  0.93600 41.24900 31.03200
H  -1.80500 42.12600 30.10600
H  -1.42300 39.40200 29.31900
H  -2.35800 39.94100 30.68600
H  -0.65400 39.60900 30.93800
H  -0.71600 43.71800 30.79900
H  1.01400 44.09700 30.81300
H  -0.62200 44.14100 32.78100
H  1.18700 43.81800 32.91500
H  -4.90100 40.84000 25.17500
H  -4.26700 40.66600 26.68300
H  -4.19200 39.24500 25.53300
H  -4.96400 40.06700 21.56900
H  -5.06800 41.17500 23.09300
H  -4.35700 39.45900 23.00400
H  1.79900 42.45200 20.96500
H  4.43600 41.90400 21.77200
H  3.37700 40.21400 20.51800
H  1.69200 40.26700 20.26800
H  2.27600 39.61400 21.77700
H  4.45400 43.91300 20.79800
H  4.58200 44.51600 22.43600
H  1.71500 44.48100 21.77400
H  2.57600 45.20000 20.44300
H  2.71100 45.89500 22.00100
H  7.20700 42.50700 25.54900
H  7.50700 42.09400 27.30300
H  7.39700 43.79800 26.76100
H  3.48500 43.19900 30.90700
H  5.24000 40.21900 33.57100
H  3.60500 39.78400 33.20300
H  3.91600 41.06800 34.38700
Mg -5.74300 24.91200 25.75900
C  -4.12300 26.06700 28.68600
C  -7.66700 22.72000 27.71700
C  -6.62500 23.29600 23.00100
C  -3.25000 26.73200 23.95200
N  -5.80500 24.34500 27.90100
C  -5.12000 25.06300 28.92500
C  -5.66100 24.61000 30.31700
C  -6.58500 23.37400 29.99000
C  -6.75700 23.48000 28.46100
C  -5.98000 21.97300 30.32200
C  -6.51000 25.83000 30.92800
C  -6.30000 26.02500 32.52200
H  -5.49200 24.95200 33.28600
N  -7.14600 23.37000 25.36300
C  -7.82000 22.59500 26.28300
C  -8.67400 21.67600 25.60400
C  -8.44200 21.87400 24.21000
C  -7.37900 22.87200 24.13700
C  -9.58700 20.72500 26.28400
C  -9.02500 21.14700 22.95800
O  -8.68400 21.40500 21.81500
C  -10.12200 20.12400 23.07500
N  -4.98300 25.03300 23.71400
C  -5.57100 24.22200 22.77500
C  -4.93200 24.46400 21.40100
C  -4.05000 25.70500 21.64400
C  -4.02200 25.85400 23.19400
C  -4.11800 23.27200 20.88600
C  -4.57100 26.97400 20.88200
C  -3.65600 27.62200 19.74200
N  -4.11600 26.20800 26.19400
C  -3.26900 26.96800 25.33000
C  -2.46700 27.93700 26.14400
C  -2.80600 27.54600 27.47900
C  -3.76200 26.51700 27.46300
C  -1.40300 28.96700 25.69000
C  -2.37900 27.81200 28.87400
O  -1.54300 28.51900 29.35400
C  -3.36000 26.86400 29.68500
C  -2.57100 26.13000 30.66600
O  -1.99900 25.06900 30.46000
O  -2.65100 26.77400 31.88700
C  -1.73800 26.11100 32.82800
H  -8.17800 21.97100 28.32500
H  -6.81300 22.87000 22.01300
H  -2.67300 27.42800 23.33900
H  -4.79000 24.40000 30.93700
H  -7.60800 23.40600 30.36600
H  -4.96400 21.93100 30.71300
H  -5.99600 21.38900 29.40300
H  -6.77600 21.60000 30.96700
H  -7.57400 25.66700 30.76200
H  -6.26600 26.74900 30.39500
H  -7.31400 26.21900 32.87300
H  -5.75000 26.96300 32.59700
H  -10.58100 20.78100 25.84000
H  -9.81300 20.98200 27.31800
H  -9.27100 19.68200 26.25100
H  -10.25600 19.73900 22.06500
H  -11.02200 20.61500 23.44600
H  -9.73800 19.30700 23.68600
H  -5.74200 24.67300 20.70200
H  -3.05000 25.46000 21.28500
H  -3.62100 22.65200 21.63300
H  -3.30900 23.63200 20.25000
H  -4.69400 22.56500 20.28800
H  -4.60200 27.73500 21.66200
H  -5.59700 26.84000 20.54200
H  -2.74000 27.04100 19.63500
H  -3.32600 28.62300 20.02100
H  -4.16700 27.74700 18.78700
H  -0.64500 29.15100 26.45100
H  -1.82600 29.95000 25.48300
H  -1.06000 28.61500 24.71700
H  -4.09200 27.39300 30.29600
H  -1.86500 26.65000 33.76700
H  -0.73900 26.07900 32.39300
H  -2.00000 25.05500 32.88000

