158

Mg 40.51100 8.71000 29.30000
C  42.27400 10.34100 31.87400
C  38.64900 7.14700 31.67200
C  38.60100 7.46200 26.92100
C  42.61900 10.14200 27.00600
N  40.45900 8.71100 31.59200
C  41.20100 9.49100 32.40000
C  40.56500 9.53200 33.82400
C  39.33400 8.49600 33.68700
C  39.53200 8.03800 32.23400
C  39.31100 7.26000 34.64800
C  40.22300 10.96100 34.20100
C  39.23000 11.18000 35.48500
H  39.84600 12.16700 36.63800
N  38.92700 7.43100 29.29600
C  38.29500 6.86500 30.35900
C  37.22700 5.97600 29.85400
C  37.20900 6.01200 28.45400
C  38.31200 6.98100 28.13400
C  36.33500 5.10600 30.82900
C  36.29100 5.20000 27.48200
O  36.48600 5.32100 26.25600
C  35.15500 4.38800 27.95000
N  40.76700 8.60200 27.21900
C  39.72600 8.15600 26.43800
C  39.92700 8.56800 24.96700
C  41.14000 9.57300 25.02900
C  41.52200 9.44200 26.49400
C  40.12600 7.38100 24.09000
C  41.04300 11.01400 24.40900
C  40.09500 11.94500 25.15300
N  42.23800 9.82400 29.38300
C  43.07000 10.30600 28.34600
C  44.18000 11.07800 28.93900
C  43.86700 11.10200 30.26800
C  42.70200 10.36500 30.51800
C  45.25300 11.76400 28.23300
C  44.33300 11.63300 31.52200
O  45.24900 12.38000 31.80400
C  43.18200 11.26300 32.58400
C  43.84200 10.56300 33.73100
O  44.57000 9.58600 33.62300
O  43.45400 11.09700 34.94600
C  43.69300 10.12300 36.14000
H  37.98000 6.67400 32.39400
H  37.89900 7.19200 26.13000
H  43.15200 10.74200 26.26500
H  41.30900 9.09800 34.49300
H  38.39900 9.05200 33.76700
H  38.49500 7.49400 35.33200
H  40.24700 7.20700 35.20400
H  39.11700 6.27600 34.22000
H  39.84700 11.44000 33.29600
H  41.14700 11.46700 34.48100
H  38.86700 10.23600 35.89100
H  38.29200 11.61000 35.13500
H  35.29100 5.14000 30.51600
H  36.35300 5.55600 31.82100
H  36.71400 4.09300 30.96400
H  34.76700 3.92900 27.04100
H  34.38700 5.00700 28.41400
H  35.58800 3.83400 28.78300
H  39.03600 9.12400 24.67800
H  42.01200 9.18200 24.50500
H  41.13600 7.13000 23.76500
H  39.36100 7.31700 23.31600
H  39.80800 6.50400 24.65400
H  40.67100 10.83600 23.40100
H  42.04400 11.44600 24.38400
H  39.67500 11.53000 26.06900
H  39.27100 12.09600 24.45600
H  40.50900 12.92800 25.37600
H  46.15100 11.16600 28.38900
H  45.46000 12.75600 28.63300
H  44.96600 11.91800 27.19300
H  42.79900 12.24800 32.85100
H  43.63100 9.08100 35.82800
H  42.87000 10.30000 36.83200
H  44.64200 10.34900 36.62700
Mg 48.09600 45.27000 42.86500
C  44.59200 45.26900 42.12400
C  48.26800 42.22500 41.37600
C  51.44800 45.81300 42.54900
C  47.70000 48.61100 43.88100
N  46.59400 43.94100 41.75400
C  45.25300 44.15800 41.65300
C  44.67600 43.05400 40.68600
C  45.72500 41.91300 40.76800
C  46.94200 42.67300 41.38400
C  45.36400 40.61500 41.47600
C  44.64500 43.69400 39.30000
C  43.25900 43.67400 38.55000
H  43.22300 43.47200 37.04900
N  49.69200 44.11000 42.25100
C  49.52400 42.83200 41.75100
C  50.85200 42.21500 41.68600
C  51.84900 43.24100 42.04100
C  51.02200 44.47500 42.28100
C  51.10200 40.70300 41.39300
C  53.31400 43.11000 42.09500
O  53.79200 42.05300 41.83900
C  54.33500 44.27100 42.28400
N  49.40900 47.18800 42.77300
C  50.72300 46.99100 42.82300
C  51.45100 48.29000 43.24200
C  50.24700 49.25700 43.65200
C  49.04200 48.24200 43.50800
C  52.44000 48.11300 44.40900
C  49.99000 50.60900 42.80600
C  49.38000 51.78000 43.56100
N  46.51000 46.65100 43.11700
C  46.49800 47.91800 43.65400
C  45.13200 48.30000 43.89300
C  44.42100 47.31600 43.18500
C  45.28300 46.35900 42.76300
C  44.70300 49.53600 44.75000
C  43.05500 46.99000 42.78700
O  41.98400 47.53000 43.02400
C  43.12500 45.70400 41.95100
C  42.09100 44.73700 42.54600
O  41.44400 43.95600 41.84700
O  42.15700 44.64200 43.87100
C  41.24900 43.72500 44.58600
H  48.47300 41.19300 41.08400
H  52.53600 45.89000 42.50800
H  47.63600 49.63200 44.26100
H  43.65800 42.86300 41.02500
H  46.06200 41.59200 39.78200
H  45.57600 39.76700 40.82400
H  44.30500 40.56900 41.73300
H  45.98800 40.72000 42.36300
H  45.28700 43.12500 38.62700
H  44.98300 44.72100 39.16200
H  42.63800 44.51700 38.85400
H  42.87000 42.78800 39.05000
H  51.91900 40.63800 40.67500
H  50.23400 40.28300 40.88500
H  51.34100 40.13000 42.28900
H  54.12900 44.86300 41.39300
H  55.36100 43.90500 42.24200
H  54.19700 44.81300 43.21900
H  51.86400 48.82200 42.38500
H  50.21600 49.46400 44.72100
H  53.27000 47.50200 44.05300
H  51.99100 47.43500 45.13400
H  52.85000 49.09100 44.66200
H  49.46100 50.40600 41.87400
H  51.01900 50.88400 42.57500
H  48.45100 52.20800 43.18500
H  50.08200 52.61100 43.63200
H  49.27300 51.53700 44.61800
H  45.22000 49.54900 45.71000
H  43.66000 49.35400 45.00600
H  44.99300 50.44500 44.22200
H  42.82500 45.85200 40.91300
H  40.30900 43.47700 44.09100
H  41.05000 44.25400 45.51800
H  41.64000 42.75800 44.90100

