158

Mg 48.65300 44.86400 43.14400
C  45.47400 44.89700 41.63000
C  48.61100 41.37800 42.47200
C  52.03300 44.86100 43.11200
C  48.64400 48.28600 43.46400
N  47.19600 43.36500 42.08700
C  45.92400 43.57900 41.72300
C  45.27600 42.29800 41.14100
C  46.11900 41.22100 41.85800
C  47.37700 41.99900 42.13200
C  45.44700 40.64200 43.12300
C  45.35800 42.30400 39.53300
C  44.37600 41.32500 38.85200
H  44.07100 41.37400 37.28800
N  50.07900 43.24500 42.97900
C  49.90400 41.94100 42.68700
C  51.10700 41.21100 42.81000
C  52.09000 42.21700 43.09300
C  51.43800 43.52200 43.05700
C  51.26700 39.76000 42.52500
C  53.49700 41.82100 43.39400
O  53.88000 40.60200 43.53000
C  54.55600 42.83400 43.78200
N  50.11900 46.34400 43.26400
C  51.47400 46.10600 43.28900
C  52.27100 47.38300 43.47400
C  51.17800 48.30100 44.06000
C  49.88100 47.64000 43.57700
C  53.58800 47.31400 44.23000
C  51.41100 49.84900 43.92900
C  51.44200 50.56100 45.32700
N  47.26200 46.34500 42.89500
C  47.36400 47.69000 43.08800
C  46.13400 48.32800 42.67800
C  45.36500 47.26500 42.05700
C  46.12000 46.05900 42.19000
C  45.89900 49.84100 42.78500
C  44.06000 46.97800 41.37300
O  43.16800 47.73800 40.97700
C  44.17500 45.41700 41.00700
C  43.04300 44.69500 41.51900
O  42.23200 44.18100 40.78500
O  42.89400 44.85800 42.86400
C  41.79600 44.14400 43.45200
H  48.34900 40.31900 42.45300
H  53.10100 44.84400 42.88300
H  48.51600 49.28900 43.87700
H  44.24400 42.16200 41.46300
H  46.31300 40.40400 41.16200
H  46.20700 40.52100 43.89500
H  45.15600 39.67400 42.71500
H  44.46400 41.00100 43.42800
H  46.38100 42.11300 39.20900
H  45.08400 43.30500 39.20100
H  43.38500 41.46100 39.28400
H  44.56700 40.29200 39.14300
H  51.15200 39.31100 43.51200
H  52.19500 39.52700 42.00300
H  50.44700 39.48900 41.86000
H  55.40800 42.33700 44.24600
H  54.23300 43.49600 44.58600
H  54.76600 43.40100 42.87500
H  52.58100 47.78500 42.51000
H  51.25700 47.94400 45.08700
H  53.62400 46.39200 44.81100
H  53.71600 48.16000 44.90500
H  54.45600 47.21800 43.57700
H  50.60400 50.20200 43.28700
H  52.32600 50.08500 43.38400
H  50.78000 51.42500 45.27200
H  52.42900 51.02200 45.36700
H  51.25600 49.87100 46.15000
H  46.45200 50.19900 43.65300
H  44.83500 50.00500 42.95500
H  46.30800 50.32700 41.89900
H  44.17800 45.40800 39.91700
H  40.81900 44.48500 43.11000
H  41.78000 44.34900 44.52200
H  41.83600 43.09200 43.16600
Mg 36.83500 49.54100 23.98800
C  36.92900 47.98500 27.24700
C  35.30100 52.23000 25.45100
C  35.75100 50.51500 20.95100
C  37.89100 46.52500 22.71300
N  36.17400 49.99600 26.12300
C  36.53500 49.33400 27.24500
C  36.21100 50.11900 28.49700
C  35.44300 51.42100 27.91000
C  35.65200 51.24100 26.40500
C  33.89700 51.65500 28.30800
C  37.39500 50.38800 29.32500
C  37.21400 49.97800 30.83300
H  35.79400 49.72800 31.43200
N  35.89500 51.25500 23.28100
C  35.31600 52.19200 24.03200
C  34.85100 53.27600 23.15100
C  34.93900 52.79900 21.85400
C  35.52200 51.44600 22.00900
C  34.15100 54.60600 23.64700
C  34.54400 53.34800 20.49100
O  34.75900 52.76100 19.46000
C  33.82700 54.64500 20.36700
N  36.65700 48.54900 22.21300
C  36.40800 49.27800 21.01600
C  36.68800 48.44800 19.79000
C  37.63500 47.38500 20.32900
C  37.38100 47.46500 21.82500
C  35.35900 47.78600 19.11700
C  39.15500 47.61400 20.06900
C  40.00600 46.31400 20.14100
N  37.29000 47.55600 24.81200
C  37.79900 46.51400 24.11600
C  38.06900 45.43000 25.03100
C  37.81200 45.97300 26.33000
C  37.27900 47.27200 26.09500
C  38.69800 44.03200 24.74600
C  37.74400 45.71900 27.73500
O  38.14300 44.72000 28.35100
C  37.07000 47.00400 28.42100
C  35.73100 46.53200 28.90900
O  34.61500 46.57600 28.40500
O  35.96100 45.84200 30.07500
C  34.83000 45.03600 30.54400
H  34.83000 53.10600 25.90100
H  35.53600 50.59200 19.88400
H  38.46600 45.61800 22.51500
H  35.51200 49.44700 28.99400
H  35.93400 52.33200 28.25200
H  33.58600 51.03500 29.14900
H  33.19000 51.55400 27.48500
H  33.84000 52.63700 28.77700
H  37.65000 51.44100 29.20400
H  38.20100 49.78000 28.91500
H  37.70700 50.71000 31.47200
H  37.84700 49.12200 31.06500
H  33.07200 54.53100 23.51500
H  34.37600 55.54800 23.14700
H  34.27000 54.70900 24.72500
H  33.24000 54.67800 19.44900
H  34.46100 55.52900 20.42900
H  33.14700 54.69900 21.21700
H  37.23000 49.11500 19.12000
H  37.32500 46.42400 19.91800
H  34.63400 47.42600 19.84700
H  35.66200 46.90200 18.55600
H  34.82200 48.47500 18.46500
H  39.34500 48.34400 20.85600
H  39.26400 48.09100 19.09500
H  39.38000 45.44100 20.32400
H  40.66300 46.45500 20.99900
H  40.63700 46.13800 19.27000
H  37.86000 43.43600 24.38200
H  39.21400 43.58800 25.59700
H  39.44600 44.19400 23.97000
H  37.58700 47.37000 29.30900
H  34.37400 44.50500 29.70800
H  34.16600 45.72400 31.06600
H  35.36300 44.27600 31.11600

