158

Mg 53.43100 24.58700 45.00200
C  50.76000 26.91700 44.22300
C  51.35400 22.05900 43.73600
C  56.01800 22.56500 44.60100
C  55.43800 27.24100 45.75800
N  51.37200 24.56000 44.16500
C  50.41900 25.57700 43.96300
C  49.10900 25.06900 43.30900
C  49.21000 23.61300 43.67500
C  50.76900 23.38400 43.85700
C  48.43500 23.16800 44.90700
C  49.01200 25.39600 41.79200
C  47.59200 25.13800 41.22100
H  47.39800 24.95200 39.73300
N  53.66700 22.53600 44.51800
C  52.70000 21.68400 44.02600
C  53.26500 20.35300 43.84200
C  54.58500 20.45300 44.24200
C  54.80400 21.87900 44.44900
C  52.38700 19.18500 43.35800
C  55.55100 19.26500 44.29100
O  55.17800 18.10900 44.09700
C  57.04400 19.35400 44.56400
N  55.48900 24.86400 45.21100
C  56.34400 23.85300 45.00400
C  57.77900 24.33200 45.32000
C  57.55100 25.80800 45.82200
C  56.06100 26.02500 45.44400
C  58.65700 23.48400 46.24600
C  58.57500 26.86900 45.23900
C  59.27300 27.80800 46.27400
N  53.24900 26.70300 45.07100
C  54.11700 27.60300 45.48200
C  53.35700 28.82800 45.71900
C  52.07600 28.61300 45.14100
C  52.04100 27.32500 44.75900
C  53.74500 30.16500 46.27000
C  50.76600 29.22500 44.86900
O  50.38900 30.36700 45.22300
C  49.91900 28.19500 44.10300
C  49.79200 28.69800 42.74700
O  50.73600 28.91200 42.01500
O  48.45800 28.77600 42.40300
C  48.19300 29.30400 41.05500
H  50.70700 21.21200 43.49700
H  56.92800 21.97900 44.45700
H  56.16200 27.94600 46.17200
H  48.23200 25.49800 43.79400
H  48.94500 22.94500 42.85600
H  48.02100 22.20800 44.60000
H  47.61300 23.87800 44.99900
H  49.03000 23.09200 45.81800
H  49.70700 24.73300 41.27600
H  49.17400 26.44600 41.55000
H  47.06100 26.05400 41.47900
H  47.14600 24.26500 41.69900
H  51.64700 19.46000 42.60600
H  51.65500 18.89700 44.11300
H  53.01700 18.40700 42.92800
H  57.42400 18.34300 44.71200
H  57.05600 19.92600 45.49200
H  57.49100 19.89000 43.72700
H  58.35800 24.31600 44.39600
H  57.68800 25.85400 46.90300
H  59.63200 23.44100 45.76100
H  58.28900 22.47000 46.40000
H  58.82200 24.00700 47.18800
H  58.07500 27.42900 44.44800
H  59.35000 26.24100 44.80000
H  60.33200 27.67700 46.05500
H  58.91500 27.72000 47.30000
H  58.91700 28.78100 45.93400
H  53.29000 30.21700 47.25900
H  53.45800 30.93800 45.55700
H  54.81500 30.27100 46.44900
H  48.91700 28.02700 44.49900
H  48.01400 30.36700 41.21100
H  47.21800 28.99700 40.67600
H  48.97800 29.15400 40.31400
Mg -4.40900 25.29700 26.06800
C  -2.83500 26.51900 28.96900
C  -6.21600 23.23900 27.82000
C  -5.43700 23.75200 23.16000
C  -2.09200 27.14500 24.10700
N  -4.43700 24.91400 28.17500
C  -3.81000 25.59100 29.18500
C  -4.43700 25.16900 30.50500
C  -5.32900 23.96700 30.12100
C  -5.30100 24.07600 28.59400
C  -4.82400 22.62500 30.72000
C  -5.30900 26.36000 31.11600
C  -5.32500 26.51000 32.64300
H  -4.74000 25.32400 33.46100
N  -5.89700 23.93600 25.59200
C  -6.55100 23.15200 26.47400
C  -7.48900 22.21700 25.80400
C  -7.25200 22.48200 24.37900
C  -6.14000 23.41100 24.29400
C  -8.58100 21.38400 26.44200
C  -7.91200 21.88500 23.14000
O  -7.54800 22.17400 21.99400
C  -9.09600 20.92900 23.28700
N  -3.81100 25.38800 23.94900
C  -4.39100 24.67000 22.97300
C  -3.70200 24.90400 21.58600
C  -2.78800 26.12200 21.93000
C  -2.93200 26.28200 23.42400
C  -2.98800 23.70700 20.93500
C  -3.07000 27.50300 21.14200
C  -1.77300 27.91400 20.31900
N  -2.76300 26.62300 26.46100
C  -2.00300 27.31000 25.57600
C  -0.98200 28.07600 26.28800
C  -1.26800 27.84900 27.65500
C  -2.40400 26.92800 27.67400
C  0.08300 28.91000 25.65600
C  -0.91300 28.19400 28.99900
O  -0.08700 28.99200 29.42400
C  -1.95700 27.40100 29.92600
C  -1.12500 26.62600 30.85100
O  -0.80600 25.48200 30.66100
O  -0.84900 27.27600 32.02400
C  -0.16700 26.53200 33.13200
H  -6.76100 22.53900 28.45700
H  -5.45200 23.14000 22.25600
H  -1.33600 27.64800 23.50100
H  -3.63700 24.87300 31.18300
H  -6.37500 24.16300 30.35700
H  -3.78400 22.55100 31.03500
H  -4.90200 21.84900 29.95800
H  -5.43200 22.40900 31.59900
H  -6.32100 26.44000 30.72100
H  -4.82800 27.28500 30.79800
H  -6.38700 26.58400 32.87700
H  -4.70100 27.35200 32.94500
H  -8.59800 21.62800 27.50500
H  -8.25900 20.36900 26.21200
H  -9.60400 21.60900 26.14000
H  -8.91300 20.20100 24.07800
H  -9.18600 20.51200 22.28300
H  -9.99400 21.51500 23.48200
H  -4.56500 25.31100 21.05900
H  -1.79500 25.69800 21.78000
H  -3.05700 22.87100 21.63100
H  -1.98600 24.04300 20.67000
H  -3.47500 23.57200 19.96900
H  -3.44000 28.27700 21.81400
H  -3.78700 27.32200 20.34000
H  -2.24400 27.95100 19.33600
H  -1.08400 27.07000 20.28500
H  -1.28300 28.77800 20.76800
H  -0.23600 29.51900 24.81000
H  1.00000 28.32800 25.56500
H  0.29400 29.62200 26.45300
H  -2.66200 28.04800 30.44700
H  0.90900 26.69400 33.19700
H  -0.30400 25.45100 33.09800
H  -0.62800 26.86300 34.06200

