158

Mg 41.26500 7.29100 29.36500
C  43.14800 8.46500 32.06800
C  39.04800 5.98400 31.61100
C  39.45100 6.21300 26.77300
C  43.96400 7.97700 27.24800
N  41.11600 7.19700 31.59700
C  41.86400 7.88700 32.46500
C  41.22500 7.97100 33.82700
C  40.22200 6.77200 33.73600
C  40.13900 6.58200 32.24200
C  40.67900 5.42400 34.42400
C  40.68000 9.31200 34.14300
C  40.58700 9.68000 35.59800
H  41.53300 10.72200 36.30200
N  39.52200 6.27100 29.22400
C  38.71500 5.83400 30.21600
C  37.55600 5.18400 29.57700
C  37.54800 5.39100 28.20900
C  38.91600 5.95600 28.02200
C  36.55300 4.42200 30.50200
C  36.49800 5.06700 27.24400
O  36.58800 5.04100 26.04200
C  35.11000 4.85400 27.81400
N  41.71800 6.91600 27.33500
C  40.72100 6.62600 26.48800
C  41.10500 6.79700 24.98400
C  42.49600 7.45800 25.08200
C  42.84400 7.38500 26.66800
C  40.98300 5.55200 24.07400
C  42.58400 8.94600 24.48500
C  42.13600 10.12800 25.42100
N  43.18100 8.12800 29.55800
C  44.15600 8.29900 28.62700
C  45.26000 9.01700 29.21400
C  44.87600 9.14300 30.57900
C  43.63400 8.55300 30.76700
C  46.40100 9.64500 28.51800
C  45.29600 9.74100 31.84200
O  46.27000 10.39400 32.16000
C  44.10300 9.33800 32.80000
C  44.61700 8.66000 34.00300
O  44.44700 7.44400 34.28400
O  45.44200 9.48800 34.78800
C  45.88500 8.82300 36.01600
H  38.28800 5.58000 32.28300
H  38.73100 5.96900 25.98900
H  44.66800 8.19300 26.44200
H  42.05600 7.79700 34.51000
H  39.26400 7.06700 34.16400
H  40.11900 5.16700 35.32300
H  41.75000 5.56000 34.57700
H  40.60400 4.56800 33.75500
H  39.68900 9.45800 33.71400
H  41.30400 9.99300 33.56400
H  40.56500 8.77700 36.20800
H  39.58200 10.09900 35.66200
H  37.09300 4.06200 31.37800
H  36.08400 3.55700 30.03300
H  35.78500 5.13000 30.81500
H  35.16800 3.83200 28.18700
H  34.39300 5.06600 27.02100
H  34.97200 5.53400 28.65600
H  40.42400 7.50600 24.51200
H  43.30000 6.90200 24.59900
H  40.22400 4.83300 24.38100
H  41.96300 5.07500 24.07000
H  40.73200 5.89300 23.06900
H  41.97700 8.85800 23.58400
H  43.49400 9.15500 23.92400
H  41.85000 9.84400 26.43400
H  41.30400 10.56400 24.86700
H  42.91100 10.89500 25.44200
H  46.26600 10.14300 27.55800
H  47.18900 8.89300 28.48200
H  46.90900 10.38500 29.13700
H  43.68600 10.28800 33.13500
H  45.05300 8.63900 36.69600
H  46.56600 9.52600 36.49700
H  46.46900 7.92400 35.82200
Mg 54.08400 24.52700 44.10200
C  51.05800 26.10600 43.40700
C  52.86400 21.56100 42.78100
C  57.30300 23.20100 43.99600
C  55.37300 27.60400 44.99000
N  52.30900 24.01100 43.05500
C  51.16600 24.76800 42.90700
C  50.08200 23.97200 42.08200
C  50.56500 22.51100 42.35300
C  51.99000 22.69900 42.80200
C  49.79800 21.69900 43.49500
C  49.86400 24.50900 40.62600
C  48.43900 24.55700 40.06400
H  48.03900 23.71900 38.79800
N  54.97300 22.62600 43.50800
C  54.24800 21.52800 43.15800
C  55.11900 20.42000 43.08200
C  56.41200 20.85000 43.46300
C  56.27700 22.30100 43.67100
C  54.66700 19.08900 42.58200
C  57.59400 19.90700 43.49300
O  57.40900 18.66900 43.23800
C  58.98700 20.38400 43.82200
N  56.09000 25.30100 44.40600
C  57.25400 24.59200 44.29300
C  58.43000 25.33700 44.72500
C  57.81800 26.79500 44.94100
C  56.31400 26.54400 44.81600
C  59.05000 24.81400 46.00400
C  58.43600 27.77300 43.94200
C  59.41100 28.74700 44.53900
N  53.40500 26.40300 44.30500
C  54.01200 27.52000 44.76000
C  53.06600 28.58200 44.90700
C  51.86200 28.03900 44.45000
C  52.13500 26.70500 44.01300
C  53.29200 29.87200 45.57100
C  50.42700 28.29800 44.23400
O  49.62300 29.23600 44.45900
C  49.91000 27.10500 43.53400
C  49.55600 27.60800 42.13900
O  50.32800 28.04800 41.29700
O  48.14800 27.80300 42.07200
C  47.77900 28.54600 40.81700
H  52.46400 20.60800 42.43100
H  58.27000 22.78800 44.29200
H  55.75900 28.56100 45.34800
H  49.19200 24.13300 42.69100
H  50.56800 21.98200 41.40000
H  48.96100 22.27400 43.89200
H  50.35200 21.35700 44.36900
H  49.51700 20.75500 43.02900
H  50.34000 23.82800 39.92100
H  50.31600 25.49100 40.48600
H  48.18400 25.59800 39.86400
H  47.65200 24.26400 40.75800
H  53.68500 19.05100 42.10900
H  54.65000 18.41300 43.43600
H  55.38400 18.71200 41.85300
H  59.29600 21.21500 43.18700
H  59.59400 19.48500 43.71700
H  58.95200 20.70200 44.86400
H  59.23300 25.38400 43.99000
H  57.95600 27.15600 45.96000
H  59.87200 25.43200 46.36400
H  59.53200 23.87200 45.74300
H  58.35900 24.67700 46.83600
H  57.61500 28.23800 43.39700
H  58.97400 27.38600 43.07600
H  60.41100 28.32000 44.61100
H  59.05300 28.92900 45.55200
H  59.34900 29.73900 44.09200
H  53.22500 29.55900 46.61300
H  52.37400 30.44000 45.41700
H  54.24500 30.30400 45.26800
H  49.14700 26.58300 44.11300
H  46.71100 28.39100 40.66300
H  48.29000 28.16100 39.93500
H  47.98700 29.59900 41.00600

