158

Mg 35.92700 3.13900 30.17400
C  33.53100 4.06600 32.58600
C  38.37200 3.59600 32.66200
C  38.23500 2.98300 27.79900
C  33.39400 3.21400 27.78500
N  35.93200 3.87100 32.34700
C  34.83200 4.00500 33.14900
C  35.17100 3.97600 34.60600
C  36.69800 4.17300 34.60500
C  37.04600 3.93200 33.11000
C  37.17200 5.49500 35.14000
C  34.67100 2.66100 35.28600
C  33.93500 2.79300 36.64000
H  34.22900 3.97300 37.55500
N  38.02600 3.23300 30.25700
C  38.80800 3.24100 31.35600
C  40.15000 2.93300 31.05200
C  40.16400 2.92600 29.59200
C  38.75400 3.03800 29.13900
C  41.13100 2.48100 32.09800
C  41.35900 2.68600 28.71800
O  41.29000 2.59400 27.49200
C  42.73700 2.61200 29.31400
N  35.86600 3.30400 28.07700
C  36.92300 3.05300 27.32700
C  36.49900 3.04500 25.79000
C  34.96400 3.04300 25.80000
C  34.70500 3.15200 27.30200
C  37.17800 4.24700 24.98700
C  34.30900 1.77300 25.16800
C  33.74000 2.07600 23.81600
N  33.88500 3.44300 30.16900
C  33.00200 3.46500 29.13400
C  31.71000 3.89900 29.63000
C  31.81800 4.02400 31.01300
C  33.18000 3.79300 31.28000
C  30.47000 4.13400 28.70200
C  31.13600 4.25500 32.24100
O  29.91400 4.44000 32.39800
C  32.20400 4.14100 33.36000
C  32.14900 5.38800 34.18800
O  32.60500 6.51300 33.91600
O  31.20600 5.19900 35.14900
C  30.96100 6.36100 35.91300
H  39.09800 3.67800 33.47400
H  39.03200 2.94600 27.05300
H  32.63200 3.38100 27.02100
H  34.63700 4.82600 35.03100
H  37.24200 3.42700 35.18300
H  37.71100 5.36500 36.07900
H  36.35100 6.18900 35.31700
H  37.65700 6.14300 34.41000
H  35.63300 2.15700 35.38500
H  34.09100 1.98000 34.66400
H  34.16900 1.88900 37.20200
H  32.88500 2.65200 36.38500
H  41.74100 3.32100 32.43200
H  41.82300 1.72800 31.72200
H  40.65300 1.94500 32.91800
H  42.92400 1.64600 29.78500
H  42.95800 3.34700 30.08800
H  43.52200 2.79500 28.58000
H  36.73000 2.17600 25.17400
H  34.65800 4.02600 25.44100
H  37.81400 4.71500 25.73800
H  36.47400 4.93700 24.52300
H  37.93700 3.80400 24.34200
H  33.53100 1.41600 25.84200
H  35.07600 1.01000 25.04000
H  32.67700 2.11000 24.05600
H  34.16500 1.36900 23.10400
H  34.05900 3.01900 23.37100
H  29.77700 3.29300 28.68500
H  30.85100 4.42600 27.72400
H  29.96900 5.01600 29.10200
H  31.93400 3.20400 33.84800
H  30.50500 7.17300 35.34600
H  31.83800 6.77400 36.41100
H  30.26800 6.33200 36.75400
Mg -11.09100 16.35400 40.77300
C  -7.56900 16.22400 40.89900
C  -10.75400 19.81100 40.56900
C  -14.31400 16.67600 40.10600
C  -11.05300 12.95400 40.23000
N  -9.28800 17.83400 40.50500
C  -7.97800 17.52300 40.65500
C  -7.07000 18.78200 40.66400
C  -8.18700 19.96600 40.82900
C  -9.47500 19.16400 40.62400
C  -8.11700 20.76600 42.23700
C  -6.39400 18.88400 39.23000
C  -4.89100 18.62200 39.04600
H  -4.38800 17.63000 38.03000
N  -12.41700 18.00700 40.53000
C  -12.05300 19.39900 40.43600
C  -13.26200 20.19900 40.29500
C  -14.39200 19.35700 40.14900
C  -13.78200 17.94000 40.21800
C  -13.18500 21.70100 40.04300
C  -15.90300 19.70900 39.92500
O  -16.28200 20.91100 39.84500
C  -16.92000 18.71400 39.88700
N  -12.44300 15.03900 40.12100
C  -13.76200 15.36300 40.06700
C  -14.64700 14.07900 39.95400
C  -13.63300 12.97000 39.78700
C  -12.27900 13.69200 40.00000
C  -15.74700 13.85200 41.05200
C  -13.66600 12.39200 38.37800
C  -13.62100 10.90200 38.08500
N  -9.62600 14.82700 40.73300
C  -9.77800 13.52000 40.61300
C  -8.52400 12.87100 40.94300
C  -7.57900 13.86200 41.13000
C  -8.34600 15.05900 40.89600
C  -8.22500 11.34900 40.94500
C  -6.18500 14.23100 41.41000
O  -5.14800 13.55200 41.52200
C  -6.15600 15.80300 41.34300
C  -5.61000 16.49800 42.60100
O  -4.46200 16.89500 42.72200
O  -6.59400 16.70900 43.56100
C  -6.15000 17.70600 44.57700
H  -10.68400 20.89400 40.69600
H  -15.38600 16.62800 39.90200
H  -11.03700 11.87100 40.09800
H  -6.25800 18.92100 41.37800
H  -8.02800 20.77400 40.11600
H  -7.44700 20.21200 42.89500
H  -9.01900 20.78700 42.84800
H  -7.84200 21.81800 42.16000
H  -6.65600 19.82600 38.74800
H  -6.98000 18.27300 38.54400
H  -4.49800 18.39500 40.03700
H  -4.45100 19.58100 38.77100
H  -12.18000 22.08900 39.88000
H  -13.74500 22.24700 40.80200
H  -13.61200 21.95200 39.07200
H  -16.86300 18.24900 38.90200
H  -17.84700 19.21700 40.16200
H  -16.66500 18.03100 40.69700
H  -15.07800 14.28300 38.97400
H  -13.62800 12.18900 40.54600
H  -15.74600 14.80300 41.58500
H  -15.64400 13.00300 41.72800
H  -16.72200 13.69200 40.59100
H  -12.88700 12.85500 37.77100
H  -14.55700 12.82700 37.92400
H  -13.39500 10.42600 39.03900
H  -12.86600 10.78400 37.30800
H  -14.58100 10.54700 37.71100
H  -9.14800 10.82800 40.69000
H  -7.82800 11.09600 41.92800
H  -7.45700 11.14900 40.19700
H  -5.44600 16.04500 40.55300
H  -6.89300 17.71500 45.37400
H  -6.08300 18.71600 44.17100
H  -5.15400 17.49700 44.96700

