158

Mg 36.29300 0.47700 30.03500
C  33.82900 1.71300 32.28800
C  38.45600 0.43100 32.57900
C  38.53400 -0.20500 27.69500
C  33.74900 0.64500 27.39600
N  36.20900 1.16900 32.18000
C  35.09100 1.57400 32.90200
C  35.36600 1.71700 34.37300
C  36.90500 1.62800 34.32000
C  37.25900 1.04700 32.95700
C  37.57600 2.94100 34.76200
C  34.74600 0.73100 35.38900
C  34.23400 1.24700 36.68900
H  34.83000 2.44700 37.26400
N  38.21400 0.11300 30.09100
C  38.95300 0.08400 31.29700
C  40.29900 -0.31400 30.96400
C  40.34200 -0.56900 29.54900
C  39.00500 -0.24400 29.05600
C  41.34700 -0.39600 31.99400
C  41.47700 -1.16700 28.75000
O  41.45000 -1.35000 27.52400
C  42.78800 -1.54000 29.37800
N  36.12900 0.32000 27.89700
C  37.24800 0.04600 27.10200
C  36.90000 -0.32500 25.64900
C  35.37300 0.07000 25.59600
C  35.07700 0.38700 27.03200
C  37.73500 0.39400 24.55400
C  34.34800 -0.90800 24.87700
C  33.44700 -1.95200 25.58600
N  34.27900 1.20500 29.75800
C  33.35200 1.12200 28.69200
C  32.10200 1.50900 29.12400
C  32.22900 1.83000 30.45400
C  33.58100 1.58400 30.83900
C  30.87100 1.62400 28.28800
C  31.47100 2.11800 31.70200
O  30.27600 2.35300 31.95100
C  32.52000 2.09900 32.85100
C  32.57900 3.41200 33.45700
O  33.09200 4.40500 32.91500
O  31.99900 3.34400 34.72700
C  31.91300 4.64100 35.36100
H  39.13100 0.39200 33.43600
H  39.32100 -0.49400 26.99400
H  33.04600 0.72700 26.56400
H  34.98400 2.71500 34.58600
H  37.17000 0.89700 35.08300
H  38.34200 3.18600 34.02600
H  38.16900 2.84500 35.67200
H  36.94600 3.83100 34.75500
H  35.34100 -0.14700 35.64200
H  33.83900 0.38400 34.89400
H  34.15200 0.41400 37.38800
H  33.21200 1.51600 36.42200
H  41.81800 -1.37700 31.92100
H  40.95800 -0.32700 33.01000
H  41.97400 0.44400 31.69600
H  43.52500 -1.86500 28.64300
H  42.63400 -2.33500 30.10700
H  43.25600 -0.73400 29.94200
H  36.80400 -1.41000 25.62300
H  35.22200 0.99000 25.03100
H  38.47100 -0.28300 24.12000
H  38.20500 1.28800 24.96400
H  37.08900 0.76000 23.75500
H  34.94700 -1.53300 24.21600
H  33.62900 -0.27900 24.35100
H  32.46000 -1.99700 25.12700
H  33.46300 -1.89600 26.67400
H  33.97000 -2.87300 25.32700
H  30.01800 1.39600 28.92700
H  30.90600 0.98300 27.40700
H  30.87100 2.61500 27.83500
H  32.31300 1.30500 33.56800
H  31.06900 5.28200 35.10800
H  32.86000 5.15600 35.19600
H  32.02900 4.52900 36.43900
Mg 41.68500 40.89400 26.74700
C  41.04300 43.11500 29.47700
C  42.41500 38.41200 28.96300
C  42.50000 38.92700 24.02100
C  40.93800 43.52900 24.57100
N  41.63000 40.82600 28.93600
C  41.33400 41.77200 29.86100
C  41.29600 41.24400 31.36300
C  41.92400 39.77900 31.12500
C  41.95700 39.64300 29.60300
C  43.21100 39.44800 31.93100
C  39.91100 41.35600 32.05300
C  39.93300 42.03000 33.43500
H  39.21700 41.41900 34.68300
N  42.40300 38.96100 26.53900
C  42.70000 38.10000 27.57800
C  43.13200 36.85300 26.99800
C  43.16000 37.00500 25.54000
C  42.64700 38.37100 25.30000
C  43.29000 35.58500 27.80700
C  43.53000 36.03100 24.44900
O  43.63800 36.33800 23.22600
C  43.90900 34.58900 24.91000
N  41.82000 41.14400 24.62300
C  42.10200 40.24100 23.66600
C  41.80600 40.68600 22.22500
C  40.95500 42.02500 22.48900
C  41.23400 42.27200 24.02100
C  43.10400 41.03400 21.38500
C  39.43000 41.82300 22.10500
C  38.66400 40.63900 22.82000
N  41.19400 42.97000 26.92300
C  40.96400 43.90300 25.92300
C  40.64600 45.24900 26.55900
C  40.69400 44.94700 27.98100
C  41.02600 43.60100 28.10500
C  40.33300 46.59900 25.90300
C  40.51100 45.56300 29.23600
O  40.32800 46.73600 29.54800
C  40.72200 44.38100 30.27700
C  41.70800 44.82600 31.25500
O  42.84800 45.22000 31.05000
O  41.12600 44.87500 32.47000
C  42.05300 45.32900 33.59400
H  42.76700 37.66800 29.68000
H  42.49100 38.30700 23.12200
H  40.52300 44.30500 23.92500
H  42.06600 41.72400 31.96700
H  41.25400 38.98000 31.44200
H  43.12200 38.56600 32.56500
H  43.49400 40.32000 32.52100
H  44.08000 39.41200 31.27400
H  39.44500 40.37100 32.05600
H  39.25200 41.95000 31.41900
H  39.49700 43.02900 33.44000
H  40.96300 42.20400 33.74800
H  42.73800 34.69200 27.51400
H  42.82000 35.82900 28.76000
H  44.35800 35.51000 28.01200
H  43.11400 33.98900 25.35300
H  44.73200 34.77000 25.60100
H  44.34300 34.07900 24.05000
H  41.18100 39.85000 21.91200
H  41.33100 42.80500 21.82600
H  43.90900 40.39300 21.74400
H  43.47500 42.05700 21.45000
H  42.92100 40.73800 20.35200
H  39.41300 41.58000 21.04200
H  38.89500 42.76700 22.20800
H  38.24700 41.09700 23.71700
H  39.34200 39.81900 23.05500
H  37.85700 40.13400 22.28800
H  41.24900 46.98000 25.45300
H  39.95200 47.25300 26.68700
H  39.61000 46.47700 25.09600
H  39.75900 44.26100 30.77300
H  43.13900 45.33900 33.49600
H  41.77700 44.70200 34.44200
H  41.85500 46.37900 33.80500

