158

Mg 47.84400 44.41600 43.69400
C  44.30500 43.90400 43.31200
C  48.26300 41.09400 43.07300
C  50.99400 45.07700 43.48500
C  47.09400 47.97100 43.48100
N  46.46400 42.76200 43.05400
C  45.12400 42.77500 43.14200
C  44.56800 41.34600 42.93500
C  45.85200 40.47500 42.81000
C  46.93100 41.53000 42.97800
C  45.93500 39.24500 43.79500
C  43.53800 41.24900 41.77700
C  44.01200 41.78300 40.46300
H  43.80800 41.07800 39.10300
N  49.40800 43.19100 43.47100
C  49.40200 41.87800 43.25200
C  50.77200 41.39800 43.19600
C  51.61700 42.52500 43.36600
C  50.69800 43.63100 43.46600
C  51.16600 39.97600 42.88700
C  53.12100 42.50000 43.39400
O  53.62100 41.38400 43.29600
C  53.97300 43.73600 43.69800
N  48.84700 46.31000 43.43500
C  50.22200 46.23600 43.44200
C  50.77600 47.63200 43.22600
C  49.50100 48.55800 43.17300
C  48.45600 47.54900 43.42000
C  51.58300 48.05800 44.52500
C  49.23400 49.43700 41.91800
C  49.12800 50.95400 42.03000
N  46.11700 45.73500 43.51700
C  45.96500 47.11700 43.42300
C  44.51900 47.48600 43.30800
C  43.86500 46.21500 43.32800
C  44.85700 45.23200 43.34100
C  43.87200 48.88400 43.31100
C  42.57100 45.63000 43.27900
O  41.44900 46.11600 43.17200
C  42.76500 44.07700 43.23400
C  42.00300 43.47100 44.34600
O  41.29400 42.46700 44.24700
O  42.30800 44.14600 45.50600
C  41.56300 43.46000 46.63000
H  48.45300 40.05300 42.80400
H  52.07100 45.25800 43.45900
H  47.11000 49.05200 43.32900
H  43.93300 41.21700 43.81100
H  46.00500 39.98800 41.84700
H  46.73900 39.52300 44.47700
H  46.21100 38.38300 43.18900
H  44.99000 39.21900 44.33800
H  42.58600 41.72800 42.00500
H  43.39000 40.17800 41.63600
H  45.04500 42.12800 40.51000
H  43.47500 42.73100 40.45700
H  51.82100 39.96000 42.01600
H  50.26400 39.38100 42.74200
H  51.76700 39.58200 43.70600
H  53.93700 44.43000 42.85800
H  54.98300 43.45600 43.99700
H  53.51500 44.20700 44.56700
H  51.48700 47.78500 42.41400
H  49.44900 49.23900 44.02300
H  51.25100 49.02100 44.91400
H  52.62100 48.20600 44.22600
H  51.55400 47.32000 45.32600
H  48.34900 49.08100 41.39000
H  50.09700 49.28100 41.27100
H  49.74400 51.40700 41.25300
H  49.49500 51.34600 42.97900
H  48.15100 51.40900 41.87200
H  44.01400 49.32300 42.32400
H  44.40400 49.41500 44.10000
H  42.83800 48.64400 43.56100
H  42.41900 43.80100 42.23700
H  41.70600 44.02400 47.55200
H  41.86300 42.44100 46.87100
H  40.50300 43.35300 46.39700
Mg -2.05000 33.97000 25.57300
C  -3.81800 32.49400 28.29200
C  -0.86200 36.34500 27.93500
C  -1.04700 35.88800 23.08900
C  -3.59700 31.80700 23.43600
N  -2.32800 34.37100 27.75800
C  -3.06900 33.56500 28.67100
C  -2.78900 33.96900 30.09000
C  -2.12700 35.40500 29.91800
C  -1.75600 35.36200 28.45700
C  -2.99900 36.61300 30.32800
C  -1.84800 32.93900 30.89300
C  -2.26800 32.31400 32.19900
H  -1.17700 31.83700 33.12500
N  -1.03800 35.83400 25.50500
C  -0.52500 36.58400 26.59500
C  0.26000 37.65200 26.02800
C  0.14500 37.53800 24.55100
C  -0.72300 36.41200 24.34200
C  1.15600 38.63000 26.84700
C  0.76600 38.43800 23.49600
O  0.52100 38.26800 22.29100
C  1.71800 39.49900 23.86900
N  -2.40900 33.92900 23.54600
C  -1.83300 34.83300 22.66900
C  -1.94700 34.30600 21.23400
C  -2.54800 32.92200 21.43900
C  -2.79300 32.81500 22.91800
C  -2.76600 35.11200 20.31400
C  -1.78000 31.67300 20.93800
C  -0.43700 31.33300 21.54900
N  -3.44400 32.47700 25.76400
C  -3.89800 31.60500 24.83400
C  -4.87400 30.72000 25.41500
C  -4.76900 31.00100 26.78300
C  -3.91800 32.05000 26.94500
C  -5.87500 29.87800 24.72500
C  -5.37000 30.64000 28.01800
O  -6.25700 29.84600 28.33200
C  -4.55200 31.45700 29.13400
C  -5.41300 32.12500 30.18000
O  -6.11200 33.10200 29.99900
O  -5.15300 31.49200 31.35500
C  -5.95600 31.91400 32.46100
H  -0.24100 36.96700 28.58200
H  -0.63700 36.48500 22.27200
H  -3.99500 31.09300 22.71100
H  -3.67100 34.19300 30.68900
H  -1.26600 35.45300 30.58500
H  -2.98600 37.38000 29.55400
H  -2.62000 37.04300 31.25500
H  -4.00000 36.26600 30.58300
H  -0.80300 33.21900 31.02900
H  -1.74200 32.05900 30.26000
H  -2.97500 31.49700 32.05000
H  -2.84800 33.05200 32.75300
H  2.16800 38.82800 26.49600
H  1.19400 38.29900 27.88500
H  0.66500 39.60100 26.92300
H  1.37700 40.34500 24.46400
H  1.98600 39.84400 22.87100
H  2.57200 38.98300 24.31000
H  -0.95300 34.27500 20.78800
H  -3.58200 32.87500 21.10000
H  -3.22000 35.90200 20.91300
H  -3.61900 34.61600 19.85000
H  -2.14300 35.57700 19.55000
H  -1.58700 31.90800 19.89200
H  -2.48400 30.84100 20.97800
H  0.39000 31.57300 20.88100
H  -0.37000 30.27200 21.79000
H  -0.23600 31.84600 22.48900
H  -5.77400 30.00400 23.64700
H  -6.88400 30.09700 25.07300
H  -5.67100 28.83700 24.97800
H  -3.75900 30.95400 29.68700
H  -6.99200 32.14300 32.21100
H  -5.47200 32.81300 32.84100
H  -5.98100 31.15000 33.23800

