158

Mg 25.99400 0.68300 29.85700
C  28.12500 0.37900 32.59700
C  23.33100 0.94800 32.01700
C  23.97000 0.34500 27.20300
C  28.76800 0.27300 27.79500
N  25.77700 0.42300 32.12200
C  26.81200 0.60200 32.97700
C  26.27800 0.86300 34.42800
C  24.74800 0.93600 34.16900
C  24.59100 0.83700 32.68800
C  23.90900 -0.11500 34.94300
C  26.86900 2.17700 35.08400
C  27.48100 1.96200 36.50100
H  26.94200 2.82600 37.63200
N  23.94800 0.68200 29.67200
C  22.99400 0.89600 30.67100
C  21.67300 0.90900 30.19700
C  21.83600 0.63200 28.75400
C  23.28800 0.52900 28.45900
C  20.43900 1.19600 30.92000
C  20.80900 0.48200 27.68600
O  21.11400 0.23200 26.56500
C  19.37700 0.76600 28.00300
N  26.37400 0.44700 27.83900
C  25.35100 0.33300 26.93900
C  25.84800 0.32100 25.48000
C  27.39700 0.27000 25.65300
C  27.54900 0.36800 27.16800
C  25.36200 -0.71100 24.48800
C  28.16200 1.37000 24.85200
C  29.29400 0.90400 23.96300
N  28.03500 0.24000 30.06700
C  29.05900 0.24600 29.11200
C  30.27800 -0.08700 29.73700
C  29.99800 0.04600 31.09200
C  28.61000 0.15900 31.29600
C  31.60500 -0.47500 29.05400
C  30.60700 0.08000 32.46200
O  31.74900 -0.13000 32.84600
C  29.35500 0.37300 33.49900
C  29.38100 -0.70000 34.57300
O  29.03600 -1.85100 34.36300
O  29.72400 -0.11800 35.77300
C  29.69200 -1.04700 36.91000
H  22.49100 1.14000 32.68800
H  23.34100 0.21500 26.32000
H  29.63000 0.00500 27.18100
H  26.57600 0.08100 35.12600
H  24.32000 1.83600 34.61200
H  24.43100 -1.01800 35.25900
H  23.05600 -0.45800 34.35600
H  23.56000 0.24700 35.91000
H  26.08000 2.91900 35.20500
H  27.66100 2.52200 34.42000
H  28.49700 2.34700 36.40400
H  27.43900 0.89400 36.71600
H  19.87200 2.07400 30.61200
H  20.66800 1.29700 31.98100
H  19.79100 0.32400 30.83400
H  18.98700 -0.03400 28.63300
H  18.78600 0.80100 27.08800
H  19.21000 1.68900 28.55800
H  25.47700 1.28300 25.12700
H  27.77300 -0.71000 25.35900
H  24.68700 -1.48100 24.86000
H  26.20900 -1.22300 24.03000
H  24.79700 -0.23100 23.68900
H  28.57100 2.09800 25.55300
H  27.57600 1.91900 24.11600
H  29.43200 -0.17700 23.91600
H  30.21300 1.41700 24.24700
H  29.23200 1.13400 22.89900
H  31.67200 -0.14000 28.01900
H  31.52100 -1.54800 28.88100
H  32.50000 -0.31800 29.65600
H  29.48000 1.27600 34.09600
H  29.72600 -2.12300 36.73800
H  28.82000 -0.79300 37.51200
H  30.60900 -0.96300 37.49200
Mg 35.37900 1.85600 30.06400
C  33.36100 2.99700 32.51900
C  38.05000 1.80500 32.30400
C  37.38500 1.21800 27.48800
C  32.62200 2.24300 27.78500
N  35.64100 2.34500 32.07500
C  34.67300 2.65500 32.94200
C  35.10400 2.47700 34.42100
C  36.65300 2.39000 34.26800
C  36.80600 2.24300 32.77900
C  37.55200 3.57300 34.90200
C  34.44100 1.30800 35.06700
C  34.19000 1.48800 36.59900
H  34.75900 2.72500 37.34500
N  37.48100 1.60200 29.88300
C  38.36300 1.53900 30.94700
C  39.68300 1.34900 30.37000
C  39.47000 1.10500 28.94800
C  38.07800 1.28000 28.63100
C  40.94000 1.62300 31.05900
C  40.50600 0.88300 27.90800
O  40.23500 0.69400 26.74400
C  41.98200 0.71200 28.13300
N  35.01000 1.74300 27.95900
C  36.04100 1.46000 27.17600
C  35.62100 1.41800 25.64800
C  34.09400 1.40600 25.79100
C  33.87800 1.86100 27.24400
C  36.18200 2.58900 24.76200
C  33.36700 0.05400 25.29700
C  32.95100 -0.01500 23.79500
N  33.34800 2.47600 30.05100
C  32.38000 2.61500 29.12000
C  31.22100 3.25200 29.72400
C  31.56900 3.43300 31.07800
C  32.87900 2.92700 31.20800
C  30.07500 3.67200 28.91300
C  31.14500 3.96200 32.29400
O  30.07400 4.49400 32.60900
C  32.26100 3.59700 33.35000
C  32.68500 4.75700 34.18500
O  33.33300 5.70600 33.79400
O  32.03200 4.62900 35.37600
C  32.09600 5.84300 36.21000
H  38.81600 1.69100 33.07300
H  38.06400 1.08200 26.64400
H  31.86300 2.35700 27.00800
H  34.87800 3.38100 34.98700
H  37.01200 1.48200 34.75200
H  36.95700 4.42900 35.22000
H  38.26200 3.94000 34.16000
H  38.23100 3.26300 35.69600
H  35.05600 0.40900 35.03300
H  33.46700 1.18500 34.59500
H  34.58900 0.56200 37.01400
H  33.13600 1.48400 36.87800
H  41.39600 0.66400 31.30500
H  40.72400 2.04000 32.04300
H  41.73300 2.27600 30.69500
H  42.20200 -0.18900 28.70600
H  42.27900 1.59800 28.69500
H  42.52800 0.63000 27.19300
H  35.89500 0.47800 25.16900
H  33.70000 2.10500 25.05400
H  36.68100 3.31000 25.41000
H  35.34500 3.11600 24.30300
H  36.85700 2.23400 23.98300
H  32.49700 -0.06200 25.94500
H  34.03300 -0.80900 25.30500
H  33.21400 0.92600 23.31100
H  31.89200 -0.24500 23.67800
H  33.56900 -0.76100 23.29600
H  29.32400 2.95000 28.59200
H  30.36300 4.16100 27.98200
H  29.65400 4.43100 29.57100
H  31.66400 2.98700 34.02900
H  32.60400 6.67300 35.72000
H  32.59200 5.50700 37.12100
H  31.06100 6.15300 36.35400

