158

Mg 24.44200 -6.29500 45.62400
C  26.46100 -3.62300 44.68100
C  21.90100 -4.90600 43.82600
C  22.67300 -9.10600 46.07500
C  27.08100 -7.55100 47.41300
N  24.26900 -4.47300 44.41500
C  25.24600 -3.60100 44.06900
C  24.62700 -2.43000 43.24800
C  23.09500 -2.81200 43.20400
C  23.07600 -4.18400 43.79400
C  22.16600 -1.81200 43.91800
C  25.34100 -2.11400 41.83000
C  24.78900 -0.97200 40.99000
H  24.10600 -1.27500 39.67200
N  22.56600 -6.89800 45.06200
C  21.66300 -6.16900 44.42300
C  20.44300 -6.95200 44.39600
C  20.66200 -8.17900 44.96700
C  22.05900 -8.08800 45.41900
C  19.28400 -6.42500 43.68400
C  19.52200 -9.27800 45.01000
O  18.40000 -9.08900 44.55300
C  19.92600 -10.70600 45.54300
N  24.97400 -8.17900 46.39600
C  24.01800 -9.14800 46.57600
C  24.59000 -10.38300 47.22400
C  25.83000 -9.79500 47.93700
C  25.96000 -8.41400 47.18500
C  23.59300 -11.13100 48.13000
C  27.08100 -10.57000 47.76400
C  28.10400 -10.36700 48.93800
N  26.39800 -5.74100 45.98700
C  27.36700 -6.32000 46.79600
C  28.52600 -5.41700 46.89500
C  28.28300 -4.37200 46.02000
C  26.93900 -4.64000 45.52400
C  29.74200 -5.65200 47.72900
C  28.74800 -3.05100 45.41300
O  29.79900 -2.45300 45.54500
C  27.60000 -2.64600 44.49000
C  27.20500 -1.17300 44.76900
O  26.34300 -0.80400 45.53100
O  27.91600 -0.41500 43.89200
C  27.49100 1.00400 43.79200
H  21.06900 -4.36200 43.37300
H  22.16700 -10.07000 46.15900
H  27.74300 -7.93900 48.18900
H  24.69600 -1.53500 43.86500
H  22.75900 -3.02000 42.18800
H  21.65400 -2.31300 44.73900
H  21.50500 -1.40600 43.15200
H  22.58900 -0.91000 44.36100
H  25.41300 -2.97000 41.15800
H  26.39600 -1.90800 42.00800
H  25.66300 -0.36900 40.74100
H  24.04700 -0.41900 41.56600
H  19.20900 -5.35300 43.50100
H  18.35300 -6.56900 44.23200
H  19.04300 -6.93800 42.75300
H  19.06100 -11.36500 45.46500
H  20.19000 -10.65200 46.60000
H  20.78000 -11.12700 45.01200
H  24.93900 -10.92900 46.34800
H  25.58900 -9.53100 48.96700
H  23.46900 -12.16200 47.79800
H  22.70400 -10.52100 48.28600
H  24.08800 -11.35100 49.07600
H  27.55300 -10.21200 46.84900
H  26.89700 -11.64100 47.68500
H  29.13000 -10.16400 48.62900
H  28.27800 -11.28300 49.50300
H  27.79600 -9.65900 49.70700
H  29.42700 -5.60700 48.77100
H  30.57400 -4.98000 47.51600
H  29.99800 -6.70700 47.63200
H  27.91700 -2.73500 43.45100
H  26.50200 1.09500 43.34200
H  28.17600 1.56900 43.16000
H  27.59200 1.33600 44.82600
Mg 36.19100 49.49100 25.60600
C  36.42600 47.53100 28.73100
C  35.05200 52.03700 27.42800
C  35.70700 50.99600 22.74800
C  36.85300 46.43900 23.94700
N  35.78500 49.66100 27.85300
C  36.04900 48.83600 28.93100
C  35.94900 49.58500 30.28400
C  35.33500 50.89300 29.78800
C  35.34300 50.92100 28.25200
C  33.86900 51.22700 30.22700
C  37.42100 49.76800 31.05500
C  37.56400 49.71900 32.59900
H  36.44500 49.95300 33.59100
N  35.47900 51.28100 25.09100
C  35.05800 52.22700 26.03300
C  34.78200 53.46300 25.32400
C  35.20500 53.26700 23.95900
C  35.50300 51.81800 23.87300
C  34.15800 54.58400 26.00000
C  35.26900 54.19400 22.69800
O  35.55600 53.71200 21.60400
C  35.04200 55.73200 22.81700
N  36.37500 48.79400 23.62600
C  35.97300 49.64000 22.58900
C  36.19600 48.91500 21.15200
C  36.80400 47.54100 21.61400
C  36.73500 47.59700 23.19800
C  34.87400 48.97800 20.25800
C  38.24200 47.20700 21.08100
C  38.34500 45.88100 20.24000
N  36.59200 47.40100 26.13100
C  36.81600 46.32500 25.38300
C  37.06800 45.12100 26.08000
C  36.97900 45.56300 27.45500
C  36.63200 46.94300 27.42600
C  37.47300 43.80400 25.60700
C  37.07100 45.20100 28.86700
O  37.38200 44.09000 29.40200
C  36.77900 46.44700 29.69700
C  35.75600 46.10100 30.70200
O  34.56000 46.08300 30.50900
O  36.36100 46.01800 31.91200
C  35.43300 46.05500 33.06600
H  34.93700 52.98100 27.96500
H  35.69200 51.42000 21.74200
H  37.05200 45.47500 23.47500
H  35.29100 49.06500 30.98100
H  35.88000 51.76500 30.15000
H  33.21600 51.48200 29.39200
H  33.94700 52.09800 30.87700
H  33.43100 50.41700 30.81100
H  37.87300 50.63200 30.56700
H  38.07900 49.03500 30.58900
H  38.42400 50.36900 32.76000
H  37.95100 48.73300 32.85800
H  33.67200 55.26400 25.30100
H  35.01000 55.05700 26.48700
H  33.49100 54.23800 26.79100
H  35.45700 55.99500 23.79000
H  33.96400 55.89100 22.85100
H  35.52900 56.19600 21.96000
H  36.99300 49.52000 20.72000
H  36.21300 46.75200 21.15000
H  34.44300 48.04300 19.89800
H  34.96500 49.53700 19.32700
H  34.16200 49.60900 20.79000
H  38.91500 47.16100 21.93700
H  38.55500 48.07700 20.50400
H  38.89000 46.13100 19.33000
H  37.39900 45.41300 19.96900
H  38.86700 45.18700 20.89900
H  36.60200 43.36500 25.12100
H  37.79600 43.24900 26.48800
H  38.27100 43.77300 24.86500
H  37.67600 46.75000 30.23800
H  35.05500 45.03500 33.12200
H  34.60700 46.74100 32.87800
H  35.88400 46.25100 34.03900

