158

Mg 24.64500 -4.99500 45.86000
C  26.63000 -2.72500 44.21200
C  21.97300 -4.02400 43.96400
C  22.88500 -7.86700 46.75200
C  27.28900 -6.09100 47.72100
N  24.36800 -3.55400 44.16000
C  25.33700 -2.67800 43.71900
C  24.71500 -1.76000 42.60400
C  23.16300 -1.93100 42.81000
C  23.16500 -3.22300 43.68900
C  22.41800 -0.65700 43.40700
C  25.12400 -2.06400 41.13700
C  25.48000 -0.88000 40.20700
H  26.46000 -1.11100 39.07700
N  22.71200 -5.82500 45.41100
C  21.70500 -5.22900 44.64600
C  20.48200 -6.05500 44.70300
C  20.74100 -7.22800 45.50500
C  22.16900 -7.01700 45.93700
C  19.21900 -5.60700 44.01800
C  19.70300 -8.16700 45.91700
O  18.57600 -8.03100 45.50100
C  19.97800 -9.26300 46.74300
N  24.99700 -6.79000 47.06700
C  24.17700 -7.80100 47.30800
C  24.82400 -8.82900 48.32500
C  26.09600 -8.07500 48.74000
C  26.15600 -6.88400 47.80400
C  23.92100 -9.26300 49.58000
C  27.35800 -9.05000 48.56700
C  28.44700 -8.97500 49.68400
N  26.57700 -4.51300 46.00500
C  27.55400 -5.07400 46.78100
C  28.76300 -4.37600 46.52500
C  28.49300 -3.45500 45.54100
C  27.11600 -3.57100 45.24100
C  30.05900 -4.81100 47.13800
C  29.04700 -2.42900 44.69700
O  30.20400 -2.05700 44.47300
C  27.83200 -1.94200 43.86600
C  27.64700 -0.52700 44.12600
O  26.74300 -0.03100 44.82100
O  28.40700 0.29000 43.32700
C  28.30200 1.79600 43.38200
H  21.09500 -3.68900 43.40800
H  22.56100 -8.88300 46.98500
H  28.15700 -6.30400 48.34900
H  24.97900 -0.72600 42.82500
H  22.47800 -2.23700 42.01900
H  21.69900 -0.34200 42.65100
H  23.07400 0.20900 43.49600
H  21.89600 -0.75800 44.35800
H  24.38100 -2.69600 40.65100
H  26.04900 -2.63800 41.07100
H  25.74900 -0.09600 40.91500
H  24.59900 -0.48300 39.70100
H  19.04300 -6.09300 43.05800
H  19.04000 -4.53200 44.00500
H  18.32100 -5.96500 44.52300
H  19.11000 -9.58200 47.32100
H  20.71100 -8.94100 47.48200
H  20.43300 -10.07700 46.18000
H  25.02800 -9.76400 47.80400
H  26.10500 -7.79100 49.79300
H  24.46800 -9.17500 50.51900
H  23.41000 -10.21200 49.41600
H  23.13400 -8.51500 49.66600
H  27.77400 -8.79800 47.59100
H  27.06200 -10.09600 48.49200
H  29.43300 -9.19700 49.27700
H  28.25300 -9.52600 50.60400
H  28.56600 -7.95500 50.05100
H  30.87200 -4.18500 46.77100
H  30.22100 -5.84800 46.84500
H  30.10000 -4.70100 48.22200
H  28.17400 -2.05300 42.83700
H  29.34600 2.09300 43.27700
H  27.78100 2.23300 44.23400
H  27.81000 2.15300 42.47800
Mg 47.10600 15.90100 28.60200
C  44.80500 15.77300 31.31500
C  49.12600 17.81500 30.74100
C  48.92800 16.71000 25.89700
C  44.53600 14.72000 26.52800
N  46.83700 16.89100 30.71600
C  45.95900 16.49300 31.66500
C  46.38600 16.85600 33.11900
C  47.58700 17.82300 32.75900
C  47.93600 17.46900 31.30100
C  47.36300 19.36500 32.86300
C  46.86400 15.55300 33.83200
C  46.63600 15.59800 35.36000
H  46.37900 16.98100 35.96700
N  48.87100 16.95700 28.38100
C  49.54700 17.72100 29.33500
C  50.77200 18.20700 28.79100
C  50.75900 17.88200 27.38000
C  49.56100 17.05200 27.13500
C  51.69900 19.13600 29.65500
C  51.67500 18.30600 26.28800
O  51.76100 17.76000 25.19900
C  52.80000 19.24400 26.63200
N  46.81200 15.59900 26.47300
C  47.69700 16.15400 25.58500
C  47.12400 15.97200 24.09400
C  45.79000 15.29700 24.30100
C  45.70200 15.09400 25.86600
C  47.04000 17.34300 23.46300
C  45.61900 14.00200 23.51100
C  46.20400 12.69300 23.98400
N  45.20100 15.15700 28.89200
C  44.29900 14.73200 27.91400
C  43.02900 14.39500 28.59800
C  43.21500 14.71500 29.94300
C  44.54500 15.22300 30.10400
C  41.74500 13.94700 28.02500
C  42.54100 14.84400 31.32900
O  41.39500 14.62800 31.65300
C  43.61500 15.49500 32.23200
C  43.06300 16.69500 32.92100
O  42.74700 17.76900 32.43200
O  42.96600 16.27500 34.31100
C  42.43600 17.33000 35.16000
H  49.82200 18.26000 31.45600
H  49.51400 16.96100 25.01000
H  43.67800 14.59500 25.86400
H  45.47700 17.25300 33.57200
H  48.46300 17.62500 33.37600
H  48.16500 19.95000 33.31200
H  46.42700 19.69300 33.31600
H  47.28200 19.75100 31.84700
H  47.94100 15.58200 33.67200
H  46.41000 14.63400 33.46200
H  47.54700 15.24500 35.84200
H  45.83600 14.92600 35.67200
H  52.64100 18.67200 29.94900
H  51.23800 19.25100 30.63600
H  51.95400 20.09900 29.21400
H  53.27900 19.07500 27.59600
H  52.39600 20.24800 26.50700
H  53.57300 18.93200 25.92900
H  47.87500 15.33300 23.62900
H  44.97500 15.99400 24.10800
H  45.99700 17.41000 23.15200
H  47.60900 17.44400 22.53900
H  47.40800 18.12900 24.12200
H  46.17900 14.16400 22.59000
H  44.61500 13.91700 23.09600
H  46.45900 12.01400 23.17100
H  45.42800 12.17100 24.54400
H  47.04300 12.86600 24.65900
H  41.72700 14.11000 26.94700
H  40.93300 14.46700 28.53200
H  41.68600 12.86700 28.15700
H  43.84200 14.65200 32.88500
H  42.92200 18.30200 35.07600
H  42.39100 16.93300 36.17400
H  41.42500 17.44300 34.76900

