158

Mg 24.42900 1.33800 29.19100
C  26.47900 0.88200 32.11700
C  21.86700 1.63600 31.33300
C  22.53100 1.35500 26.44900
C  27.25300 0.76400 27.21400
N  24.23800 1.22600 31.50000
C  25.17700 1.18500 32.47300
C  24.63200 1.55000 33.89300
C  23.10900 1.51600 33.62500
C  23.03900 1.43700 32.06900
C  22.22200 0.46900 34.16900
C  25.20300 2.81200 34.45800
C  26.13100 2.69100 35.61900
H  25.78500 3.54000 36.85200
N  22.49800 1.38600 28.89900
C  21.56900 1.59100 29.95900
C  20.27200 1.44300 29.30400
C  20.45100 1.26400 27.90600
C  21.83700 1.36100 27.67100
C  19.04100 1.37900 30.18300
C  19.34900 0.89300 26.88900
O  19.57700 0.69500 25.68800
C  17.93800 0.77700 27.30800
N  24.83600 0.98800 27.07600
C  23.87100 1.26100 26.14800
C  24.52800 1.30700 24.76500
C  26.05300 1.45400 25.07800
C  26.04900 1.06200 26.54500
C  24.15800 0.08600 23.86900
C  26.80800 2.72100 24.69800
C  26.91500 3.84200 25.73900
N  26.40100 0.71700 29.51200
C  27.40100 0.51000 28.57500
C  28.66100 0.28700 29.29800
C  28.30800 0.43500 30.66500
C  26.92700 0.69700 30.82100
C  29.94800 0.09500 28.73100
C  28.85400 0.56400 31.98000
O  30.01000 0.45800 32.34500
C  27.69800 0.93100 33.00100
C  27.68400 0.05000 34.19200
O  27.03300 -1.01200 34.21700
O  28.42300 0.47200 35.26700
C  28.13600 -0.40600 36.48100
H  21.08000 1.90400 32.04100
H  21.97200 1.39000 25.51200
H  28.14000 0.70000 26.58000
H  24.87200 0.72300 34.56100
H  22.78300 2.52300 33.88400
H  21.64200 0.09200 33.32700
H  21.43900 0.87300 34.81100
H  22.67300 -0.37600 34.69000
H  24.38200 3.46400 34.75400
H  25.72700 3.38200 33.69100
H  27.12500 3.04900 35.35000
H  26.17100 1.65200 35.94500
H  19.20500 1.29500 31.25700
H  18.34200 0.57000 29.97000
H  18.54900 2.30300 29.88200
H  17.98200 -0.16600 27.85400
H  17.17200 0.67300 26.53900
H  17.71700 1.57500 28.01600
H  24.17500 2.16700 24.19600
H  26.56800 0.64600 24.55700
H  23.25700 -0.34800 24.30300
H  24.99600 -0.61000 23.87800
H  24.07200 0.37100 22.82000
H  26.29500 3.15200 23.83800
H  27.81300 2.46200 24.36700
H  26.41500 3.45500 26.62700
H  26.36300 4.71600 25.39500
H  27.94700 4.07200 26.00600
H  30.46700 -0.68000 29.29700
H  30.52500 1.01900 28.69700
H  29.77500 -0.23800 27.70800
H  27.95900 1.97000 33.19800
H  27.17100 -0.17100 36.93100
H  28.84000 -0.19400 37.28600
H  28.21000 -1.46700 36.24000
Mg 50.00000 46.31800 42.92400
C  46.59700 46.82600 41.75900
C  49.82900 43.22800 41.61900
C  53.32300 46.18000 43.43500
C  50.06300 49.74400 43.65900
N  48.39600 45.17800 41.73000
C  47.16000 45.57100 41.37200
C  46.38100 44.31900 40.90200
C  47.26000 43.08500 41.20400
C  48.60400 43.81800 41.58000
C  46.70100 42.23700 42.30900
C  46.02300 44.52100 39.36200
C  44.53300 44.26500 39.05500
H  44.07900 44.74100 37.65000
N  51.35700 44.83800 42.80300
C  51.06700 43.58000 42.24900
C  52.30800 42.73500 42.29000
C  53.27700 43.56400 42.95700
C  52.71000 44.95800 43.04400
C  52.38400 41.31100 41.92100
C  54.73200 43.05400 43.27600
O  55.11900 41.95200 42.86600
C  55.70100 43.80200 44.08400
N  51.54900 47.74200 43.43300
C  52.86100 47.47400 43.58100
C  53.62000 48.67900 44.16700
C  52.55000 49.80400 44.22600
C  51.26600 49.07300 43.65900
C  54.29300 48.46500 45.53900
C  52.88800 51.06100 43.41600
C  54.11200 51.91000 43.76600
N  48.62600 47.97000 42.77700
C  48.78300 49.24000 43.24100
C  47.49100 49.91700 43.07500
C  46.63700 48.99100 42.50400
C  47.37200 47.88700 42.36500
C  47.34400 51.32200 43.59500
C  45.27100 48.73800 42.00600
O  44.27200 49.42400 41.84900
C  45.21600 47.25600 41.66100
C  44.44000 46.68400 42.89200
O  44.38200 47.15500 44.04100
O  43.75100 45.56800 42.56300
C  43.12900 44.82000 43.68800
H  49.90400 42.24900 41.14200
H  54.38400 45.93500 43.52100
H  50.16100 50.77900 43.99300
H  45.37100 44.26400 41.30800
H  47.47500 42.47200 40.32900
H  45.94100 42.73300 42.91300
H  47.56300 41.98600 42.92800
H  46.27200 41.28100 42.00800
H  46.61700 43.82900 38.76500
H  46.28000 45.54900 39.10600
H  43.83300 44.80200 39.69600
H  44.41500 43.18400 39.13300
H  53.33200 41.18100 41.40000
H  51.75000 41.01500 41.08500
H  52.17900 40.67400 42.78100
H  55.23000 44.14900 45.00300
H  56.05700 44.64300 43.48800
H  56.55100 43.21400 44.42900
H  54.37500 49.05900 43.47900
H  52.42700 50.11800 45.26200
H  54.09800 47.46300 45.92000
H  53.95000 49.23800 46.22500
H  55.36600 48.64600 45.46800
H  52.10300 51.78100 43.64500
H  52.96500 50.70700 42.38800
H  54.49800 51.49500 44.69800
H  53.77900 52.88000 44.13500
H  54.81600 51.96700 42.93600
H  47.54000 52.07800 42.83500
H  47.87800 51.57200 44.51200
H  46.29600 51.15500 43.84300
H  44.72600 46.99800 40.72200
H  43.05700 43.78100 43.36900
H  42.09600 45.09600 43.90000
H  43.69500 44.87500 44.61800

