158

Mg -1.80400 17.12300 27.07400
C  -2.68200 14.96000 29.81600
C  -2.37000 19.71200 29.23700
C  -1.75600 19.10000 24.38500
C  -1.54100 14.27300 25.06900
N  -2.31600 17.21800 29.28900
C  -2.64700 16.29100 30.19300
C  -3.03700 16.86500 31.50000
C  -2.93000 18.43000 31.28300
C  -2.52700 18.45300 29.81200
C  -4.18000 19.24400 31.76400
C  -2.26100 16.31500 32.78500
C  -2.19400 17.19700 33.92700
H  -1.53500 16.55400 35.17100
N  -1.92400 19.11600 26.85200
C  -2.16500 20.02300 27.88700
C  -2.16400 21.35000 27.32300
C  -2.04000 21.20200 25.87000
C  -1.94000 19.75400 25.64500
C  -2.41700 22.57800 28.14000
C  -2.07200 22.21100 24.84000
O  -2.09200 21.96500 23.63300
C  -2.09900 23.68600 25.23700
N  -1.78700 16.75100 24.97900
C  -1.65700 17.76000 24.12400
C  -1.34500 17.24000 22.64800
C  -0.95800 15.68300 22.97100
C  -1.35300 15.54500 24.44100
C  -2.48800 17.37700 21.62900
C  0.52200 15.38400 22.59800
C  1.60400 15.29900 23.68200
N  -2.14800 15.00200 27.31900
C  -1.91700 14.03800 26.39600
C  -2.21600 12.73500 27.03500
C  -2.58400 13.05900 28.34600
C  -2.38900 14.43100 28.49700
C  -2.29000 11.41800 26.29400
C  -3.04900 12.53200 29.61500
O  -3.31900 11.39000 29.96600
C  -2.96500 13.70600 30.68100
C  -1.85400 13.39200 31.59800
O  -0.66600 13.37600 31.29700
O  -2.37900 13.05800 32.79900
C  -1.35200 12.96800 33.85900
H  -2.57500 20.46500 30.00100
H  -1.70200 19.78500 23.53600
H  -1.54600 13.45300 24.34800
H  -4.09600 16.64000 31.61700
H  -2.10700 18.76900 31.91300
H  -3.98100 19.95400 32.56700
H  -4.98800 18.57900 32.06800
H  -4.53500 19.90500 30.97400
H  -1.28300 15.88100 32.57900
H  -2.92800 15.57000 33.22000
H  -3.17600 17.63500 34.10600
H  -1.47100 17.97200 33.67000
H  -2.47300 22.29200 29.19000
H  -3.33100 23.06100 27.79300
H  -1.62100 23.31900 28.07200
H  -3.04900 23.95100 25.70200
H  -2.16000 24.33900 24.36700
H  -1.31300 24.01900 25.91500
H  -0.52400 17.83700 22.25200
H  -1.66900 14.99400 22.51500
H  -2.30600 16.53300 20.96400
H  -2.25500 18.33800 21.17000
H  -3.46600 17.34700 22.10900
H  0.92400 16.19800 21.99600
H  0.66400 14.48000 22.00600
H  1.14800 15.58300 24.63000
H  2.31300 16.10100 23.47400
H  2.10600 14.33400 23.62100
H  -1.65000 11.51300 25.41700
H  -3.27600 11.28700 25.84900
H  -1.93200 10.72000 27.05100
H  -3.90800 13.85700 31.20600
H  -0.88900 11.98100 33.85000
H  -1.78000 13.24700 34.82200
H  -0.54700 13.70300 33.88200
Mg -1.14800 34.25000 27.37100
C  -3.01000 32.20500 29.44700
C  0.16700 35.76000 30.08900
C  0.50500 36.25400 25.25600
C  -2.61600 32.60800 24.52500
N  -1.46000 34.13000 29.50100
C  -2.20000 33.12800 30.11800
C  -2.09200 33.21600 31.63000
C  -1.13600 34.51100 31.83800
C  -0.82800 34.84200 30.40600
C  -1.70500 35.76700 32.58500
C  -1.50100 31.91000 32.32400
C  -2.40300 31.27100 33.36600
H  -1.73500 31.28300 34.77700
N  0.14500 35.82000 27.68100
C  0.60600 36.25900 28.88200
C  1.60200 37.31100 28.61000
C  1.66200 37.56400 27.22400
C  0.76300 36.47300 26.69400
C  2.28800 37.98200 29.76500
C  2.49600 38.48000 26.46100
O  2.47400 38.58500 25.23600
C  3.37900 39.48100 27.20700
N  -1.07600 34.46500 25.21100
C  -0.27800 35.37600 24.58100
C  -0.53600 35.45900 23.03500
C  -1.34200 34.15000 22.79000
C  -1.71200 33.66500 24.24400
C  -1.23600 36.72800 22.63100
C  -0.62900 33.04300 21.97000
C  -1.53000 32.39400 20.91000
N  -2.62500 32.70400 26.99000
C  -3.11400 32.20200 25.83100
C  -4.06000 31.18200 26.20500
C  -3.99500 31.10000 27.63000
C  -3.16400 32.10800 28.06200
C  -4.71600 30.30300 25.28400
C  -4.38900 30.34600 28.79300
O  -5.12300 29.31900 28.86500
C  -3.84400 31.07100 30.02900
C  -5.04800 31.60900 30.82000
O  -5.87200 32.44000 30.40900
O  -5.15100 30.87000 31.96300
C  -6.32000 31.07400 32.85400
H  0.50600 36.08000 31.07600
H  0.96800 37.04700 24.66400
H  -3.15700 32.13100 23.70500
H  -3.04000 33.50100 32.08600
H  -0.22300 34.15100 32.31200
H  -1.89200 36.60700 31.91600
H  -1.03400 36.04900 33.39700
H  -2.62000 35.46900 33.09700
H  -0.52200 32.15200 32.73800
H  -1.30100 31.17800 31.54100
H  -2.40800 30.23800 33.01700
H  -3.40200 31.68500 33.22500
H  1.87700 37.70600 30.73600
H  2.05600 39.04200 29.66500
H  3.37200 37.88000 29.71300
H  3.72800 40.13300 26.40600
H  4.24300 38.96200 27.62200
H  2.75600 40.05900 27.88800
H  0.46400 35.40700 22.60300
H  -2.30600 34.37800 22.33600
H  -0.53700 37.51000 22.92800
H  -2.03600 36.93000 23.34300
H  -1.45300 36.61700 21.56800
H  -0.25700 32.33200 22.70900
H  0.24100 33.41200 21.42700
H  -1.00000 32.53500 19.96800
H  -2.56400 32.73500 20.94700
H  -1.59400 31.30800 20.97900
H  -4.09100 30.33500 24.39100
H  -5.68200 30.61800 24.89000
H  -4.79300 29.32100 25.75100
H  -3.24700 30.37900 30.62200
H  -7.03900 31.84300 32.56900
H  -5.87100 31.52100 33.74100
H  -6.67500 30.10300 33.19800

