158

Mg 6.06800 54.24500 40.58300
C  5.23700 50.88100 40.29000
C  9.43100 53.42800 39.93800
C  6.73900 57.45400 40.12000
C  2.69300 54.96500 40.87000
N  7.09200 52.43600 40.01800
C  6.56800 51.12900 39.89600
C  7.68900 50.14300 39.62200
C  9.05400 50.94500 39.78900
C  8.49400 52.35700 39.98100
C  10.01600 50.48500 40.92700
C  7.53500 49.26000 38.35200
C  7.54800 50.03200 36.93900
H  6.55500 49.57200 35.86500
N  7.89100 55.25600 40.24000
C  9.12000 54.77200 39.97000
C  10.02000 55.88700 39.83600
C  9.35600 57.12200 40.10600
C  7.93500 56.66800 40.18000
C  11.56300 55.44900 39.50700
C  9.97000 58.52600 40.19300
O  11.21000 58.67300 39.97200
C  9.15800 59.71600 40.53800
N  4.88600 55.89600 40.35100
C  5.41600 57.14800 40.22500
C  4.30400 58.23000 40.13300
C  3.06700 57.43300 40.46200
C  3.56200 56.00500 40.58900
C  4.49500 59.44000 41.08600
C  1.87800 57.74600 39.46200
C  0.52400 58.25600 40.07400
N  4.23100 53.18700 40.65100
C  2.91500 53.62600 40.84700
C  2.09700 52.48800 41.06700
C  2.99300 51.41500 40.85700
C  4.25300 51.83900 40.62300
C  0.59200 52.34900 41.35400
C  2.92600 49.94200 40.79200
O  1.99500 49.11400 40.86600
C  4.47100 49.53200 40.50700
C  4.36500 48.56200 39.40200
O  3.90100 48.67000 38.26500
O  4.73500 47.36300 39.97400
C  4.42500 46.11600 39.25700
H  10.42700 52.99000 39.84300
H  6.97500 58.51000 39.97300
H  1.68100 55.25800 41.15800
H  7.71800 49.45200 40.46500
H  9.53000 50.84100 38.81400
H  10.93400 50.04600 40.53700
H  9.65700 49.72400 41.62000
H  10.27800 51.41700 41.42900
H  6.78000 48.47600 38.40600
H  8.46600 48.69900 38.42100
H  8.55700 49.89900 36.55000
H  7.43800 51.10400 37.10600
H  12.08300 55.03800 40.37200
H  12.23800 56.20400 39.10300
H  11.47600 54.65500 38.76600
H  8.63000 60.10200 39.66600
H  9.87700 60.46500 40.86800
H  8.46900 59.48700 41.35100
H  4.40100 58.55400 39.09700
H  2.61700 57.75400 41.40100
H  5.12500 60.19600 40.61700
H  5.02900 59.06800 41.96000
H  3.55600 59.94400 41.31400
H  1.66900 56.85200 38.87300
H  2.15900 58.51600 38.74300
H  -0.23600 57.48600 39.93500
H  0.12800 59.18100 39.65500
H  0.63800 58.45300 41.14000
H  -0.10100 53.08500 40.94600
H  0.47400 52.31200 42.43700
H  0.32600 51.45200 40.79500
H  4.75800 49.00300 41.41500
H  4.65200 45.18600 39.77800
H  4.81700 46.24600 38.24800
H  3.34300 46.03100 39.15700
Mg -6.15800 25.24700 25.82700
C  -4.44900 26.52500 28.66300
C  -7.50900 22.94600 27.87600
C  -7.51500 23.72800 23.05500
C  -4.26000 27.31900 23.88000
N  -6.08100 24.90300 27.96600
C  -5.29900 25.50900 28.93600
C  -5.83500 25.18600 30.36700
C  -6.58400 23.87600 30.07800
C  -6.74800 23.89400 28.52500
C  -5.95000 22.55900 30.55200
C  -6.69300 26.37300 30.93300
C  -6.46400 26.71500 32.45500
H  -6.12800 25.68300 33.42100
N  -7.42600 23.64800 25.51200
C  -7.82900 22.79600 26.51500
C  -8.83300 21.84900 25.97900
C  -8.79000 21.99800 24.52500
C  -7.95200 23.19700 24.26900
C  -9.71500 21.04100 26.94100
C  -9.46900 21.15000 23.38900
O  -9.32800 21.42300 22.17500
C  -10.24400 20.02800 23.81600
N  -5.91300 25.44800 23.83700
C  -6.56800 24.74200 22.87100
C  -6.16500 25.31000 21.41900
C  -5.24100 26.50700 21.71800
C  -5.07600 26.36400 23.20500
C  -5.51800 24.30800 20.45200
C  -5.76800 27.95300 21.36700
C  -4.75300 28.71900 20.51800
N  -4.58500 26.65600 26.11800
C  -3.93500 27.46400 25.24300
C  -3.10700 28.33200 25.99000
C  -3.26300 28.05700 27.34200
C  -4.18200 27.01100 27.37200
C  -2.13300 29.32200 25.26800
C  -2.84800 28.39600 28.71800
O  -2.21300 29.34400 29.19000
C  -3.68300 27.49600 29.63000
C  -2.73100 26.92400 30.51100
O  -2.22300 25.87500 30.27500
O  -2.54400 27.67700 31.65200
C  -1.72400 27.08800 32.61800
H  -7.92400 22.22300 28.58200
H  -7.91400 23.30600 22.13000
H  -3.71600 28.04300 23.27000
H  -5.03700 24.95300 31.07300
H  -7.59700 23.89200 30.48000
H  -6.64700 22.06900 31.23300
H  -5.03900 22.63700 31.14600
H  -5.71100 21.93700 29.68900
H  -7.73700 26.08300 30.82400
H  -6.50900 27.31000 30.40700
H  -7.35900 27.21000 32.83400
H  -5.75400 27.54100 32.41000
H  -9.18100 20.14200 27.25200
H  -10.61600 20.70300 26.43000
H  -9.96900 21.58700 27.85000
H  -11.10800 20.47000 24.31400
H  -9.69600 19.44100 24.55300
H  -10.50000 19.29300 23.05300
H  -7.03200 25.64400 20.84900
H  -4.30300 26.27300 21.21400
H  -6.06900 23.39900 20.20800
H  -4.60800 23.81300 20.79400
H  -5.33100 24.78000 19.48800
H  -6.07300 28.48200 22.27000
H  -6.73200 27.89400 20.86200
H  -4.57400 29.69600 20.96600
H  -5.12600 29.09900 19.56600
H  -3.77000 28.25800 20.42000
H  -2.78900 30.07300 24.82900
H  -1.62700 28.85300 24.42400
H  -1.35200 29.69100 25.93300
H  -4.36700 28.18100 30.13200
H  -0.70900 26.81600 32.32900
H  -2.25300 26.37400 33.25100
H  -1.59300 27.91800 33.31200

