158

Mg 8.52100 2.41100 27.95000
C  10.10100 1.18900 30.85200
C  6.42100 4.28500 29.87300
C  7.19300 3.70600 25.15800
C  10.61700 0.29100 26.05700
N  8.38700 2.66800 30.13800
C  9.08800 2.10500 31.11800
C  8.69100 2.61300 32.49300
C  7.44600 3.49600 32.07900
C  7.35300 3.51400 30.63300
C  6.12900 3.22400 32.89100
C  9.76800 3.44800 33.23400
C  9.30900 4.13300 34.60300
H  10.04300 3.64600 35.92200
N  6.96100 3.80900 27.58200
C  6.27100 4.49600 28.49300
C  5.26400 5.25500 27.84200
C  5.46300 5.08300 26.45300
C  6.67700 4.24400 26.33800
C  4.13500 5.96100 28.54300
C  4.71800 5.68300 25.29300
O  5.01200 5.49500 24.12800
C  3.61500 6.62800 25.57600
N  8.83100 2.00700 25.96400
C  8.21500 2.79900 25.01900
C  8.66500 2.34500 23.58200
C  9.83700 1.43000 23.91200
C  9.67200 1.13100 25.38200
C  7.50200 1.63300 22.76400
C  11.21200 2.06100 23.53700
C  11.67600 3.20600 24.44000
N  10.00300 0.89200 28.37500
C  10.73900 0.13900 27.47400
C  11.62000 -0.66700 28.23400
C  11.44100 -0.31900 29.57200
C  10.44600 0.68600 29.60600
C  12.56700 -1.62100 27.63600
C  11.82100 -0.56000 30.94600
O  12.52900 -1.43300 31.38300
C  10.95900 0.49600 31.84200
C  10.21700 -0.27600 32.91000
O  9.40400 -1.15400 32.77400
O  10.78400 0.03300 34.09400
C  10.22400 -0.74200 35.24600
H  5.79000 4.99400 30.41100
H  6.99500 4.10200 24.16000
H  11.35800 -0.29000 25.50400
H  8.46900 1.72200 33.08100
H  7.61200 4.53700 32.35800
H  5.74200 4.11900 33.37800
H  6.44600 2.54800 33.68500
H  5.30400 2.78900 32.32700
H  10.10800 4.11200 32.43900
H  10.65100 2.85000 33.45900
H  8.22400 4.05100 34.67300
H  9.43500 5.20600 34.45600
H  4.36900 7.02400 28.50100
H  3.99000 5.61400 29.56600
H  3.19200 5.83400 28.01100
H  4.04900 7.33800 26.28000
H  2.64400 6.28300 25.92900
H  3.54700 7.14600 24.62000
H  9.00100 3.25200 23.08000
H  9.64600 0.48700 23.40000
H  7.34000 2.14800 21.81600
H  6.54900 1.80200 23.26600
H  7.51100 0.55500 22.60700
H  11.15100 2.57500 22.57800
H  11.98000 1.29400 23.43900
H  11.45600 4.18700 24.02000
H  12.73200 3.10700 24.69100
H  11.24300 3.17000 25.44000
H  12.97500 -1.35100 26.66200
H  12.08200 -2.59300 27.55300
H  13.36300 -1.57000 28.37900
H  11.61100 1.23600 32.30400
H  9.36600 -1.34300 34.94500
H  9.93200 0.02100 35.96800
H  11.02900 -1.36500 35.63700
Mg -1.20700 34.87000 27.47300
C  -2.89400 33.09800 29.95900
C  -0.05400 37.07500 29.81300
C  -0.12200 36.88100 24.97300
C  -2.52200 32.67300 25.06300
N  -1.57500 35.08900 29.71200
C  -2.17800 34.19500 30.52200
C  -2.06600 34.67000 32.00500
C  -1.30800 36.01300 31.82600
C  -0.87900 36.06000 30.38700
C  -2.12800 37.29400 32.31300
C  -1.32200 33.61900 32.91600
C  -1.92700 33.44700 34.31600
H  -0.97600 33.43300 35.46100
N  -0.07500 36.57800 27.43100
C  0.29500 37.32900 28.50200
C  1.10800 38.43300 28.04300
C  1.01400 38.51500 26.65100
C  0.30600 37.27100 26.28200
C  1.85300 39.36500 29.02400
C  1.70200 39.44300 25.62900
O  1.40300 39.44300 24.44400
C  2.96800 40.23700 25.98100
N  -1.27300 34.76400 25.35900
C  -0.82900 35.78000 24.49500
C  -1.34300 35.62600 23.10900
C  -1.77700 34.13900 23.16000
C  -1.89200 33.85000 24.60100
C  -2.56300 36.57400 22.87400
C  -0.98000 33.12900 22.31800
C  0.31700 32.55800 22.82800
N  -2.45900 33.27100 27.42600
C  -2.82400 32.40100 26.40700
C  -3.71900 31.41000 26.92200
C  -3.70400 31.51300 28.31900
C  -3.02000 32.74700 28.60100
C  -4.38500 30.35700 25.98800
C  -4.09300 30.94400 29.62200
O  -4.73100 29.89300 29.85100
C  -3.66800 31.95700 30.76900
C  -4.82400 32.41300 31.51000
O  -5.76600 33.09200 31.08500
O  -4.67800 31.99700 32.81100
C  -5.81500 32.42300 33.66200
H  0.30100 37.73100 30.61100
H  0.14700 37.59200 24.19000
H  -2.77900 31.98100 24.25900
H  -3.09800 34.77600 32.34000
H  -0.33600 36.04800 32.31800
H  -1.40900 37.99800 32.73200
H  -2.83400 37.05900 33.10900
H  -2.72400 37.72200 31.50700
H  -0.40300 34.14500 33.17400
H  -1.26900 32.68300 32.36000
H  -2.39200 32.46100 34.30400
H  -2.81500 34.07600 34.37500
H  2.93200 39.21700 29.07900
H  1.54400 39.08500 30.03100
H  1.58500 40.37100 28.70100
H  2.71500 40.90300 26.80500
H  3.32000 40.92300 25.21100
H  3.86500 39.71300 26.31300
H  -0.59800 35.85300 22.34700
H  -2.80800 34.01600 22.82600
H  -2.50000 37.42000 23.55900
H  -3.55300 36.11900 22.87900
H  -2.59600 37.03700 21.88800
H  -0.77300 33.55100 21.33400
H  -1.66300 32.29800 22.14300
H  0.76700 33.18700 23.59600
H  0.94000 32.47100 21.93800
H  0.06700 31.56300 23.19600
H  -4.50400 29.43600 26.55900
H  -3.76900 30.04300 25.14500
H  -5.32500 30.65800 25.52500
H  -2.93400 31.41500 31.36500
H  -6.58400 33.08200 33.26000
H  -5.37800 32.73200 34.61200
H  -6.33900 31.54300 34.03600

