158

Mg -2.23200 17.87400 27.34500
C  -2.61500 15.56900 30.17200
C  -2.33300 20.25300 29.61300
C  -2.24600 19.78800 24.80200
C  -2.96100 15.01300 25.26700
N  -2.62000 17.88500 29.62600
C  -2.52900 16.90700 30.59100
C  -2.52500 17.48900 32.03300
C  -2.83800 18.96500 31.71100
C  -2.63600 19.04600 30.17000
C  -4.19800 19.53300 32.03700
C  -1.20800 17.19900 32.83100
C  -0.87300 18.11300 34.02600
H  -0.60300 17.43700 35.35200
N  -2.09500 19.78100 27.26200
C  -2.07500 20.64300 28.27300
C  -1.84000 21.93200 27.68700
C  -1.62300 21.78500 26.26200
C  -2.01700 20.39100 26.08000
C  -1.95300 23.21000 28.51500
C  -1.31900 22.80100 25.20700
O  -1.22200 22.55900 24.01900
C  -0.99800 24.23300 25.66600
N  -2.46900 17.40100 25.36500
C  -2.50600 18.46100 24.48300
C  -2.83100 17.94800 23.02800
C  -2.98900 16.48200 23.24600
C  -2.78000 16.29900 24.71700
C  -3.92400 18.69800 22.41100
C  -2.12300 15.59100 22.32700
C  -0.65000 15.43200 22.67200
N  -2.67300 15.68900 27.56600
C  -2.94100 14.70900 26.65700
C  -2.90700 13.43200 27.28600
C  -2.91600 13.72300 28.64400
C  -2.77000 15.12000 28.83600
C  -2.80800 12.11400 26.65400
C  -2.90000 13.15800 29.98800
O  -2.89700 11.92200 30.25900
C  -2.81100 14.38900 30.99500
C  -1.70000 14.07100 31.91800
O  -0.51400 14.18400 31.72700
O  -2.29800 13.45700 33.07800
C  -1.34600 13.32600 34.19000
H  -2.11100 21.11500 30.24600
H  -2.24800 20.56300 24.03300
H  -3.21900 14.14400 24.65800
H  -3.32900 16.94700 32.53000
H  -2.30100 19.75500 32.23600
H  -4.91800 19.61100 31.22200
H  -4.24600 20.40600 32.68800
H  -4.63900 18.74100 32.64200
H  -0.37700 17.21600 32.12600
H  -1.47400 16.23900 33.27400
H  -1.74600 18.75600 34.14200
H  -0.01000 18.73700 33.79300
H  -2.29300 23.05000 29.53800
H  -2.57100 23.93400 27.98400
H  -1.02200 23.77500 28.46800
H  -0.34100 24.19500 26.53500
H  -1.95200 24.74600 25.78900
H  -0.57200 24.74500 24.80300
H  -1.94900 18.12600 22.41300
H  -4.03100 16.16600 23.19200
H  -3.71000 19.76700 22.41200
H  -4.97000 18.56000 22.68400
H  -3.92500 18.59600 21.32600
H  -2.13300 15.99200 21.31300
H  -2.69000 14.66200 22.27400
H  -0.42000 15.83300 23.65900
H  -0.06800 15.95000 21.91000
H  -0.27000 14.41200 22.71900
H  -2.20500 11.50300 27.32600
H  -2.37600 12.15500 25.65400
H  -3.82000 11.73800 26.50200
H  -3.81700 14.51900 31.39500
H  -1.89800 13.37300 35.12800
H  -0.63900 14.15600 34.18000
H  -0.89100 12.34700 34.03900
Mg 0.84600 42.38000 25.21700
C  2.08900 43.05000 28.47300
C  -2.13100 41.38700 26.68800
C  -0.12500 41.65000 22.20500
C  4.20200 42.91700 24.08300
N  0.11200 42.23900 27.26500
C  0.72300 42.69800 28.45200
C  -0.11400 42.42000 29.66400
C  -1.49000 41.84500 29.06400
C  -1.16400 41.85700 27.55900
C  -1.92800 40.41400 29.53800
C  -0.25600 43.67800 30.48000
C  0.25200 43.70600 31.92400
H  -0.70400 43.10200 32.95600
N  -0.88200 41.66200 24.51200
C  -1.98100 41.23400 25.28300
C  -2.92900 40.66000 24.36000
C  -2.39100 40.85300 23.01600
C  -1.09900 41.42200 23.21500
C  -4.23400 40.20300 24.76900
C  -3.01700 40.55700 21.55700
O  -2.46700 40.90100 20.51400
C  -4.29000 39.81200 21.45600
N  1.89200 42.38700 23.51000
C  1.26100 41.93000 22.35400
C  2.20100 41.75700 21.12400
C  3.57400 42.19700 21.73400
C  3.20400 42.57400 23.17300
C  2.04400 40.20500 20.63600
C  4.29200 43.30100 21.06600
C  3.69600 44.74400 21.28900
N  2.77800 43.02900 26.05800
C  4.01700 43.16700 25.48900
C  4.99800 43.49200 26.45200
C  4.24600 43.41600 27.60000
C  2.94200 43.15800 27.36300
C  6.47600 43.58100 26.26600
C  4.40000 43.41700 28.96900
O  5.46000 43.53400 29.54300
C  3.00200 43.16000 29.70000
C  3.18800 41.92200 30.51400
O  2.84900 40.75200 30.26500
O  3.88600 42.20700 31.62800
C  3.87800 41.13300 32.57900
H  -3.04900 41.00200 27.13800
H  -0.39300 41.36300 21.18600
H  5.15400 43.08600 23.57600
H  0.42100 41.70200 30.28500
H  -2.34500 42.51500 29.15800
H  -2.20700 39.75500 28.71500
H  -2.77700 40.45500 30.22000
H  -1.16400 40.06400 30.23200
H  -1.30600 43.95500 30.57200
H  0.39400 44.44400 30.05800
H  0.55600 44.71200 32.21400
H  1.17000 43.15000 32.11700
H  -4.31200 40.24100 25.85500
H  -4.26600 39.13000 24.57900
H  -5.02000 40.81800 24.33000
H  -4.27600 39.52500 20.40400
H  -5.08000 40.51700 21.71500
H  -4.25000 38.94700 22.11800
H  1.89400 42.52800 20.41700
H  4.07200 41.22900 21.68500
H  2.97600 39.63900 20.66700
H  1.83300 40.16000 19.56800
H  1.31500 39.74500 21.30400
H  4.21900 43.16600 19.98700
H  5.36100 43.39300 21.25900
H  3.24700 45.07800 20.35400
H  4.51300 45.37900 21.63100
H  2.94500 44.69300 22.07800
H  6.66600 44.10000 25.32600
H  6.83100 42.57900 26.02400
H  6.92300 44.06500 27.13400
H  2.86700 44.04100 30.32700
H  4.46200 41.50500 33.42100
H  4.38600 40.31400 32.07100
H  2.83500 40.99000 32.86500

