158

Mg 8.22800 3.00700 27.75500
C  9.85400 1.73900 30.39200
C  6.29300 4.92400 29.66100
C  7.09200 4.50900 24.95800
C  10.16500 0.86700 25.55800
N  7.97600 3.16300 29.81300
C  8.85700 2.71800 30.76400
C  8.52400 3.19600 32.13000
C  7.30000 4.15400 31.87900
C  7.08600 4.06500 30.32900
C  6.00300 3.98100 32.69700
C  9.76600 3.75800 32.85800
C  9.36800 4.70700 34.06800
H  9.95200 4.30000 35.44500
N  6.70400 4.41200 27.37700
C  6.02200 5.13100 28.29200
C  5.23200 6.12600 27.72700
C  5.63300 6.14400 26.30900
C  6.50700 4.95000 26.12200
C  4.19700 7.02900 28.47600
C  5.24400 7.12900 25.23300
O  5.68200 7.07600 24.08500
C  4.30100 8.27100 25.52300
N  8.40100 2.56400 25.50800
C  7.90800 3.45700 24.62900
C  8.30800 3.18800 23.23000
C  9.40700 2.07700 23.43500
C  9.28300 1.73500 24.90900
C  7.19700 2.74800 22.27100
C  10.86700 2.51200 23.11500
C  11.68500 3.32300 24.16900
N  9.64000 1.57400 27.89000
C  10.35500 0.81800 26.94600
C  11.33100 -0.01300 27.66800
C  11.11400 0.25900 28.97800
C  10.09500 1.20700 29.11900
C  12.19500 -0.96700 26.97500
C  11.55800 -0.08800 30.31000
O  12.37200 -0.89200 30.69000
C  10.73600 0.92600 31.31000
C  10.02300 0.08500 32.28400
O  9.16500 -0.74600 32.06800
O  10.59400 0.29700 33.53900
C  9.91900 -0.44700 34.60600
H  5.80900 5.61200 30.35800
H  7.02400 5.25500 24.16300
H  10.98900 0.51000 24.93600
H  8.13100 2.43600 32.80500
H  7.55400 5.21000 31.97200
H  5.89900 3.00300 33.16600
H  5.12300 3.96900 32.05300
H  5.96000 4.83900 33.36800
H  10.36000 4.38800 32.19700
H  10.38300 2.98500 33.31600
H  8.29500 4.84800 34.20000
H  9.79200 5.68900 33.85700
H  4.10900 6.53200 29.44200
H  3.25500 6.96600 27.93100
H  4.45000 8.08000 28.61900
H  4.05800 8.74000 24.56900
H  4.62900 9.02200 26.24100
H  3.47900 7.67600 25.92200
H  8.80700 4.05600 22.80000
H  9.17100 1.25100 22.76400
H  6.28300 2.87800 22.85100
H  7.17400 1.66400 22.16200
H  7.29800 3.18300 21.27700
H  10.80100 2.97300 22.12900
H  11.37800 1.55200 23.04300
H  10.97000 3.71300 24.89400
H  12.10900 4.23600 23.75200
H  12.31900 2.73700 24.83500
H  12.94500 -0.45700 26.37000
H  11.54900 -1.50000 26.27700
H  12.70400 -1.67300 27.63100
H  11.38300 1.49000 31.98200
H  10.42200 -0.37400 35.57100
H  9.85700 -1.49900 34.32800
H  8.92300 -0.02600 34.73800
Mg 41.38900 40.83400 27.38600
C  40.65200 43.32100 29.75700
C  42.41300 38.84900 29.95000
C  42.46500 38.62000 25.11500
C  40.59600 43.18200 24.91000
N  41.51700 41.09100 29.56100
C  41.15100 42.08800 30.30800
C  41.04900 41.69900 31.83300
C  41.82600 40.32400 31.86900
C  41.93400 40.05700 30.33400
C  43.19400 40.14300 32.70500
C  39.56600 41.63500 32.43600
C  39.22800 42.65000 33.54500
H  38.54000 42.04400 34.80800
N  42.21200 38.90900 27.49000
C  42.58000 38.26300 28.62900
C  43.17800 36.99200 28.34400
C  43.19700 36.92100 26.93900
C  42.63900 38.17400 26.45100
C  43.87600 36.19100 29.39700
C  43.78500 35.85500 26.06100
O  43.69700 35.87000 24.81100
C  44.48600 34.66400 26.65700
N  41.67800 40.97200 25.32700
C  42.08500 39.88800 24.58200
C  41.79300 40.18300 23.07200
C  41.01400 41.49700 23.05900
C  41.08700 41.90300 24.53400
C  43.16400 40.16900 22.17000
C  39.61700 41.33700 22.50200
C  38.52800 40.74300 23.43500
N  40.73700 42.84600 27.27800
C  40.40800 43.68400 26.18200
C  39.89900 44.93500 26.64200
C  40.05000 44.85100 28.03900
C  40.48900 43.56300 28.35600
C  39.49000 46.02500 25.73500
C  39.82100 45.60400 29.31500
O  39.53300 46.83500 29.56100
C  40.09500 44.52600 30.45400
C  41.07600 45.10800 31.42000
O  42.25900 45.27700 31.20800
O  40.37900 45.61100 32.48300
C  41.21200 46.43200 33.36000
H  42.71800 38.24900 30.81000
H  42.85300 38.01700 24.29100
H  40.32000 43.82600 24.07200
H  41.61400 42.43400 32.40600
H  41.30600 39.44800 32.25800
H  43.43200 41.14500 33.06400
H  44.05200 39.75200 32.15700
H  43.14800 39.52500 33.60200
H  39.39500 40.69100 32.95200
H  38.80900 41.73800 31.65900
H  38.55800 43.34300 33.03600
H  40.13400 43.19800 33.80600
H  44.90300 36.05500 29.05900
H  43.28400 35.28200 29.50200
H  43.84100 36.65900 30.38100
H  43.95900 34.28400 27.53100
H  45.52000 34.96300 26.82700
H  44.47500 33.95400 25.83000
H  41.11800 39.42300 22.68000
H  41.62400 42.23100 22.53400
H  43.29200 41.15300 21.71900
H  43.01500 39.39500 21.41700
H  44.09100 39.89500 22.67300
H  39.52100 40.77400 21.57400
H  39.25300 42.29700 22.13500
H  37.92400 40.03300 22.87000
H  37.85400 41.52500 23.78300
H  38.95900 40.20700 24.28000
H  39.05700 45.57100 24.84400
H  40.38200 46.60300 25.49000
H  38.79100 46.59500 26.34800
H  39.12500 44.33200 30.91000
H  41.87500 45.80600 33.95800
H  40.65400 47.05300 34.06100
H  41.78600 47.19300 32.83200

