158

Mg 8.77900 3.78100 28.00600
C  10.04200 2.02000 30.80600
C  6.76700 5.55500 30.06500
C  7.25700 5.01600 25.33300
C  10.33200 1.39300 26.02600
N  8.44900 3.76000 30.16100
C  9.23900 3.10300 31.08700
C  8.97000 3.70500 32.51800
C  7.72700 4.65500 32.30500
C  7.65900 4.67700 30.74800
C  6.34900 4.14800 32.83700
C  10.24400 4.45700 33.02600
C  10.81800 4.08800 34.44400
H  10.74000 5.18100 35.54100
N  7.35600 5.22000 27.75000
C  6.65400 5.85400 28.74700
C  5.89000 6.88800 28.15800
C  6.12100 6.86900 26.76600
C  6.91900 5.65200 26.52300
C  5.05700 7.92100 28.99900
C  5.60700 7.87200 25.73400
O  5.74600 7.63200 24.53000
C  4.91300 9.08400 26.05800
N  8.69000 3.18600 25.93000
C  7.99900 3.83700 24.96400
C  8.21400 3.29200 23.54400
C  9.30200 2.19000 23.83900
C  9.47700 2.28900 25.36500
C  6.89600 2.67800 22.84100
C  10.67300 2.46000 23.17200
C  11.25000 1.34000 22.34200
N  9.95400 2.07800 28.24400
C  10.56900 1.25400 27.34800
C  11.49300 0.30700 28.07700
C  11.21100 0.55900 29.42100
C  10.37000 1.64300 29.44400
C  12.46500 -0.56100 27.35800
C  11.66000 0.16700 30.76500
O  12.53200 -0.64800 31.03000
C  10.90000 1.11800 31.75500
C  10.06600 0.33200 32.69400
O  8.93500 -0.04800 32.54000
O  10.72100 0.25700 33.88200
C  10.14500 -0.20800 35.16000
H  6.14100 6.18500 30.70100
H  6.68900 5.43200 24.49800
H  10.84700 0.72800 25.33000
H  8.65400 2.90600 33.19000
H  7.83500 5.66000 32.71300
H  5.69300 4.97300 33.11500
H  6.55200 3.52400 33.70700
H  5.84700 3.46700 32.14900
H  10.07900 5.53000 32.93200
H  11.08700 4.21700 32.37800
H  11.86200 3.78500 34.36700
H  10.37300 3.16000 34.80300
H  4.72700 7.52800 29.96000
H  4.15300 8.25000 28.48700
H  5.60400 8.86300 28.98600
H  5.40100 9.62500 26.86900
H  3.89800 8.90500 26.41300
H  4.82000 9.70500 25.16700
H  8.67000 4.03000 22.88400
H  8.89700 1.22300 23.54200
H  6.02400 2.90800 23.45300
H  6.93000 1.59700 22.69900
H  6.71400 3.22900 21.91900
H  11.46500 2.65300 23.89500
H  10.54700 3.29000 22.47600
H  11.95700 0.79900 22.97100
H  11.82200 1.67400 21.47800
H  10.45100 0.66400 22.03600
H  12.65600 -0.30900 26.31500
H  12.11600 -1.59200 27.30200
H  13.38300 -0.50600 27.94400
H  11.49000 1.74700 32.42200
H  9.26400 -0.80900 34.93300
H  9.91200 0.70600 35.70700
H  10.87400 -0.71900 35.78900
Mg 25.45400 1.47600 29.14300
C  27.37800 1.03700 32.14600
C  22.64500 2.03700 31.07600
C  23.73100 1.83600 26.32700
C  28.26000 0.61800 27.25900
N  25.05500 1.50000 31.37800
C  26.04600 1.39600 32.38900
C  25.33300 1.68300 33.72800
C  23.87300 1.80700 33.31400
C  23.88600 1.83900 31.79500
C  22.74200 0.92700 34.03700
C  25.89500 2.88100 34.53700
C  26.58800 2.65700 35.86600
H  26.39500 3.73800 37.00200
N  23.47900 1.90600 28.75200
C  22.48000 1.96500 29.65800
C  21.24300 2.13500 29.03000
C  21.49100 1.92100 27.59300
C  22.93700 1.86000 27.49800
C  19.95500 2.39800 29.81300
C  20.47900 1.74800 26.46400
O  20.87800 1.63500 25.33000
C  19.00800 1.75200 26.70900
N  26.02100 1.42000 27.02500
C  25.11400 1.66000 26.08100
C  25.79000 1.59800 24.66800
C  27.23200 0.99400 24.95300
C  27.19200 0.99600 26.50600
C  25.16500 0.66000 23.59300
C  28.45100 1.68400 24.36200
C  28.58900 3.22800 24.64800
N  27.41500 0.89100 29.53200
C  28.43900 0.58300 28.66800
C  29.62400 0.33900 29.48700
C  29.28400 0.57400 30.80600
C  27.87500 0.85000 30.79200
C  30.89800 -0.23000 28.87100
C  29.81300 0.68700 32.14500
O  30.92900 0.40900 32.58500
C  28.58500 1.06300 32.98200
C  28.40300 0.03400 34.09400
O  27.57800 -0.86900 34.19200
O  29.23000 0.46900 35.13000
C  29.23800 -0.41200 36.33600
H  21.78900 2.30600 31.69800
H  23.09700 2.04100 25.46200
H  29.06400 0.35900 26.56600
H  25.47800 0.78400 34.32700
H  23.52800 2.80500 33.58500
H  22.24100 0.24800 33.34800
H  22.02500 1.53700 34.58500
H  23.27500 0.26100 34.71500
H  25.10300 3.59300 34.77000
H  26.60300 3.35600 33.85800
H  27.65100 2.46500 35.72600
H  26.16000 1.70200 36.17100
H  20.02200 3.44600 30.10500
H  19.81700 1.77800 30.69900
H  19.02700 2.33600 29.24500
H  18.51200 2.69500 26.93700
H  18.73200 0.97000 27.41700
H  18.55500 1.45500 25.76300
H  25.75800 2.63500 24.33400
H  27.37100 -0.04600 24.65700
H  24.80900 1.31300 22.79600
H  24.37000 0.14100 24.12800
H  25.84700 -0.00400 23.06200
H  28.25500 1.65000 23.29100
H  29.39000 1.14100 24.46600
H  28.30200 3.57200 25.64200
H  27.86600 3.76000 24.03100
H  29.60100 3.62500 24.57400
H  30.68000 -0.91100 28.04800
H  31.40900 -0.64800 29.73800
H  31.55800 0.57100 28.53800
H  28.70200 2.04800 33.43400
H  29.10200 -1.44500 36.01600
H  28.67100 -0.15200 37.23000
H  30.25700 -0.40900 36.72300

