158

Mg 47.75100 15.83800 28.55300
C  45.66200 16.04100 31.47500
C  49.97400 17.58800 30.38400
C  49.44200 16.27400 25.68800
C  45.04900 14.41700 26.88000
N  47.85600 16.64300 30.76800
C  46.92800 16.51700 31.74800
C  47.48000 17.00800 33.12500
C  48.87700 17.64800 32.67800
C  48.88600 17.36300 31.12600
C  48.85500 19.22800 32.87800
C  47.47200 15.89200 34.21000
C  47.48300 16.38400 35.73400
H  47.28300 17.86700 36.05700
N  49.47300 16.64800 28.19400
C  50.31800 17.22500 29.04400
C  51.57200 17.61900 28.45100
C  51.43600 17.26200 27.06200
C  50.09800 16.68200 26.91500
C  52.77800 18.23600 29.14100
C  52.41800 17.49000 25.96200
O  52.30500 17.00400 24.83900
C  53.69100 18.23700 26.27500
N  47.25300 15.32200 26.61200
C  48.14100 15.66500 25.60500
C  47.64300 15.29500 24.23000
C  46.21100 14.62600 24.59500
C  46.19000 14.68200 26.10400
C  47.47100 16.59100 23.38600
C  45.96300 13.14900 24.00800
C  45.39800 12.96800 22.58600
N  45.72300 15.43500 28.95600
C  44.76700 14.72500 28.23200
C  43.60100 14.40000 29.00300
C  43.87500 14.88200 30.23900
C  45.19300 15.57500 30.20500
C  42.40400 13.73100 28.48000
C  43.41900 15.00400 31.63300
O  42.45500 14.47500 32.14300
C  44.54900 15.79900 32.41600
C  44.00800 16.93700 33.16900
O  43.99100 18.10900 32.77400
O  43.54700 16.49900 34.39300
C  42.91300 17.51400 35.26700
H  50.65600 18.20600 30.97200
H  49.95500 16.31400 24.72500
H  44.25100 13.89500 26.34800
H  46.87700 17.83400 33.50400
H  49.65300 17.04100 33.14500
H  49.85700 19.48700 33.22200
H  48.12400 19.57100 33.61000
H  48.79200 19.75000 31.92300
H  48.43400 15.42600 33.99400
H  46.71900 15.12400 34.03400
H  48.40300 15.98500 36.16000
H  46.61300 15.80800 36.04900
H  52.65600 18.23400 30.22400
H  53.07900 19.27400 28.99500
H  53.57500 17.53500 28.89500
H  53.41900 19.13400 26.83200
H  54.09100 18.48300 25.29100
H  54.40900 17.59100 26.77800
H  48.31900 14.54400 23.82000
H  45.42200 15.30800 24.28000
H  46.52400 16.49000 22.85600
H  48.27500 16.65800 22.65400
H  47.59400 17.44500 24.05200
H  45.16900 12.71100 24.61200
H  46.86500 12.53800 24.05100
H  45.45400 13.91700 22.05400
H  44.33200 12.74700 22.63800
H  45.90600 12.12200 22.12300
H  42.09800 14.05600 27.48500
H  41.51500 13.95000 29.07000
H  42.51800 12.64700 28.46100
H  44.82400 15.15600 33.25300
H  43.11300 18.58200 35.18000
H  43.15900 17.11800 36.25200
H  41.84100 17.40000 35.10900
Mg 29.50600 58.50100 39.12700
C  26.86200 56.43500 38.33600
C  31.67600 56.00100 38.24400
C  32.11300 60.80900 39.14700
C  27.22200 61.10900 39.70600
N  29.24700 56.54000 38.12800
C  28.08300 55.90700 38.00200
C  28.30300 54.48300 37.46300
C  29.82600 54.29600 37.78700
C  30.29600 55.68900 38.09500
C  30.22200 53.18400 38.89800
C  27.93300 54.12900 36.00300
C  28.54400 55.08400 34.93900
H  27.69900 55.66700 33.87000
N  31.54300 58.44100 38.75400
C  32.29700 57.26900 38.51000
C  33.73200 57.55300 38.41200
C  33.85700 58.97800 38.63300
C  32.44600 59.47700 38.88500
C  34.74900 56.39900 38.21000
C  35.18300 59.66500 38.67000
O  36.25900 59.06500 38.43700
C  35.25700 61.19700 39.00400
N  29.61500 60.68800 39.31000
C  30.81500 61.39500 39.34300
C  30.54300 62.89600 39.50600
C  29.00000 62.97200 39.73000
C  28.57000 61.52700 39.55500
C  31.42400 63.59600 40.63600
C  28.25900 64.14300 38.93400
C  26.96100 64.65300 39.52700
N  27.50000 58.66900 39.31600
C  26.68200 59.79300 39.52300
C  25.33600 59.47700 39.36500
C  25.39100 58.14900 38.97500
C  26.68500 57.68200 38.93500
C  24.15300 60.32700 39.70200
C  24.57000 57.04600 38.53100
O  23.33300 56.99000 38.40500
C  25.47900 55.83800 38.03800
C  25.16900 54.60900 38.87400
O  25.82100 54.29400 39.85000
O  24.13200 53.93400 38.36000
C  23.60600 52.86000 39.23100
H  32.31300 55.13400 38.05500
H  32.86000 61.58500 38.96900
H  26.57000 61.94000 39.98300
H  27.73900 53.77400 38.06900
H  30.31200 54.09800 36.83100
H  29.36100 52.81000 39.45200
H  30.99900 53.65300 39.50100
H  30.55900 52.21700 38.52500
H  26.85200 54.23300 35.91300
H  28.19600 53.10800 35.72600
H  29.31800 54.43500 34.53000
H  29.07900 55.94300 35.34400
H  34.25500 55.47000 37.92400
H  35.30400 56.15500 39.11600
H  35.51100 56.68500 37.48500
H  36.30300 61.49800 39.06000
H  34.71500 61.44600 39.91700
H  34.77000 61.57800 38.10600
H  30.86100 63.40900 38.59900
H  28.89700 63.21800 40.78700
H  30.84400 64.09000 41.41600
H  32.09400 64.39600 40.32100
H  32.07900 62.95600 41.22600
H  27.80500 63.83600 37.99100
H  29.03700 64.77200 38.50100
H  27.15800 65.72400 39.57200
H  26.67600 64.24000 40.49500
H  26.06700 64.57900 38.90800
H  24.31400 60.87900 40.62800
H  23.27400 59.69600 39.83700
H  24.01200 61.07500 38.92100
H  25.30700 55.66700 36.97600
H  24.45800 52.28100 39.58800
H  23.01700 52.17100 38.62600
H  23.01600 53.17600 40.09100

