158

Mg 52.80000 24.05400 43.82800
C  49.85500 25.80800 43.64200
C  51.08100 21.07400 43.16300
C  55.75600 22.56900 43.27600
C  54.43300 27.15700 44.42000
N  50.78100 23.58700 43.27200
C  49.78000 24.45500 43.35700
C  48.45400 23.70200 43.15900
C  48.80400 22.19100 43.35900
C  50.32400 22.21600 43.24000
C  48.26100 21.54700 44.64800
C  47.78300 23.94800 41.70300
C  48.66300 23.78400 40.50000
H  47.93300 23.41400 39.28400
N  53.37900 22.09400 43.30200
C  52.51500 20.95700 43.24700
C  53.33900 19.73600 43.22400
C  54.71400 20.17900 43.17600
C  54.63900 21.67000 43.24000
C  52.78900 18.37500 43.11400
C  55.87700 19.13100 43.14700
O  55.65300 17.92400 43.08000
C  57.27600 19.61200 43.22000
N  54.80400 24.84000 43.73400
C  55.83200 23.98700 43.56600
C  57.15600 24.73400 43.70500
C  56.75400 26.07700 44.33000
C  55.23800 26.05400 44.13600
C  58.27500 23.88100 44.52100
C  57.45900 27.25700 43.56200
C  58.03700 28.30400 44.51200
N  52.28900 26.14100 44.07100
C  53.05800 27.25800 44.34900
C  52.17200 28.32400 44.63300
C  50.88200 27.77200 44.31000
C  51.03900 26.52400 43.92700
C  52.53100 29.73500 45.14300
C  49.44600 28.08400 44.26700
O  48.76600 29.11400 44.50500
C  48.77100 26.87100 43.73200
C  48.12700 27.21100 42.43900
O  48.79700 27.24600 41.41500
O  46.79500 27.42100 42.55900
C  46.04300 27.98700 41.40300
H  50.59500 20.10100 43.06200
H  56.74400 22.10500 43.23700
H  55.03800 28.00000 44.76200
H  47.79700 23.99500 43.97800
H  48.44300 21.61600 42.50600
H  48.04800 20.50100 44.42500
H  47.27700 21.91700 44.93500
H  48.95300 21.52000 45.49000
H  47.29200 24.91800 41.63500
H  46.92400 23.28700 41.58500
H  49.34200 22.96200 40.72700
H  49.21700 24.71600 40.38900
H  53.26300 17.88100 43.96300
H  53.06200 17.81600 42.21900
H  51.72500 18.36600 43.35100
H  57.52300 20.18100 42.32400
H  57.87100 18.69900 43.20100
H  57.50900 20.24500 44.07600
H  57.60900 24.92900 42.73300
H  57.09500 26.10600 45.36500
H  59.09300 23.45500 43.93900
H  57.78600 23.01100 44.95700
H  58.71000 24.48700 45.31600
H  56.76000 27.82900 42.95000
H  58.38500 26.88400 43.12600
H  58.69800 27.79900 45.21700
H  57.24400 28.85900 45.01200
H  58.64200 28.94600 43.87100
H  52.29800 30.54000 44.44500
H  53.62100 29.73100 45.17700
H  52.06600 29.88600 46.11800
H  48.02800 26.43700 44.40100
H  46.72500 28.11500 40.56300
H  45.60100 28.94900 41.66000
H  45.26600 27.38800 40.92800
Mg 15.75100 52.56900 25.11400
C  17.43100 51.39500 27.93000
C  13.21000 53.50800 27.10900
C  14.19800 53.41700 22.32500
C  18.60200 51.40500 23.13700
N  15.47300 52.56200 27.18000
C  16.31300 52.11000 28.15000
C  15.74200 52.46800 29.55100
C  14.30700 52.81500 29.29100
C  14.30100 52.94300 27.73100
C  13.28000 51.75500 29.70500
C  16.66500 53.52700 30.38100
C  17.06900 53.07900 31.77500
H  16.07100 52.46700 32.82700
N  13.90200 53.36400 24.71000
C  13.03500 53.76800 25.68400
C  11.86300 54.38600 25.10400
C  12.18300 54.39200 23.69100
C  13.47500 53.72700 23.49900
C  10.62200 54.79100 25.86600
C  11.43600 54.99800 22.64500
O  11.88000 55.01200 21.49200
C  10.07900 55.67800 22.92800
N  16.44300 52.59900 23.05000
C  15.51400 52.94000 22.08800
C  16.05800 52.66800 20.70400
C  17.51700 52.19400 20.97000
C  17.53200 52.03500 22.48300
C  15.29200 51.50900 19.88200
C  18.68500 53.13300 20.54000
C  19.88600 52.53100 19.77500
N  17.66800 51.59400 25.38300
C  18.61700 51.14200 24.55700
C  19.60400 50.35400 25.29900
C  19.20600 50.48700 26.60900
C  17.99400 51.14700 26.61700
C  20.73700 49.61500 24.64400
C  19.52000 50.12200 28.00400
O  20.50600 49.55300 28.43700
C  18.36700 50.69100 28.92200
C  17.71000 49.71800 29.78500
O  16.73600 49.02000 29.51100
O  18.33300 49.70200 31.03000
C  17.69800 48.86600 32.06000
H  12.40400 53.93100 27.71200
H  13.65700 53.64900 21.40500
H  19.43400 51.01000 22.55100
H  15.87200 51.64200 30.25000
H  14.02600 53.81900 29.61200
H  12.69100 52.13700 30.53800
H  13.73200 50.83900 30.08400
H  12.66800 51.55000 28.82700
H  16.13900 54.47900 30.45400
H  17.58600 53.75100 29.84300
H  17.32300 54.01100 32.28100
H  17.98700 52.51300 31.62000
H  10.36900 55.84900 25.79400
H  10.65300 54.66900 26.94900
H  9.68900 54.30800 25.57400
H  10.41900 56.39100 23.67800
H  9.21600 55.03700 23.10900
H  9.89700 56.21200 21.99600
H  16.01400 53.66500 20.26600
H  17.68700 51.25600 20.44000
H  15.64100 50.52500 20.19400
H  15.28300 51.68600 18.80600
H  14.28100 51.59400 20.28100
H  19.09900 53.72400 21.35700
H  18.19800 53.81100 19.84000
H  19.77500 51.46900 19.55800
H  20.78800 52.71900 20.35800
H  20.01300 53.02900 18.81300
H  21.63500 50.15900 24.93500
H  20.67900 49.47000 23.56600
H  20.82200 48.65200 25.14800
H  18.85800 51.44900 29.53300
H  18.38400 48.02600 32.16800
H  16.71000 48.45700 31.85100
H  17.74300 49.45300 32.97700

