158

Mg 40.81000 9.09400 29.33400
C  42.70700 10.25800 32.16400
C  38.66500 7.76900 31.72500
C  39.24500 7.80200 26.80500
C  43.48700 10.17400 27.33800
N  40.70600 8.96900 31.73600
C  41.49000 9.72700 32.56800
C  40.87700 9.61000 34.00200
C  39.51700 8.82400 33.84100
C  39.64500 8.44600 32.34700
C  39.42800 7.58300 34.81900
C  40.72800 11.07400 34.70200
C  41.03800 11.08300 36.19400
H  41.37000 12.44400 36.88800
N  39.12900 8.05200 29.23700
C  38.36300 7.57000 30.30800
C  37.18800 6.97900 29.73800
C  37.28300 7.07000 28.31100
C  38.58100 7.67000 28.05500
C  36.03900 6.49300 30.61700
C  36.30100 6.74400 27.20300
O  36.43400 6.86700 26.04000
C  34.99100 6.41900 27.70500
N  41.44500 8.89200 27.34800
C  40.53600 8.35600 26.46100
C  40.98400 8.61300 25.01100
C  42.37500 9.33500 25.15400
C  42.43800 9.56400 26.65700
C  41.11100 7.34200 24.09800
C  42.65400 10.59600 24.28300
C  42.20200 11.95500 24.80300
N  42.74100 9.98700 29.67200
C  43.66900 10.34600 28.74900
C  44.90000 10.77200 29.42100
C  44.51000 10.81000 30.72000
C  43.21000 10.31700 30.81800
C  46.16600 11.20500 28.84100
C  44.92000 11.18400 32.06300
O  45.91200 11.76900 32.36000
C  43.77400 11.00900 33.01600
C  44.18800 10.24700 34.22600
O  44.51000 9.04800 34.20300
O  44.26700 11.07600 35.35000
C  44.60900 10.37400 36.58500
H  37.90200 7.30300 32.35200
H  38.77500 7.43900 25.88800
H  44.35200 10.43900 26.72700
H  41.72600 9.02300 34.35500
H  38.65700 9.48900 33.92000
H  38.37600 7.63200 35.09700
H  40.01200 7.75600 35.72300
H  39.66600 6.62300 34.36200
H  39.70700 11.45200 34.64500
H  41.37400 11.77300 34.17000
H  41.79600 10.32200 36.38400
H  40.11400 10.79900 36.69800
H  36.30100 6.37700 31.66900
H  35.87300 5.49400 30.21300
H  35.12500 7.02000 30.34200
H  34.20700 6.44000 26.94800
H  34.86800 7.34600 28.26400
H  34.87300 5.58700 28.40000
H  40.30500 9.34800 24.57800
H  43.25300 8.70100 25.02700
H  40.42200 6.58100 24.46500
H  42.10600 6.90400 24.01500
H  40.84100 7.50500 23.05500
H  42.00100 10.48300 23.41700
H  43.66600 10.64300 23.88200
H  42.97300 12.69700 25.01400
H  41.56700 11.87800 25.68500
H  41.58400 12.38900 24.01700
H  46.26700 12.29000 28.81900
H  46.19100 10.75700 27.84700
H  46.97000 10.84100 29.48000
H  43.46200 12.02700 33.24900
H  44.56800 9.28700 36.65200
H  44.03100 10.85900 37.37200
H  45.61900 10.72400 36.80000
Mg 47.86400 25.00700 28.57100
C  48.75400 26.97200 31.19500
C  46.87400 22.55800 30.83400
C  47.02900 23.02600 25.99600
C  49.09100 27.39600 26.26900
N  47.60100 24.84100 30.74600
C  48.01200 25.83300 31.61300
C  47.71300 25.46900 33.07700
C  47.30900 23.97000 32.93500
C  47.26000 23.74800 31.37800
C  48.19100 22.97300 33.62800
C  46.66200 26.39700 33.76100
C  47.11900 27.10600 35.04500
H  46.05600 27.62200 35.96700
N  47.10900 23.00400 28.44600
C  46.68800 22.18100 29.46800
C  46.21800 20.89300 28.96200
C  46.37100 21.05400 27.52100
C  46.91900 22.39500 27.24800
C  45.63400 19.78300 29.83200
C  46.09200 19.97200 26.49900
O  46.34400 20.08700 25.28700
C  45.46200 18.69300 26.98000
N  48.25900 25.08700 26.33900
C  47.62600 24.20000 25.51800
C  47.47500 24.74500 24.10300
C  48.25000 26.13800 24.15700
C  48.58900 26.20500 25.66100
C  47.93200 23.83800 23.01000
C  47.51800 27.35000 23.56000
C  48.12700 27.99900 22.31600
N  48.85500 26.74400 28.65600
C  49.26500 27.59900 27.68100
C  49.91100 28.70700 28.32400
C  49.58300 28.58600 29.71000
C  49.01700 27.35200 29.85700
C  50.62300 29.95400 27.72200
C  49.71600 29.22000 30.98700
O  50.22600 30.31400 31.29000
C  49.33400 28.13700 32.02600
C  50.53100 27.75300 32.93900
O  51.57000 27.27000 32.51900
O  50.24600 27.99400 34.22500
C  51.24000 27.52100 35.24700
H  46.47500 21.74300 31.44200
H  46.54900 22.40400 25.23700
H  49.39000 28.17500 25.56500
H  48.68500 25.59300 33.55500
H  46.33800 23.83200 33.41100
H  47.70200 22.54600 34.50300
H  49.14400 23.39200 33.95000
H  48.41000 22.15900 32.93700
H  45.76900 25.86000 34.08100
H  46.30800 27.14700 33.05400
H  47.72100 27.95500 34.72100
H  47.72600 26.39100 35.59900
H  46.22600 18.88400 29.65700
H  44.63600 19.62000 29.42400
H  45.44500 19.95700 30.89100
H  45.39100 17.94800 26.18700
H  44.48600 18.99000 27.36500
H  46.06900 18.20200 27.74000
H  46.40600 24.93500 24.00200
H  49.20800 26.01400 23.65100
H  47.00800 23.55100 22.50700
H  48.44400 22.99700 23.47700
H  48.72400 24.17400 22.34100
H  47.30600 28.07700 24.34400
H  46.50800 27.02200 23.31500
H  49.19100 27.81400 22.16900
H  47.96500 29.07700 22.32400
H  47.55500 27.63400 21.46300
H  51.41300 29.61200 27.05300
H  51.00900 30.55500 28.54500
H  49.85900 30.37300 27.06600
H  48.53100 28.70200 32.50000
H  50.82100 26.61300 35.68100
H  51.17700 28.23400 36.06800
H  52.27700 27.33900 34.96400

