158

Mg 16.02500 -1.91900 27.68200
C  15.17900 0.17900 30.44600
C  17.98900 -3.83800 29.78100
C  17.33800 -3.42400 25.02600
C  14.34900 0.34000 25.67100
N  16.46200 -1.84300 29.81500
C  15.99100 -0.95400 30.80000
C  16.59600 -1.17400 32.20000
C  17.62500 -2.29500 31.90100
C  17.35500 -2.71700 30.37400
C  19.06600 -1.80800 32.01600
C  15.50800 -1.41200 33.35300
C  15.80600 -1.00800 34.86000
H  17.11300 -0.21800 35.20200
N  17.38500 -3.49700 27.39400
C  18.05800 -4.17600 28.41000
C  18.78000 -5.22500 27.86000
C  18.63700 -5.13700 26.43600
C  17.73300 -4.01400 26.21900
C  19.62800 -6.20200 28.71700
C  19.25300 -6.00100 25.41800
O  19.01500 -5.78700 24.26800
C  20.14700 -7.15100 25.67900
N  15.87300 -1.56700 25.64900
C  16.49000 -2.35600 24.71500
C  16.10500 -1.98500 23.28900
C  14.94600 -0.97000 23.50900
C  15.03900 -0.73600 25.05100
C  17.29400 -1.41900 22.43500
C  13.53100 -1.47600 23.11800
C  13.09100 -1.18800 21.71400
N  14.91100 -0.15300 27.97400
C  14.31600 0.66000 27.03200
C  13.59100 1.69100 27.63100
C  13.83700 1.56200 28.98900
C  14.68800 0.43000 29.16600
C  12.79300 2.69800 26.92900
C  13.55600 2.02700 30.33600
O  12.82300 2.88600 30.75600
C  14.54300 1.28200 31.31800
C  15.46100 2.24700 31.93000
O  16.43700 2.71000 31.34900
O  14.95300 2.70500 33.17900
C  15.79100 3.78400 33.77100
H  18.53200 -4.39600 30.54700
H  17.74500 -3.80900 24.08900
H  13.61400 0.91900 25.10600
H  16.93100 -0.15100 32.37100
H  17.47000 -3.19000 32.50300
H  19.49000 -1.71900 31.01600
H  19.73100 -2.46400 32.57800
H  19.07000 -0.85000 32.53600
H  15.31800 -2.48600 33.35900
H  14.58200 -0.94300 33.01900
H  15.74600 -1.94100 35.42100
H  14.87300 -0.55700 35.19800
H  19.39900 -7.24400 28.49300
H  19.35100 -6.14800 29.77000
H  20.70400 -6.06400 28.61200
H  21.13600 -6.97300 26.10200
H  20.43100 -7.58200 24.71900
H  19.65100 -7.86000 26.34100
H  15.79000 -2.89100 22.77100
H  15.17800 -0.03500 23.00000
H  17.14700 -0.34600 22.31300
H  17.44600 -1.98500 21.51500
H  18.20900 -1.54200 23.01500
H  12.74300 -1.06100 23.74700
H  13.60300 -2.56100 23.19600
H  12.10400 -0.78000 21.93100
H  13.14000 -2.07600 21.08300
H  13.73700 -0.45100 21.23600
H  13.24400 2.85600 25.94900
H  12.75000 3.66100 27.43900
H  11.75300 2.38700 26.83000
H  13.93900 0.85700 32.12000
H  15.76400 3.82400 34.86000
H  15.67700 4.79900 33.38900
H  16.85300 3.66400 33.55300
Mg 9.45000 47.84400 26.16400
C  7.74700 47.97800 29.20600
C  12.13200 49.37100 27.83400
C  11.25300 47.54400 23.37900
C  6.55300 46.96300 24.58500
N  9.84100 48.68700 28.27800
C  9.07100 48.38700 29.36100
C  9.70400 48.84800 30.67100
C  11.00600 49.62600 30.19100
C  10.95500 49.27900 28.68600
C  11.04100 51.13200 30.55200
C  10.00500 47.50000 31.51100
C  9.88900 47.77300 33.15300
H  9.89000 46.52600 34.08700
N  11.41000 48.37100 25.68900
C  12.35800 48.83200 26.48600
C  13.68100 48.78500 25.87000
C  13.47100 48.32000 24.56100
C  11.99400 48.02000 24.48600
C  14.92000 49.21400 26.68800
C  14.46800 48.29900 23.40500
O  14.11700 48.02200 22.30800
C  15.86400 48.76900 23.66800
N  8.96100 47.35600 24.28800
C  9.86300 47.30500 23.22800
C  9.28800 46.64900 21.98200
C  7.87400 46.13800 22.53600
C  7.73100 46.90100 23.87300
C  9.42600 47.41500 20.66100
C  7.72000 44.62600 22.75900
C  8.80900 43.89900 23.55000
N  7.48500 47.65700 26.73400
C  6.42200 47.28800 26.00000
C  5.26600 47.19300 26.81800
C  5.70400 47.42800 28.15200
C  7.09100 47.72400 28.00700
C  3.87100 46.68300 26.34800
C  5.42000 47.41500 29.57500
O  4.38400 47.20600 30.15100
C  6.79200 47.72200 30.29900
C  6.99400 46.38100 31.00000
O  7.04800 45.24600 30.48500
O  7.14300 46.59300 32.37700
C  6.92500 45.50700 33.42100
H  12.93200 49.97300 28.27000
H  11.92900 47.35700 22.54200
H  5.66000 46.48000 24.18400
H  9.07100 49.51400 31.25700
H  11.92800 49.19800 30.58600
H  10.13900 51.49700 31.04200
H  11.14500 51.65800 29.60300
H  11.92900 51.52300 31.04800
H  11.07900 47.33800 31.42400
H  9.51300 46.61500 31.10800
H  8.94600 48.27100 33.37700
H  10.60000 48.56100 33.40000
H  14.84100 48.97100 27.74800
H  15.04900 50.27700 26.48500
H  15.87000 48.74700 26.42700
H  16.39400 49.08500 22.77000
H  16.42800 48.04600 24.25800
H  15.91700 49.70100 24.23000
H  9.84600 45.73800 21.76400
H  7.08900 46.51300 21.88000
H  8.42400 47.83600 20.58100
H  9.67400 46.77100 19.81700
H  10.23400 48.12500 20.83800
H  7.35800 44.09500 21.87900
H  6.89000 44.58100 23.46300
H  8.54000 43.71800 24.59000
H  9.77400 44.40500 23.52100
H  9.05900 42.93700 23.10200
H  3.41900 46.11500 27.16100
H  4.11200 45.99900 25.53500
H  3.30300 47.54200 25.98900
H  6.67700 48.53800 31.01300
H  7.25200 46.01700 34.32700
H  7.49900 44.59300 33.26500
H  5.88200 45.19300 33.44100

