158

Mg 16.67600 -1.20800 27.47600
C  15.76300 0.96900 30.06600
C  18.91400 -2.64900 29.58300
C  18.00700 -2.71700 24.85000
C  14.71500 0.72300 25.31100
N  17.40400 -0.79500 29.58400
C  16.72500 -0.02700 30.47800
C  17.20800 -0.35300 31.89300
C  18.31000 -1.35000 31.60700
C  18.15900 -1.69200 30.19500
C  19.79200 -0.91000 32.02300
C  16.01900 -0.88300 32.77400
C  15.83900 -0.31000 34.13700
H  17.06300 0.47400 34.72300
N  18.21700 -2.56700 27.24200
C  18.99000 -3.08200 28.25600
C  19.79400 -4.22000 27.71300
C  19.56300 -4.22900 26.31900
C  18.54600 -3.16200 26.05700
C  20.60800 -5.12900 28.64300
C  20.28800 -5.10000 25.26700
O  20.18400 -4.96300 24.06700
C  21.34400 -6.13500 25.61800
N  16.43600 -1.02600 25.32800
C  17.11400 -1.75900 24.47100
C  16.80000 -1.46100 23.02800
C  15.83500 -0.23700 23.17200
C  15.56400 -0.20800 24.68400
C  18.04500 -1.14000 22.11400
C  14.51400 -0.45500 22.40300
C  14.44200 0.04100 20.99700
N  15.40600 0.42800 27.61700
C  14.74100 1.15600 26.65600
C  13.99100 2.24700 27.24800
C  14.32400 2.14800 28.61300
C  15.28800 1.06800 28.71000
C  13.09600 3.17100 26.56400
C  14.08400 2.72200 29.97400
O  13.43100 3.67400 30.34400
C  15.01000 1.93400 30.90200
C  15.88200 2.83700 31.61500
O  17.09300 3.03500 31.47600
O  15.17200 3.48100 32.64000
C  15.94500 4.47000 33.43300
H  19.54200 -3.15600 30.31800
H  18.29800 -3.22100 23.92500
H  14.24600 1.40300 24.59700
H  17.61200 0.61000 32.20600
H  18.16400 -2.31700 32.08800
H  19.76500 -0.07000 32.71700
H  20.32900 -0.81300 31.07900
H  20.27100 -1.72500 32.56600
H  16.22100 -1.94700 32.89500
H  15.15200 -0.70300 32.13800
H  15.62600 -1.04400 34.91400
H  14.89300 0.23100 34.10000
H  20.18600 -6.13200 28.57300
H  20.75400 -4.71800 29.64200
H  21.59400 -5.26600 28.19800
H  21.30400 -6.91500 24.85700
H  21.18700 -6.66700 26.55600
H  22.33500 -5.68300 25.64500
H  16.21300 -2.32300 22.71100
H  16.37200 0.64000 22.81200
H  18.93000 -1.68600 22.44500
H  18.29300 -0.08300 22.02400
H  17.78300 -1.51700 21.12500
H  13.68100 0.04100 22.90200
H  14.36700 -1.53400 22.35400
H  13.60300 0.73300 20.93300
H  14.26900 -0.83400 20.37000
H  15.33100 0.59000 20.68700
H  13.41800 4.21300 26.55100
H  12.14800 3.08200 27.09400
H  13.10500 2.83300 25.52800
H  14.35000 1.40900 31.59300
H  16.51300 3.98700 34.22800
H  15.20200 5.03100 34.00000
H  16.51500 5.15100 32.80100
Mg 48.97900 44.57900 43.22600
C  45.68200 44.40200 42.19800
C  49.13600 41.09100 42.90200
C  52.37600 44.73100 43.19000
C  48.82500 48.00000 43.20800
N  47.59200 42.94000 42.67200
C  46.24800 43.12400 42.32800
C  45.55900 41.76900 42.09900
C  46.57600 40.75900 42.69200
C  47.84400 41.61000 42.78400
C  46.17600 40.18200 44.01100
C  45.17900 41.58000 40.55700
C  46.05400 42.37000 39.49100
H  46.14900 41.74000 38.04600
N  50.50800 43.08800 43.07600
C  50.37000 41.71900 42.94500
C  51.63200 41.11600 42.88200
C  52.60700 42.15500 42.96800
C  51.86300 43.36400 43.14400
C  51.82300 39.66700 42.60900
C  54.18200 41.92300 43.02000
O  54.65000 40.84100 42.75800
C  55.10700 43.00200 43.31400
N  50.39900 46.14300 43.20500
C  51.71100 45.96200 43.30300
C  52.49500 47.30400 43.44200
C  51.36700 48.34600 43.58300
C  50.11000 47.44900 43.29100
C  53.63800 47.42200 44.49000
C  51.56600 49.60500 42.69500
C  51.23300 49.47700 41.18300
N  47.52600 45.97600 42.95600
C  47.60200 47.36300 42.96500
C  46.35000 47.87900 42.58600
C  45.45600 46.76200 42.29300
C  46.29300 45.63200 42.47000
C  46.03200 49.32800 42.31500
C  44.18200 46.26500 41.89600
O  43.15800 46.86400 41.70600
C  44.20600 44.66900 41.96400
C  43.26400 44.18600 42.96300
O  42.37100 43.39100 42.73600
O  43.35500 44.92800 44.18600
C  42.14100 44.74700 45.04100
H  49.17700 40.00600 42.78600
H  53.46500 44.77800 43.26100
H  48.79500 49.09000 43.26600
H  44.58000 41.73800 42.57600
H  46.75800 40.01200 41.91900
H  45.95700 39.12300 43.87300
H  45.36000 40.64900 44.56300
H  46.96600 40.18000 44.76100
H  44.16600 41.95800 40.42300
H  45.15800 40.51300 40.33200
H  47.09900 42.52200 39.76100
H  45.59100 43.33100 39.26800
H  52.05500 39.53000 41.55300
H  50.92100 39.17600 42.97400
H  52.64500 39.26900 43.20500
H  55.20100 43.79600 42.57300
H  56.12300 42.63100 43.44900
H  54.88100 43.37600 44.31300
H  53.03700 47.50500 42.51800
H  51.09600 48.70500 44.57600
H  53.32300 48.07400 45.30500
H  54.49300 47.95800 44.07900
H  53.78100 46.41900 44.89400
H  52.63100 49.84000 42.69400
H  51.05000 50.45300 43.14500
H  50.95000 48.43300 41.04500
H  52.03900 49.68500 40.48000
H  50.47900 50.23700 40.97800
H  45.06600 49.32900 41.81000
H  46.84900 49.88500 41.85600
H  45.76600 49.94500 43.17300
H  43.90100 44.40300 40.95200
H  42.09500 45.51500 45.81300
H  42.07400 43.76300 45.50500
H  41.21000 44.87700 44.48900

