158

Mg 0.37100 44.13200 25.69500
C  2.54200 43.52300 28.30700
C  -2.25900 43.01000 27.65000
C  -1.67900 44.57200 23.06300
C  3.14400 44.67000 23.58700
N  0.18300 43.51600 27.73800
C  1.18300 43.38100 28.68100
C  0.61700 43.27300 30.11800
C  -0.85400 42.83300 29.77900
C  -1.00900 43.21300 28.30800
C  -1.23900 41.30600 29.92000
C  0.72100 44.64900 30.76300
C  0.51700 44.64000 32.30600
H  0.56100 43.29600 33.10300
N  -1.63700 43.80000 25.40400
C  -2.56600 43.38800 26.33400
C  -3.89900 43.33400 25.71000
C  -3.80700 43.81100 24.38700
C  -2.33400 44.08500 24.22000
C  -5.20700 43.01600 26.45200
C  -4.90300 44.17800 23.34100
O  -4.69500 44.74100 22.27700
C  -6.38200 43.71400 23.62300
N  0.69700 44.42000 23.54500
C  -0.31100 44.76400 22.78000
C  0.18100 45.19900 21.40800
C  1.58900 45.57000 21.76500
C  1.86700 44.73600 23.07400
C  -0.13700 44.04200 20.36000
C  1.67500 47.05200 22.12100
C  1.98800 48.02500 20.92800
N  2.46100 44.10800 25.81300
C  3.46400 44.27700 24.88000
C  4.78600 44.05700 25.50800
C  4.44300 43.86500 26.86900
C  3.07600 43.81700 27.00700
C  6.15700 44.36300 24.95900
C  4.97600 43.80200 28.25800
O  6.08700 43.84300 28.70700
C  3.79400 43.50900 29.27000
C  3.98100 42.20600 29.98800
O  3.75300 41.09400 29.57200
O  4.44700 42.38400 31.25200
C  4.48000 41.28400 32.16200
H  -3.12600 42.79600 28.28000
H  -2.37300 44.83000 22.26100
H  3.93400 45.03000 22.92500
H  1.02300 42.46800 30.73100
H  -1.62300 43.32600 30.37400
H  -1.63500 40.84600 29.01400
H  -1.97500 41.11300 30.70000
H  -0.42400 40.72400 30.35100
H  -0.12800 45.27500 30.48900
H  1.59900 45.24300 30.50900
H  -0.40500 45.18700 32.50100
H  1.30300 45.25200 32.74800
H  -6.01100 43.75200 26.42600
H  -5.01600 42.85800 27.51400
H  -5.59100 42.07200 26.06700
H  -6.83200 44.08800 24.54200
H  -6.42000 42.62500 23.66200
H  -7.14100 44.04000 22.91200
H  -0.46100 46.05400 21.19700
H  2.26800 45.34500 20.94200
H  -0.67600 44.40900 19.48600
H  -0.81600 43.33900 20.84100
H  0.69500 43.44100 19.99300
H  2.37200 47.31800 22.91600
H  0.72700 47.38000 22.54900
H  2.05200 47.43300 20.01400
H  2.92300 48.56900 21.06000
H  1.23200 48.79500 20.77600
H  6.83500 43.76800 25.57100
H  6.53900 45.37300 25.10700
H  6.27200 44.14400 23.89800
H  3.82500 44.26100 30.05900
H  5.00600 41.74700 32.99600
H  5.00800 40.43000 31.73700
H  3.46500 40.95100 32.37600
Mg -10.92900 16.44500 42.94100
C  -7.46500 17.40000 42.88400
C  -11.65000 19.90100 42.45100
C  -14.03500 15.64000 42.69000
C  -9.86700 13.16600 42.66700
N  -9.65600 18.48600 42.56700
C  -8.27600 18.56000 42.73800
C  -7.86300 20.01000 42.49300
C  -9.17200 20.80800 42.59000
C  -10.24500 19.73700 42.45100
C  -9.25000 21.53800 43.99100
C  -7.00200 20.18400 41.20200
C  -5.56700 20.68700 41.22400
H  -4.64400 20.06300 40.20100
N  -12.61500 17.54800 42.75200
C  -12.72900 18.96000 42.57600
C  -14.10300 19.32300 42.39400
C  -14.84400 18.13400 42.69100
C  -13.85400 17.03700 42.78200
C  -14.66900 20.72700 42.05400
C  -16.38900 18.03800 42.70500
O  -17.07600 18.97600 42.31100
C  -17.01400 16.80200 43.33700
N  -11.83200 14.65200 42.69600
C  -13.17200 14.55200 42.66000
C  -13.62500 13.09000 42.91600
C  -12.27600 12.32500 42.57100
C  -11.21300 13.40900 42.64100
C  -14.35500 12.92700 44.29500
C  -12.38300 11.58400 41.13400
C  -12.86700 10.11500 41.08300
N  -9.09800 15.49500 42.74400
C  -8.84400 14.16100 42.74700
C  -7.41400 13.89300 42.83300
C  -6.82600 15.15500 42.97500
C  -7.91200 16.09300 42.87300
C  -6.84000 12.51200 42.74900
C  -5.56600 15.79400 43.14300
O  -4.38000 15.40100 43.29500
C  -5.94300 17.30400 43.25100
C  -5.69200 17.64000 44.63500
O  -5.94400 16.96100 45.61000
O  -5.12600 18.85600 44.64100
C  -4.88500 19.48200 46.01100
H  -11.93000 20.92300 42.18700
H  -15.04400 15.22200 42.67800
H  -9.62800 12.10700 42.79000
H  -7.20900 20.14000 43.35500
H  -9.27900 21.60100 41.84900
H  -8.31200 21.74900 44.50600
H  -9.76500 20.92200 44.72800
H  -9.90400 22.40400 43.88800
H  -7.57100 20.87100 40.57600
H  -7.04400 19.21400 40.70600
H  -5.05400 20.45100 42.15700
H  -5.50500 21.77300 41.15800
H  -14.83200 20.84800 40.98300
H  -13.98000 21.54000 42.28100
H  -15.56900 21.09500 42.54600
H  -18.03600 17.00200 43.66000
H  -16.35400 16.38100 44.09500
H  -17.03600 16.10000 42.50300
H  -14.42300 12.99000 42.18000
H  -12.02700 11.59800 43.34300
H  -14.36200 13.91800 44.74900
H  -13.83700 12.25300 44.97700
H  -15.41200 12.67000 44.23400
H  -11.59100 11.88300 40.44800
H  -13.27800 12.00100 40.67300
H  -12.13900 9.36900 40.76500
H  -13.76100 10.14400 40.46000
H  -13.27200 9.93400 42.07800
H  -7.54000 11.77600 42.35400
H  -6.61200 12.05200 43.71000
H  -5.88900 12.44300 42.22100
H  -5.32600 17.90500 42.58400
H  -3.99600 20.04800 45.73400
H  -4.57000 18.71700 46.72000
H  -5.71500 20.10800 46.34100

