158

Mg 29.97700 58.57900 38.69700
C  27.61500 56.56000 37.32600
C  32.44000 56.18000 38.08400
C  32.31900 61.01200 39.28400
C  27.53500 61.20400 38.69700
N  30.00500 56.51600 37.65000
C  28.85300 55.88600 37.36200
C  29.12300 54.39100 37.12100
C  30.66100 54.26400 37.45100
C  31.09100 55.69500 37.80500
C  31.03000 53.26500 38.49000
C  28.78400 53.84300 35.67000
C  29.21600 54.63600 34.42200
H  28.08700 55.06000 33.48100
N  32.10000 58.49800 38.81400
C  32.88900 57.43000 38.48200
C  34.30100 57.79900 38.73700
C  34.23500 59.18500 39.20800
C  32.84600 59.64400 39.07500
C  35.49200 56.88100 38.57200
C  35.48400 59.92300 39.58300
O  36.60700 59.42400 39.64000
C  35.48500 61.44600 39.92100
N  29.94200 60.74600 39.01700
C  31.02700 61.44800 39.39000
C  30.75800 62.93300 39.39100
C  29.21400 62.93700 39.46900
C  28.81100 61.56100 39.04600
C  31.55400 63.86100 40.39400
C  28.47700 64.12300 38.69000
C  28.54100 64.01500 37.10500
N  28.04600 58.88000 38.07200
C  27.13100 59.96400 38.20500
C  25.79700 59.63000 37.71500
C  25.86900 58.19000 37.57600
C  27.28200 57.92400 37.65600
C  24.51800 60.48800 37.56600
C  25.10100 56.99900 37.27900
O  23.90900 56.70500 37.14200
C  26.25600 55.88100 37.03600
C  25.77900 54.74200 37.92400
O  26.05100 54.56400 39.10000
O  24.90200 53.95600 37.21300
C  24.23400 52.93100 37.98200
H  33.13000 55.33400 38.05400
H  32.98400 61.86000 39.45800
H  26.74400 61.94000 38.85400
H  28.51200 53.81200 37.81400
H  31.11500 54.04600 36.48400
H  30.15700 52.92800 39.05000
H  31.76500 53.66000 39.19100
H  31.44500 52.36000 38.04700
H  27.76800 53.45100 35.61700
H  29.38200 52.93500 35.59100
H  29.90200 54.02100 33.83800
H  29.60400 55.57000 34.82900
H  36.11200 57.36700 37.81800
H  35.16900 55.93200 38.14400
H  36.12800 56.66100 39.43000
H  36.46000 61.83400 40.21400
H  34.79300 61.59700 40.75000
H  35.10400 62.09700 39.13400
H  30.96300 63.31500 38.39100
H  28.95000 63.14600 40.50600
H  32.29900 64.48800 39.90400
H  32.02600 63.30500 41.20400
H  30.83800 64.52100 40.88500
H  28.84800 65.12000 38.93100
H  27.47400 64.01700 39.10500
H  28.93900 64.90800 36.62300
H  27.55400 63.76000 36.71700
H  29.06800 63.14300 36.71800
H  23.76700 60.01400 36.93400
H  24.69300 61.49300 37.18000
H  23.99000 60.54600 38.51700
H  26.21100 55.47400 36.02600
H  23.72600 52.27200 37.27900
H  23.54200 53.43100 38.65900
H  24.92600 52.27100 38.50600
Mg 35.93600 48.45400 26.33900
C  36.24200 46.35600 29.08300
C  34.15900 50.73900 28.41400
C  35.16500 50.50000 23.59100
C  37.06300 45.99700 24.34200
N  35.09500 48.46600 28.52500
C  35.65600 47.58000 29.40800
C  35.48400 48.22600 30.85000
C  34.46100 49.35800 30.64200
C  34.63400 49.61100 29.13700
C  32.93600 48.97800 30.88600
C  36.78900 48.79900 31.43700
C  37.22100 48.38700 32.87500
H  36.97500 49.52400 33.88600
N  34.89900 50.38700 26.16300
C  34.39300 51.18300 27.11100
C  33.89000 52.43800 26.56100
C  34.22200 52.41800 25.22500
C  34.78800 51.00200 24.89100
C  33.19900 53.44400 27.48600
C  34.23900 53.53600 24.15100
O  34.67500 53.40400 23.02100
C  33.90800 54.89100 24.49400
N  35.93600 48.14800 24.24100
C  35.69500 49.18300 23.39400
C  36.15200 48.79700 21.98700
C  36.96500 47.44800 22.22300
C  36.64200 47.18100 23.69700
C  34.93900 48.68400 21.08100
C  38.48900 47.43200 21.85900
C  38.96200 46.40300 20.77600
N  36.49500 46.53000 26.56100
C  36.98300 45.64400 25.66400
C  37.36300 44.36200 26.34600
C  37.11800 44.64000 27.72800
C  36.54400 45.95300 27.77500
C  37.91700 43.13100 25.70300
C  37.23700 44.15300 29.10400
O  37.54000 43.08200 29.47100
C  36.77400 45.28700 30.02500
C  35.71900 44.74800 30.92300
O  34.69500 44.31200 30.46100
O  36.10600 44.81300 32.24800
C  35.07900 44.53200 33.17000
H  33.69500 51.49600 29.04900
H  34.88600 51.09600 22.72000
H  37.55100 45.24800 23.71500
H  35.09200 47.45200 31.51000
H  34.60800 50.28500 31.19500
H  32.46100 49.50000 31.71600
H  32.82200 47.90600 31.04800
H  32.31400 49.28500 30.04500
H  36.88700 49.88500 31.41000
H  37.57700 48.33700 30.84300
H  38.29300 48.21600 32.78400
H  36.66200 47.53700 33.26700
H  32.99800 54.38900 26.98300
H  33.83100 53.53700 28.37000
H  32.19800 53.09100 27.73000
H  32.95700 54.74300 25.00600
H  33.77800 55.55700 23.64100
H  34.79200 55.13400 25.08300
H  36.86700 49.52200 21.59700
H  36.42700 46.68600 21.66000
H  34.02400 48.79300 21.66200
H  34.82000 47.78900 20.46900
H  34.87300 49.50400 20.36600
H  39.00000 47.14400 22.77800
H  38.77500 48.45600 21.61800
H  38.14300 45.84700 20.32000
H  39.54700 45.69600 21.36400
H  39.61800 46.88700 20.05300
H  38.77900 43.42300 25.10200
H  37.15600 42.75900 25.01600
H  38.19100 42.33900 26.40100
H  37.51800 45.65100 30.73400
H  34.58400 45.46600 33.43600
H  35.65200 44.14400 34.01200
H  34.35100 43.76700 32.89900

