158

Mg 24.15500 -5.47000 45.18300
C  26.42000 -3.04300 43.86700
C  21.67400 -3.98700 43.49900
C  22.50400 -8.28900 45.44300
C  26.91800 -6.84600 46.89600
N  24.18100 -3.68900 43.81700
C  25.11000 -2.87400 43.43900
C  24.57900 -1.80500 42.55000
C  23.11300 -1.82000 42.88900
C  22.92000 -3.23800 43.46000
C  22.50000 -0.76000 43.84900
C  24.80900 -2.05900 41.03500
C  25.30700 -0.86600 40.25200
H  25.07900 -1.01100 38.75500
N  22.30000 -6.08200 44.63000
C  21.40600 -5.27300 43.97500
C  20.19300 -5.99400 43.81900
C  20.42700 -7.28700 44.26000
C  21.78600 -7.29800 44.75900
C  18.91600 -5.37300 43.18400
C  19.34200 -8.45500 44.20900
O  18.24500 -8.33700 43.78400
C  19.75900 -9.87100 44.71700
N  24.63300 -7.28600 46.00400
C  23.71800 -8.28700 46.05600
C  24.36400 -9.50900 46.81500
C  25.54500 -8.86100 47.64000
C  25.71400 -7.60700 46.77000
C  23.29000 -10.17600 47.73700
C  26.68800 -9.72700 47.83800
C  27.22700 -9.76100 49.30300
N  26.17700 -4.95900 45.40600
C  27.20600 -5.66700 46.11000
C  28.35000 -4.95800 46.07100
C  28.18100 -3.92700 45.20900
C  26.79100 -3.96600 44.79300
C  29.55800 -5.34900 46.80300
C  28.77900 -2.78200 44.57700
O  29.90200 -2.28600 44.79200
C  27.74700 -2.30900 43.57500
C  27.52100 -0.77100 43.64900
O  26.98600 -0.17800 44.58300
O  28.11100 -0.05500 42.62000
C  28.03800 1.43500 42.64500
H  20.84800 -3.33700 43.20100
H  22.06400 -9.28200 45.56100
H  27.74700 -7.08500 47.56500
H  25.10600 -0.87000 42.74000
H  22.53100 -1.81900 41.96800
H  23.26100 -0.03300 44.13400
H  22.06500 -1.22900 44.73200
H  21.71900 -0.26600 43.27100
H  23.89700 -2.45200 40.58600
H  25.67900 -2.71300 40.96800
H  26.36900 -0.68800 40.41800
H  24.88200 0.07400 40.60600
H  18.00100 -5.79100 43.60200
H  18.99300 -5.52400 42.10700
H  18.86300 -4.29500 43.33400
H  18.91900 -10.53500 44.51400
H  19.86400 -9.88400 45.80200
H  20.62400 -10.28000 44.19500
H  24.64800 -10.34200 46.17200
H  25.09400 -8.40500 48.52100
H  23.02100 -11.18100 47.41000
H  22.30900 -9.70600 47.67700
H  23.70200 -10.35300 48.73000
H  27.57800 -9.46600 47.26500
H  26.44800 -10.78200 47.70300
H  26.85400 -8.85100 49.77200
H  28.29400 -9.97600 49.35800
H  26.76400 -10.57800 49.85800
H  29.43000 -5.08100 47.85200
H  30.46900 -4.85100 46.47000
H  29.71400 -6.42700 46.77100
H  28.10400 -2.64600 42.60200
H  27.01600 1.71200 42.38400
H  28.45600 1.94200 41.77600
H  28.37300 1.83400 43.60200
Mg 0.68700 43.45300 25.75000
C  2.92300 43.30000 28.52900
C  -1.93600 43.01000 27.95700
C  -1.33800 43.36300 23.12200
C  3.47700 43.66800 23.71100
N  0.55100 43.19200 28.02300
C  1.60900 43.17700 28.86000
C  1.05800 43.05600 30.27200
C  -0.49100 42.74100 30.07000
C  -0.66200 42.99100 28.62000
C  -0.90600 41.36200 30.65600
C  1.36500 44.35900 31.14700
C  1.89900 44.28600 32.54300
H  1.62400 42.96200 33.26600
N  -1.34800 43.16200 25.59200
C  -2.24700 42.95100 26.58900
C  -3.62800 42.92300 26.08700
C  -3.51100 42.96400 24.64300
C  -2.02600 43.22200 24.36100
C  -4.82400 42.80000 27.01500
C  -4.54500 42.90100 23.56500
O  -4.26600 42.90800 22.38600
C  -5.97100 42.92500 23.92500
N  1.01000 43.42100 23.76200
C  -0.00900 43.54100 22.87900
C  0.53500 43.97400 21.52300
C  2.07600 44.29400 21.77300
C  2.20600 43.74000 23.17500
C  0.27400 43.02800 20.32000
C  2.48500 45.77000 21.67700
C  3.70000 46.10000 20.78500
N  2.75900 43.55800 26.03700
C  3.75800 43.64800 25.08300
C  5.10900 43.69300 25.71300
C  4.79000 43.61000 27.13700
C  3.35700 43.41900 27.25100
C  6.46000 43.72700 24.95400
C  5.41600 43.47700 28.41300
O  6.60000 43.49700 28.74200
C  4.24500 43.38800 29.39500
C  4.44700 42.26700 30.34500
O  4.03800 41.13400 30.32200
O  5.37000 42.72200 31.27000
C  5.79700 41.79600 32.34400
H  -2.72900 42.88700 28.69800
H  -1.93500 43.56500 22.23000
H  4.34000 43.91700 23.08900
H  1.49100 42.15600 30.70800
H  -1.14400 43.50400 30.49400
H  -0.29700 41.05100 31.50500
H  -0.97700 40.62600 29.85500
H  -1.92000 41.48600 31.03600
H  0.46000 44.96500 31.18700
H  2.10400 44.95300 30.61000
H  1.39800 45.09700 33.07300
H  2.90900 44.65600 32.71800
H  -5.76200 42.50200 26.54600
H  -5.10300 43.82600 27.25200
H  -4.64300 42.23500 27.93000
H  -6.57300 43.03200 23.02300
H  -6.23700 43.55900 24.77100
H  -6.17000 41.94000 24.34600
H  -0.00100 44.92200 21.46300
H  2.75000 43.72500 21.13300
H  1.18000 43.05700 19.71400
H  -0.58900 43.39800 19.76600
H  -0.00900 42.04400 20.69200
H  2.58400 46.06200 22.72300
H  1.61700 46.28500 21.26600
H  4.49600 46.25800 21.51300
H  3.45500 47.02100 20.25700
H  3.90200 45.26300 20.11600
H  6.81500 42.69800 25.00900
H  7.22400 44.31800 25.45900
H  6.33600 44.04900 23.92000
H  4.34800 44.34000 29.91400
H  5.36500 42.14000 33.28300
H  6.83600 42.12300 32.32800
H  5.61900 40.77400 32.00900

