158

Mg 25.75000 1.49400 29.59600
C  27.70600 1.31700 32.69900
C  23.01200 1.75500 31.72100
C  23.93000 1.23700 26.92200
C  28.65100 0.34100 27.91700
N  25.37600 1.52200 32.06100
C  26.37000 1.59200 33.02000
C  25.68100 1.69700 34.43200
C  24.14900 1.78500 34.06200
C  24.14900 1.77200 32.49300
C  23.25400 0.71300 34.64800
C  26.15900 2.93700 35.21300
C  26.85400 2.67100 36.59100
H  26.36300 3.51300 37.76500
N  23.68100 1.49800 29.33900
C  22.69100 1.62200 30.30300
C  21.41500 1.71700 29.65900
C  21.69800 1.43300 28.27300
C  23.14100 1.39700 28.11900
C  20.12600 1.93600 30.40100
C  20.73000 1.03900 27.18200
O  21.11800 0.69300 26.05200
C  19.32300 0.98400 27.57300
N  26.21200 0.96700 27.71000
C  25.31000 1.11500 26.72100
C  25.91600 0.79700 25.32800
C  27.40900 0.59600 25.69800
C  27.40800 0.61900 27.20600
C  25.25200 -0.45800 24.65300
C  28.22100 1.76200 25.14000
C  28.11900 3.11400 25.92300
N  27.86000 1.11100 30.10700
C  28.85700 0.56100 29.27900
C  30.10100 0.44700 30.09300
C  29.70000 0.79500 31.43700
C  28.24600 1.05600 31.36400
C  31.44500 -0.06700 29.52900
C  30.15800 0.95500 32.78300
O  31.28100 0.81300 33.21700
C  28.86700 1.24600 33.69400
C  28.78000 0.19900 34.72100
O  28.15200 -0.87400 34.66500
O  29.43700 0.59500 35.85300
C  29.44000 -0.34000 36.99000
H  22.10000 1.74900 32.32200
H  23.38200 1.23200 25.97700
H  29.33800 -0.02000 27.14800
H  25.97100 0.77700 34.94000
H  23.66000 2.69800 34.40100
H  22.70000 0.20100 33.86200
H  22.50600 1.29300 35.18700
H  23.62500 -0.07200 35.30600
H  25.23200 3.46200 35.44400
H  26.89500 3.47300 34.61300
H  27.91900 2.85800 36.72700
H  26.65000 1.61400 36.75900
H  19.67500 2.85200 30.01900
H  20.30700 2.13700 31.45700
H  19.37800 1.14500 30.45000
H  19.21700 0.30200 28.41700
H  18.71400 0.54300 26.78400
H  18.96600 1.95100 27.92700
H  25.73600 1.60200 24.61600
H  27.79700 -0.38900 25.43600
H  24.50300 -0.98700 25.24200
H  25.98800 -1.20400 24.35200
H  24.74100 -0.11200 23.75400
H  27.94600 2.03700 24.12100
H  29.26700 1.45600 25.16100
H  29.14700 3.37100 26.17900
H  27.67100 3.03100 26.91300
H  27.55100 3.81700 25.31400
H  31.88700 0.61200 28.80000
H  31.25100 -1.06200 29.12900
H  32.06100 -0.24100 30.41100
H  29.04500 2.24000 34.10500
H  28.57600 -0.21900 37.64400
H  30.37400 -0.10000 37.49700
H  29.50500 -1.39100 36.70600
Mg -11.56800 16.96400 40.81900
C  -8.24100 15.83600 40.61900
C  -10.36600 20.09300 39.61000
C  -14.65000 17.91800 40.26000
C  -12.61500 13.62500 41.08600
N  -9.54800 17.86700 40.17200
C  -8.28100 17.16700 40.21200
C  -7.06100 18.12600 39.88600
C  -7.80300 19.51500 39.74900
C  -9.35100 19.19400 39.98200
C  -7.48000 20.49300 40.92200
C  -6.26400 17.75300 38.64400
C  -4.78900 17.61000 38.82100
H  -4.23600 16.46800 37.99100
N  -12.40400 18.82100 40.14900
C  -11.78500 19.97000 39.69000
C  -12.75800 20.99700 39.44800
C  -14.02800 20.42800 39.67800
C  -13.77000 19.00300 39.99900
C  -12.41800 22.36000 39.00100
C  -15.46300 21.14800 39.55400
O  -15.57800 22.26200 39.10200
C  -16.70200 20.48300 40.00600
N  -13.36600 15.89000 40.64200
C  -14.50800 16.55000 40.58500
C  -15.82000 15.64000 40.54800
C  -15.11200 14.24300 40.92300
C  -13.60500 14.59300 40.94100
C  -17.02400 16.14400 41.50100
C  -15.48300 13.10200 39.96300
C  -15.10200 13.26600 38.49800
N  -10.71600 15.09700 40.97500
C  -11.23900 13.85500 41.11400
C  -10.09700 12.91800 41.47900
C  -8.89800 13.67700 41.24200
C  -9.31000 14.91900 40.86800
C  -10.22600 11.47000 41.87700
C  -7.42700 13.66900 41.38500
O  -6.72300 12.70700 41.72000
C  -6.96300 15.06500 40.92700
C  -6.27400 15.69000 42.09700
O  -6.72100 16.47800 42.93300
O  -4.95300 15.34100 42.08000
C  -4.23100 16.03800 43.09400
H  -10.02900 21.05500 39.21800
H  -15.69100 18.21000 40.11300
H  -12.94400 12.63200 41.39900
H  -6.39000 18.10200 40.74500
H  -7.60200 19.98800 38.78800
H  -6.53200 21.01600 40.79800
H  -7.45700 19.92000 41.84900
H  -8.27900 21.22000 41.06800
H  -6.50500 18.46400 37.85300
H  -6.62200 16.80400 38.24300
H  -4.59800 17.48700 39.88700
H  -4.27600 18.47800 38.40600
H  -13.06300 22.82800 38.25700
H  -11.42300 22.30300 38.56000
H  -12.39000 23.05100 39.84400
H  -17.07200 19.60300 39.48000
H  -17.53800 21.18000 40.06100
H  -16.41600 20.20000 41.01900
H  -16.19800 15.65300 39.52600
H  -15.38500 13.95600 41.93800
H  -16.73000 16.99700 42.11200
H  -17.27900 15.28000 42.11600
H  -17.93500 16.37600 40.95100
H  -16.56700 13.00400 40.01600
H  -15.06500 12.16100 40.32000
H  -15.98000 13.10300 37.87200
H  -14.32500 12.53800 38.26300
H  -14.67300 14.26400 38.41500
H  -10.80300 11.39300 42.79900
H  -9.21500 11.08300 42.00700
H  -10.69700 10.99500 41.01600
H  -6.23800 15.02700 40.11400
H  -4.33800 17.08300 42.80000
H  -3.17100 15.79500 43.02900
H  -4.54200 15.81700 44.11500

