158

Mg 46.87700 15.05600 27.74900
C  44.90000 15.08500 30.72000
C  48.91800 17.41800 29.24300
C  48.47200 15.18300 25.01200
C  44.24700 13.16700 26.25600
N  46.82000 16.07600 29.74700
C  45.98100 15.94300 30.78300
C  46.52300 16.62900 32.00300
C  47.55200 17.69200 31.37400
C  47.79700 16.99700 30.01200
C  47.20200 19.16400 31.22300
C  47.28000 15.56400 32.93200
C  46.96900 15.63600 34.40000
H  48.17700 15.47800 35.40300
N  48.57900 16.04800 27.22400
C  49.28900 16.94100 27.95600
C  50.42200 17.42200 27.19500
C  50.37000 16.75500 25.92100
C  49.12800 15.97100 26.01200
C  51.41400 18.43500 27.72500
C  51.30600 16.80600 24.69700
O  51.11600 16.19200 23.62900
C  52.56900 17.68200 24.83400
N  46.26700 14.37700 25.78800
C  47.25500 14.50800 24.84600
C  46.93800 13.61100 23.62400
C  45.53800 12.96000 24.02900
C  45.31000 13.51500 25.41600
C  46.83100 14.48800 22.35800
C  45.45500 11.32700 23.96600
C  46.68400 10.57500 24.62500
N  45.02600 14.22100 28.26300
C  44.05800 13.57900 27.52400
C  42.93400 13.26800 28.38100
C  43.23700 13.85200 29.61600
C  44.49800 14.43600 29.52900
C  41.63600 12.76000 27.95200
C  42.61300 14.10100 30.96500
O  41.50300 13.89500 31.46600
C  43.82300 14.84000 31.71500
C  43.27400 16.16700 32.19600
O  43.02200 17.10300 31.50100
O  43.12500 16.13000 33.58500
C  42.67600 17.30200 34.36200
H  49.59600 18.14100 29.70300
H  49.14900 15.18900 24.15600
H  43.41500 12.64200 25.78400
H  45.70900 17.03500 32.60300
H  48.44500 17.74000 31.99700
H  46.99100 19.39700 30.17900
H  48.04400 19.76100 31.57200
H  46.27200 19.30400 31.77300
H  48.35000 15.63500 32.73400
H  46.95500 14.57000 32.62400
H  46.26000 14.86800 34.70900
H  46.48500 16.59500 34.58500
H  51.70500 19.12600 26.93400
H  52.28500 17.90100 28.10600
H  51.03000 19.01800 28.56300
H  53.12600 17.62700 23.89900
H  53.18200 17.29800 25.64900
H  52.26800 18.72900 24.85900
H  47.67500 12.80800 23.63400
H  44.79000 13.26800 23.29700
H  46.50900 15.51400 22.53600
H  46.04700 14.10400 21.70500
H  47.84100 14.55500 21.95300
H  45.49500 11.02700 22.91900
H  44.59200 10.89500 24.47200
H  47.27300 10.15200 23.81200
H  46.24700 9.77700 25.22600
H  47.23900 11.22400 25.30300
H  41.22300 13.19600 27.04300
H  40.98600 13.04300 28.78000
H  41.80600 11.69100 27.82500
H  44.16600 14.35700 32.63000
H  42.30700 18.17100 33.81800
H  43.47600 17.69100 34.99200
H  41.85900 17.01300 35.02300
Mg 36.63600 50.50300 25.32100
C  36.41000 48.68600 28.30700
C  35.39900 53.27600 26.96600
C  36.46800 52.07300 22.32800
C  37.16400 47.40600 23.61600
N  35.96200 50.88500 27.43200
C  36.11000 50.02100 28.52200
C  35.80900 50.76000 29.81400
C  35.26300 52.19100 29.33500
C  35.59000 52.13400 27.83400
C  33.83900 52.60900 29.69100
C  37.12900 50.79700 30.64200
C  36.94100 50.55200 32.13800
H  35.51400 50.46200 32.77000
N  36.05300 52.41200 24.68300
C  35.64000 53.42900 25.61400
C  35.50800 54.62900 24.85800
C  35.65500 54.31100 23.40000
C  36.04900 52.86200 23.36700
C  35.22200 55.91200 25.57200
C  35.63900 55.16800 22.07800
O  35.88400 54.77500 20.97000
C  35.29000 56.61100 22.11100
N  36.67800 49.85600 23.31600
C  36.73000 50.72200 22.24700
C  37.19500 50.05900 20.92200
C  37.63700 48.60800 21.46500
C  37.23500 48.60800 22.94300
C  36.23000 49.99400 19.75700
C  39.17100 48.32400 21.29500
C  40.20100 48.82100 22.30600
N  36.81600 48.45900 25.79400
C  36.99600 47.31600 25.00700
C  37.15400 46.22700 25.81300
C  36.91100 46.73500 27.10400
C  36.66400 48.11900 27.06900
C  37.56400 44.79200 25.38400
C  36.87200 46.34200 28.49900
O  37.06500 45.24100 29.01500
C  36.52600 47.67000 29.37100
C  35.27300 47.28900 30.17100
O  34.12500 47.53300 29.83600
O  35.63900 46.38400 31.10600
C  34.57500 45.96200 32.01200
H  35.04600 54.17300 27.47700
H  36.74100 52.50500 21.36300
H  37.34800 46.46900 23.08600
H  34.99800 50.22100 30.30400
H  35.97100 52.91400 29.74000
H  33.37400 52.61500 28.70500
H  33.70700 53.60200 30.12200
H  33.47800 51.84400 30.37800
H  37.56200 51.76600 30.39200
H  37.89900 50.14900 30.22200
H  37.35100 51.44200 32.61600
H  37.54100 49.71400 32.49400
H  35.99300 56.17500 26.29600
H  34.26600 55.83400 26.09000
H  35.17800 56.70300 24.82300
H  35.38100 57.05200 21.11900
H  35.95100 57.12300 22.81100
H  34.31800 56.77800 22.57600
H  38.08800 50.67600 20.81600
H  37.00100 47.86400 20.98600
H  35.21200 50.05600 20.14200
H  36.32400 49.10300 19.13600
H  36.49200 50.86100 19.15000
H  39.42300 48.66600 20.29100
H  39.19100 47.24100 21.17900
H  40.89900 47.98500 22.34000
H  39.75300 48.97300 23.28800
H  40.64200 49.77400 22.01300
H  36.85600 43.97000 25.48100
H  38.44700 44.60700 25.99500
H  37.93300 44.85700 24.36000
H  37.35300 47.82100 30.06600
H  34.91300 45.39000 32.87600
H  33.87300 45.30300 31.50200
H  34.12600 46.86200 32.43400

