158

Mg 16.00100 52.93200 25.52900
C  17.74300 51.53700 28.34000
C  13.73900 54.22900 27.66100
C  14.64700 54.19000 22.85900
C  18.43700 51.29700 23.46400
N  15.71100 52.69900 27.74200
C  16.54400 52.22000 28.70600
C  16.04200 52.51600 30.12000
C  14.57800 53.16000 29.86100
C  14.70400 53.40900 28.32200
C  13.41000 52.27600 30.37900
C  17.05100 53.39900 30.86000
C  17.61000 52.91100 32.23900
H  16.87300 51.90900 33.17200
N  14.32800 53.95800 25.31400
C  13.58000 54.54300 26.29700
C  12.58300 55.30300 25.62800
C  12.69300 55.17800 24.17000
C  13.88400 54.35200 24.03500
C  11.48400 55.97500 26.41800
C  11.85000 55.61800 23.03600
O  12.07700 55.24400 21.91700
C  10.53300 56.32200 23.27300
N  16.27600 52.45400 23.43600
C  15.77300 53.38700 22.58000
C  16.24700 53.18200 21.18900
C  17.56200 52.37600 21.36800
C  17.44700 52.06100 22.87000
C  15.07800 52.38500 20.43600
C  18.81800 53.15000 20.91500
C  18.92700 54.55000 21.55700
N  17.79700 51.69700 25.78100
C  18.62900 51.09100 24.80200
C  19.71900 50.41600 25.53700
C  19.41600 50.56800 26.86200
C  18.22100 51.32600 26.97400
C  21.01600 49.88200 25.06100
C  19.89500 50.27400 28.16800
O  20.88500 49.67000 28.53200
C  18.76400 50.83800 29.23500
C  18.24900 49.60900 29.87500
O  17.49900 48.77800 29.33700
O  18.56300 49.65400 31.19100
C  18.01200 48.48000 31.93800
H  13.05800 54.73900 28.34600
H  14.40100 54.85400 22.02700
H  19.14000 50.73900 22.84200
H  15.96900 51.61600 30.73100
H  14.56700 54.16500 30.28300
H  13.02400 51.72000 29.52400
H  12.58400 52.80100 30.85800
H  13.86600 51.56300 31.06600
H  16.51900 54.34200 30.99400
H  17.93800 53.65300 30.28000
H  17.66400 53.85100 32.78900
H  18.62800 52.52200 32.26000
H  11.31500 57.01000 26.12000
H  11.75400 56.01500 27.47300
H  10.54600 55.43000 26.31700
H  9.94400 56.47500 22.36800
H  10.68800 57.27900 23.77000
H  9.97400 55.60300 23.87200
H  16.35000 54.10100 20.61200
H  17.56900 51.44500 20.80000
H  14.21300 52.22400 21.07900
H  15.40300 51.44500 19.99100
H  14.77500 53.08500 19.65800
H  18.70300 53.40200 19.86100
H  19.77800 52.64100 21.00100
H  18.01900 54.93300 22.02400
H  19.24700 55.37600 20.92100
H  19.56000 54.54900 22.44500
H  21.30700 49.02500 25.66900
H  21.75400 50.66900 25.21200
H  20.99100 49.51600 24.03500
H  19.28100 51.38800 30.02100
H  18.30400 47.48000 31.61600
H  16.92600 48.39000 31.90700
H  18.30000 48.54900 32.98700
Mg -10.01000 17.73000 42.25000
C  -6.54700 17.26100 42.29400
C  -9.47200 21.01800 41.72400
C  -13.21100 17.94300 41.47500
C  -10.21000 14.18900 42.28500
N  -8.12900 18.99100 42.08600
C  -6.86500 18.61400 42.10900
C  -5.90800 19.77300 41.99200
C  -6.89400 21.04200 41.94100
C  -8.23400 20.33700 41.94800
C  -6.78900 22.10800 43.14800
C  -4.92200 19.62300 40.79900
C  -5.37100 18.85500 39.53200
H  -4.73000 19.26800 38.16500
N  -11.21700 19.34200 41.80400
C  -10.76800 20.57200 41.70600
C  -11.91200 21.45200 41.38400
C  -13.03400 20.58600 41.33300
C  -12.51400 19.21700 41.47400
C  -11.87400 22.88500 40.89600
C  -14.61000 21.05300 41.10700
O  -14.83600 22.19300 40.86400
C  -15.75400 20.15200 41.30400
N  -11.53300 16.25700 41.66600
C  -12.77400 16.63000 41.67100
C  -13.76000 15.46400 41.68900
C  -12.78200 14.28400 41.94300
C  -11.40000 14.90400 42.02000
C  -15.00000 15.58900 42.64500
C  -12.82000 13.12600 40.80700
C  -13.68900 11.96100 41.13900
N  -8.73200 16.02300 42.38900
C  -8.96400 14.73700 42.56900
C  -7.79700 13.97300 42.87600
C  -6.81900 14.95200 42.77300
C  -7.40000 16.17000 42.46300
C  -7.57700 12.51900 43.10800
C  -5.37400 15.12600 42.73900
O  -4.46700 14.34000 42.91700
C  -5.18000 16.63400 42.56900
C  -4.44800 17.03300 43.76200
O  -3.23700 17.05100 43.80300
O  -5.19200 17.40300 44.82300
C  -4.45900 18.04900 45.88500
H  -9.32200 22.07300 41.48600
H  -14.29000 18.11500 41.46800
H  -10.46500 13.15600 42.52800
H  -5.37800 19.89700 42.93700
H  -6.84000 21.60600 41.01000
H  -5.76700 22.44500 43.32100
H  -7.31000 21.72600 44.02600
H  -7.35700 22.95000 42.75100
H  -4.01100 19.13100 41.14100
H  -4.58200 20.61100 40.48800
H  -6.39100 18.47900 39.45600
H  -4.78800 17.94600 39.67600
H  -12.81000 23.36600 41.18000
H  -11.86900 23.03700 39.81600
H  -10.99200 23.33300 41.35200
H  -15.86000 19.54000 40.40800
H  -16.55400 20.88400 41.41000
H  -15.51800 19.62600 42.22900
H  -14.19200 15.24300 40.71300
H  -12.95300 13.67000 42.82700
H  -15.12500 16.58800 43.06400
H  -15.06800 14.73700 43.32100
H  -15.84900 15.60900 41.96200
H  -11.84000 12.66500 40.68800
H  -13.18000 13.41300 39.81900
H  -14.54300 11.92700 40.46300
H  -14.14500 12.12600 42.11600
H  -13.10800 11.04700 41.26000
H  -8.30000 11.98000 42.49600
H  -7.78600 12.22200 44.13600
H  -6.57500 12.25000 42.77200
H  -4.46200 16.73800 41.75500
H  -5.21900 18.32900 46.61300
H  -3.97800 18.93300 45.46600
H  -3.81300 17.28800 46.32300

