158

Mg 40.43800 8.24800 29.01000
C  42.19000 9.71800 31.73600
C  38.05300 7.16500 31.06100
C  39.09700 6.64200 26.43400
C  43.18400 9.14300 26.90200
N  40.17900 8.41300 31.21500
C  40.91500 9.11700 32.10600
C  40.25000 9.08900 33.52000
C  39.06500 8.10100 33.22900
C  39.07100 7.84200 31.75000
C  39.10400 6.79200 34.07900
C  39.84800 10.51700 34.09200
C  39.61600 10.45100 35.62700
H  40.83200 10.53700 36.56500
N  38.73500 7.26200 28.75000
C  37.82000 6.92000 29.69300
C  36.72100 6.19800 29.11000
C  36.93200 6.18700 27.71200
C  38.31100 6.60000 27.63100
C  35.55700 5.57300 29.94800
C  36.02800 5.61300 26.63600
O  36.32700 5.51700 25.47500
C  34.70100 5.11100 27.08300
N  41.16000 7.76100 26.97700
C  40.34500 7.11500 26.08300
C  40.84100 7.16300 24.64400
C  42.02200 8.22400 24.86300
C  42.15100 8.42100 26.37600
C  41.36700 5.85600 24.01200
C  41.88500 9.56900 24.09000
C  40.87700 10.71300 24.42000
N  42.36000 9.05500 29.20600
C  43.31600 9.35800 28.22400
C  44.43300 9.96400 28.87800
C  44.05900 10.19900 30.17500
C  42.75000 9.61100 30.39500
C  45.70500 10.38600 28.18700
C  44.50800 10.79400 31.46400
O  45.50400 11.42400 31.78500
C  43.24600 10.45000 32.50300
C  43.78900 9.70300 33.74900
O  43.69300 8.51800 33.97900
O  44.43500 10.55500 34.59200
C  45.28600 10.06700 35.67800
H  37.23700 6.83200 31.70500
H  38.60300 6.20800 25.56200
H  44.14400 9.33600 26.41900
H  40.89100 8.62700 34.27200
H  38.13300 8.50000 33.62900
H  38.29500 6.50000 34.74900
H  39.99300 6.86500 34.70500
H  39.20600 5.96400 33.37700
H  38.85100 10.76000 33.72300
H  40.47600 11.38100 33.87300
H  39.11400 9.51900 35.88700
H  38.91100 11.27400 35.74200
H  35.70300 5.73700 31.01600
H  35.58800 4.50300 29.74000
H  34.61900 6.06900 29.70100
H  34.80100 4.19000 27.65700
H  34.11100 4.77700 26.22900
H  34.23100 5.97800 27.54600
H  40.01200 7.58300 24.07400
H  42.98900 7.89600 24.48100
H  42.24400 6.08200 23.40600
H  40.58400 5.29600 23.50000
H  41.67900 5.30600 24.90000
H  41.86600 9.23900 23.05100
H  42.90200 9.94700 23.99400
H  40.49000 10.53300 25.42300
H  40.08000 10.91600 23.70600
H  41.39300 11.67300 24.40400
H  46.32600 11.02000 28.82000
H  45.39200 10.98500 27.33100
H  46.39700 9.62600 27.82400
H  42.67000 11.37100 32.58800
H  45.98300 10.81600 36.05300
H  45.83400 9.24700 35.21400
H  44.59700 9.70200 36.43900
Mg 35.95400 49.05400 25.45800
C  36.18600 47.16900 28.50700
C  34.27700 51.50400 27.09300
C  35.82900 50.75600 22.57200
C  37.51300 46.41700 23.84500
N  35.31000 49.22300 27.51200
C  35.62200 48.47800 28.60000
C  35.40500 49.21000 29.87500
C  34.61000 50.48800 29.43400
C  34.63100 50.41800 27.86000
C  33.17100 50.53500 30.03000
C  36.77600 49.45700 30.68300
C  36.90800 49.12200 32.23800
H  35.60300 49.39600 33.02200
N  35.08500 50.86500 24.87300
C  34.43900 51.77200 25.69100
C  33.82400 52.77100 24.91600
C  34.22600 52.53800 23.57300
C  35.07700 51.35600 23.59800
C  32.88700 53.88100 25.49100
C  33.96300 53.25600 22.25700
O  34.56500 53.04600 21.20900
C  32.96500 54.32600 22.27800
N  36.60200 48.69800 23.50300
C  36.38900 49.46200 22.46200
C  37.00600 48.95300 21.15500
C  37.62800 47.61700 21.63900
C  37.21400 47.57700 23.12600
C  35.96600 48.82400 19.99300
C  39.23800 47.48600 21.50600
C  39.76600 46.16000 21.13500
N  36.77500 47.17900 25.97500
C  37.33600 46.21100 25.17400
C  37.62100 44.99700 25.95400
C  37.29400 45.34500 27.29300
C  36.74700 46.65300 27.25200
C  38.00800 43.64600 25.45600
C  37.22500 44.90200 28.68400
O  37.57400 43.88300 29.20200
C  36.68200 46.08900 29.54800
C  35.56200 45.72200 30.43100
O  34.42300 45.47800 30.14000
O  36.08000 45.60600 31.74500
C  35.00700 45.31100 32.71600
H  33.92400 52.35600 27.67800
H  35.80500 51.30900 21.63100
H  38.11400 45.67900 23.31000
H  34.80200 48.51400 30.45800
H  35.16900 51.39100 29.67900
H  32.37400 50.67200 29.29900
H  33.13800 51.36600 30.73400
H  32.84900 49.67700 30.62100
H  37.01000 50.51600 30.57900
H  37.57600 48.99500 30.10600
H  37.74100 49.69300 32.64700
H  37.13300 48.05900 32.33000
H  33.43500 54.74200 25.87300
H  32.43900 53.36200 26.33800
H  32.11100 54.01800 24.73800
H  32.90500 54.61800 21.23000
H  33.25900 55.24600 22.78300
H  31.93200 54.08600 22.52900
H  37.73200 49.67100 20.77400
H  37.19500 46.75500 21.13100
H  36.07500 47.85100 19.51300
H  36.22700 49.61400 19.28900
H  34.94600 48.94800 20.35700
H  39.68300 47.81600 22.44500
H  39.43500 48.22400 20.72900
H  40.18600 46.14400 20.13000
H  39.10200 45.31100 21.30000
H  40.54000 45.91000 21.86000
H  38.45500 43.67900 24.46300
H  37.10900 43.04600 25.31800
H  38.64800 43.07300 26.12800
H  37.44100 46.61200 30.12900
H  34.79300 44.24400 32.77200
H  34.13100 45.92900 32.52000
H  35.28300 45.57400 33.73800

