158

Mg 1.36300 -0.81800 43.01700
C  4.89600 -0.41100 42.72000
C  0.93400 1.86900 40.93800
C  -1.96500 -1.58200 42.91900
C  2.03400 -3.99500 44.25300
N  2.79800 0.43100 41.76800
C  4.15100 0.48000 41.94000
C  4.73500 1.56700 40.99700
C  3.56500 2.44300 40.52900
C  2.33700 1.54900 41.06600
C  3.41300 3.87900 41.08400
C  5.44700 0.88900 39.76600
C  6.88900 1.28300 39.49500
H  7.12300 2.12400 38.27200
N  -0.33500 0.15000 42.18100
C  -0.28100 1.21700 41.41800
C  -1.64700 1.67500 41.13800
C  -2.56100 0.80500 41.75400
C  -1.64300 -0.29100 42.36600
C  -1.92400 2.96300 40.32300
C  -4.02500 0.82700 41.77800
O  -4.70100 1.63600 41.20300
C  -4.72700 -0.19500 42.52500
N  0.25600 -2.57900 43.33300
C  -1.13200 -2.60800 43.38900
C  -1.67100 -3.98100 43.63100
C  -0.36900 -4.77100 44.00300
C  0.73200 -3.65600 43.94000
C  -2.88400 -4.12000 44.63300
C  -0.12900 -6.06900 43.15500
C  -0.13300 -7.49100 43.86800
N  3.02700 -2.00900 43.50700
C  3.12400 -3.24900 43.95800
C  4.57700 -3.57400 44.24200
C  5.30000 -2.55000 43.70100
C  4.32500 -1.57300 43.32900
C  5.16100 -4.81500 44.96300
C  6.59100 -2.03800 43.41900
O  7.69600 -2.55500 43.55500
C  6.37500 -0.56900 42.92000
C  7.03700 0.22100 43.98100
O  6.54500 0.44600 45.05500
O  8.21600 0.79500 43.59600
C  9.16500 1.44600 44.50000
H  0.80600 2.80900 40.39700
H  -2.99900 -1.91000 42.79100
H  2.19100 -4.96200 44.73500
H  5.38700 2.15400 41.64400
H  3.51100 2.54100 39.44500
H  4.33000 4.34400 41.44600
H  2.66500 3.82400 41.87500
H  3.22300 4.65000 40.33700
H  4.84600 1.04000 38.86900
H  5.57700 -0.18100 39.92800
H  7.66400 0.53500 39.66000
H  7.10000 2.07800 40.21000
H  -1.56400 2.93100 39.29400
H  -1.45800 3.81400 40.81800
H  -2.96400 3.27400 40.42200
H  -5.81000 -0.17900 42.39800
H  -4.31000 -0.26200 43.53000
H  -4.56100 -1.09000 41.92500
H  -2.14200 -4.22400 42.67900
H  -0.50000 -5.11200 45.03000
H  -3.33400 -3.13200 44.72500
H  -2.54300 -4.37800 45.63600
H  -3.58500 -4.86900 44.26300
H  0.83300 -6.04600 42.64300
H  -0.95300 -6.15500 42.44700
H  -0.58800 -7.41000 44.85500
H  0.86800 -7.92000 43.85800
H  -0.68500 -8.27100 43.34300
H  6.24100 -4.84400 45.10300
H  4.73800 -5.67500 44.44300
H  4.64800 -4.80200 45.92500
H  6.96200 -0.58400 42.00200
H  9.35700 0.81600 45.36800
H  8.75000 2.41100 44.79400
H  10.11900 1.56300 43.98600
Mg -5.44600 25.92400 25.39700
C  -3.70400 27.06700 28.26600
C  -7.27700 23.80200 27.41800
C  -6.80600 24.76600 22.64600
C  -3.33200 27.85700 23.41900
N  -5.50000 25.49000 27.67100
C  -4.75700 26.14800 28.65900
C  -5.38200 25.89100 30.05200
C  -6.28200 24.61200 29.74100
C  -6.35000 24.61200 28.17000
C  -5.71300 23.30200 30.37800
C  -6.12400 27.11000 30.69100
C  -5.79400 27.34400 32.15400
H  -5.41000 26.17000 33.10500
N  -6.85200 24.41900 25.08200
C  -7.48000 23.63100 26.03400
C  -8.42900 22.76000 25.40200
C  -8.35300 23.02000 23.99000
C  -7.28600 24.09500 23.81200
C  -9.19300 21.62900 26.22900
C  -9.08200 22.31100 22.84300
O  -8.99200 22.74500 21.67900
C  -9.98900 21.15300 23.21700
N  -5.04800 26.19100 23.30300
C  -5.75000 25.58800 22.38000
C  -5.43300 25.96200 20.97000
C  -4.45300 27.21100 21.20500
C  -4.26200 27.06300 22.72700
C  -4.82400 24.78900 20.15500
C  -5.17000 28.57900 20.84400
C  -5.83700 28.84700 19.48400
N  -3.76400 27.14000 25.73900
C  -3.04100 27.83800 24.85100
C  -2.08400 28.65100 25.63500
C  -2.34700 28.39800 26.93200
C  -3.34800 27.46900 26.95000
C  -0.99200 29.72000 25.13000
C  -2.02400 28.85200 28.31000
O  -1.31100 29.76300 28.64700
C  -2.85300 27.83900 29.27000
C  -1.90200 27.03500 30.10700
O  -0.84100 26.53000 29.73800
O  -2.30600 27.19800 31.40300
C  -1.46600 26.52600 32.40500
H  -8.07100 23.33300 28.00300
H  -7.37400 24.39700 21.78900
H  -2.72700 28.55300 22.83400
H  -4.60600 25.66200 30.78300
H  -7.27900 24.81100 30.13300
H  -4.74000 23.30800 30.86900
H  -5.51400 22.62500 29.54700
H  -6.42600 22.83400 31.05700
H  -7.20100 26.99100 30.57700
H  -5.87200 27.93600 30.02600
H  -6.65400 27.82300 32.62200
H  -5.01700 28.10400 32.06400
H  -10.20500 21.47900 25.85200
H  -9.17400 21.78200 27.30800
H  -8.70700 20.66400 26.09100
H  -10.33900 20.54100 22.38600
H  -10.85400 21.49900 23.78300
H  -9.43000 20.48400 23.87100
H  -6.37200 26.23200 20.48600
H  -3.51000 26.99700 20.70100
H  -4.74400 23.85500 20.71100
H  -3.88700 24.98900 19.63500
H  -5.54200 24.48800 19.39200
H  -4.43900 29.38500 20.90400
H  -5.83900 28.75900 21.68500
H  -5.87600 27.94200 18.87700
H  -5.49600 29.69400 18.88700
H  -6.84600 29.15400 19.75700
H  -1.08500 30.60400 25.76000
H  -1.11800 29.98800 24.08100
H  0.01200 29.30300 25.21500
H  -3.48400 28.42500 29.93800
H  -1.11100 25.58700 31.98000
H  -1.99700 26.27900 33.32500
H  -0.59300 27.10800 32.69900

