158

Mg 6.03500 54.34400 41.23900
C  3.54700 51.80100 41.01500
C  8.15300 52.26000 39.79300
C  8.15000 56.87900 41.26700
C  3.54900 56.55500 42.40500
N  5.76300 52.37800 40.18500
C  4.70100 51.45700 40.36500
C  5.04600 50.12400 39.74700
C  6.64700 50.17700 39.83700
C  6.86100 51.70700 39.85700
C  7.37300 49.44200 40.98700
C  4.51900 49.84000 38.29700
C  3.89000 48.43700 38.10000
H  4.30300 47.76900 36.77900
N  7.92300 54.47100 40.65900
C  8.66000 53.54500 40.10500
C  10.04700 54.03100 39.84800
C  10.06600 55.46900 40.13200
C  8.71800 55.70300 40.71700
C  11.13700 53.19900 39.16600
C  11.28700 56.45100 40.07900
O  12.34700 56.06800 39.73400
C  11.07900 57.96200 40.36000
N  5.79000 56.52400 41.54800
C  6.81400 57.36100 41.54200
C  6.54200 58.67500 42.15100
C  5.09600 58.66200 42.41600
C  4.75000 57.16800 42.11500
C  7.35400 59.05600 43.39800
C  4.24400 59.77900 41.79000
C  3.69900 59.57800 40.37600
N  4.04200 54.23200 41.67300
C  3.16400 55.18900 42.15000
C  1.85900 54.61500 42.32300
C  2.01100 53.29700 41.96400
C  3.35000 53.08200 41.57200
C  0.63500 55.28900 42.79400
C  1.24200 52.04900 41.87600
O  0.03900 51.76900 42.03800
C  2.45400 51.02300 41.52300
C  1.85400 50.09100 40.60500
O  1.33500 50.30000 39.52400
O  1.87200 48.76600 41.22100
C  1.07400 47.73800 40.62000
H  8.93100 51.53500 39.54400
H  8.90900 57.65700 41.36700
H  2.81900 57.20900 42.88700
H  4.70000 49.32000 40.39700
H  7.09000 49.88500 38.88500
H  8.42500 49.20700 40.82700
H  6.81700 48.52900 41.20100
H  7.43500 50.08100 41.86800
H  5.25600 49.96900 37.50400
H  3.73500 50.55700 38.05400
H  2.80500 48.54200 38.10900
H  4.07900 47.78100 38.94900
H  11.10000 53.44300 38.10500
H  10.98100 52.12900 39.29700
H  12.01700 53.60500 39.66500
H  11.91300 58.49900 39.90900
H  11.00700 58.29600 41.39500
H  10.15700 58.19700 39.82700
H  6.81200 59.37500 41.36000
H  4.83900 58.88800 43.45100
H  7.89600 59.95500 43.10400
H  7.92000 58.33300 43.98600
H  6.71500 59.45100 44.18800
H  4.83900 60.68500 41.67300
H  3.38900 60.06600 42.40200
H  4.04900 60.41500 39.77200
H  2.61200 59.57100 40.29800
H  4.14200 58.66000 39.98900
H  0.81500 56.09600 43.50500
H  0.08000 54.51000 43.31800
H  0.06200 55.74500 41.98700
H  2.71200 50.43900 42.40600
H  0.05100 48.08300 40.46600
H  1.05600 46.96200 41.38500
H  1.52300 47.30000 39.72900
Mg -1.79000 33.43000 26.93100
C  -3.58700 31.71200 29.34500
C  -0.55900 35.48700 29.32800
C  -0.54000 35.32000 24.48500
C  -3.45100 31.49600 24.38100
N  -2.10000 33.67300 28.99800
C  -2.82500 32.74800 29.87800
C  -2.59100 33.10700 31.36100
C  -1.70100 34.35600 31.29100
C  -1.46300 34.54600 29.74000
C  -2.28300 35.55400 32.08700
C  -2.04000 31.90300 32.25100
C  -2.94700 31.57400 33.49100
H  -2.16900 31.44800 34.80500
N  -0.56600 35.18700 26.92700
C  -0.10600 35.79400 27.99900
C  0.87000 36.82200 27.49400
C  0.77400 36.87000 26.05000
C  -0.16700 35.80700 25.75600
C  1.73900 37.57200 28.43500
C  1.52400 37.74400 25.10100
O  1.45400 37.66000 23.88000
C  2.29300 38.80700 25.61200
N  -2.01600 33.45800 24.68400
C  -1.33000 34.33600 23.96900
C  -1.54600 34.14800 22.47300
C  -2.39700 32.84700 22.41500
C  -2.60600 32.50600 23.92900
C  -2.02500 35.42600 21.66000
C  -1.78600 31.64000 21.69100
C  -0.85800 30.71800 22.48400
N  -3.17700 31.94800 26.77400
C  -3.80200 31.22400 25.70500
C  -4.77800 30.32400 26.22400
C  -4.73100 30.45500 27.63300
C  -3.73200 31.48000 27.90700
C  -5.54600 29.28400 25.37400
C  -5.26200 29.93900 28.92900
O  -6.01200 28.94200 29.12100
C  -4.53500 30.77500 29.98800
C  -5.44300 31.47900 30.92600
O  -5.83600 32.62900 30.92700
O  -5.86100 30.53200 31.86300
C  -6.68000 31.15300 32.90300
H  -0.03400 36.12600 30.04000
H  0.01900 35.82900 23.69800
H  -4.07700 30.94200 23.67900
H  -3.61700 33.21900 31.71100
H  -0.80400 34.14000 31.87200
H  -2.51700 36.39200 31.43100
H  -1.61900 35.94200 32.86000
H  -3.26600 35.32500 32.50000
H  -1.05700 32.08600 32.68500
H  -1.93100 30.99600 31.65600
H  -3.53300 30.67300 33.30600
H  -3.55900 32.43200 33.76700
H  1.34000 38.58400 28.49700
H  2.78900 37.40900 28.19000
H  1.62300 37.19400 29.45100
H  2.77700 39.37200 24.81500
H  3.09800 38.38000 26.20900
H  1.67900 39.49100 26.19700
H  -0.58200 33.91100 22.02400
H  -3.40000 33.09400 22.06700
H  -2.10000 36.23600 22.38500
H  -2.96400 35.31000 21.11800
H  -1.17900 35.75300 21.05500
H  -1.11600 31.98600 20.90400
H  -2.49500 31.05600 21.10300
H  -0.64400 31.09600 23.48400
H  0.03300 30.60400 21.86500
H  -1.32800 29.74300 22.61200
H  -4.84600 28.98700 24.59300
H  -6.50000 29.62100 24.96800
H  -5.77200 28.35100 25.88900
H  -4.00100 30.04900 30.60100
H  -6.22900 32.04500 33.33700
H  -6.89400 30.42600 33.68700
H  -7.63300 31.40100 32.43500

