158

Mg 25.06800 2.03300 30.05000
C  27.14300 2.02800 32.80300
C  22.36700 1.83100 32.27500
C  22.90000 1.83200 27.38800
C  27.78500 1.81400 27.92100
N  24.76500 2.12600 32.29400
C  25.78800 2.19900 33.18900
C  25.29300 2.45900 34.68600
C  23.69100 1.97500 34.50400
C  23.55200 1.93000 32.96800
C  23.41600 0.59400 35.10700
C  25.52400 3.95100 35.16900
C  26.64400 4.09100 36.32600
H  26.41400 5.03100 37.47500
N  22.95200 1.96000 29.83900
C  22.01600 1.88300 30.90300
C  20.69200 1.82700 30.33400
C  20.83900 1.69700 28.94000
C  22.25300 1.88300 28.63600
C  19.46900 1.73700 31.17300
C  19.80900 1.40600 27.91700
O  19.97800 1.32600 26.70200
C  18.39900 1.11400 28.33700
N  25.34200 1.71200 27.97800
C  24.31800 1.78000 27.10500
C  24.83800 1.94300 25.64700
C  26.36100 1.97200 25.86600
C  26.49500 1.84100 27.34200
C  24.38700 0.72200 24.70700
C  27.01900 3.25100 25.25100
C  26.72700 4.63700 25.89600
N  27.06000 1.89100 30.20900
C  28.04600 1.79200 29.29600
C  29.32800 1.84200 30.02500
C  29.02900 1.95500 31.35000
C  27.64300 1.94100 31.43100
C  30.67600 1.65800 29.33600
C  29.60200 2.01100 32.70500
O  30.75400 2.00200 33.05000
C  28.37100 2.16800 33.66600
C  28.44800 1.21200 34.78800
O  28.15200 0.03300 34.68500
O  29.09600 1.80400 35.89900
C  29.02900 0.91400 37.13300
H  21.54800 1.86400 32.99700
H  22.31000 1.92800 26.47400
H  28.59900 1.95300 27.20600
H  25.73900 1.69300 35.32100
H  23.11800 2.75400 35.00600
H  22.53100 0.17700 34.62700
H  23.12500 0.80800 36.13500
H  24.25400 -0.10300 35.10800
H  24.55700 4.37100 35.44600
H  25.93100 4.49600 34.31700
H  27.53800 4.35200 35.76000
H  26.84300 3.09900 36.73200
H  18.83300 2.57300 30.88100
H  19.62300 1.76500 32.25200
H  18.88500 0.82200 31.07200
H  17.93200 1.97400 28.81800
H  18.42800 0.26200 29.01700
H  17.90800 0.90200 27.38800
H  24.50400 2.85300 25.14900
H  26.82400 1.12900 25.35100
H  24.65600 1.07100 23.71000
H  23.33100 0.45300 24.66900
H  25.07100 -0.06200 25.03100
H  26.81900 3.40700 24.19100
H  28.10000 3.23900 25.39300
H  27.68200 5.09700 26.14900
H  26.13500 4.42100 26.78500
H  26.26100 5.44200 25.32700
H  30.68200 2.40900 28.54600
H  30.77700 0.63800 28.96400
H  31.47200 1.95000 30.02200
H  28.36300 3.17400 34.08500
H  30.01100 0.94600 37.60400
H  28.84100 -0.14500 36.95800
H  28.29300 1.15100 37.90100
Mg -5.93500 24.86000 25.90300
C  -4.45900 26.01400 28.94100
C  -7.88300 22.85800 27.86500
C  -7.06300 23.54800 23.13700
C  -3.35300 26.58200 24.13900
N  -6.02800 24.34700 28.24000
C  -5.49700 25.09400 29.23700
C  -6.07600 24.77400 30.55800
C  -6.94000 23.46300 30.21600
C  -6.99000 23.59500 28.66200
C  -6.28500 22.09700 30.53800
C  -6.93900 25.98200 31.15900
C  -6.52200 26.36200 32.56800
H  -5.86200 25.31700 33.49800
N  -7.36500 23.41300 25.51200
C  -8.04700 22.67000 26.44400
C  -8.83500 21.76800 25.75600
C  -8.74100 21.97100 24.36600
C  -7.72200 23.06700 24.25800
C  -9.67100 20.67200 26.46300
C  -9.38200 21.33600 23.25600
O  -9.14200 21.70300 22.10300
C  -10.38400 20.22200 23.46200
N  -5.32600 25.08800 23.94500
C  -5.94900 24.40100 22.94900
C  -5.44500 24.83000 21.55600
C  -4.30100 25.79800 21.88500
C  -4.32300 25.83300 23.42400
C  -4.87800 23.62900 20.77300
C  -4.51400 27.24100 21.27900
C  -3.47800 27.58100 20.20200
N  -4.40100 26.10500 26.34500
C  -3.40000 26.70400 25.54300
C  -2.50800 27.45100 26.35700
C  -2.92600 27.26400 27.68800
C  -4.05000 26.43200 27.62600
C  -1.34200 28.35000 25.86700
C  -2.72600 27.60900 29.11200
O  -1.88200 28.33900 29.67300
C  -3.72600 26.78600 29.97400
C  -2.85700 25.98900 30.90300
O  -2.34700 24.90100 30.61400
O  -2.62500 26.66600 32.04100
C  -1.52600 26.32800 32.93500
H  -8.44600 22.09800 28.41100
H  -7.37600 23.12800 22.17900
H  -2.64000 27.10900 23.50100
H  -5.32900 24.49200 31.30000
H  -7.96800 23.44900 30.57600
H  -7.05700 21.55000 31.08000
H  -5.48600 22.30200 31.25000
H  -6.03900 21.54400 29.63100
H  -7.99700 25.72900 31.22100
H  -6.91800 26.83800 30.48500
H  -7.25200 26.81400 33.23800
H  -5.73500 27.07000 32.30700
H  -10.73500 20.89200 26.37100
H  -9.38700 20.58900 27.51200
H  -9.41900 19.71000 26.01900
H  -10.71200 20.06900 22.43400
H  -11.24800 20.63100 23.98600
H  -10.03900 19.27300 23.87300
H  -6.18600 25.36600 20.96300
H  -3.35000 25.30800 21.67500
H  -5.21000 23.71500 19.73800
H  -5.30600 22.72200 21.19900
H  -3.79300 23.52500 20.78300
H  -4.48900 28.06400 21.99300
H  -5.44100 27.36300 20.72000
H  -2.72500 26.79600 20.13400
H  -2.99900 28.54300 20.37900
H  -4.00100 27.61800 19.24600
H  -1.68200 29.34800 25.59300
H  -0.85400 27.98100 24.96400
H  -0.80500 28.39300 26.81500
H  -4.23300 27.56300 30.54700
H  -0.73000 27.04800 32.74700
H  -1.15100 25.32900 32.71200
H  -1.85000 26.37800 33.97400

