158

Mg -1.08900 7.31800 26.31900
C  -0.00500 9.38100 28.97500
C  -0.87500 4.62500 28.62200
C  -1.59300 5.17900 23.82800
C  -0.34700 9.93000 24.15700
N  -0.45700 7.04200 28.56500
C  -0.33900 8.06300 29.44400
C  -0.40500 7.61200 30.93900
C  -0.38300 6.02700 30.74500
C  -0.52400 5.84700 29.20500
C  0.63800 5.16700 31.55600
C  -1.70200 8.16000 31.65000
C  -1.75900 8.09600 33.22900
H  -0.44300 7.63500 33.87000
N  -1.19100 5.17500 26.29200
C  -1.09500 4.25200 27.30700
C  -1.38800 2.93100 26.78800
C  -1.59100 3.05700 25.35500
C  -1.50300 4.55800 25.06700
C  -1.55500 1.63500 27.59000
C  -1.94200 1.99900 24.32400
O  -2.17300 2.30400 23.19000
C  -1.70900 0.52400 24.73100
N  -0.95400 7.53600 24.23300
C  -1.34800 6.48100 23.40900
C  -1.56700 7.09000 21.89900
C  -1.06000 8.59800 22.10600
C  -0.81500 8.70700 23.59300
C  -0.76400 6.37800 20.71200
C  -1.88800 9.71200 21.44500
C  -3.04600 10.29800 22.22400
N  -0.38100 9.32400 26.45000
C  -0.13800 10.23600 25.51900
C  0.47500 11.41900 26.07800
C  0.45400 11.17300 27.46400
C  0.00400 9.83100 27.60400
C  0.82000 12.78500 25.34000
C  0.83600 11.59300 28.83500
O  1.38900 12.60200 29.25900
C  0.42300 10.51200 29.80000
C  1.57600 10.25800 30.67300
O  2.45300 9.46100 30.40000
O  1.51000 11.12700 31.75200
C  2.68100 11.11000 32.69600
H  -0.95700 3.75500 29.27600
H  -1.84800 4.57500 22.95500
H  -0.22600 10.67400 23.36700
H  0.50700 7.90300 31.46000
H  -1.30500 5.62000 31.16100
H  1.06500 5.76000 32.36500
H  1.53100 4.84800 31.01700
H  0.24700 4.28300 32.05900
H  -2.54300 7.65200 31.17900
H  -1.77000 9.19500 31.31400
H  -2.54100 7.46900 33.65700
H  -1.86400 9.14200 33.51600
H  -2.43500 1.12300 27.19900
H  -1.74600 1.96100 28.61300
H  -0.67900 0.99400 27.48900
H  -1.41300 -0.11700 23.90100
H  -2.58000 0.17600 25.28500
H  -0.86300 0.50100 25.41700
H  -2.61200 7.11400 21.59200
H  -0.05400 8.67600 21.69400
H  -1.54300 6.03500 20.03100
H  -0.22200 5.50300 21.07000
H  -0.14900 7.05600 20.12000
H  -2.38900 9.26000 20.58900
H  -1.30800 10.51000 20.98100
H  -4.03300 10.07500 21.81900
H  -2.88600 11.37500 22.28300
H  -2.97600 9.91800 23.24300
H  1.43200 12.48800 24.48900
H  1.41200 13.31400 26.08800
H  -0.09800 13.31800 25.09200
H  -0.41000 11.04000 30.26500
H  2.55700 12.00900 33.29900
H  3.61600 11.19400 32.14300
H  2.60000 10.16500 33.23300
Mg -6.14300 25.26000 25.67800
C  -4.61900 26.59700 28.45600
C  -7.86700 23.28300 27.58000
C  -6.97900 23.54900 22.86000
C  -4.06100 27.25200 23.63100
N  -6.15200 24.89100 27.79800
C  -5.58500 25.63700 28.78700
C  -6.03900 25.28500 30.21100
C  -6.91900 23.96700 29.82300
C  -6.97600 24.04400 28.25700
C  -6.33900 22.68700 30.22600
C  -6.91900 26.30700 30.92400
C  -6.78900 26.47700 32.43500
H  -6.52600 25.30600 33.46100
N  -7.34800 23.73300 25.27400
C  -8.03200 23.05800 26.20500
C  -8.86400 22.06000 25.58900
C  -8.52500 22.04000 24.15700
C  -7.57500 23.15000 24.07400
C  -10.05400 21.32300 26.37100
C  -9.11200 21.13700 23.07700
O  -8.75000 21.31500 21.93500
C  -10.05300 20.01400 23.34900
N  -5.61900 25.37700 23.54000
C  -6.18900 24.62400 22.57800
C  -5.64000 24.85600 21.14100
C  -4.92000 26.22000 21.36000
C  -4.79600 26.28800 22.94200
C  -4.76900 23.66000 20.70100
C  -5.69800 27.49500 20.89700
C  -5.01700 28.16900 19.71400
N  -4.65700 26.67800 25.91300
C  -3.82100 27.34100 25.01800
C  -2.92600 28.27800 25.79600
C  -3.18800 27.88300 27.14000
C  -4.24100 26.91400 27.17700
C  -1.93100 29.26700 25.29000
C  -2.76400 28.16900 28.50500
O  -2.04300 28.97200 29.03900
C  -3.76400 27.32700 29.42100
C  -2.99400 26.47900 30.33100
O  -2.40800 25.44400 30.10700
O  -2.93300 27.13900 31.52800
C  -2.37300 26.37500 32.64500
H  -8.48800 22.66400 28.23200
H  -7.25200 23.04300 21.93200
H  -3.46400 27.97800 23.07500
H  -5.23300 25.07200 30.91400
H  -7.91900 23.94500 30.25700
H  -6.18100 22.01200 29.38400
H  -6.98900 22.18800 30.94500
H  -5.44200 22.78900 30.83700
H  -7.93400 26.14000 30.56100
H  -6.59800 27.30400 30.62100
H  -7.67200 26.98900 32.81700
H  -6.03900 27.23800 32.65200
H  -11.04300 21.30600 25.91300
H  -10.25500 21.77800 27.34100
H  -9.86000 20.25300 26.44600
H  -10.13300 19.44800 22.42100
H  -11.05500 20.33500 23.63300
H  -9.70600 19.32000 24.11400
H  -6.44200 24.93000 20.40700
H  -3.94300 26.09800 20.89300
H  -4.14300 23.89800 19.84100
H  -5.38400 22.87400 20.26300
H  -4.16400 23.27200 21.52100
H  -5.73200 28.27900 21.65400
H  -6.72900 27.29200 20.60700
H  -5.34400 27.77700 18.75100
H  -3.93500 28.04300 19.75200
H  -5.06000 29.24800 19.86500
H  -1.96500 29.46800 24.21900
H  -0.92700 29.05900 25.65900
H  -2.25900 30.21800 25.71000
H  -4.37400 28.05000 29.96300
H  -2.88300 26.66800 33.56300
H  -1.31900 26.58600 32.82700
H  -2.43200 25.29800 32.49500

