158

Mg 44.54900 4.36500 47.83900
C  42.49200 7.12800 47.35200
C  41.83400 2.29800 47.73800
C  46.60100 1.71800 48.02700
C  47.28900 6.53400 47.44000
N  42.43800 4.72500 47.42100
C  41.78700 5.88700 47.39300
C  40.37400 5.72700 47.05100
C  40.12200 4.22900 47.40800
C  41.60200 3.68200 47.69600
C  39.23700 4.08800 48.66200
C  40.06500 6.10600 45.55500
C  39.12200 7.36900 45.33000
H  39.52600 8.06700 44.06700
N  44.23200 2.28800 47.95700
C  43.07600 1.63100 47.86300
C  43.31900 0.22800 47.95600
C  44.67000 0.03400 48.17800
C  45.22700 1.33200 48.06700
C  42.28100 -0.90400 47.83000
C  45.39300 -1.31100 48.42600
O  44.75500 -2.36100 48.49100
C  46.85100 -1.43600 48.63900
N  46.66800 4.22800 47.76700
C  47.17500 2.98700 47.88800
C  48.78700 3.09600 47.93300
C  49.03700 4.60700 47.69600
C  47.62600 5.20200 47.65000
C  49.59800 2.63200 49.12800
C  50.06700 5.07300 46.61300
C  51.20600 6.02400 47.12400
N  44.90000 6.46400 47.49000
C  46.08900 7.20000 47.48700
C  45.76500 8.63900 47.45500
C  44.33800 8.68400 47.34100
C  43.92200 7.32600 47.36700
C  46.76000 9.79700 47.42800
C  43.18500 9.55800 47.29900
O  43.01300 10.78800 47.24400
C  41.96400 8.57300 47.39200
C  41.29700 8.83600 48.70200
O  41.36300 8.17200 49.69000
O  40.40000 9.89800 48.57000
C  39.41800 9.97000 49.59900
H  40.94800 1.66000 47.71900
H  47.36800 0.95200 48.15600
H  48.11800 7.23500 47.55800
H  39.87800 6.36300 47.78400
H  39.50700 3.68800 46.68900
H  38.54100 4.90400 48.85300
H  39.83700 3.86600 49.54500
H  38.59800 3.22400 48.47800
H  39.48100 5.29900 45.11100
H  40.96800 6.39200 45.01600
H  39.25200 7.96500 46.23400
H  38.07400 7.06900 45.32800
H  42.47700 -1.48700 46.93000
H  41.35200 -0.37100 47.62700
H  42.14000 -1.52000 48.71900
H  47.28000 -1.38000 47.63800
H  46.97400 -2.42200 49.08700
H  47.08700 -0.71200 49.42000
H  49.16500 2.53800 47.07600
H  49.24400 5.07800 48.65700
H  50.39000 3.25900 49.53900
H  50.14500 1.77200 48.74200
H  48.88400 2.34500 49.90100
H  49.53100 5.46000 45.74700
H  50.55600 4.14600 46.31300
H  52.14600 5.51800 47.34500
H  51.00900 6.40200 48.12800
H  51.41800 6.87600 46.47800
H  47.66000 9.66000 46.82800
H  47.20500 9.84500 48.42200
H  46.24900 10.72100 47.15800
H  41.37900 8.87500 46.52300
H  39.79700 10.04200 50.61800
H  38.68700 9.18400 49.41100
H  38.86700 10.90200 49.46900
Mg 17.38600 52.33900 26.34200
C  19.33900 50.68200 28.82500
C  15.01200 52.85100 28.89600
C  15.39500 53.57900 24.11500
C  19.68300 51.43500 23.93700
N  17.17400 51.78500 28.56100
C  18.09700 51.10900 29.36900
C  17.74100 51.38900 30.83800
C  16.20200 51.63000 30.70400
C  16.06300 52.08100 29.26100
C  15.32600 50.41200 31.06200
C  18.56200 52.55000 31.43200
C  18.80700 52.39200 32.96100
H  17.92600 51.46800 33.79400
N  15.40400 53.09800 26.47600
C  14.67600 53.30200 27.60800
C  13.53000 54.16100 27.33600
C  13.62900 54.39200 25.93100
C  14.82700 53.74900 25.39300
C  12.52700 54.70000 28.51200
C  12.70000 55.21400 25.13100
O  12.92600 55.44800 23.95400
C  11.40200 55.82200 25.69700
N  17.32500 52.14900 24.23400
C  16.49500 52.89300 23.55400
C  16.87400 53.08400 22.05200
C  18.35900 52.48900 22.01400
C  18.46300 51.96200 23.51100
C  15.80900 52.39400 21.13900
C  19.35900 53.54400 21.44200
C  20.12700 54.52500 22.27300
N  19.10500 51.26000 26.32500
C  19.95200 51.01900 25.27100
C  21.15300 50.34900 25.70100
C  20.98200 50.15700 27.07900
C  19.70500 50.72500 27.41200
C  22.27900 49.84500 24.84400
C  21.55500 49.62000 28.32000
O  22.59200 48.94200 28.43700
C  20.54200 50.00100 29.51900
C  20.15800 48.76700 30.25200
O  19.45200 47.85400 29.80400
O  20.58800 48.98600 31.56200
C  20.05600 47.89200 32.44200
H  14.26900 52.99500 29.68400
H  14.80100 54.07700 23.34500
H  20.42300 51.38200 23.13600
H  17.98200 50.45000 31.33600
H  15.84900 52.52100 31.22300
H  15.09500 49.82500 30.17400
H  14.45600 50.82300 31.57400
H  15.84500 49.81600 31.81400
H  18.09400 53.50400 31.18800
H  19.49700 52.47400 30.87700
H  18.79000 53.34100 33.49700
H  19.83600 52.07600 33.13400
H  12.76500 54.40600 29.53400
H  11.58500 54.19200 28.30300
H  12.46300 55.78700 28.47300
H  10.84100 56.22200 24.85200
H  11.70400 56.67100 26.30900
H  10.79800 55.19600 26.35400
H  16.85100 54.17000 21.96600
H  18.50000 51.66700 21.31200
H  16.37000 51.89100 20.35200
H  15.09900 53.13600 20.77400
H  15.30800 51.55300 21.61900
H  18.87000 54.14100 20.67200
H  20.15900 53.05200 20.89000
H  20.40400 55.45400 21.77300
H  21.05000 54.11600 22.68300
H  19.52600 54.78700 23.14400
H  22.30600 50.35100 23.87900
H  21.96300 48.82900 24.60700
H  23.20600 49.94800 25.40800
H  20.90500 50.76900 30.20200
H  18.97200 47.96100 32.35000
H  20.31000 48.18300 33.46100
H  20.49800 46.94700 32.12800

