158

Mg 35.96500 3.10400 30.44300
C  33.42000 4.14100 32.67300
C  38.02800 2.72800 33.32400
C  38.59200 2.42300 28.39200
C  33.94400 3.89800 27.80800
N  35.76100 3.58500 32.69600
C  34.64200 3.85100 33.31800
C  34.79000 3.66500 34.89500
C  36.35300 3.65800 35.04700
C  36.76300 3.23700 33.63900
C  37.00500 4.95200 35.48200
C  34.04100 2.33300 35.38400
C  33.15000 2.46500 36.67400
H  33.57100 3.43900 37.73900
N  38.02700 2.58300 30.74700
C  38.64000 2.48100 32.01800
C  40.00500 1.94100 31.81400
C  40.18300 1.87600 30.34900
C  38.90000 2.31400 29.74700
C  40.93500 1.56100 33.02800
C  41.38300 1.37400 29.54000
O  41.25800 1.21300 28.32700
C  42.71400 1.16600 30.23600
N  36.29900 3.39100 28.45900
C  37.45900 2.98000 27.77200
C  37.16600 2.98500 26.21500
C  35.62500 3.24700 26.14300
C  35.25200 3.55500 27.54000
C  37.97000 4.02500 25.40300
C  34.77800 2.08700 25.55200
C  34.04400 2.38000 24.24900
N  34.03100 3.92700 30.20600
C  33.32000 4.06000 29.00900
C  31.90000 4.35800 29.37800
C  31.91200 4.41800 30.81500
C  33.28100 4.15200 31.26700
C  30.66200 4.55200 28.55900
C  31.08300 4.76200 31.98500
O  29.82700 4.99300 32.11300
C  32.02500 4.51400 33.24800
C  31.95400 5.77300 33.97000
O  32.40600 6.84000 33.61000
O  31.29700 5.45200 35.15400
C  30.91800 6.58700 36.04300
H  38.71900 2.50300 34.13900
H  39.36900 2.32900 27.63100
H  33.39300 4.20500 26.91600
H  34.42200 4.58800 35.34300
H  36.64800 2.80000 35.65000
H  37.45700 4.84200 36.46800
H  36.39700 5.84700 35.34800
H  37.87100 5.09100 34.83500
H  34.78700 1.55900 35.56500
H  33.32500 2.12400 34.59000
H  33.11800 1.48300 37.14700
H  32.09200 2.54500 36.42400
H  41.05400 0.47900 32.98200
H  40.58600 1.87700 34.01100
H  41.80900 2.16700 32.78900
H  42.61600 0.42700 31.03200
H  43.08700 2.09800 30.66100
H  43.36500 0.74200 29.47200
H  37.40100 2.00200 25.80800
H  35.42700 4.18100 25.61700
H  37.34400 4.67100 24.78600
H  38.80000 3.55600 24.87400
H  38.28900 4.68200 26.21200
H  34.14600 1.78700 26.38700
H  35.38900 1.26100 25.18800
H  33.96700 3.46100 24.13100
H  33.07200 1.89000 24.30800
H  34.53500 1.90000 23.40300
H  30.87200 4.27100 27.52700
H  30.52200 5.63200 28.61500
H  29.77200 4.08100 28.97600
H  31.61400 3.67300 33.80600
H  30.73900 7.58100 35.63400
H  31.78700 6.76100 36.67700
H  30.07400 6.29800 36.67000
Mg 26.70700 50.11500 26.14500
C  24.80400 51.40700 28.62200
C  29.36400 49.48800 28.27800
C  28.40400 49.02500 23.64700
C  24.19500 51.19300 23.79800
N  26.99000 50.17000 28.20900
C  26.07300 50.82900 29.01500
C  26.59000 50.73300 30.44700
C  28.03100 50.19300 30.42400
C  28.18000 50.01900 28.83400
C  29.05300 51.20700 31.07700
C  25.60500 49.89000 31.32600
C  25.08500 50.43900 32.65800
H  26.08600 50.86500 33.79100
N  28.65600 49.38300 25.95300
C  29.59000 49.14400 26.93900
C  30.74400 48.41000 26.37900
C  30.42500 48.28900 24.99700
C  29.11500 48.90000 24.79700
C  31.80400 47.88000 27.31600
C  31.34000 47.63600 23.96100
O  30.94800 47.51500 22.81300
C  32.68200 47.01600 24.33400
N  26.42900 50.41100 23.89800
C  27.20800 49.59000 23.19900
C  26.76600 49.51500 21.80500
C  25.34300 50.02000 21.85700
C  25.28900 50.51900 23.25600
C  27.52400 50.37000 20.78900
C  24.21800 48.96000 21.46600
C  24.23200 47.67400 22.23900
N  24.87400 51.08600 26.16000
C  23.99800 51.44700 25.19200
C  22.91000 52.18200 25.70800
C  23.17000 52.24300 27.07500
C  24.37300 51.53400 27.30000
C  21.83700 52.92100 24.94000
C  22.69900 52.65600 28.33100
O  21.74000 53.34500 28.58200
C  23.71100 52.06400 29.41100
C  24.18500 53.17900 30.28600
O  25.23600 53.76200 30.15200
O  23.29300 53.34800 31.35100
C  23.86800 54.06300 32.52600
H  30.14300 49.24300 29.00300
H  28.96000 48.70200 22.76400
H  23.32800 51.43000 23.17800
H  26.61800 51.77500 30.76700
H  28.13700 49.21500 30.89400
H  29.72500 50.68800 31.76100
H  28.51100 52.00900 31.57600
H  29.80100 51.61000 30.39400
H  26.06000 48.92000 31.52700
H  24.74600 49.71400 30.67800
H  24.61600 49.53500 33.04800
H  24.24600 51.09400 32.42100
H  32.34200 47.02000 26.91800
H  31.30700 47.63500 28.25500
H  32.50800 48.69600 27.48100
H  32.50000 46.08800 24.87700
H  33.17100 47.77600 24.94400
H  33.14500 46.79800 23.37200
H  26.80900 48.47400 21.48500
H  25.15800 50.97200 21.36000
H  28.39000 50.75700 21.32600
H  27.05800 51.15600 20.19400
H  27.92300 49.64000 20.08400
H  24.14200 48.77000 20.39600
H  23.27700 49.47800 21.65600
H  24.09600 47.74000 23.31800
H  25.13200 47.06900 22.12600
H  23.28100 47.22000 21.96200
H  21.43700 53.62200 25.67300
H  21.04100 52.27600 24.56800
H  22.24400 53.59700 24.18900
H  23.24300 51.37600 30.11500
H  24.08900 55.10900 32.31400
H  24.82500 53.57900 32.72100
H  23.34200 53.85300 33.45700

