158

Mg 42.75600 41.82600 26.12100
C  42.13900 44.11000 28.73600
C  44.28000 39.80100 28.44600
C  43.79300 39.97000 23.56600
C  41.70300 44.38500 23.88400
N  43.18200 42.03300 28.29800
C  42.78200 42.98600 29.16400
C  42.96900 42.52000 30.61200
C  43.88300 41.24500 30.52500
C  43.84000 41.00900 28.97000
C  45.39900 41.45700 31.04300
C  41.63300 42.35400 31.43000
C  41.50200 43.26300 32.71200
H  42.41000 42.77400 33.83200
N  43.77900 40.11800 26.00400
C  44.31000 39.40500 27.05900
C  44.95400 38.22100 26.55100
C  44.89600 38.30500 25.13000
C  44.07000 39.46500 24.81500
C  45.64500 37.19300 27.32600
C  45.51500 37.38100 24.15900
O  45.29200 37.43500 22.97000
C  46.49100 36.26400 24.51400
N  42.80100 42.18900 24.08200
C  43.08000 41.17200 23.24700
C  42.93800 41.59600 21.72900
C  42.23100 42.99100 21.91000
C  42.31500 43.24500 23.36400
C  44.26800 41.72900 20.93700
C  40.83000 43.04400 21.38500
C  39.81800 41.92900 21.87300
N  41.98800 43.86400 26.19800
C  41.52000 44.66600 25.22400
C  40.88100 45.89000 25.82700
C  41.15500 45.68400 27.22800
C  41.81300 44.44100 27.37400
C  40.54900 47.19300 25.20400
C  41.06800 46.27200 28.49600
O  40.63900 47.42600 28.82800
C  41.65300 45.31100 29.57100
C  42.81700 45.99500 30.15000
O  43.91300 46.18600 29.68000
O  42.46300 46.33100 31.40800
C  43.57300 46.74400 32.29400
H  44.72800 39.13300 29.18500
H  43.98100 39.28700 22.73500
H  41.42800 45.19200 23.20200
H  43.44500 43.38800 31.06900
H  43.48900 40.43500 31.13900
H  45.58600 42.47100 31.39700
H  46.14100 41.29600 30.26100
H  45.55700 40.87000 31.94700
H  41.68700 41.28200 31.62200
H  40.78600 42.66100 30.81700
H  40.48000 43.15700 33.07700
H  41.76100 44.30600 32.53100
H  46.71400 37.39600 27.26500
H  45.27200 36.21500 27.02100
H  45.30600 37.24400 28.36000
H  45.86900 35.44200 24.86900
H  47.20800 36.61200 25.25700
H  47.00600 36.01500 23.58500
H  42.24500 40.87300 21.29900
H  42.77300 43.73100 21.32200
H  45.09500 41.46900 21.59800
H  44.33100 42.67100 20.39200
H  44.31600 40.89600 20.23700
H  41.04100 42.96300 20.31900
H  40.39200 44.03500 21.49800
H  40.34200 41.45800 22.70500
H  39.48400 41.30000 21.04800
H  38.90700 42.34500 22.30400
H  40.39000 47.09100 24.13100
H  41.29600 47.95400 25.43300
H  39.63200 47.55000 25.67200
H  40.88900 45.05200 30.30300
H  43.95700 47.63600 31.79900
H  44.32100 45.95200 32.33900
H  43.07700 46.90300 33.25100
Mg 30.37000 58.03100 40.32100
C  27.96000 56.04300 39.25100
C  32.70500 55.84900 39.08300
C  32.82900 60.40500 40.54500
C  27.96000 60.67400 40.76000
N  30.32000 56.25800 39.09000
C  29.15200 55.56400 38.88900
C  29.45700 54.19700 38.31900
C  30.95700 53.98900 38.69500
C  31.36200 55.45500 38.92600
C  31.04400 53.06900 39.90500
C  29.25300 54.19000 36.81500
C  28.25000 53.12500 36.31900
H  27.53700 53.44700 35.00700
N  32.49800 58.17600 39.89600
C  33.22800 57.10200 39.47000
C  34.67000 57.43900 39.51200
C  34.78600 58.74600 39.97000
C  33.30100 59.19600 40.14100
C  35.86100 56.42000 39.34300
C  36.08800 59.51700 40.26600
O  37.19200 59.01800 40.03100
C  36.02800 60.89400 40.80900
N  30.37500 60.27200 40.55700
C  31.53000 60.90200 40.82200
C  31.30200 62.39200 41.37400
C  29.70700 62.52200 41.37200
C  29.25000 61.05100 40.80700
C  32.08000 62.80000 42.61300
C  29.15700 63.66500 40.46200
C  28.22200 64.66000 41.27100
N  28.40300 58.28900 40.13600
C  27.54600 59.39900 40.48800
C  26.12900 58.90700 40.27700
C  26.25600 57.61300 39.78700
C  27.65200 57.33900 39.72400
C  24.94000 59.73700 40.55400
C  25.48700 56.54000 39.15100
O  24.31500 56.53200 38.80200
C  26.56100 55.37100 38.91300
C  26.19900 54.24200 39.88600
O  26.92100 53.70600 40.75200
O  25.05900 53.60000 39.44500
C  24.76200 52.21500 39.80700
H  33.37000 55.01900 38.83600
H  33.55900 61.13900 40.89200
H  27.21000 61.37900 41.12400
H  28.86400 53.41200 38.78800
H  31.54200 53.46200 37.94100
H  30.10700 53.02300 40.45900
H  31.73600 53.64300 40.52200
H  31.42800 52.07300 39.68200
H  30.23400 54.19900 36.34000
H  28.92700 55.20000 36.56300
H  27.49900 52.94600 37.08800
H  28.89400 52.29700 36.02100
H  35.84600 56.15000 38.28700
H  35.82200 55.49100 39.91100
H  36.87300 56.76600 39.55200
H  35.54000 60.96500 41.78100
H  35.48200 61.35400 39.98600
H  37.04300 61.28900 40.84600
H  31.71800 62.92400 40.51800
H  29.37000 62.66500 42.39900
H  32.26500 61.85600 43.12600
H  31.54700 63.47200 43.28500
H  33.08000 63.15100 42.35800
H  28.64300 63.27600 39.58300
H  30.00600 64.21300 40.05300
H  27.50600 64.14200 41.90900
H  27.63700 65.29300 40.60500
H  28.80700 65.31900 41.91300
H  25.02300 60.57200 39.85900
H  24.95500 60.12800 41.57200
H  23.99100 59.25900 40.31500
H  26.51400 54.98700 37.89400
H  23.69100 52.10500 39.97800
H  25.27900 51.82700 40.68500
H  25.08300 51.52900 39.02400

