158

Mg 24.15300 -4.54000 45.59100
C  26.32000 -2.34600 44.03600
C  21.52700 -3.29500 43.73100
C  22.49200 -7.45500 45.96600
C  27.03700 -6.15800 47.16400
N  23.97800 -2.95000 44.09300
C  24.97500 -2.19000 43.51700
C  24.44500 -1.29200 42.39100
C  22.89400 -1.49600 42.50500
C  22.77100 -2.70100 43.53400
C  22.02800 -0.24800 42.88100
C  25.16900 -1.64200 41.05900
C  25.56500 -0.48000 40.20900
H  25.03900 -0.55000 38.84600
N  22.19300 -5.30200 45.03100
C  21.27000 -4.52700 44.34200
C  20.02500 -5.25000 44.32300
C  20.26700 -6.52100 44.97200
C  21.67000 -6.45200 45.36300
C  18.74500 -4.64700 43.65800
C  19.23800 -7.61200 45.16600
O  18.15100 -7.50200 44.63800
C  19.42300 -8.79600 46.02900
N  24.73400 -6.55200 46.27000
C  23.81500 -7.49700 46.44200
C  24.46100 -8.88800 46.87600
C  25.89100 -8.42900 47.30200
C  25.93700 -6.99400 46.89200
C  23.76100 -9.63800 48.06600
C  27.04000 -9.29200 46.73600
C  28.12800 -10.00900 47.55200
N  26.14700 -4.23800 45.87300
C  27.10600 -4.90100 46.57000
C  28.38400 -4.18900 46.35700
C  28.09300 -3.18400 45.43700
C  26.70000 -3.30600 45.09600
C  29.71500 -4.68000 46.81200
C  28.67000 -2.15900 44.63200
O  29.87800 -1.84500 44.44300
C  27.53100 -1.56300 43.73500
C  27.32500 -0.12400 43.92400
O  26.63000 0.39500 44.83300
O  28.00500 0.53000 42.94500
C  28.11900 1.95800 42.97200
H  20.76300 -2.79300 43.13300
H  22.10100 -8.43700 46.23700
H  27.88400 -6.49200 47.76700
H  24.77200 -0.31800 42.75700
H  22.58500 -1.77100 41.49700
H  22.32300 0.69300 42.41700
H  21.98000 -0.12600 43.96300
H  21.00000 -0.33100 42.52900
H  24.43300 -2.19400 40.47400
H  25.80700 -2.48000 41.34100
H  26.64900 -0.36900 40.19100
H  25.14600 0.45000 40.59300
H  18.28300 -5.36300 42.97900
H  18.96100 -3.70800 43.14800
H  18.01300 -4.55500 44.46000
H  19.68500 -8.38400 47.00300
H  20.25600 -9.26700 45.50800
H  18.51400 -9.39500 46.08800
H  24.62100 -9.54700 46.02300
H  25.87400 -8.30000 48.38400
H  24.45500 -9.58000 48.90500
H  23.46800 -10.68200 47.94600
H  22.83200 -9.10600 48.26800
H  27.56700 -8.71500 45.97600
H  26.62400 -10.02500 46.04500
H  29.02100 -9.40300 47.70700
H  28.34000 -11.01900 47.20100
H  27.75200 -9.98900 48.57500
H  29.90600 -5.60100 46.26100
H  29.63000 -4.75600 47.89600
H  30.47600 -3.95100 46.53400
H  27.83100 -1.74800 42.70400
H  28.64200 2.21200 43.89400
H  27.10300 2.35200 42.94800
H  28.55200 2.30300 42.03300
Mg -1.52000 33.42900 27.20600
C  -3.63200 32.06300 29.79600
C  -0.15400 35.39600 29.68300
C  -0.21400 35.39400 24.88500
C  -3.34800 31.62600 24.94800
N  -1.83800 33.61100 29.54500
C  -2.67500 32.95600 30.33600
C  -2.41600 33.33000 31.78600
C  -1.49100 34.63600 31.71600
C  -1.14500 34.56300 30.23100
C  -2.12400 36.04000 32.05800
C  -1.73300 32.11200 32.54700
C  -2.54000 31.49200 33.67600
H  -1.81000 31.27900 34.99000
N  -0.13200 35.10900 27.30400
C  0.30300 35.72800 28.37200
C  1.26600 36.72600 27.91700
C  1.21100 36.85800 26.52100
C  0.23600 35.76500 26.17500
C  2.12400 37.46800 28.94100
C  1.83300 37.84300 25.52100
O  1.54300 37.78000 24.34400
C  2.67200 38.94000 26.04600
N  -1.72300 33.44600 25.19700
C  -1.01800 34.37200 24.42600
C  -1.33700 34.25100 22.93400
C  -2.10000 32.88400 22.93100
C  -2.37000 32.50300 24.42100
C  -2.13600 35.46000 22.34400
C  -1.31600 31.87300 22.08500
C  0.06200 31.50300 22.59900
N  -3.04300 32.07500 27.30900
C  -3.76700 31.48000 26.30700
C  -4.83200 30.63400 26.77000
C  -4.80000 30.81200 28.15400
C  -3.73800 31.74300 28.44500
C  -5.78300 29.83200 25.88100
C  -5.43400 30.38600 29.35900
O  -6.27700 29.47200 29.52500
C  -4.75600 31.16900 30.50300
C  -5.85900 31.90800 31.30700
O  -6.81300 32.43400 30.83500
O  -5.64100 31.68400 32.63300
C  -6.59800 32.14100 33.56300
H  0.33200 35.95300 30.48700
H  0.12200 36.03400 24.06700
H  -3.87400 31.16700 24.10800
H  -3.36000 33.61200 32.25200
H  -0.55700 34.69600 32.27500
H  -2.53100 36.66500 31.26300
H  -1.34100 36.64000 32.52300
H  -2.93800 35.88900 32.76800
H  -0.75000 32.39000 32.92700
H  -1.49900 31.38100 31.77300
H  -2.68500 30.46400 33.34300
H  -3.42800 32.07700 33.91400
H  3.11400 37.42200 28.48700
H  2.17400 36.91300 29.87800
H  1.92400 38.52500 29.11300
H  3.04500 39.49600 25.18600
H  3.49800 38.64700 26.69400
H  2.14100 39.67500 26.65200
H  -0.40500 34.09400 22.39100
H  -3.08000 32.94500 22.45900
H  -3.00600 35.16400 21.75800
H  -1.60400 36.11500 21.65500
H  -2.44300 35.99800 23.24100
H  -1.18400 32.14000 21.03700
H  -2.04700 31.06500 22.05900
H  0.46600 32.08200 23.43000
H  0.84300 31.51800 21.83900
H  0.07800 30.43200 22.80000
H  -6.79300 30.23900 25.83000
H  -5.77000 28.86200 26.37800
H  -5.41700 29.71800 24.86100
H  -4.23000 30.43700 31.11500
H  -6.11400 32.42200 34.49900
H  -7.35500 31.40900 33.84400
H  -7.11000 33.06600 33.29800

