158

Mg 9.30100 3.95900 27.17000
C  10.33700 2.36800 30.03100
C  7.19200 5.85100 29.00600
C  7.89600 4.91400 24.30000
C  10.46200 1.01700 25.31500
N  8.65300 3.99600 29.29100
C  9.43700 3.43900 30.24800
C  9.09200 4.00800 31.61100
C  7.84400 4.95100 31.35900
C  7.89400 5.03200 29.82400
C  6.45700 4.48500 31.93900
C  10.36200 4.51100 32.33000
C  10.06300 5.26000 33.60500
H  11.14600 5.29400 34.68200
N  7.79600 5.29500 26.71300
C  6.98600 5.98100 27.62500
C  6.20300 6.94800 26.84300
C  6.50600 6.76300 25.50400
C  7.46500 5.57900 25.43200
C  5.22200 7.95200 27.48900
C  6.00300 7.54900 24.25700
O  6.49200 7.37000 23.17300
C  4.88200 8.55900 24.49100
N  9.19600 2.97800 25.07500
C  8.56600 3.70500 24.11000
C  8.88400 3.13900 22.72900
C  9.62300 1.85700 23.01000
C  9.81900 1.89800 24.52800
C  7.76100 3.22500 21.64700
C  10.88200 1.46200 22.25200
C  10.99300 0.07800 21.47700
N  10.30900 2.20100 27.56600
C  10.72500 1.18200 26.69400
C  11.46900 0.17900 27.46300
C  11.42500 0.65100 28.76900
C  10.62500 1.84200 28.79800
C  12.20700 -1.03000 26.89400
C  11.87300 0.42100 30.09300
O  12.56700 -0.44400 30.60800
C  11.10700 1.46600 30.97500
C  10.14900 0.79400 31.88300
O  9.14600 0.15300 31.55200
O  10.70500 0.90600 33.21800
C  9.90500 0.41700 34.30600
H  6.54800 6.46900 29.63400
H  7.69400 5.34500 23.31700
H  10.85500 0.20000 24.70700
H  8.86500 3.15100 32.24500
H  8.10000 5.88500 31.85800
H  6.47500 3.46700 32.32800
H  5.74700 4.46000 31.11200
H  5.95300 5.08800 32.69400
H  11.09100 5.04800 31.72400
H  10.96600 3.64700 32.60600
H  9.23500 4.75900 34.10700
H  9.78300 6.26800 33.30100
H  4.23900 7.68300 27.10300
H  5.53600 8.93800 27.14600
H  5.30500 7.83000 28.56900
H  4.12300 8.16600 25.16800
H  4.34000 8.69900 23.55600
H  5.31200 9.47000 24.90800
H  9.65300 3.75000 22.25600
H  8.89900 1.04400 22.94200
H  6.88700 3.63100 22.15700
H  7.38400 2.29900 21.21400
H  8.06600 3.86900 20.82200
H  11.67700 1.47900 22.99700
H  11.24200 2.27000 21.61600
H  10.00000 -0.36500 21.41300
H  11.75900 -0.55200 21.93000
H  11.32500 0.19800 20.44600
H  13.29000 -0.97800 27.00200
H  12.02100 -1.13300 25.82500
H  11.84100 -1.90500 27.43300
H  11.81300 2.01000 31.60300
H  10.06700 1.04300 35.18400
H  10.41600 -0.45100 34.72300
H  8.84100 0.20900 34.19400
Mg 8.80200 48.06400 28.48100
C  7.25000 47.19100 31.49900
C  11.82600 47.93800 30.18300
C  10.25700 49.00300 25.58300
C  5.71000 48.59100 27.05800
N  9.41300 47.88500 30.67700
C  8.66000 47.34900 31.67800
C  9.47000 47.28700 33.03400
C  10.94000 47.58700 32.59600
C  10.72000 47.86200 31.04800
C  11.70500 48.77400 33.33000
C  9.29800 45.91000 33.70400
C  10.30900 45.41800 34.78300
H  9.81700 44.94900 36.23900
N  10.66000 48.43000 27.96400
C  11.85000 48.27600 28.81700
C  13.00300 48.33500 27.94100
C  12.57500 48.65100 26.63800
C  11.13700 48.65500 26.64900
C  14.45100 48.17100 28.45400
C  13.38700 48.90600 25.33300
O  12.89800 49.21200 24.23200
C  14.86600 48.82600 25.50200
N  8.09100 48.66300 26.62400
C  8.82900 49.06100 25.54400
C  8.05800 49.49800 24.30800
C  6.60800 49.29500 24.78000
C  6.82600 48.92100 26.26500
C  8.26200 50.98200 23.88800
C  5.88200 48.16900 24.08700
C  5.61700 48.28700 22.53300
N  6.83700 47.82500 29.07100
C  5.65900 48.05200 28.37000
C  4.54900 47.64200 29.17000
C  5.10500 47.34300 30.46300
C  6.49000 47.49900 30.34000
C  3.16000 47.42400 28.66900
C  4.77600 47.01300 31.83500
O  3.69600 46.94800 32.34500
C  6.19300 46.73800 32.59600
C  6.22000 45.33100 32.95300
O  6.65100 44.38900 32.23400
O  5.87400 45.25400 34.32700
C  6.02600 43.98900 35.02300
H  12.75500 47.66800 30.69000
H  10.62400 49.30900 24.60100
H  4.73200 48.75300 26.60100
H  9.06500 48.14400 33.57300
H  11.55200 46.69800 32.74700
H  12.77100 48.70200 33.11000
H  11.76400 48.71800 34.41700
H  11.30000 49.73900 33.02700
H  9.38700 45.20700 32.87600
H  8.34900 45.76900 34.22200
H  11.06000 46.17700 35.00200
H  10.90100 44.57400 34.42900
H  15.04600 49.08400 28.45600
H  14.90600 47.39200 27.84200
H  14.46100 47.90900 29.51200
H  15.23000 48.99400 24.48900
H  15.19700 47.84600 25.84500
H  15.19200 49.74100 25.99700
H  8.29500 48.87600 23.44500
H  5.98100 50.18600 24.81000
H  8.59700 51.00800 22.85100
H  8.98200 51.42700 24.57500
H  7.36300 51.59500 23.95100
H  5.02300 47.90700 24.70500
H  6.58400 47.33500 24.05500
H  6.25900 49.01100 22.03000
H  4.54200 48.43400 22.42800
H  5.85700 47.33100 22.06800
H  2.57000 46.88300 29.40900
H  3.08400 46.82700 27.75900
H  2.60300 48.34000 28.47100
H  6.22000 47.41900 33.44700
H  5.12900 43.39800 34.84200
H  5.97300 44.23900 36.08200
H  6.95400 43.50500 34.72000

