158

Mg 35.37600 1.21300 29.25800
C  33.30500 2.29300 31.85400
C  37.83200 0.87500 31.63700
C  37.73600 0.46500 26.84200
C  32.95300 1.84500 26.96300
N  35.56200 1.76900 31.50800
C  34.55000 1.98200 32.31300
C  34.98600 1.91300 33.76200
C  36.52300 1.75100 33.67100
C  36.68800 1.45800 32.20100
C  37.56100 2.75300 34.32400
C  34.18200 0.88900 34.61600
C  33.97400 1.14300 36.10700
H  34.72000 2.29100 36.74800
N  37.48400 0.83400 29.20700
C  38.25900 0.64400 30.27800
C  39.53500 0.09200 29.85300
C  39.60200 0.17500 28.47200
C  38.23500 0.50300 28.11800
C  40.60200 -0.26800 30.91300
C  40.76900 -0.07400 27.49800
O  40.58100 0.08200 26.29900
C  42.01400 -0.58100 27.94000
N  35.27600 1.15000 27.19900
C  36.41200 0.87400 26.39100
C  36.02100 0.67600 24.92000
C  34.49300 1.10600 24.98700
C  34.21300 1.32600 26.49000
C  36.81000 1.39600 23.79200
C  33.52000 0.15600 24.27800
C  33.12000 -1.14500 25.05600
N  33.50100 2.00700 29.29600
C  32.64400 2.14100 28.27900
C  31.39200 2.54400 28.78900
C  31.56300 2.68200 30.18400
C  32.83700 2.23400 30.49300
C  30.08500 2.66800 28.05800
C  30.90500 2.95300 31.46600
O  29.72200 3.20800 31.77700
C  31.99500 2.63400 32.55600
C  32.00200 3.85500 33.43200
O  32.72100 4.78000 33.34900
O  31.10300 3.66200 34.51100
C  31.06000 4.83100 35.45400
H  38.48000 0.75200 32.50700
H  38.44100 0.09800 26.09400
H  32.16800 2.08600 26.24400
H  34.78000 2.87000 34.24200
H  36.66900 0.79500 34.17400
H  38.20800 2.29000 35.07000
H  36.91600 3.50600 34.77400
H  38.11100 3.36000 33.60500
H  34.71200 -0.06400 34.62300
H  33.21300 0.68800 34.15900
H  34.06800 0.21900 36.67700
H  32.89900 1.31400 36.16500
H  40.20900 -0.37500 31.92400
H  41.50900 0.32700 30.80700
H  41.00600 -1.22900 30.59300
H  42.56100 0.25700 28.37300
H  42.62400 -0.97700 27.12900
H  41.88200 -1.39800 28.64900
H  36.00000 -0.37300 24.62600
H  34.35800 2.06100 24.47800
H  37.07000 0.67800 23.01400
H  37.69900 1.94700 24.10000
H  36.14400 2.14400 23.36300
H  34.01200 -0.21000 23.37700
H  32.66700 0.72300 23.90500
H  33.92600 -1.55300 25.66500
H  32.78500 -1.81100 24.26100
H  32.18800 -1.01200 25.60600
H  29.29800 2.33500 28.73500
H  29.96800 2.08900 27.14200
H  29.90700 3.69600 27.74500
H  31.58600 1.78200 33.09900
H  31.90400 4.73500 36.13600
H  30.12600 4.71700 36.00400
H  31.05400 5.78800 34.93200
Mg 40.14700 8.26900 29.97800
C  41.48200 9.45300 32.98500
C  37.61300 6.77200 31.69100
C  39.14800 6.93800 27.16100
C  43.09000 9.58200 28.35600
N  39.65300 8.09200 32.05900
C  40.23700 8.82600 33.09000
C  39.42300 8.64700 34.38500
C  38.14800 7.80700 34.00700
C  38.49500 7.50200 32.52300
C  37.89900 6.56600 34.83300
C  39.12100 10.03800 35.07700
C  38.96300 9.95000 36.57600
H  39.94700 10.76100 37.43900
N  38.49100 7.11100 29.47600
C  37.54900 6.62400 30.33300
C  36.67100 5.78400 29.58000
C  37.03300 5.89400 28.24200
C  38.32500 6.72000 28.23900
C  35.55800 4.88900 30.25600
C  36.36300 5.28700 27.02000
O  36.92000 5.19200 25.94900
C  34.94600 4.62500 27.12500
N  41.08200 8.10700 28.08400
C  40.37700 7.60900 27.09900
C  41.15500 7.70800 25.74800
C  42.21700 8.78200 26.07400
C  42.11400 8.81900 27.60500
C  41.77200 6.35200 25.33800
C  42.03300 10.15900 25.26000
C  40.68600 10.69500 24.81300
N  41.91000 9.27800 30.49400
C  42.98100 9.79000 29.73000
C  43.90300 10.53100 30.53600
C  43.38600 10.37700 31.80800
C  42.21700 9.60100 31.78600
C  45.13100 11.31700 30.14900
C  43.65900 10.64900 33.17800
O  44.65500 11.24100 33.68500
C  42.42800 10.11900 33.96400
C  42.86800 9.03600 34.91700
O  43.41700 7.92900 34.63300
O  42.54800 9.41500 36.26200
C  42.60500 8.25500 37.17100
H  36.73900 6.44900 32.26000
H  38.93500 6.32300 26.28400
H  43.89300 10.09900 27.82700
H  40.06600 8.00100 34.98300
H  37.27700 8.46000 34.05900
H  36.86800 6.50900 35.18100
H  38.48800 6.65600 35.74600
H  38.12800 5.57800 34.43500
H  38.13900 10.42800 34.80700
H  39.86400 10.81100 34.88100
H  38.98700 8.90900 36.89800
H  37.95200 10.24800 36.85400
H  35.76400 4.89600 31.32700
H  35.63600 3.85900 29.91000
H  34.56400 5.29900 30.07600
H  34.91700 3.83900 27.88100
H  34.77300 4.26000 26.11300
H  34.30100 5.46900 27.36900
H  40.49400 8.02500 24.94200
H  43.19200 8.36700 25.82200
H  42.72000 6.50300 24.82200
H  41.12500 5.87700 24.60100
H  41.90600 5.62400 26.13800
H  42.64700 10.14700 24.36000
H  42.50300 10.91100 25.89300
H  40.35100 10.14600 23.93300
H  40.75900 11.78100 24.75800
H  39.87100 10.40200 25.47400
H  44.81800 11.70900 29.18200
H  46.07300 10.77000 30.09800
H  45.19800 12.13700 30.86400
H  41.91000 11.00900 34.32200
H  43.63600 7.90500 37.12800
H  41.81900 7.57300 36.84800
H  42.38800 8.58200 38.18800

