158

Mg 54.35100 23.73700 44.94800
C  51.90300 26.05100 43.79700
C  52.33900 21.19700 43.65200
C  56.87400 21.64400 45.46100
C  56.23200 26.59500 45.78100
N  52.42500 23.63700 43.76100
C  51.73900 24.72800 43.27000
C  50.70100 24.24100 42.28300
C  50.44200 22.77300 42.75400
C  51.78400 22.46900 43.38900
C  49.27200 22.57100 43.71800
C  51.27900 24.28500 40.85100
C  50.54800 25.15600 39.80800
H  51.42600 25.71400 38.62000
N  54.52400 21.68200 44.66900
C  53.58200 20.79100 44.21300
C  54.10600 19.48400 44.26800
C  55.38900 19.51900 44.86100
C  55.67200 20.95100 45.01900
C  53.42700 18.28400 43.60000
C  56.24600 18.35100 45.38800
O  55.81700 17.23800 45.27100
C  57.56700 18.52700 46.19300
N  56.31700 24.09400 45.28200
C  57.15200 23.05300 45.53400
C  58.58800 23.63900 45.94000
C  58.32300 25.18600 45.88800
C  56.85300 25.30600 45.69800
C  59.09500 23.17600 47.34500
C  59.12800 25.86800 44.76900
C  59.81400 27.19000 45.23900
N  54.05300 25.88300 44.99700
C  54.85900 26.84100 45.45500
C  54.10500 28.05800 45.68100
C  52.89800 27.82100 45.00500
C  52.92900 26.45900 44.56000
C  54.61000 29.23800 46.62900
C  51.66300 28.41600 44.56100
O  51.10200 29.49000 44.74300
C  50.94900 27.29400 43.78200
C  50.58200 27.84800 42.39500
O  51.38000 27.90300 41.47500
O  49.30600 28.18800 42.27600
C  48.79000 28.93800 41.09600
H  51.58800 20.44000 43.41400
H  57.76600 21.04400 45.65400
H  56.90500 27.43800 45.94700
H  49.85600 24.91800 42.41400
H  50.30600 22.10100 41.90600
H  48.56200 21.78000 43.47800
H  48.76400 23.53500 43.73700
H  49.65000 22.40000 44.72600
H  51.14900 23.30100 40.40200
H  52.34600 24.50600 40.82100
H  50.10000 25.92000 40.44300
H  49.80000 24.46200 39.42500
H  52.91100 18.56300 42.68200
H  52.69200 17.84300 44.27300
H  54.18800 17.54600 43.34700
H  57.41800 19.18700 47.04800
H  58.36100 18.93600 45.56900
H  57.83000 17.52700 46.53700
H  59.36000 23.30000 45.24900
H  58.51600 25.61100 46.87300
H  58.78700 22.13600 47.45100
H  58.68800 23.78500 48.15300
H  60.18000 23.27300 47.37900
H  58.52300 26.13700 43.90200
H  59.84300 25.20000 44.28900
H  59.22100 28.05000 44.92600
H  60.76600 27.31500 44.72200
H  59.94700 27.15400 46.32100
H  55.68500 29.40600 46.56900
H  54.37800 28.92100 47.64600
H  54.13500 30.19100 46.39800
H  50.03100 26.94200 44.25200
H  49.28600 29.88500 40.88300
H  47.70900 29.07800 41.09900
H  49.02100 28.47500 40.13600
Mg 6.88800 53.64100 42.06500
C  6.27000 50.26700 41.58700
C  10.21600 53.01400 41.06700
C  7.27500 56.89300 41.83300
C  3.42100 54.12900 42.81800
N  8.06000 51.77400 41.27700
C  7.57800 50.52300 41.20900
C  8.65600 49.53600 40.63900
C  9.98000 50.41200 40.91600
C  9.42800 51.80000 41.07200
C  10.89500 50.02100 42.21800
C  8.52700 48.99000 39.20700
C  7.68200 49.79900 38.26300
H  8.20000 50.17400 36.84300
N  8.59500 54.81700 41.62500
C  9.81300 54.35800 41.24000
C  10.63300 55.49600 41.11300
C  9.77700 56.63600 41.22000
C  8.47100 56.20600 41.58300
C  12.06800 55.38500 40.78000
C  10.24400 58.05300 41.11500
O  11.46000 58.19500 41.02700
C  9.37100 59.23900 41.04500
N  5.46100 55.23900 42.06000
C  5.91200 56.53800 42.05100
C  4.70100 57.55500 42.24600
C  3.59300 56.62800 42.76300
C  4.16700 55.25600 42.42000
C  4.95700 58.76000 43.13900
C  2.12800 56.89600 42.29400
C  1.13900 56.94200 43.51000
N  5.24700 52.51400 42.21800
C  3.88400 52.76300 42.67200
C  3.17400 51.53500 42.90700
C  4.11700 50.54800 42.53500
C  5.33800 51.19200 42.07000
C  1.77400 51.38200 43.48300
C  4.25200 49.14100 42.49700
O  3.49000 48.26700 42.81800
C  5.62200 48.86500 41.81100
C  5.48100 48.07600 40.52900
O  4.80000 48.37500 39.57000
O  6.18000 46.86400 40.62800
C  5.98100 45.92400 39.46800
H  11.26400 52.80700 40.84200
H  7.33500 57.97200 41.67900
H  2.38600 54.30200 43.12000
H  8.58200 48.65300 41.27500
H  10.62400 50.34300 40.03900
H  11.95900 50.00600 41.98000
H  10.68100 48.99000 42.49700
H  10.68100 50.67200 43.06600
H  8.25500 47.93900 39.31000
H  9.53200 48.94100 38.78800
H  7.19800 50.61500 38.79900
H  6.81600 49.17300 38.04500
H  12.62000 56.20500 41.23800
H  12.15000 55.22900 39.70400
H  12.57900 54.56800 41.28900
H  9.87000 60.16500 40.75800
H  8.93200 59.49800 42.00800
H  8.75100 58.93000 40.20300
H  4.39900 57.89400 41.25500
H  3.67000 56.61600 43.85000
H  5.79200 58.52000 43.79700
H  4.07500 58.84100 43.77400
H  5.11000 59.67500 42.56600
H  1.86400 56.10600 41.59000
H  2.12800 57.86000 41.78400
H  0.45600 56.09400 43.45000
H  0.58800 57.88200 43.53400
H  1.54800 56.87100 44.51700
H  1.71600 50.43300 44.01600
H  0.98500 51.25400 42.74300
H  1.55600 52.23200 44.13000
H  6.23200 48.21600 42.43900
H  6.13200 46.52300 38.56900
H  4.98600 45.48000 39.47700
H  6.67400 45.08600 39.54300

