158

Mg 49.90600 45.93700 42.14700
C  46.77500 46.28200 40.42800
C  49.86800 42.63400 40.85700
C  53.13200 45.89400 42.85200
C  49.95100 49.53200 42.36700
N  48.46200 44.61100 40.65200
C  47.28900 45.04100 40.20200
C  46.58400 43.87100 39.47300
C  47.46800 42.62600 39.86700
C  48.66300 43.33700 40.51900
C  46.84500 41.51800 40.75900
C  46.53600 44.12100 37.94900
C  45.24700 43.73800 37.29100
H  44.82500 44.38400 35.96100
N  51.25300 44.45200 41.94800
C  51.06400 43.20900 41.40700
C  52.29000 42.42500 41.61900
C  53.20300 43.30800 42.30700
C  52.56700 44.60500 42.36200
C  52.46600 40.90000 41.22500
C  54.57000 42.92500 42.88400
O  54.93900 41.78000 42.93300
C  55.68100 43.88200 43.45500
N  51.27700 47.50300 42.67100
C  52.56900 47.18100 42.95500
C  53.38300 48.50300 43.24500
C  52.48200 49.61200 42.80200
C  51.14300 48.88500 42.62400
C  53.83100 48.58900 44.64700
C  53.00600 50.36800 41.52000
C  53.26900 51.87200 41.87200
N  48.62400 47.55900 41.74300
C  48.78300 48.94200 41.84600
C  47.60600 49.66100 41.37400
C  46.82300 48.65600 40.90200
C  47.45300 47.39800 41.13900
C  47.41700 51.12100 41.22100
C  45.58900 48.39400 40.21600
O  44.80400 49.20700 39.78500
C  45.43200 46.93100 39.91300
C  44.33500 46.38800 40.78600
O  44.43000 46.09400 41.97600
O  43.18800 46.43200 40.02600
C  41.99400 46.13900 40.85700
H  49.93600 41.59200 40.53500
H  54.17100 45.79900 43.17300
H  49.96100 50.61700 42.49300
H  45.60500 43.67200 39.91100
H  47.87200 42.06100 39.02700
H  46.92800 41.59300 41.84400
H  47.51600 40.71700 40.45200
H  45.80800 41.33400 40.47700
H  47.22500 43.45600 37.42900
H  46.81900 45.11100 37.59200
H  44.34100 43.87600 37.88100
H  45.21600 42.66100 37.12800
H  52.01300 40.30800 42.02000
H  53.46800 40.65200 40.87300
H  51.93300 40.69500 40.29700
H  55.18700 44.43500 44.25400
H  55.79300 44.52700 42.58400
H  56.57900 43.33900 43.75000
H  54.27300 48.43200 42.61900
H  52.30900 50.30200 43.62800
H  54.85500 48.96000 44.68600
H  53.83400 47.61500 45.13700
H  53.12100 49.16000 45.24600
H  52.34500 50.27800 40.65700
H  53.95000 49.95000 41.16800
H  52.83800 52.47300 41.07200
H  54.35800 51.84100 41.84200
H  52.93100 52.12200 42.87700
H  47.38200 51.52000 42.23500
H  46.43900 51.28700 40.76900
H  48.18400 51.55500 40.58100
H  45.19500 46.78100 38.86000
H  41.11800 46.08300 40.21100
H  41.92700 46.96500 41.56600
H  41.99800 45.14500 41.30500
Mg 48.87200 34.63700 26.67700
C  46.63300 33.29600 29.07700
C  49.36900 37.32800 28.73200
C  50.41700 36.21400 24.09000
C  47.93800 32.02200 24.49600
N  48.12400 35.24900 28.71500
C  47.25100 34.52800 29.51500
C  47.27400 35.07600 31.00300
C  47.84000 36.53900 30.67800
C  48.54700 36.38800 29.35800
C  46.85700 37.81700 30.71200
C  48.40800 34.24800 31.84200
C  48.11700 33.94000 33.30700
H  47.05000 34.81700 34.00900
N  49.84000 36.49200 26.43400
C  49.89900 37.44900 27.39100
C  50.62400 38.53800 26.90000
C  51.01000 38.21800 25.57400
C  50.39900 36.92700 25.34300
C  50.76800 39.86100 27.62500
C  51.79100 39.03100 24.54000
O  52.21800 38.60100 23.46100
C  52.14600 40.42700 24.81200
N  49.12000 34.16600 24.64400
C  49.86500 34.97300 23.78300
C  49.69500 34.46600 22.34300
C  49.24700 32.94600 22.49500
C  48.85600 32.98200 24.01900
C  48.81600 35.35700 21.49100
C  50.37200 31.92800 22.24600
C  49.93200 30.87800 21.18700
N  47.68500 32.95300 26.76400
C  47.32300 31.98500 25.77700
C  46.33300 31.07700 26.24600
C  46.02200 31.60200 27.54900
C  46.92600 32.71500 27.78300
C  45.67900 29.87500 25.60600
C  45.16600 31.38000 28.68600
O  44.22800 30.52400 28.84000
C  45.51800 32.43500 29.76100
C  45.91100 31.89300 31.08600
O  46.94000 31.24900 31.33000
O  44.84600 31.94500 31.94700
C  44.86600 31.29400 33.29100
H  49.40500 38.20100 29.38700
H  50.96200 36.61300 23.23200
H  47.59300 31.24300 23.81400
H  46.32600 35.01900 31.53600
H  48.61400 36.80800 31.39700
H  47.39600 38.61900 31.21700
H  45.95200 37.50000 31.23100
H  46.62800 38.04000 29.67000
H  49.42400 34.64500 31.82100
H  48.40200 33.27800 31.34500
H  49.09500 34.15300 33.73900
H  47.88600 32.87600 33.35000
H  51.84100 40.05000 27.66300
H  50.49700 39.74500 28.67400
H  50.25800 40.66000 27.08700
H  52.28300 40.83200 23.81000
H  53.09000 40.56000 25.34000
H  51.30200 40.94300 25.27100
H  50.72800 34.57400 22.01100
H  48.33100 32.78400 21.92800
H  49.21000 36.37200 21.44200
H  47.86300 35.55900 21.98000
H  48.73000 34.95500 20.48100
H  50.51100 31.29800 23.12500
H  51.29000 32.45400 21.98300
H  50.50400 31.13500 20.29600
H  48.89200 31.05400 20.91100
H  50.08000 29.87500 21.58600
H  44.75600 30.19100 25.11900
H  45.37600 29.32700 26.49800
H  46.30000 29.30600 24.91400
H  44.61600 33.04400 29.81700
H  45.00100 30.21300 33.26100
H  43.99400 31.54100 33.89700
H  45.76300 31.77800 33.67800

