158

Mg -2.11600 17.36400 25.73300
C  -2.48900 14.90000 28.35400
C  -2.98000 19.73500 27.90000
C  -2.10900 19.35700 23.14400
C  -2.54900 14.57700 23.50700
N  -2.32500 17.35400 27.96100
C  -2.41100 16.24100 28.79600
C  -2.44900 16.73400 30.29300
C  -2.86400 18.28100 30.12600
C  -2.74800 18.49800 28.57800
C  -4.06700 18.81100 30.83200
C  -1.14300 16.43500 31.13200
C  -0.72000 17.29100 32.31100
H  -0.35800 16.68000 33.66900
N  -2.24500 19.30100 25.57700
C  -2.60500 20.14100 26.63800
C  -2.68000 21.47800 26.14600
C  -2.50600 21.46300 24.73100
C  -2.25800 19.96500 24.39300
C  -2.91400 22.65200 27.13200
C  -2.68700 22.59300 23.73500
O  -2.61100 22.39900 22.50400
C  -3.03600 23.95500 24.28100
N  -2.10300 16.95100 23.60300
C  -2.14300 18.02600 22.76300
C  -2.07600 17.59200 21.29300
C  -2.43000 16.10700 21.41200
C  -2.26300 15.83700 22.96800
C  -2.81400 18.50100 20.30100
C  -1.58100 15.15300 20.47900
C  -2.48900 14.12000 19.73600
N  -2.36200 15.16500 25.79100
C  -2.51500 14.16600 24.83100
C  -2.69700 12.86600 25.43600
C  -2.65100 13.12100 26.80900
C  -2.42400 14.51900 26.98300
C  -2.83200 11.59900 24.73000
C  -2.78200 12.57400 28.10400
O  -3.05700 11.42100 28.45100
C  -2.63600 13.68600 29.16000
C  -1.41600 13.33900 30.05400
O  -0.28400 13.75600 29.91900
O  -1.68000 12.49500 31.11900
C  -0.56700 12.11000 32.00200
H  -3.20900 20.45700 28.68700
H  -1.91800 20.11500 22.38200
H  -2.75800 13.81300 22.75500
H  -3.23900 16.09400 30.68600
H  -2.08300 18.87400 30.60300
H  -4.74700 19.12600 30.04100
H  -3.67600 19.57200 31.50700
H  -4.38200 17.97100 31.45100
H  -0.31800 16.59100 30.43700
H  -1.26200 15.41700 31.50400
H  -1.63000 17.85200 32.52600
H  0.11700 17.90500 31.97900
H  -2.97900 22.50300 28.21000
H  -3.70200 23.34600 26.83900
H  -2.03900 23.29900 27.06600
H  -4.06900 23.99300 24.62600
H  -2.83200 24.66200 23.47700
H  -2.38400 24.21600 25.11500
H  -1.01800 17.51500 21.04300
H  -3.49800 15.91300 21.30800
H  -3.36400 19.28200 20.82500
H  -3.49700 17.82200 19.79100
H  -2.01100 18.84500 19.64800
H  -0.74800 14.74400 21.05200
H  -1.13300 15.75700 19.69100
H  -2.19500 13.92100 18.70600
H  -3.55200 14.32800 19.62000
H  -2.49200 13.13100 20.19500
H  -2.93900 10.82500 25.49000
H  -1.96200 11.34600 24.12300
H  -3.80900 11.59400 24.24600
H  -3.54000 13.63300 29.76600
H  -0.33000 13.01300 32.56300
H  0.32400 11.84400 31.43300
H  -0.91800 11.45000 32.79600
Mg 35.46000 2.86800 29.33200
C  33.35200 3.59900 32.07200
C  38.10600 3.25300 31.32500
C  37.34900 2.27700 26.50700
C  32.60200 2.98200 27.21500
N  35.70400 3.53700 31.53800
C  34.73700 3.45500 32.48200
C  35.37800 3.44000 33.88700
C  36.98800 3.53200 33.60500
C  36.91400 3.48100 32.06700
C  37.68600 4.78200 34.08000
C  34.87400 2.25000 34.82600
C  34.36300 2.55200 36.20400
H  34.98800 3.78300 36.84300
N  37.37600 2.80900 28.96700
C  38.31700 2.93600 29.92900
C  39.69100 2.81100 29.34400
C  39.46800 2.58000 27.92800
C  37.99500 2.59500 27.73300
C  41.06100 2.92300 30.03300
C  40.48400 2.32700 26.81400
O  40.18900 2.34200 25.64000
C  41.86400 2.03400 27.17100
N  35.06400 2.64100 27.14900
C  35.97400 2.34300 26.23100
C  35.30400 2.37800 24.78100
C  33.80400 2.26800 25.13000
C  33.79600 2.69300 26.60000
C  35.72400 3.65400 24.00300
C  33.13400 0.90600 24.88000
C  33.15400 -0.07500 26.11200
N  33.41700 3.32600 29.51900
C  32.39800 3.42000 28.62400
C  31.19500 3.78000 29.28500
C  31.49200 3.83400 30.65800
C  32.87000 3.56000 30.70900
C  29.86300 3.97600 28.63900
C  30.95900 4.16200 31.93800
O  29.87700 4.56500 32.17300
C  32.14100 3.92400 32.98800
C  32.31400 5.12700 33.79500
O  32.62900 6.23700 33.32300
O  31.86400 4.88000 35.07800
C  31.56500 6.06700 35.97300
H  39.03600 3.25700 31.89700
H  37.92400 1.95100 25.63800
H  31.69000 2.86200 26.62800
H  35.15600 4.40300 34.34700
H  37.57200 2.71600 34.03100
H  38.53200 4.50900 34.71100
H  36.95200 5.23200 34.74800
H  37.87200 5.44200 33.23300
H  35.65000 1.48900 34.91300
H  34.07200 1.83100 34.21800
H  34.62600 1.66600 36.78200
H  33.29900 2.75900 36.09200
H  41.68600 3.57400 29.42100
H  41.53400 1.94500 30.12300
H  41.00200 3.31400 31.04800
H  42.05300 1.39100 28.03000
H  42.42300 2.96700 27.24500
H  42.27500 1.43800 26.35600
H  35.63600 1.56700 24.13300
H  33.26800 3.01000 24.53800
H  36.55400 4.15100 24.50600
H  34.89200 4.28000 23.68200
H  36.16100 3.29600 23.07100
H  33.69500 0.34900 24.12900
H  32.05600 0.95700 24.72700
H  33.56700 -1.06700 25.92600
H  32.15300 -0.04100 26.54200
H  33.85900 0.30700 26.85000
H  29.58700 3.14300 27.99300
H  29.90200 4.86600 28.01200
H  29.11300 4.17200 29.40600
H  31.85500 3.08200 33.61900
H  30.49100 6.17200 35.81700
H  32.04900 7.03500 35.84500
H  31.63400 5.76000 37.01600

