158

Mg -1.30400 17.76000 26.76600
C  -1.74000 15.43900 29.37400
C  -1.88000 20.26200 29.11300
C  -0.88800 19.90300 24.37300
C  -1.07100 15.05700 24.54800
N  -1.81300 17.80100 28.95400
C  -1.84600 16.75100 29.87900
C  -2.16300 17.26000 31.34600
C  -2.41700 18.77400 31.12400
C  -2.06700 18.95300 29.60500
C  -3.94100 19.07500 31.39500
C  -0.94500 16.96000 32.36100
C  -1.32100 16.14600 33.61700
H  -0.46600 16.34800 34.93700
N  -1.38000 19.77900 26.76400
C  -1.58100 20.67300 27.80700
C  -1.53400 22.05500 27.23600
C  -1.07300 21.94000 25.87600
C  -1.04500 20.44800 25.62500
C  -1.74200 23.22900 28.08500
C  -0.74700 23.08300 24.77000
O  -0.30500 22.87100 23.62600
C  -0.94700 24.50800 25.24000
N  -1.23900 17.52600 24.67000
C  -1.13700 18.60200 23.84400
C  -0.91800 18.25300 22.38700
C  -0.83800 16.67700 22.47100
C  -1.16600 16.35600 23.92100
C  -2.14100 18.78300 21.50000
C  0.48100 16.04800 21.99300
C  1.58000 15.99600 23.04400
N  -1.52100 15.70100 26.84100
C  -1.35900 14.69900 25.88200
C  -1.50000 13.35400 26.43500
C  -1.70900 13.70000 27.79600
C  -1.64800 15.05800 28.00400
C  -1.54600 11.95900 25.77200
C  -2.03700 13.06600 29.07600
O  -2.25400 11.88700 29.40400
C  -1.99100 14.16000 30.19100
C  -0.83300 13.68600 31.04600
O  0.34300 14.04400 31.01100
O  -1.41100 12.83700 32.02500
C  -0.41400 12.33000 33.04600
H  -2.08300 21.05700 29.83400
H  -0.81500 20.63400 23.56500
H  -0.85600 14.26100 23.83300
H  -3.06100 16.72200 31.64900
H  -1.72000 19.33200 31.74800
H  -4.10000 19.59200 32.34100
H  -4.54400 18.18700 31.20900
H  -4.27400 19.67300 30.54700
H  -0.58500 17.90600 32.76600
H  -0.13100 16.61500 31.72400
H  -1.14600 15.10900 33.33200
H  -2.37800 16.29900 33.83300
H  -0.84900 23.81400 28.30300
H  -2.08400 22.98600 29.09100
H  -2.46900 23.89300 27.61700
H  -2.02200 24.57000 25.41100
H  -0.60100 25.16100 24.43800
H  -0.37300 24.64200 26.15700
H  -0.00000 18.79100 22.14700
H  -1.56600 16.21500 21.80400
H  -2.61900 19.46500 22.20300
H  -2.83500 17.97300 21.27300
H  -1.91000 19.23600 20.53600
H  0.88400 16.55300 21.11500
H  0.26600 15.03300 21.65900
H  1.51200 16.71400 23.86100
H  2.53200 16.25200 22.57800
H  1.62900 14.97800 23.43200
H  -2.57300 11.61400 25.65600
H  -1.01700 11.22000 26.37300
H  -1.09800 11.91900 24.77900
H  -2.89100 14.34600 30.77600
H  -0.72000 11.35400 33.42200
H  -0.39200 12.98400 33.91700
H  0.56100 12.15400 32.59200
Mg 46.83000 25.33000 28.13600
C  47.69100 27.61300 30.73700
C  46.48300 22.88900 30.65100
C  46.52000 23.09100 25.76200
C  47.78000 27.83300 25.85700
N  46.97900 25.26600 30.38400
C  47.18000 26.35600 31.22400
C  47.16500 25.99300 32.69800
C  46.81300 24.45600 32.68300
C  46.73200 24.16900 31.15500
C  47.92700 23.63300 33.34700
C  46.16500 26.85300 33.46300
C  45.78100 26.34600 34.86900
H  46.11500 27.17000 36.04100
N  46.48100 23.28400 28.18200
C  46.44300 22.44400 29.30000
C  46.35400 21.07300 28.79800
C  46.18500 21.17200 27.44400
C  46.39000 22.58500 27.04900
C  46.48400 19.81500 29.69000
C  45.84300 20.08000 26.43900
O  45.88700 20.23900 25.22100
C  45.49300 18.67000 26.91300
N  47.22700 25.42700 26.00700
C  46.89800 24.38000 25.25600
C  46.81900 24.78600 23.77300
C  47.25300 26.30800 23.81200
C  47.40600 26.56300 25.30400
C  47.68600 23.82200 22.92500
C  46.36000 27.38200 23.10200
C  46.99600 28.04300 21.92200
N  47.52400 27.32900 28.22300
C  47.87400 28.15800 27.18500
C  48.41600 29.41600 27.71100
C  48.33600 29.23800 29.09000
C  47.78600 27.96900 29.36800
C  49.10000 30.50700 27.06800
C  48.60500 29.87900 30.29400
O  49.15600 30.98100 30.56100
C  48.22900 28.84300 31.51700
C  49.34300 28.75200 32.44700
O  50.40700 28.23800 32.22800
O  48.90400 29.31500 33.58600
C  49.75000 29.31000 34.76100
H  46.35100 22.08600 31.38000
H  46.24800 22.49000 24.89200
H  47.85100 28.64900 25.13400
H  48.10900 26.17100 33.21300
H  45.83400 24.25600 33.11900
H  48.13500 22.76100 32.72700
H  47.65600 23.30600 34.35100
H  48.79400 24.28700 33.44600
H  45.31000 27.13600 32.84900
H  46.66100 27.82000 33.54700
H  46.13400 25.32100 34.97800
H  44.71200 26.13700 34.89000
H  47.23700 19.24100 29.15000
H  45.52800 19.29600 29.76500
H  46.94100 20.06100 30.64900
H  46.43100 18.18400 27.18000
H  45.02400 18.19100 26.05300
H  44.76400 18.64900 27.72300
H  45.77700 24.58900 23.52100
H  48.25900 26.46900 23.42400
H  47.03600 22.95300 22.82600
H  48.56500 23.44600 23.44900
H  47.93000 24.23200 21.94500
H  46.07300 28.14200 23.82900
H  45.55500 26.80700 22.64300
H  46.38400 27.75300 21.06800
H  48.00700 27.67300 21.75000
H  46.96600 29.12700 22.02800
H  48.97400 30.39200 25.99100
H  50.16200 30.52000 27.31200
H  48.64400 31.45500 27.35400
H  47.40000 29.40500 31.94600
H  49.12200 28.96200 35.58100
H  50.00800 30.33800 35.01500
H  50.71100 28.83100 34.57400

