158

Mg 41.59000 8.93100 29.66000
C  43.49100 10.09800 32.18200
C  39.46200 7.30500 31.94800
C  39.85700 7.82900 27.04800
C  44.11600 10.15500 27.36000
N  41.38800 8.75300 31.73900
C  42.32200 9.33900 32.58800
C  41.95000 9.12900 34.07900
C  40.82400 8.05800 33.99800
C  40.50900 8.04300 32.48300
C  41.32100 6.64500 34.37700
C  41.45800 10.51800 34.62400
C  40.82400 10.52100 36.12600
H  41.56000 11.31000 37.22900
N  39.90300 7.80200 29.54600
C  39.21600 7.15100 30.57300
C  38.03600 6.44100 30.01000
C  38.01700 6.78300 28.59300
C  39.34100 7.44400 28.33000
C  36.99200 5.66900 30.80500
C  37.04200 6.48700 27.60900
O  37.23100 6.76200 26.41200
C  35.70300 5.90200 27.90900
N  42.13100 8.75100 27.54700
C  41.11000 8.43700 26.73100
C  41.42300 8.62400 25.18200
C  42.81400 9.28000 25.29800
C  43.08400 9.41700 26.85300
C  41.42900 7.33000 24.33000
C  43.12500 10.53900 24.45900
C  42.66200 11.91900 24.84100
N  43.42100 9.96500 29.70500
C  44.27500 10.47100 28.74200
C  45.32400 11.26200 29.35700
C  45.02200 11.22900 30.73700
C  43.95200 10.33500 30.86900
C  46.45400 11.96600 28.62700
C  45.40700 11.69300 32.04600
O  46.26000 12.53100 32.30700
C  44.48100 10.97000 33.04200
C  45.14100 10.10100 34.07600
O  45.88000 9.15200 33.83900
O  44.83300 10.48100 35.39800
C  45.23100 9.58100 36.50000
H  38.84200 6.71200 32.62300
H  39.30300 7.67200 26.12000
H  44.89700 10.53200 26.69700
H  42.82500 8.74400 34.60200
H  39.99400 8.25700 34.67600
H  41.00600 5.89000 33.65700
H  40.71400 6.41600 35.25200
H  42.40000 6.56700 34.50800
H  40.75100 11.01500 33.95900
H  42.34400 11.14000 34.74600
H  40.82300 9.50700 36.52600
H  39.78600 10.85100 36.09100
H  37.18000 5.57400 31.87400
H  36.82900 4.65900 30.42900
H  35.99800 6.11600 30.82300
H  35.11300 6.60300 28.50000
H  35.73900 4.99700 28.51400
H  35.34100 5.65500 26.91100
H  40.75900 9.33900 24.69700
H  43.57800 8.53300 25.08000
H  40.64400 7.31600 23.57400
H  41.14400 6.52600 25.00800
H  42.42800 7.14900 23.93300
H  42.63300 10.36100 23.50200
H  44.21200 10.45500 24.45800
H  43.54000 12.56600 24.83900
H  42.21100 11.91600 25.83300
H  42.00800 12.50000 24.19000
H  47.33300 11.40400 28.31100
H  46.83900 12.78700 29.23200
H  46.17100 12.36800 27.65400
H  43.94000 11.76500 33.55400
H  46.31900 9.64600 36.52100
H  44.96600 8.54800 36.27600
H  44.70600 9.83100 37.42200
Mg -2.01100 35.36500 26.40900
C  -3.11300 33.62100 29.27300
C  -0.53700 37.74100 28.37500
C  -1.11100 37.04300 23.65000
C  -3.68900 32.91800 24.44400
N  -1.91600 35.64500 28.57800
C  -2.38700 34.80500 29.61800
C  -1.85500 35.27700 30.97900
C  -1.18900 36.71100 30.70800
C  -1.17300 36.72500 29.12700
C  -1.94900 37.95500 31.35000
C  -0.98200 34.25900 31.70900
C  -1.36800 33.78600 33.14400
H  -0.29500 33.70000 34.29300
N  -1.06800 37.20800 26.05600
C  -0.56900 38.00900 27.02700
C  0.00700 39.11400 26.43600
C  -0.05100 38.95200 25.02200
C  -0.72500 37.64100 24.81700
C  0.67500 40.24500 27.24700
C  0.38900 39.93000 23.87100
O  0.20900 39.59500 22.72000
C  1.00600 41.27000 24.10000
N  -2.42500 35.11300 24.31300
C  -1.88400 35.88500 23.40300
C  -1.91300 35.25400 22.05000
C  -2.73700 33.91100 22.21500
C  -2.97900 33.94300 23.77200
C  -2.46700 36.04900 20.82400
C  -2.04300 32.73700 21.53300
C  -1.04600 31.93800 22.39000
N  -3.15900 33.61000 26.71200
C  -3.80500 32.76500 25.80800
C  -4.53000 31.79400 26.55100
C  -4.23400 32.08200 27.89200
C  -3.34100 33.10900 27.93700
C  -5.41200 30.77500 25.92100
C  -4.54200 31.65900 29.21300
O  -5.31200 30.81600 29.63600
C  -3.70600 32.54000 30.19000
C  -4.61000 33.00700 31.22200
O  -5.54200 33.76900 31.03100
O  -4.21300 32.45500 32.49500
C  -5.12800 32.77300 33.62900
H  0.02400 38.42700 29.01300
H  -0.86100 37.50200 22.69100
H  -4.26500 32.16900 23.89500
H  -2.72200 35.42700 31.62200
H  -0.17200 36.88800 31.05700
H  -2.61500 37.57800 32.12700
H  -2.57300 38.40500 30.57800
H  -1.33300 38.82500 31.57500
H  -0.02000 34.74900 31.86000
H  -0.88900 33.34600 31.12100
H  -1.61500 32.74300 32.94200
H  -2.26600 34.34300 33.41000
H  1.75100 40.20200 27.07800
H  0.58800 40.25500 28.33300
H  0.38000 41.17500 26.76100
H  1.57100 41.66400 23.25500
H  1.72900 41.24000 24.91600
H  0.15200 41.89600 24.35600
H  -0.85100 35.01200 22.01200
H  -3.66400 34.07100 21.66400
H  -1.84300 36.06300 19.93000
H  -2.47400 37.10900 21.07700
H  -3.49500 35.80300 20.55600
H  -1.64900 33.07800 20.57500
H  -2.85600 32.02000 21.41400
H  -1.38300 30.91300 22.54800
H  -0.94000 32.42300 23.36000
H  -0.09000 31.90000 21.86800
H  -5.28300 30.44300 24.89100
H  -6.38900 31.25700 25.94200
H  -5.42400 29.90900 26.58300
H  -3.02400 31.78000 30.56900
H  -6.05800 33.26400 33.34400
H  -4.57800 33.36200 34.36300
H  -5.40000 31.79900 34.03700

