158

Mg 8.88900 4.32000 27.65200
C  10.11200 2.54300 30.51600
C  6.99900 6.17900 29.86700
C  7.62500 5.88900 25.14400
C  10.44400 2.06400 25.67500
N  8.60100 4.35300 29.88600
C  9.27600 3.58900 30.80400
C  8.93100 3.97100 32.24600
C  7.93700 5.10200 32.03300
C  7.75400 5.16600 30.45400
C  6.47000 4.87100 32.66200
C  10.04800 4.22700 33.30500
C  9.76700 5.30900 34.39800
H  9.97600 4.81200 35.79500
N  7.53100 5.90500 27.53900
C  6.84200 6.56600 28.53200
C  5.96900 7.58700 27.97100
C  6.18900 7.51000 26.57400
C  7.15300 6.39400 26.34500
C  5.03800 8.43500 28.80700
C  5.49300 8.37300 25.53400
O  5.75300 8.19200 24.30900
C  4.58300 9.55600 25.87400
N  8.95700 3.96000 25.65800
C  8.46900 4.84400 24.74400
C  8.78200 4.43600 23.33200
C  9.78600 3.17700 23.53300
C  9.73500 3.02400 25.05600
C  7.59000 4.18500 22.41700
C  11.16700 3.61400 22.97300
C  12.03000 2.45000 22.64600
N  9.96500 2.59000 27.97900
C  10.64300 1.86300 27.07100
C  11.58200 0.92700 27.74700
C  11.38700 1.11200 29.07000
C  10.41400 2.14800 29.18700
C  12.57600 -0.01500 27.23100
C  11.82300 0.72600 30.37600
O  12.54600 -0.18200 30.70300
C  11.00800 1.64900 31.39200
C  10.14400 0.83800 32.36900
O  9.24900 0.07500 32.02600
O  10.58200 1.04700 33.59000
C  9.92900 0.36300 34.61700
H  6.62100 6.91600 30.57900
H  7.21000 6.34400 24.24200
H  10.89100 1.25800 25.08800
H  8.41400 3.02600 32.41200
H  8.18400 6.13400 32.28400
H  6.21000 5.84200 33.08400
H  6.43200 3.90700 33.16900
H  5.81600 4.68200 31.81100
H  10.83400 4.67300 32.69700
H  10.40900 3.35900 33.85800
H  8.74600 5.69100 34.38200
H  10.32100 6.21800 34.16400
H  4.02400 8.22700 28.46400
H  5.07700 9.52000 28.72200
H  5.05500 8.18400 29.86700
H  4.09400 10.00000 25.00700
H  5.03400 10.28400 26.54800
H  3.81300 9.12700 26.51500
H  9.33400 5.28600 22.93200
H  9.31400 2.27500 23.14300
H  7.49900 4.98800 21.68500
H  6.67500 4.21000 23.00900
H  7.65600 3.27700 21.81700
H  11.78700 4.22100 23.63200
H  11.09600 4.21400 22.06600
H  11.46300 1.52400 22.74400
H  12.87200 2.46500 23.33700
H  12.31100 2.49100 21.59400
H  13.01800 0.46100 26.35600
H  12.00200 -0.92200 27.04200
H  13.33900 -0.32900 27.94400
H  11.68400 2.36300 31.86300
H  8.84900 0.48200 34.70200
H  10.22800 0.71400 35.60500
H  10.13800 -0.70400 34.53100
Mg 50.40600 45.13100 41.52600
C  47.11800 45.71500 40.36000
C  50.03400 41.81700 40.62500
C  53.72100 44.69800 41.96900
C  50.80100 48.62000 42.02600
N  48.73300 43.93600 40.62400
C  47.42800 44.35200 40.38800
C  46.53800 43.18400 39.89000
C  47.44600 41.93400 40.15600
C  48.82400 42.57600 40.51400
C  46.78300 41.04200 41.29200
C  46.09600 43.29000 38.40600
C  44.57400 43.11500 38.12800
H  43.94400 43.82300 36.96900
N  51.77100 43.47900 41.14300
C  51.38400 42.20000 40.85400
C  52.61900 41.38500 40.87100
C  53.71400 42.27700 41.21900
C  53.06800 43.54500 41.51900
C  52.67900 39.97200 40.49100
C  55.22900 41.92600 41.27200
O  55.55200 40.75400 41.12300
C  56.32800 42.83500 41.57700
N  52.02500 46.52200 41.85600
C  53.29100 46.03100 42.11800
C  54.20600 47.18000 42.51600
C  53.34700 48.48500 42.42800
C  51.95400 47.83300 42.09600
C  54.93500 47.14500 43.89500
C  53.84200 49.53900 41.44400
C  54.21000 50.94100 41.96200
N  49.21100 46.83700 41.50100
C  49.56400 48.15400 41.57800
C  48.40800 48.99800 41.29200
C  47.43400 48.03600 40.81500
C  47.97900 46.76400 40.93100
C  48.27000 50.48400 41.46500
C  46.10300 47.95100 40.31700
O  45.31600 48.87400 40.06400
C  45.81100 46.38800 40.15100
C  44.70000 46.02300 41.05600
O  44.80200 45.65800 42.24700
O  43.49300 46.08300 40.40700
C  42.25800 45.82900 41.22900
H  50.03900 40.76100 40.34400
H  54.76900 44.52800 42.22500
H  50.85200 49.71100 42.04100
H  45.65300 43.13800 40.52400
H  47.52500 41.31800 39.26100
H  47.11800 40.01400 41.15500
H  45.71100 41.11900 41.11000
H  47.04200 41.43400 42.27500
H  46.56100 42.45100 37.88800
H  46.44400 44.26200 38.05700
H  44.06100 43.37000 39.05600
H  44.39400 42.04700 38.00300
H  53.48400 39.91600 39.75800
H  51.74400 39.49000 40.20700
H  52.99100 39.40400 41.36700
H  56.26200 42.81600 42.66500
H  56.20200 43.80600 41.09700
H  57.33400 42.54200 41.27500
H  54.90000 47.15600 41.67500
H  53.24100 48.91500 43.42400
H  55.96000 47.49700 44.00300
H  54.84900 46.11400 44.23800
H  54.48800 47.83000 44.61500
H  53.13300 49.43600 40.62300
H  54.78500 49.17100 41.04100
H  53.44100 51.70100 41.82500
H  55.18600 51.30600 41.64100
H  54.27000 50.86300 43.04700
H  47.26100 50.89500 41.43800
H  48.84300 51.05300 40.73300
H  48.63400 50.62300 42.48300
H  45.50600 46.16300 39.12900
H  42.34600 44.87800 41.75500
H  41.50800 45.82000 40.43900
H  41.97200 46.58100 41.96500

