158

Mg 47.00800 16.82600 28.16900
C  45.24100 16.05200 31.03500
C  49.37000 18.54100 30.28700
C  48.64800 17.88400 25.45800
C  44.35800 15.67000 26.21500
N  47.20000 17.35400 30.44400
C  46.38300 16.80200 31.40000
C  46.85600 17.14300 32.79200
C  48.05800 18.16600 32.44000
C  48.30900 17.94400 30.98900
C  47.77700 19.61000 32.82000
C  47.29400 15.95000 33.65900
C  47.97400 16.29100 35.06800
H  48.01600 17.77500 35.61400
N  48.77900 18.00100 27.85600
C  49.59500 18.49500 28.87800
C  50.78300 19.16900 28.21200
C  50.62300 18.92800 26.78400
C  49.31300 18.23900 26.65900
C  51.92100 19.86400 28.89500
C  51.48200 19.44700 25.59900
O  51.15500 19.31700 24.43000
C  52.87500 20.04900 25.84900
N  46.49400 17.02500 26.15200
C  47.38700 17.37200 25.20600
C  46.81700 17.14200 23.79100
C  45.63000 16.23400 24.08000
C  45.43800 16.31200 25.54600
C  46.71200 18.39300 22.89700
C  45.66800 14.69900 23.64800
C  46.31100 13.69200 24.59400
N  45.23500 16.04300 28.50700
C  44.21500 15.49500 27.63700
C  43.18500 14.91400 28.38200
C  43.58500 15.09200 29.68200
C  44.80300 15.83700 29.74300
C  41.82300 14.32500 27.93900
C  43.12700 14.89700 31.01100
O  42.16000 14.34700 31.46200
C  44.06800 15.62000 31.93400
C  43.29400 16.72300 32.55300
O  42.73200 17.56900 31.89300
O  43.27700 16.72100 33.98300
C  42.47600 17.78200 34.52900
H  50.11500 18.88400 31.00800
H  49.22600 18.08900 24.55400
H  43.61300 15.10600 25.65000
H  46.12300 17.64800 33.42200
H  48.97300 17.81000 32.91300
H  47.90200 20.29000 31.97700
H  48.60100 19.72700 33.52400
H  46.84700 19.73100 33.37500
H  48.02900 15.40000 33.07000
H  46.33500 15.43200 33.69100
H  48.97500 15.87200 34.96300
H  47.47500 15.66600 35.80800
H  52.79600 19.21300 28.91400
H  51.64500 20.14300 29.91200
H  52.16700 20.75300 28.31400
H  52.82000 21.04000 26.29900
H  53.41800 20.28800 24.93400
H  53.48600 19.37200 26.44700
H  47.54900 16.48100 23.32600
H  44.80700 16.61300 23.47400
H  47.36400 18.25800 22.03500
H  47.12700 19.15900 23.55300
H  45.69800 18.65800 22.59500
H  46.14600 14.62700 22.67100
H  44.64700 14.34000 23.52700
H  45.44000 13.22100 25.05100
H  46.92900 14.23800 25.30700
H  46.90300 12.86900 24.19200
H  41.32200 14.64300 27.02500
H  41.07000 14.50800 28.70500
H  41.85900 13.24200 27.81900
H  44.31900 14.91100 32.72300
H  43.10200 18.63400 34.79300
H  42.11600 17.32800 35.45200
H  41.55300 18.11500 34.05400
Mg -2.61800 34.14900 26.24200
C  -4.16100 32.75500 29.10000
C  -1.48400 36.66900 28.29200
C  -1.38100 35.67500 23.49800
C  -4.30700 31.83200 24.23700
N  -2.86900 34.69500 28.36300
C  -3.37900 33.89800 29.31800
C  -3.21600 34.41200 30.71600
C  -2.51700 35.75700 30.51400
C  -2.19900 35.68900 28.98100
C  -3.33200 37.02400 30.89700
C  -2.47000 33.24800 31.53300
C  -2.99900 32.81700 32.92700
H  -2.04200 32.66700 34.13900
N  -1.50900 35.86200 25.93200
C  -1.04300 36.71100 26.92500
C  -0.22300 37.70200 26.29500
C  -0.13200 37.31100 24.94700
C  -0.99200 36.20100 24.74800
C  0.27600 38.97500 26.93600
C  0.59100 38.11200 23.81800
O  0.57200 37.88300 22.63600
C  1.45800 39.36000 24.15800
N  -2.84300 33.78700 24.15200
C  -2.31300 34.65400 23.22100
C  -2.63100 34.10800 21.80300
C  -3.52900 32.89400 22.05800
C  -3.55400 32.78600 23.52900
C  -3.29900 35.04400 20.79700
C  -3.09100 31.65600 21.17100
C  -2.08800 30.67400 21.75300
N  -3.86500 32.54000 26.52900
C  -4.46200 31.69500 25.62700
C  -5.22600 30.72800 26.33300
C  -5.21100 31.15300 27.66200
C  -4.34500 32.25400 27.77500
C  -5.92600 29.60300 25.71800
C  -5.78700 30.92500 29.04400
O  -6.60700 30.13300 29.42200
C  -5.01000 31.83300 30.05400
C  -6.04500 32.60800 30.81100
O  -6.89500 33.33000 30.31000
O  -6.17900 32.14900 32.10800
C  -7.30500 32.63300 32.87800
H  -0.97700 37.41200 28.91200
H  -1.06900 36.23600 22.61400
H  -4.86800 31.16000 23.58400
H  -4.20000 34.48300 31.18000
H  -1.57400 35.93800 31.03000
H  -3.50600 37.66400 30.03200
H  -2.87400 37.64200 31.67000
H  -4.29900 36.66500 31.24900
H  -1.42700 33.54500 31.64500
H  -2.51200 32.33400 30.94100
H  -3.59100 31.90700 32.82300
H  -3.71300 33.59800 33.18800
H  -0.12300 39.85200 26.42700
H  1.35600 39.03600 26.80400
H  0.06800 39.22600 27.97600
H  2.00500 39.62100 23.25200
H  2.25400 39.17200 24.87900
H  0.84100 40.21200 24.44600
H  -1.64000 33.81400 21.45600
H  -4.58600 33.08600 21.87500
H  -3.70800 35.96000 21.22400
H  -3.94400 34.51300 20.09700
H  -2.44400 35.39900 20.22200
H  -2.57100 32.03600 20.29200
H  -3.98300 31.14200 20.81000
H  -2.51000 29.69800 21.99200
H  -1.69600 31.06600 22.69100
H  -1.18500 30.64100 21.14400
H  -5.42200 29.35300 24.78500
H  -6.95700 29.89100 25.50900
H  -6.02300 28.72300 26.35400
H  -4.56800 31.03400 30.64800
H  -7.93700 31.78600 33.14500
H  -8.00400 33.35800 32.46100
H  -6.88000 32.98000 33.81900

