158

Mg 17.78700 -1.88800 27.91000
C  16.65900 0.11400 30.59100
C  19.90400 -3.51600 29.88800
C  19.19800 -3.17000 25.07100
C  16.18500 0.60500 25.72600
N  18.20200 -1.67200 29.94000
C  17.65600 -0.87800 30.92300
C  18.20400 -1.23600 32.31800
C  19.39900 -2.15800 31.98600
C  19.12400 -2.53800 30.49900
C  20.85700 -1.62200 32.31400
C  17.11800 -2.03000 33.20100
C  17.24200 -1.71700 34.73300
H  18.46200 -0.94800 35.37800
N  19.18500 -3.32600 27.61600
C  19.93900 -3.94300 28.54200
C  20.74700 -4.99600 27.97700
C  20.45200 -4.95800 26.59600
C  19.57900 -3.80000 26.35600
C  21.49800 -5.98100 28.77800
C  21.01500 -5.91300 25.55300
O  20.64000 -5.95800 24.35900
C  22.07100 -6.93300 25.82700
N  17.75600 -1.34100 25.76900
C  18.42000 -2.03600 24.81600
C  18.25300 -1.42400 23.44000
C  17.17700 -0.40500 23.67100
C  16.97500 -0.35500 25.12900
C  19.57600 -0.95000 22.75100
C  15.80200 -0.59600 23.03300
C  15.82300 -0.38000 21.52500
N  16.53300 -0.09900 28.05900
C  15.93700 0.70600 27.11300
C  15.11000 1.73000 27.78700
C  15.35900 1.55400 29.12500
C  16.25300 0.43500 29.27800
C  14.18600 2.79100 27.09900
C  15.14900 2.06100 30.43500
O  14.48500 3.00700 30.79000
C  15.88600 1.11900 31.43100
C  16.84900 1.95100 32.23300
O  17.98700 2.34200 31.96700
O  16.13400 2.28100 33.38700
C  16.83800 3.15300 34.34600
H  20.70600 -3.95100 30.48800
H  19.68200 -3.62000 24.20100
H  15.63600 1.38800 25.19900
H  18.63000 -0.33500 32.75900
H  19.30100 -3.03900 32.62100
H  20.97400 -0.62900 32.74800
H  21.50400 -1.67400 31.43800
H  21.31700 -2.22700 33.09500
H  17.30500 -3.08300 32.99200
H  16.16000 -1.78900 32.74000
H  17.02000 -2.62100 35.30100
H  16.34200 -1.12900 34.91500
H  21.41700 -7.02800 28.48500
H  21.21800 -6.12300 29.82100
H  22.52900 -5.62800 28.79800
H  22.58000 -7.25600 24.91900
H  21.62400 -7.88600 26.11100
H  22.67300 -6.52000 26.63600
H  17.92800 -2.29600 22.87200
H  17.53000 0.55100 23.28500
H  19.63400 0.13700 22.81800
H  19.64500 -1.20500 21.69400
H  20.46700 -1.27700 23.28700
H  15.05700 0.13000 23.35800
H  15.42600 -1.58100 23.30700
H  16.81000 -0.01500 21.24100
H  15.06200 0.34200 21.23000
H  15.69800 -1.32700 20.99900
H  14.26500 2.88100 26.01500
H  14.56000 3.71900 27.52900
H  13.12900 2.78100 27.36700
H  15.16200 0.59900 32.05800
H  16.62000 3.02800 35.40700
H  16.55100 4.19100 34.18100
H  17.91200 3.17800 34.16300
Mg 41.34500 41.28500 26.55400
C  40.76600 43.43800 29.38300
C  43.03500 39.11600 28.74500
C  42.31700 39.52700 23.94500
C  40.41800 44.07000 24.49200
N  41.90300 41.31000 28.78200
C  41.39900 42.22100 29.68100
C  41.94400 41.83900 31.07700
C  42.98000 40.66800 30.75700
C  42.52500 40.25000 29.36200
C  44.44500 41.02600 30.82600
C  40.91400 41.46000 32.18100
C  41.09200 42.05500 33.62000
H  39.78900 42.27400 34.35300
N  42.37900 39.48000 26.36900
C  42.96700 38.77300 27.40600
C  43.26900 37.47600 26.82400
C  43.19600 37.61500 25.40500
C  42.67200 38.96500 25.17100
C  43.62100 36.30000 27.65200
C  43.54400 36.61300 24.30100
O  43.29100 36.83800 23.12900
C  44.10700 35.23900 24.63900
N  41.41100 41.78500 24.57900
C  41.70200 40.79400 23.65500
C  41.48400 41.21800 22.21600
C  40.67600 42.50300 22.42500
C  40.87600 42.80700 23.93400
C  42.73800 41.48800 21.33000
C  39.14300 42.39600 22.07100
C  38.40500 41.05700 22.36100
N  40.81600 43.30300 26.80000
C  40.45700 44.30700 25.84300
C  39.91800 45.42200 26.52100
C  40.05500 45.15700 27.92300
C  40.51100 43.81100 28.00700
C  39.29400 46.72900 25.87000
C  39.85200 45.71300 29.27900
O  39.49600 46.82500 29.58200
C  40.26100 44.58000 30.27500
C  41.20800 45.20000 31.24800
O  42.40300 45.41500 30.98600
O  40.58400 45.61700 32.35900
C  41.45700 46.33400 33.25600
H  43.54200 38.39100 29.38400
H  42.62300 38.99800 23.04000
H  39.89200 44.80600 23.88000
H  42.42200 42.75900 31.41600
H  42.78700 39.84100 31.44100
H  44.54800 42.10800 30.90200
H  45.00100 40.91300 29.89500
H  44.91000 40.44900 31.62600
H  40.79800 40.37900 32.11200
H  39.99200 41.91900 31.82200
H  41.73700 42.93100 33.54900
H  41.66600 41.33500 34.20300
H  43.45700 36.34200 28.72900
H  44.69100 36.16000 27.50300
H  42.93200 35.49000 27.41200
H  43.23900 34.72600 25.05500
H  44.87500 35.34700 25.40400
H  44.56600 34.85100 23.73000
H  40.92500 40.43500 21.70400
H  41.16000 43.33600 21.91600
H  43.16300 42.49200 21.36600
H  42.46100 41.35400 20.28500
H  43.55800 40.78400 21.47300
H  39.20700 42.50200 20.98800
H  38.57900 43.25300 22.43800
H  38.07400 40.57500 21.44100
H  37.51100 41.28900 22.94000
H  39.03500 40.36100 22.91500
H  38.75500 46.42900 24.97200
H  40.05100 47.49300 25.69400
H  38.53300 47.06800 26.57300
H  39.36400 44.21100 30.77200
H  41.93400 47.16500 32.73500
H  42.27100 45.71500 33.63300
H  40.89500 46.70900 34.11100

