158

Mg 47.55800 44.92700 42.59700
C  44.04500 44.29900 42.45300
C  47.99900 41.43000 42.17500
C  50.65100 45.66000 41.79300
C  46.67700 48.42100 42.49900
N  46.16000 43.08000 42.01100
C  44.78100 43.09100 42.13900
C  44.25300 41.69100 42.01300
C  45.52700 40.73200 42.22800
C  46.65400 41.84400 42.22700
C  45.40100 39.80900 43.42500
C  43.46900 41.46100 40.77800
C  43.94300 42.29300 39.53500
H  43.74100 41.59000 38.23600
N  49.09700 43.78400 42.14200
C  49.11800 42.37100 42.11300
C  50.49300 41.92400 41.89100
C  51.30300 43.11700 41.62700
C  50.33800 44.29100 41.80700
C  50.92900 40.47000 41.92600
C  52.78400 43.13200 41.43700
O  53.44200 42.09900 41.23200
C  53.64400 44.45100 41.32900
N  48.49300 46.80300 42.15600
C  49.88700 46.81500 42.00400
C  50.49100 48.25800 42.10100
C  49.17900 49.10600 42.17000
C  48.00300 48.04900 42.22800
C  51.42800 48.41500 43.37600
C  48.91700 50.18700 41.00700
C  48.45300 51.54900 41.29200
N  45.78700 46.12500 42.64700
C  45.57300 47.56000 42.66200
C  44.19800 47.88400 42.90100
C  43.54700 46.55600 42.86200
C  44.53500 45.59800 42.61700
C  43.48100 49.16600 43.10400
C  42.27000 45.88700 42.93100
O  41.10300 46.24600 43.02600
C  42.56800 44.41700 42.64000
C  42.06500 43.63200 43.78200
O  41.28300 42.67100 43.64500
O  42.36200 44.21500 44.97200
C  41.68500 43.62400 46.09600
H  48.20000 40.35700 42.16600
H  51.71200 45.90000 41.69700
H  46.57000 49.50500 42.57000
H  43.63700 41.51500 42.89500
H  45.65900 40.17200 41.30200
H  45.73800 40.27900 44.34800
H  45.91200 38.85600 43.28300
H  44.34200 39.58600 43.55200
H  42.38800 41.54100 40.89000
H  43.71500 40.42400 40.54900
H  44.99300 42.56400 39.65000
H  43.32600 43.18800 39.60400
H  50.73300 39.98500 40.96900
H  50.43800 39.85500 42.68000
H  51.96100 40.40300 42.27000
H  53.35500 45.09900 40.50200
H  54.71200 44.26800 41.20600
H  53.55900 44.90600 42.31600
H  51.04100 48.41500 41.17300
H  49.09700 49.67000 43.09900
H  52.27300 49.00700 43.02500
H  51.77500 47.40800 43.61000
H  50.86300 48.92400 44.15800
H  48.31100 49.70900 40.23800
H  49.85400 50.42700 40.50500
H  48.44700 51.74200 42.36500
H  47.46100 51.52900 40.84100
H  49.14100 52.25500 40.82600
H  43.80800 49.63500 44.03200
H  42.42800 49.05000 43.36000
H  43.61200 49.93100 42.33800
H  42.10200 44.20800 41.67700
H  41.85600 44.30300 46.93200
H  42.09300 42.66000 46.40200
H  40.60800 43.66500 45.93300
Mg 6.50700 53.66200 41.82100
C  5.53800 50.19400 41.50400
C  9.17600 52.94100 39.91100
C  6.67200 56.96300 41.03700
C  3.32600 54.27900 43.05700
N  7.27900 51.72800 40.94100
C  6.72600 50.51800 40.83900
C  7.68400 49.49000 40.27900
C  8.95500 50.35500 40.01300
C  8.46000 51.78800 40.31400
C  10.27500 49.93900 40.71400
C  7.16700 48.79700 38.98400
C  6.22200 49.59900 38.05500
H  5.41800 48.82200 36.97400
N  7.88100 54.83000 40.89700
C  8.96100 54.33600 40.14000
C  9.76000 55.38700 39.63600
C  9.12800 56.60500 40.08500
C  7.77200 56.14800 40.66200
C  11.06500 55.33300 38.84700
C  9.68900 58.02100 40.06900
O  10.85400 58.15000 39.62000
C  9.04400 59.27300 40.70000
N  5.09300 55.33300 41.76900
C  5.42100 56.66100 41.57900
C  4.35700 57.70300 41.97000
C  3.37300 56.80400 42.67200
C  3.98900 55.38100 42.58700
C  4.86800 58.87700 42.81300
C  1.90400 56.84500 42.12500
C  0.71000 56.85700 43.15100
N  4.84100 52.51300 42.40800
C  3.65200 52.93100 42.90800
C  2.87500 51.75200 43.23100
C  3.61400 50.66300 42.73700
C  4.75900 51.14300 42.19100
C  1.53500 51.81100 43.92700
C  3.57500 49.19600 42.55700
O  2.70700 48.41100 42.85700
C  4.94800 48.83300 41.82800
C  4.59400 47.89800 40.70400
O  3.84400 48.15600 39.74800
O  5.29300 46.75300 40.91900
C  4.81600 45.62200 40.15600
H  9.96200 52.68700 39.19700
H  6.86100 57.99900 40.75000
H  2.33800 54.44100 43.49300
H  7.85800 48.66900 40.97400
H  9.25000 50.38600 38.96400
H  9.95700 49.42600 41.62100
H  10.85400 50.82300 40.98100
H  10.87600 49.29100 40.07700
H  6.75300 47.81700 39.22300
H  8.05100 48.61700 38.37200
H  6.86600 50.17800 37.39300
H  5.52000 50.18700 38.64700
H  11.20500 54.41800 38.27100
H  11.97600 55.37900 39.44300
H  11.00500 56.01600 37.99900
H  8.51400 58.89300 41.57400
H  8.39600 59.78800 39.99100
H  9.77000 60.02900 40.99700
H  3.94400 58.15200 41.06600
H  3.29300 57.02300 43.73700
H  4.42400 58.82600 43.80700
H  4.78700 59.80700 42.24900
H  5.94500 58.72000 42.88200
H  1.86700 56.02300 41.41000
H  1.84200 57.66600 41.41100
H  1.12000 56.43100 44.06700
H  -0.00700 56.11100 42.80700
H  0.24800 57.83800 43.25700
H  0.93200 52.65100 43.58200
H  1.69800 51.96900 44.99300
H  1.23100 50.80200 43.65100
H  5.58200 48.39200 42.59800
H  5.45100 44.76000 40.35700
H  4.82500 45.89000 39.09900
H  3.77900 45.48500 40.46300

