158

Mg 35.88400 48.93900 24.54500
C  36.32700 47.08200 27.56400
C  34.47500 51.46700 26.38300
C  35.31100 50.58000 21.64200
C  37.09000 46.08600 22.68100
N  35.31700 49.18500 26.69400
C  35.72200 48.38900 27.74800
C  35.35300 49.06000 29.12800
C  34.62500 50.38500 28.63000
C  34.85700 50.40600 27.14900
C  33.12100 50.50100 29.07800
C  36.61700 49.37400 30.06000
C  36.20700 49.05900 31.52200
H  35.01500 49.85800 32.20000
N  35.10500 50.71400 24.07300
C  34.49200 51.57900 24.98900
C  34.15700 52.82000 24.30400
C  34.40900 52.64500 22.92200
C  34.95200 51.31600 22.83600
C  33.74500 54.10900 25.00000
C  34.22700 53.66500 21.72200
O  34.50500 53.35300 20.53100
C  33.96200 55.13300 22.00800
N  36.13300 48.41300 22.47500
C  35.85100 49.30200 21.46600
C  35.83900 48.56700 20.11300
C  36.78600 47.31900 20.47600
C  36.64000 47.21000 21.99800
C  34.37700 48.26300 19.61100
C  38.24800 47.51000 20.26900
C  38.92500 46.59200 19.24300
N  36.41200 46.94700 24.94600
C  37.03900 45.94400 24.13000
C  37.48900 44.79300 24.94500
C  37.21200 45.25300 26.25200
C  36.63400 46.58200 26.23400
C  38.18600 43.48100 24.56600
C  37.32100 44.78000 27.58800
O  37.83200 43.72200 28.05700
C  36.78200 45.98800 28.47400
C  35.65100 45.52400 29.31200
O  34.62700 45.13600 28.86800
O  35.99100 45.46800 30.61700
C  35.03000 44.84300 31.56100
H  34.08900 52.27100 27.01300
H  35.14900 51.13300 20.71400
H  37.51700 45.19900 22.20800
H  34.67200 48.38500 29.64800
H  35.18400 51.26100 28.95900
H  32.99200 50.18700 30.11300
H  32.57800 49.94000 28.31800
H  32.87600 51.56300 29.05500
H  36.98100 50.38900 29.90000
H  37.44500 48.72000 29.78500
H  37.17100 49.09100 32.03100
H  35.78800 48.05400 31.48100
H  33.36000 53.82300 25.97900
H  32.97900 54.74900 24.56400
H  34.64800 54.69300 25.17900
H  32.92300 55.29000 22.29800
H  34.22100 55.71900 21.12600
H  34.57500 55.31700 22.89100
H  36.30200 49.21600 19.37000
H  36.28400 46.40600 20.15500
H  33.63700 48.54300 20.36000
H  34.32700 47.23000 19.26600
H  34.26400 48.79900 18.66900
H  38.84000 47.37200 21.17400
H  38.36100 48.52300 19.88200
H  38.18500 46.03300 18.66900
H  39.58100 45.85800 19.71000
H  39.41700 47.27300 18.54800
H  39.20100 43.60900 24.18800
H  37.59400 43.04100 23.76400
H  38.16900 42.83000 25.43900
H  37.56100 46.40300 29.11300
H  35.72400 44.32900 32.22500
H  34.46100 44.09600 31.00600
H  34.36500 45.59300 31.98800
Mg 26.88300 49.27000 26.33900
C  24.91000 50.62100 28.99300
C  29.20600 48.31200 28.74700
C  29.03900 48.71200 23.91600
C  24.60700 50.82400 24.05000
N  27.04500 49.53800 28.60600
C  26.08100 49.94500 29.47000
C  26.44700 49.62800 30.85900
C  27.94100 49.10500 30.83700
C  28.07900 48.88500 29.27900
C  28.94400 50.16900 31.38300
C  25.42700 48.54900 31.47600
C  24.80800 48.78500 32.86500
H  25.61700 49.54200 33.96700
N  28.88200 48.54800 26.30400
C  29.61400 48.10700 27.36600
C  30.88000 47.53500 26.87300
C  30.85300 47.68100 25.42200
C  29.57400 48.31000 25.11700
C  31.95900 46.96500 27.68400
C  31.89800 47.37400 24.29200
O  31.80300 47.60700 23.11500
C  33.28000 46.92000 24.69100
N  26.86300 49.76600 24.28300
C  27.83800 49.24600 23.51800
C  27.51000 49.35500 22.03100
C  26.02800 50.03300 22.08000
C  25.76400 50.17000 23.54400
C  28.57700 50.17300 21.21600
C  25.02300 49.05400 21.32300
C  24.79400 49.16700 19.75800
N  25.07600 50.39700 26.46900
C  24.33300 51.04800 25.43900
C  23.32700 51.85200 26.09300
C  23.47600 51.66400 27.49800
C  24.61900 50.79300 27.60600
C  22.34600 52.72700 25.40500
C  22.91600 52.02400 28.82500
O  21.98700 52.73300 29.22000
C  23.90100 51.39200 29.81000
C  24.51300 52.48300 30.63800
O  25.27800 53.39900 30.28800
O  23.99700 52.43700 31.92600
C  24.37200 53.52300 32.82800
H  29.98900 47.89300 29.38200
H  29.65900 48.43000 23.06100
H  24.01100 51.40900 23.34700
H  26.44000 50.50600 31.50500
H  28.09200 48.18100 31.39500
H  29.97800 49.86600 31.21900
H  28.84300 50.23600 32.46600
H  28.66000 51.12600 30.94500
H  25.95900 47.60000 31.54700
H  24.63700 48.45400 30.73200
H  24.55400 47.77200 33.17700
H  23.87500 49.30800 32.65100
H  31.90300 47.16200 28.75400
H  32.89900 47.25000 27.21100
H  31.88500 45.90100 27.45900
H  33.11700 46.06000 25.34100
H  33.84100 47.65900 25.26300
H  33.85200 46.67200 23.79600
H  27.43900 48.35600 21.60000
H  25.98300 50.99900 21.57500
H  28.73400 51.03000 21.87100
H  28.11100 50.42500 20.26400
H  29.53100 49.65800 21.10400
H  23.99300 49.13000 21.67000
H  25.33600 48.03500 21.54900
H  24.69800 48.18700 19.29100
H  25.46800 49.80900 19.19100
H  23.82100 49.60400 19.53200
H  21.64000 52.07600 24.88900
H  22.87000 53.27600 24.62200
H  21.78100 53.46100 25.97900
H  23.39600 50.67100 30.45300
H  23.68300 53.67200 33.66000
H  24.46200 54.45100 32.26400
H  25.32700 53.26500 33.28500

