158

Mg 24.39900 -6.39300 46.61300
C  26.40900 -3.77500 45.27300
C  21.81300 -5.34800 44.34700
C  22.58400 -9.20600 47.25600
C  27.14100 -7.73800 48.15600
N  24.18500 -4.73300 45.14800
C  25.11800 -3.80200 44.74200
C  24.62900 -2.91700 43.59100
C  23.11200 -3.27800 43.48100
C  23.04000 -4.58100 44.37700
C  22.14700 -2.08400 43.80000
C  25.48200 -3.04600 42.33400
C  25.77800 -1.79500 41.57000
H  24.83900 -1.65300 40.36100
N  22.41600 -7.07100 45.99600
C  21.59200 -6.50700 45.05100
C  20.31400 -7.21000 45.07500
C  20.49900 -8.37100 45.91500
C  21.82800 -8.20800 46.46900
C  19.09500 -6.82300 44.24500
C  19.47000 -9.43900 46.21900
O  18.41400 -9.50100 45.60100
C  19.66700 -10.32100 47.35200
N  24.83400 -8.21200 47.48000
C  23.85300 -9.16900 47.81400
C  24.49300 -10.38400 48.60100
C  25.93700 -9.89100 48.88700
C  26.01000 -8.53900 48.14000
C  23.76000 -10.86100 49.86800
C  27.03600 -10.84900 48.48500
C  28.04100 -11.19500 49.68300
N  26.34100 -5.81500 46.85100
C  27.31700 -6.43000 47.56700
C  28.50100 -5.68200 47.52300
C  28.24600 -4.60100 46.61600
C  26.88400 -4.72700 46.20200
C  29.70500 -5.92600 48.36500
C  28.84200 -3.48700 45.95000
O  30.02900 -3.08800 45.94300
C  27.61100 -2.83200 45.06100
C  27.33500 -1.42200 45.45900
O  28.01600 -0.42200 45.23900
O  26.13100 -1.36400 46.23200
C  25.76200 0.02200 46.68200
H  21.00000 -5.03800 43.68800
H  22.11000 -10.18400 47.36200
H  27.98400 -8.20100 48.67300
H  24.94300 -1.97600 44.04100
H  22.91300 -3.55900 42.44700
H  22.79500 -1.32800 44.24300
H  21.38100 -2.31800 44.54000
H  21.60700 -1.75900 42.91200
H  25.06400 -3.88300 41.77400
H  26.48800 -3.35600 42.61500
H  26.82700 -1.67100 41.30100
H  25.52500 -0.85900 42.06800
H  18.16700 -7.20700 44.66800
H  19.32100 -7.26100 43.27300
H  18.94100 -5.78600 43.94600
H  20.23900 -11.21300 47.09500
H  18.66100 -10.64000 47.62400
H  20.15400 -9.84400 48.20300
H  24.56200 -11.17900 47.85900
H  26.03200 -9.69100 49.95500
H  22.95900 -11.48600 49.47400
H  23.31500 -9.97500 50.32200
H  24.39600 -11.38900 50.57700
H  27.53500 -10.44100 47.60500
H  26.57300 -11.78400 48.17000
H  27.99900 -12.23600 50.00400
H  28.05900 -10.45500 50.48400
H  29.02200 -11.04500 49.23300
H  29.32100 -6.00400 49.38200
H  30.44900 -5.14300 48.21700
H  30.23400 -6.80100 47.99000
H  28.01400 -2.67100 44.06100
H  25.62500 0.59900 45.76800
H  26.45600 0.44600 47.40800
H  24.78700 -0.10600 47.15300
Mg 16.78000 52.45300 24.64900
C  18.15700 51.39000 27.71200
C  14.13700 53.72900 26.36600
C  15.57800 53.61600 21.75300
C  19.32300 50.86600 23.03300
N  16.16000 52.29400 26.88600
C  16.93700 52.04600 27.92200
C  16.30900 52.48500 29.25700
C  14.89200 52.92600 28.79300
C  15.09100 53.12000 27.19300
C  13.72000 51.92600 28.93900
C  17.13400 53.53700 30.11400
C  17.47900 53.30800 31.71500
H  16.66100 52.28500 32.48900
N  14.97100 53.39300 24.12500
C  14.02300 53.92100 24.95200
C  13.09000 54.64100 24.17500
C  13.42500 54.54000 22.84200
C  14.75300 53.86500 22.84300
C  11.89800 55.42700 24.88000
C  12.74900 55.10400 21.58800
O  13.27000 55.00200 20.47400
C  11.38400 55.79700 21.68300
N  17.30100 52.18400 22.59900
C  16.77100 52.87900 21.57000
C  17.45800 52.66600 20.20900
C  18.60800 51.81500 20.74800
C  18.54400 51.73500 22.24500
C  16.52700 52.00700 19.12600
C  20.05700 52.34500 20.35200
C  20.23500 52.66700 18.88200
N  18.36500 51.23300 25.20800
C  19.34200 50.61900 24.40400
C  20.33000 49.90500 25.23300
C  19.88200 50.32800 26.51400
C  18.70200 51.06000 26.45900
C  21.70300 49.37900 24.93000
C  20.32300 50.26400 27.89200
O  21.20300 49.53200 28.30100
C  19.17500 50.99800 28.71600
C  18.63000 49.86800 29.55600
O  17.73500 49.08100 29.24100
O  19.19900 49.73000 30.79400
C  18.55400 48.88700 31.81100
H  13.36700 54.24400 26.94300
H  15.14700 53.99400 20.82400
H  20.08600 50.44700 22.37300
H  16.40000 51.53800 29.79000
H  14.65900 53.89700 29.22900
H  13.96700 51.20600 29.71900
H  13.51900 51.41900 27.99500
H  12.81700 52.48100 29.19000
H  16.79000 54.56000 29.96500
H  18.08400 53.50700 29.58200
H  17.34000 54.27200 32.20500
H  18.56100 53.19100 31.77100
H  11.80800 56.35400 24.31300
H  12.24300 55.80000 25.84400
H  11.02100 54.78400 24.96200
H  11.12100 56.07100 20.66100
H  11.45800 56.74800 22.21100
H  10.67500 55.09700 22.12400
H  17.77600 53.64700 19.85700
H  18.39900 50.83500 20.31800
H  16.89800 51.05800 18.73800
H  16.56800 52.54700 18.18000
H  15.51000 51.91500 19.50600
H  20.96800 51.81300 20.62800
H  20.12800 53.23400 20.97800
H  21.16500 52.20600 18.54900
H  20.33400 53.72900 18.65400
H  19.45400 52.25900 18.24100
H  22.38400 50.16000 25.26700
H  21.85300 49.34700 23.85000
H  21.85100 48.40700 25.40000
H  19.52200 51.87600 29.26000
H  18.77700 47.83600 31.62900
H  17.48200 48.87600 32.00700
H  19.03300 49.16900 32.74900

