158

Mg 15.95700 53.27600 24.99300
C  17.45900 51.96000 27.79900
C  13.34500 54.34400 26.89500
C  14.42600 54.21300 22.14300
C  18.34500 51.45000 23.11100
N  15.43300 53.01400 27.06500
C  16.24900 52.70100 28.08300
C  15.70700 53.11900 29.42500
C  14.21400 53.58200 29.09200
C  14.25400 53.57500 27.54800
C  13.12400 52.49700 29.60600
C  16.64900 54.21200 30.06000
C  16.98800 53.99800 31.53200
H  16.03500 53.22000 32.46000
N  14.19100 54.37500 24.63400
C  13.25500 54.73700 25.55000
C  12.20900 55.41400 24.84900
C  12.54400 55.39500 23.47000
C  13.79900 54.65800 23.33000
C  11.00800 55.92900 25.63000
C  11.78900 55.88500 22.24700
O  12.16500 55.77400 21.06700
C  10.45200 56.46700 22.42800
N  16.28800 52.82000 22.90800
C  15.48100 53.30200 21.92500
C  16.12100 53.03900 20.55100
C  17.46700 52.20500 20.88800
C  17.40700 52.21600 22.39200
C  15.26900 52.31500 19.48200
C  18.77900 52.83900 20.22700
C  19.30100 52.18800 18.93200
N  17.48400 51.97500 25.33200
C  18.43100 51.39500 24.51400
C  19.40100 50.67100 25.17200
C  19.08600 50.95500 26.50100
C  17.85700 51.65100 26.52900
C  20.51400 49.82900 24.57500
C  19.58600 50.79400 27.80300
O  20.68800 50.36200 28.13600
C  18.50900 51.40800 28.77800
C  18.09300 50.42800 29.72400
O  17.14000 49.62500 29.54600
O  18.91000 50.59000 30.84900
C  18.43600 49.88200 32.03500
H  12.63000 54.78100 27.59500
H  14.00400 54.50700 21.18000
H  19.07800 50.92700 22.49400
H  15.59000 52.21700 30.02600
H  13.93600 54.55500 29.49700
H  12.62500 52.68200 30.55700
H  13.53200 51.49200 29.71700
H  12.42200 52.56600 28.77500
H  16.24300 55.22300 30.05600
H  17.61500 54.23900 29.55400
H  17.21000 54.99200 31.92100
H  17.99000 53.57100 31.56600
H  10.27700 55.13100 25.76300
H  10.53700 56.73900 25.07300
H  11.27500 56.37900 26.58500
H  10.12000 56.66400 21.40900
H  10.55400 57.42700 22.93500
H  9.66200 55.89900 22.92000
H  16.45500 54.01600 20.20100
H  17.26200 51.17600 20.59500
H  15.75100 51.71800 18.70800
H  14.96400 53.18500 18.89900
H  14.42800 51.81100 19.95900
H  19.54500 52.89900 20.99900
H  18.54300 53.85300 19.90500
H  18.57600 51.55500 18.42000
H  20.12500 51.55500 19.26300
H  19.63600 52.94800 18.22600
H  20.32800 49.31500 23.63200
H  20.46600 49.13200 25.41100
H  21.41000 50.44200 24.48000
H  18.98400 52.19600 29.36300
H  18.68900 48.83300 31.88000
H  17.36800 49.87600 32.25200
H  18.91200 50.29900 32.92200
Mg -5.50400 25.41800 27.36400
C  -3.50900 27.23500 29.62900
C  -6.12300 23.14000 30.00100
C  -6.73500 23.17300 25.16800
C  -4.32500 27.50700 24.89700
N  -4.77100 25.18200 29.53700
C  -4.11300 26.15800 30.22400
C  -4.24000 26.03400 31.74700
C  -4.96700 24.60500 31.91800
C  -5.33200 24.24800 30.41500
C  -3.91600 23.50200 32.48500
C  -5.16800 27.19500 32.35600
C  -4.69800 27.95800 33.61300
H  -5.67200 28.09400 34.83500
N  -6.35900 23.45300 27.56000
C  -6.44300 22.65800 28.72600
C  -7.04800 21.38400 28.28500
C  -7.24100 21.37800 26.93600
C  -6.77700 22.67300 26.47000
C  -7.30800 20.29200 29.31000
C  -7.75300 20.24600 25.95400
O  -7.94500 20.50800 24.77100
C  -8.17800 18.89500 26.49300
N  -5.63800 25.40200 25.37600
C  -6.19900 24.42100 24.68700
C  -6.08200 24.62200 23.17500
C  -5.68000 26.16000 23.13100
C  -5.23500 26.44900 24.58500
C  -5.06400 23.78600 22.41100
C  -6.88000 27.06100 22.77500
C  -6.83400 27.60100 21.35200
N  -4.10700 27.00900 27.14200
C  -3.81000 27.72000 26.11200
C  -2.84200 28.72600 26.50700
C  -2.74300 28.65300 27.89600
C  -3.57000 27.55500 28.24700
C  -2.09200 29.73300 25.65600
C  -2.07100 29.15600 29.06900
O  -1.26800 30.09100 29.22000
C  -2.58200 28.28400 30.28200
C  -1.41700 27.61200 30.98800
O  -0.59800 26.87000 30.40200
O  -1.43400 27.97200 32.34000
C  -0.23600 27.70800 33.10500
H  -6.46400 22.48200 30.80300
H  -7.07200 22.54200 24.34300
H  -4.11300 28.09700 24.00300
H  -3.26300 26.11800 32.22300
H  -5.75900 24.53800 32.66300
H  -3.73300 22.74700 31.72100
H  -4.24200 22.98500 33.38700
H  -2.98800 24.05900 32.61500
H  -6.22900 26.98500 32.49100
H  -5.15000 28.01800 31.64100
H  -4.40900 29.00200 33.49100
H  -3.76500 27.52700 33.97700
H  -8.27900 19.79600 29.29500
H  -7.04100 20.63200 30.31000
H  -6.54900 19.51300 29.24300
H  -7.60500 18.42700 27.29300
H  -8.18400 18.03000 25.82900
H  -9.24000 19.08500 26.65300
H  -6.98800 24.47800 22.58700
H  -4.84600 26.35400 22.45500
H  -4.26100 24.41400 22.02400
H  -5.56300 23.36400 21.53900
H  -4.64200 23.03900 23.08300
H  -6.82900 27.93000 23.43100
H  -7.89600 26.67500 22.86100
H  -5.87600 27.22500 20.99400
H  -6.87000 28.66800 21.12900
H  -7.54200 27.13800 20.66500
H  -1.88800 30.60900 26.27100
H  -2.65600 30.02200 24.77000
H  -1.14700 29.29600 25.33200
H  -3.19100 28.78400 31.03600
H  0.66600 28.20300 32.74400
H  0.04100 26.67100 33.29700
H  -0.52300 28.16100 34.05400

