158

Mg 30.50600 57.97300 40.22200
C  27.86600 56.01000 38.77300
C  32.66700 55.68100 38.99400
C  32.91900 60.25400 40.62700
C  28.01000 60.44900 40.93800
N  30.28000 56.08000 38.93100
C  29.15200 55.45300 38.55600
C  29.52800 54.16000 37.75700
C  31.11000 54.01800 38.02200
C  31.37500 55.26600 38.79100
C  31.64000 52.72500 38.71900
C  29.26200 54.33200 36.22800
C  27.98700 53.66300 35.69400
H  27.11400 54.54300 34.85300
N  32.53100 57.97100 40.00100
C  33.18300 56.88000 39.51400
C  34.61900 57.25600 39.35800
C  34.69800 58.62800 39.77800
C  33.33100 59.03300 40.19000
C  35.78400 56.35800 38.81600
C  36.02800 59.52200 39.67900
O  37.08000 58.96900 39.41100
C  36.06200 60.96000 39.89600
N  30.47500 60.08400 40.62600
C  31.62600 60.72300 40.89200
C  31.35500 62.12700 41.37200
C  29.80100 62.16600 41.66700
C  29.35400 60.86100 41.06400
C  32.29100 62.66700 42.43800
C  29.10900 63.54200 41.13200
C  28.27400 64.40300 42.10400
N  28.34500 58.24600 39.98900
C  27.50400 59.21700 40.46500
C  26.10900 58.90200 40.18400
C  26.21800 57.59500 39.57400
C  27.58400 57.30000 39.42700
C  24.88700 59.75200 40.34400
C  25.47800 56.54800 38.93200
O  24.26200 56.52500 38.67200
C  26.48600 55.36300 38.48400
C  26.22500 54.11900 39.34900
O  27.00900 53.56100 40.13400
O  24.97000 53.66800 39.05600
C  24.48100 52.40800 39.67300
H  33.42100 54.99500 38.60300
H  33.68900 61.01300 40.78100
H  27.25800 61.17500 41.25300
H  28.96300 53.36800 38.24800
H  31.54700 54.14400 37.03200
H  30.84300 51.98500 38.79100
H  32.09100 52.87200 39.70100
H  32.51400 52.26000 38.26200
H  30.09900 53.88100 35.69500
H  29.22400 55.40200 36.02500
H  27.46500 53.44500 36.62700
H  28.14100 52.80600 35.03800
H  36.25500 56.70900 37.89800
H  35.44100 55.33600 38.65400
H  36.68700 56.34300 39.42600
H  35.20700 61.35800 39.35000
H  36.92500 61.47500 39.47600
H  36.02300 61.16300 40.96700
H  31.51500 62.62700 40.41700
H  29.67100 62.11100 42.74800
H  31.72000 63.30200 43.11500
H  33.05500 63.28300 41.96400
H  32.77400 61.88500 43.02400
H  28.47900 63.25400 40.29000
H  29.86500 64.17900 40.67100
H  27.24000 64.34700 41.76400
H  28.56100 65.45300 42.16000
H  28.36700 64.11600 43.15200
H  24.03600 59.55600 39.69200
H  25.02600 60.83300 40.31500
H  24.60700 59.51900 41.37100
H  26.12200 55.24900 37.46300
H  24.89400 51.60900 39.05700
H  23.40200 52.43800 39.82800
H  24.87900 52.26300 40.67800
Mg 9.24700 48.47900 25.65200
C  6.82800 49.06500 28.15900
C  11.65800 49.45900 27.95300
C  11.36900 48.15400 23.23200
C  6.52000 47.81700 23.48200
N  9.24100 49.32200 27.69300
C  8.17400 49.34500 28.53500
C  8.61300 49.55400 30.01500
C  9.95800 50.20500 29.73800
C  10.32900 49.60900 28.40700
C  9.91000 51.70900 29.73700
C  8.83000 48.21100 30.79700
C  9.49500 48.23100 32.23600
H  8.85100 47.23600 33.20600
N  11.19100 48.75700 25.61000
C  12.01000 49.04900 26.63300
C  13.43100 49.01000 26.17200
C  13.32700 48.67400 24.78900
C  11.94100 48.58400 24.48600
C  14.56600 49.28000 27.03500
C  14.54600 48.47200 23.79300
O  14.53000 48.25200 22.61300
C  15.89300 48.45200 24.45800
N  8.94100 47.90000 23.68000
C  10.04900 47.89100 22.86500
C  9.63200 47.38500 21.46200
C  8.05600 47.54500 21.45200
C  7.83500 47.72200 22.96000
C  10.23100 48.05700 20.22000
C  7.24900 46.34100 20.81900
C  6.05300 46.57800 19.86800
N  7.04900 48.34200 25.73500
C  6.11500 48.08000 24.77700
C  4.75400 48.16700 25.40300
C  5.01400 48.43700 26.73000
C  6.41500 48.65200 26.85900
C  3.44600 47.89800 24.71700
C  4.36100 48.51400 27.96000
O  3.19100 48.29100 28.30900
C  5.49000 49.02600 28.91000
C  5.38900 48.07400 30.06300
O  5.49000 46.86800 30.01200
O  4.88800 48.68600 31.19000
C  4.36800 47.68900 32.16400
H  12.44100 49.91600 28.56100
H  12.14800 48.06400 22.47200
H  5.77700 47.61600 22.70800
H  7.88300 50.11700 30.59600
H  10.81500 49.91500 30.34600
H  8.88200 52.06600 29.80600
H  10.37600 52.09700 28.83100
H  10.44400 52.09300 30.60600
H  9.61600 47.67300 30.26700
H  7.97600 47.53500 30.78000
H  9.36000 49.22200 32.66900
H  10.54300 48.00100 32.04500
H  15.12800 48.34900 27.10700
H  14.30200 49.54100 28.06000
H  15.16200 50.05500 26.55400
H  16.18600 49.42900 24.84300
H  16.64800 48.07100 23.77100
H  15.98100 47.63500 25.17400
H  10.00100 46.36100 21.39200
H  7.63200 48.50600 21.16200
H  11.29400 48.21700 20.40400
H  9.67200 48.95900 19.97100
H  10.29900 47.31200 19.42800
H  6.90400 45.72600 21.65000
H  7.89100 45.71300 20.20200
H  6.03200 47.56200 19.39800
H  5.10300 46.30500 20.32800
H  6.14300 45.86300 19.05000
H  3.09900 48.76100 24.14900
H  2.71300 47.46100 25.39500
H  3.63100 47.06900 24.03400
H  5.06600 49.98800 29.19800
H  3.81000 46.86600 31.71600
H  3.81600 48.04000 33.03500
H  5.19000 47.11800 32.59600

