158

Mg 9.34100 4.32700 27.90900
C  10.71200 2.67600 30.66700
C  7.24000 5.92500 29.95600
C  7.84900 5.72100 25.11100
C  10.93900 2.02000 25.74200
N  8.97700 4.20600 30.16700
C  9.71800 3.57800 31.13500
C  9.14800 3.88700 32.51900
C  7.93400 4.83900 32.23900
C  8.09300 5.03300 30.69800
C  6.48800 4.35000 32.59600
C  10.20800 4.30500 33.63400
C  9.58400 4.27200 35.03300
H  10.48000 4.37600 36.21900
N  7.85800 5.77600 27.63800
C  7.03500 6.20500 28.56800
C  6.11700 7.22300 28.02200
C  6.24000 7.16200 26.60300
C  7.42500 6.25900 26.37700
C  5.19300 8.06300 28.78800
C  5.45200 7.87400 25.44800
O  5.78300 7.82700 24.29600
C  4.32300 8.85000 25.69300
N  9.35600 3.98300 25.76500
C  8.63600 4.62100 24.84200
C  8.80100 4.00500 23.44300
C  9.80900 2.85200 23.67400
C  10.12400 3.02700 25.16600
C  7.49600 3.57400 22.73600
C  11.05300 2.75000 22.75500
C  11.04800 1.69500 21.63800
N  10.59700 2.66900 28.06200
C  11.20900 1.84300 27.12300
C  11.98900 0.90200 27.85700
C  11.98600 1.30900 29.22700
C  10.96700 2.29300 29.28800
C  12.80000 -0.23700 27.20400
C  12.46600 0.96300 30.55900
O  13.23000 0.08400 30.93700
C  11.72600 1.92700 31.50200
C  11.10800 1.16200 32.55800
O  10.11400 0.42200 32.44700
O  11.73400 1.41800 33.73000
C  11.22700 0.67700 34.85700
H  6.57600 6.47200 30.62800
H  7.31800 6.10800 24.23900
H  11.23700 1.24100 25.03600
H  8.89400 2.90500 32.91700
H  8.10500 5.85200 32.60300
H  6.43700 3.54200 33.32500
H  5.90000 4.09200 31.71500
H  5.88100 5.19700 32.91700
H  10.55300 5.31600 33.42000
H  11.07900 3.65600 33.54100
H  9.04200 3.32600 35.03600
H  8.80600 5.02900 35.13000
H  5.76300 8.98800 28.87000
H  4.86200 7.61500 29.72400
H  4.28500 8.33300 28.24900
H  3.88600 9.26300 24.78400
H  4.61000 9.72400 26.27800
H  3.51300 8.32000 26.19500
H  9.29200 4.81000 22.89600
H  9.25200 1.91700 23.62300
H  6.69900 3.64500 23.47700
H  7.52200 2.55200 22.35800
H  7.50100 4.35900 21.98000
H  11.94500 2.70500 23.38100
H  11.11500 3.73900 22.30100
H  10.06100 1.25200 21.50500
H  11.69400 0.88400 21.97400
H  11.33700 2.06300 20.65300
H  12.52500 -1.20300 27.62900
H  13.83800 0.07600 27.31500
H  12.54400 -0.38000 26.15400
H  12.43200 2.57700 32.01800
H  10.18700 0.36200 34.76500
H  11.23300 1.21000 35.80700
H  11.82000 -0.23500 34.92200
Mg 17.39000 -0.96200 27.81000
C  16.77400 1.13300 30.64100
C  19.40900 -2.96200 29.83700
C  18.39000 -2.62300 25.09500
C  15.73800 1.46800 25.76900
N  17.89600 -0.96500 29.93600
C  17.54500 -0.06500 30.94100
C  18.06800 -0.35400 32.33000
C  19.12000 -1.53300 31.96600
C  18.81600 -1.84500 30.44900
C  20.66400 -1.16900 32.11900
C  16.94500 -0.63400 33.31500
C  17.10700 -0.12400 34.76700
H  18.49500 0.20200 35.24200
N  18.63700 -2.67200 27.55100
C  19.34300 -3.38600 28.44000
C  19.94400 -4.61500 27.89400
C  19.61600 -4.48600 26.50000
C  18.85800 -3.22700 26.29800
C  20.60100 -5.65400 28.69400
C  19.96100 -5.49300 25.43400
O  19.74400 -5.28400 24.26100
C  20.67500 -6.75900 25.64900
N  17.23800 -0.50900 25.66300
C  17.64700 -1.49900 24.77000
C  17.34000 -1.03700 23.31300
C  16.37300 0.20200 23.63700
C  16.43200 0.39600 25.10400
C  18.53700 -0.62600 22.43500
C  14.97800 0.07400 23.02800
C  13.88900 -0.93600 23.44100
N  16.33900 0.87200 28.12100
C  15.73000 1.72800 27.17900
C  15.05800 2.75500 28.01700
C  15.53000 2.60000 29.31200
C  16.26400 1.40400 29.31400
C  14.21700 3.95400 27.45700
C  15.42600 3.19300 30.66100
O  14.84200 4.17100 31.09200
C  16.11200 2.18100 31.60200
C  17.02300 2.88400 32.55400
O  18.10400 3.39600 32.40400
O  16.24600 3.09500 33.70400
C  16.79300 4.32500 34.39800
H  19.93600 -3.59600 30.55400
H  18.73300 -3.09100 24.17000
H  15.01300 1.94600 25.10700
H  18.69700 0.46700 32.67400
H  18.86500 -2.40900 32.56200
H  21.20300 -2.03600 32.50000
H  20.70000 -0.38300 32.87400
H  21.06100 -0.93100 31.13200
H  16.85100 -1.72000 33.33400
H  15.95400 -0.32400 32.98200
H  16.74600 -0.92400 35.41300
H  16.46800 0.75800 34.80900
H  21.61000 -5.34700 28.96800
H  20.55300 -6.70000 28.39100
H  20.03400 -5.66700 29.62400
H  21.65700 -6.66300 26.11100
H  20.76600 -7.27000 24.69000
H  20.14600 -7.41600 26.33900
H  16.77200 -1.74200 22.70600
H  16.92100 1.04800 23.22100
H  18.51400 -1.16000 21.48500
H  19.42700 -0.94800 22.97400
H  18.63100 0.45800 22.37000
H  15.22300 -0.14200 21.98800
H  14.44300 1.02100 23.09600
H  12.92200 -0.43600 23.39500
H  14.10300 -1.35600 24.42400
H  13.91500 -1.69300 22.65700
H  14.39200 4.17400 26.40400
H  14.52500 4.81600 28.04900
H  13.15700 3.75300 27.61300
H  15.31400 1.71700 32.18200
H  17.67900 3.90200 34.87200
H  16.09400 4.58600 35.19300
H  17.07600 5.16200 33.76100

