158

Mg 2.06100 -0.96200 43.36200
C  5.45900 -0.69600 42.89300
C  1.48300 1.66600 41.33500
C  -1.37400 -1.50900 43.75400
C  2.61300 -3.96000 45.10300
N  3.29100 0.44600 42.33800
C  4.72000 0.33400 42.23800
C  5.24400 1.41200 41.37600
C  4.00700 2.28000 40.94700
C  2.90500 1.42600 41.53000
C  4.00500 3.76400 41.51800
C  6.06300 0.84800 40.14300
C  7.30400 1.68000 39.66000
H  7.12800 2.72700 38.51500
N  0.32100 0.00700 42.71600
C  0.30400 1.06400 41.88700
C  -1.04000 1.51100 41.74600
C  -1.91200 0.63800 42.48200
C  -0.99600 -0.29900 43.11800
C  -1.45100 2.78500 40.94400
C  -3.41600 0.72800 42.48900
O  -4.03800 1.56300 41.84000
C  -4.26000 -0.33300 43.34200
N  0.73300 -2.57700 44.37700
C  -0.63300 -2.58100 44.31400
C  -1.21700 -3.91200 44.82000
C  0.14400 -4.57400 45.36700
C  1.23600 -3.63800 44.92100
C  -2.44700 -3.95800 45.77700
C  0.35700 -6.05300 44.85200
C  1.07600 -6.95600 45.85200
N  3.64800 -2.14900 43.90100
C  3.76700 -3.29500 44.64700
C  5.08800 -3.70500 44.76100
C  5.86400 -2.71000 44.08300
C  4.90500 -1.79500 43.59500
C  5.54300 -4.88300 45.49100
C  7.13100 -2.25200 43.73800
O  8.25800 -2.60300 44.01800
C  6.97400 -0.88700 42.93300
C  7.65800 0.06200 43.82100
O  7.68100 0.06800 45.03900
O  8.32800 0.92700 43.03700
C  9.17300 1.95300 43.67800
H  1.30300 2.52100 40.68000
H  -2.42500 -1.72400 43.95900
H  2.84500 -4.88900 45.62800
H  5.77400 2.04800 42.08400
H  3.91200 2.37200 39.86600
H  3.68000 4.46600 40.75000
H  5.01400 4.12300 41.72300
H  3.48800 3.98000 42.45300
H  5.49100 0.80200 39.21700
H  6.34100 -0.19600 40.29200
H  8.04900 0.90400 39.48200
H  7.53500 2.31600 40.51400
H  -2.07100 3.49100 41.49700
H  -1.94200 2.52500 40.00600
H  -0.54000 3.31500 40.66700
H  -5.29600 -0.01300 43.23200
H  -4.22700 -0.19100 44.42300
H  -4.16600 -1.35500 42.97600
H  -1.49800 -4.45500 43.91700
H  0.01400 -4.58100 46.44900
H  -2.75700 -2.92700 45.94400
H  -2.26900 -4.50800 46.70100
H  -3.30900 -4.46900 45.34800
H  0.99800 -6.02600 43.97000
H  -0.54100 -6.53100 44.46100
H  0.41700 -7.80400 46.03800
H  1.27600 -6.49500 46.81900
H  1.95500 -7.38300 45.36900
H  5.49600 -5.77200 44.86400
H  5.02100 -4.99100 46.44200
H  6.61400 -4.91400 45.69000
H  7.58900 -1.08400 42.05500
H  8.56400 2.41400 44.45600
H  9.61000 2.65300 42.96600
H  10.01100 1.38700 44.08500
Mg 53.39400 24.02300 44.64600
C  50.53000 26.10900 43.89200
C  51.79400 21.52600 43.17600
C  56.33100 22.46900 44.74400
C  54.90600 27.01700 45.87900
N  51.53300 23.93200 43.44200
C  50.53100 24.88500 43.29200
C  49.40500 24.30000 42.39200
C  49.58100 22.80400 42.72600
C  51.04700 22.68200 43.12300
C  48.73000 22.19800 43.82100
C  49.75500 24.59200 40.90700
C  48.56700 24.68300 39.90600
H  48.87400 24.14500 38.45400
N  53.99700 22.22900 44.07500
C  53.19100 21.27900 43.53600
C  53.91600 20.08700 43.42700
C  55.16600 20.34400 44.05700
C  55.25700 21.72900 44.22800
C  53.33100 18.85500 42.96600
C  56.20100 19.28700 44.29900
O  56.19800 18.21800 43.76500
C  57.41000 19.54300 45.10000
N  55.34500 24.68600 45.23600
C  56.36700 23.78200 45.26400
C  57.69600 24.43100 45.82500
C  57.17000 25.85500 46.26800
C  55.74200 25.89200 45.70100
C  58.49100 23.65600 46.89600
C  58.03800 27.14800 45.90800
C  58.45800 27.54100 44.45100
N  52.84100 26.13000 44.91300
C  53.55200 27.15000 45.53000
C  52.68800 28.26700 45.76700
C  51.46500 27.89900 45.11800
C  51.62800 26.59800 44.61300
C  52.89300 29.56800 46.58900
C  50.11100 28.36200 44.76500
O  49.50400 29.33600 45.14700
C  49.47600 27.16800 43.88800
C  49.18200 27.76200 42.57700
O  50.06000 28.18300 41.82900
O  47.85900 27.67600 42.18600
C  47.37300 28.55700 41.11800
H  51.22200 20.63000 42.92700
H  57.30100 22.00800 44.93700
H  55.27300 27.94900 46.31400
H  48.39300 24.65600 42.58600
H  49.42500 22.16300 41.85900
H  48.71500 21.13400 43.58300
H  47.73200 22.63000 43.73900
H  49.22200 22.34100 44.78200
H  50.32300 23.73900 40.53600
H  50.38300 25.47800 40.81400
H  48.49500 25.75900 39.75300
H  47.63200 24.30500 40.31800
H  53.53300 18.83900 41.89500
H  52.25600 18.77100 43.12300
H  53.80300 17.94000 43.32300
H  58.17700 20.09000 44.55300
H  57.85000 18.56200 45.28200
H  57.23200 19.97900 46.08300
H  58.52000 24.66300 45.14900
H  57.05200 25.95300 47.34800
H  59.52300 23.51900 46.57500
H  58.07200 22.69800 47.20300
H  58.59700 24.26200 47.79600
H  58.93100 26.99300 46.51400
H  57.49300 27.95900 46.39000
H  58.22100 26.81400 43.67400
H  59.53200 27.36500 44.49700
H  58.19500 28.53900 44.10100
H  51.91600 30.04900 46.63800
H  53.60000 30.22100 46.07900
H  53.28400 29.22700 47.54800
H  48.47800 26.95600 44.27300
H  46.49300 29.07600 41.49900
H  47.23000 27.87700 40.27800
H  48.00400 29.36100 40.74000

