158

Mg -2.08900 17.13700 26.71500
C  -2.63100 15.10600 29.50700
C  -2.91700 19.92800 28.76000
C  -1.75500 19.13700 24.12800
C  -2.09500 14.33300 24.63600
N  -2.69200 17.55300 28.89700
C  -2.70800 16.55300 29.84200
C  -2.97700 17.11400 31.24400
C  -3.30800 18.63600 30.93200
C  -2.97500 18.73800 29.42600
C  -4.71500 19.23500 31.15500
C  -1.78200 16.80300 32.17400
C  -2.16200 16.55000 33.64000
H  -1.12800 16.74400 34.76600
N  -2.25800 19.26600 26.48400
C  -2.53700 20.23500 27.42400
C  -2.47000 21.52900 26.75600
C  -2.08200 21.36300 25.46100
C  -2.04900 19.85300 25.27500
C  -2.86800 22.75500 27.48200
C  -1.73200 22.43600 24.48800
O  -1.48300 22.20600 23.32900
C  -1.80800 23.95000 24.88400
N  -2.04200 16.73300 24.68000
C  -1.94500 17.74500 23.77800
C  -1.81300 17.26400 22.36700
C  -1.70100 15.70900 22.54500
C  -1.90200 15.56100 24.04700
C  -2.87100 17.65700 21.29400
C  -0.40500 15.04800 22.12700
C  0.78900 15.37100 23.01800
N  -2.38600 15.11800 26.95900
C  -2.33600 14.10100 26.01500
C  -2.58900 12.85900 26.77700
C  -2.59300 13.18200 28.12700
C  -2.48900 14.58400 28.24200
C  -2.76200 11.48300 26.22300
C  -2.68800 12.63200 29.43100
O  -2.75200 11.44300 29.71600
C  -2.65000 13.86500 30.44700
C  -1.42100 13.57600 31.26100
O  -0.27100 13.61700 30.81400
O  -1.76100 13.24100 32.56500
C  -0.61100 12.95700 33.50900
H  -3.10900 20.78600 29.40800
H  -1.70000 19.75500 23.23000
H  -1.99100 13.43400 24.02400
H  -3.87900 16.58300 31.54900
H  -2.67700 19.33600 31.47900
H  -5.26800 18.36400 31.50600
H  -5.30400 19.65900 30.34200
H  -4.69200 19.97600 31.95400
H  -1.13800 17.67800 32.09500
H  -1.20000 16.06300 31.62400
H  -2.40400 15.48700 33.63000
H  -3.07400 17.11000 33.84500
H  -3.47700 22.44400 28.33000
H  -3.56200 23.37800 26.91800
H  -1.89500 23.20500 27.67600
H  -1.29400 24.43500 24.05400
H  -1.18200 24.09700 25.76300
H  -2.88500 24.09000 24.98400
H  -0.86900 17.70500 22.04900
H  -2.48200 15.13100 22.05000
H  -2.38700 17.60300 20.31900
H  -3.20200 18.68900 21.41000
H  -3.65900 16.90500 21.34700
H  -0.24200 15.41700 21.11400
H  -0.60300 13.97700 22.10200
H  0.58100 16.25500 23.62000
H  1.60700 15.58400 22.33000
H  1.01300 14.51100 23.64900
H  -3.83300 11.34700 26.07700
H  -2.27000 10.76600 26.88100
H  -2.42900 11.23700 25.21500
H  -3.45600 13.90700 31.17900
H  -0.31600 13.75300 34.19300
H  0.28500 12.53000 33.05900
H  -0.89100 12.10700 34.13000
Mg -12.03000 15.88000 42.70500
C  -8.84000 14.56000 41.76900
C  -11.08000 18.89300 41.49800
C  -15.35700 16.75800 42.75300
C  -12.97900 12.45200 43.53700
N  -10.19700 16.57900 41.78600
C  -8.94700 15.93600 41.72600
C  -7.77900 16.94200 41.39000
C  -8.55000 18.33700 41.62200
C  -10.03100 17.94500 41.49900
C  -8.26800 18.97800 43.01400
C  -7.16900 16.75300 39.98900
C  -5.65800 16.72800 39.71500
H  -5.33800 15.51800 38.76200
N  -13.07100 17.58900 42.23700
C  -12.44800 18.70900 41.68500
C  -13.41100 19.64300 41.36400
C  -14.73700 19.06800 41.69500
C  -14.43500 17.77300 42.25400
C  -13.15200 20.94900 40.72700
C  -16.13000 19.68500 41.53900
O  -16.20100 20.86200 41.13900
C  -17.36400 18.92800 41.84100
N  -13.83600 14.85500 43.35500
C  -15.10400 15.46800 43.23900
C  -16.17500 14.54200 43.67400
C  -15.43400 13.16000 43.91100
C  -13.96700 13.49300 43.62500
C  -17.19400 15.08000 44.77100
C  -16.04800 11.92500 43.20000
C  -15.65300 11.76500 41.74900
N  -11.13800 13.92000 42.74600
C  -11.69100 12.67200 43.06500
C  -10.69800 11.67900 42.94000
C  -9.54300 12.35000 42.46100
C  -9.89600 13.67900 42.27000
C  -10.92900 10.23900 43.33500
C  -8.14100 12.23400 42.10600
O  -7.40300 11.32300 42.12300
C  -7.65200 13.62400 41.65200
C  -6.56300 13.87000 42.56500
O  -6.66700 13.90500 43.79600
O  -5.33000 13.99800 41.92000
C  -4.16300 14.14900 42.85300
H  -10.85600 19.96100 41.45100
H  -16.37300 17.11200 42.94200
H  -13.29800 11.45600 43.85200
H  -7.05000 16.80700 42.18900
H  -8.22100 19.01100 40.83100
H  -7.29900 18.71100 43.43700
H  -9.02300 18.84700 43.78900
H  -8.21000 20.06100 42.91000
H  -7.58600 17.39600 39.21300
H  -7.48500 15.73600 39.75800
H  -5.08300 16.58600 40.63000
H  -5.33600 17.63400 39.20100
H  -13.93200 21.17800 40.00100
H  -12.29200 21.01800 40.06100
H  -13.17000 21.84800 41.34200
H  -17.32200 18.03800 41.21300
H  -18.07800 19.68900 41.52400
H  -17.41300 18.84700 42.92700
H  -16.73700 14.32500 42.76600
H  -15.40200 12.94400 44.97900
H  -18.16700 14.66500 44.50800
H  -17.35300 16.15300 44.87300
H  -16.98000 14.73100 45.78200
H  -17.11500 11.88800 43.42200
H  -15.59500 11.07400 43.70900
H  -15.22100 12.73300 41.49300
H  -16.46800 11.47400 41.08600
H  -14.83800 11.04900 41.65100
H  -10.06400 9.58100 43.25400
H  -11.77300 9.82900 42.78000
H  -11.28700 10.16000 44.36200
H  -7.28800 13.57500 40.62600
H  -4.36100 13.47100 43.68300
H  -4.13100 15.18200 43.19900
H  -3.25600 13.92900 42.28900

