158

Mg -1.66800 17.28500 26.13400
C  -2.38000 15.21200 28.92800
C  -2.23900 19.99100 28.15000
C  -1.35600 19.25600 23.31900
C  -1.90100 14.42300 24.03400
N  -2.33200 17.57200 28.27400
C  -2.42400 16.59500 29.27900
C  -2.67300 17.27300 30.63700
C  -2.89400 18.81900 30.29700
C  -2.38500 18.76200 28.81100
C  -4.33300 19.38000 30.42800
C  -1.53800 17.07900 31.61900
C  -1.66400 17.93700 32.88200
H  -2.01400 17.11000 34.19000
N  -1.77100 19.32400 25.78700
C  -1.94200 20.31100 26.76300
C  -1.88500 21.63600 26.19900
C  -1.62300 21.39300 24.81500
C  -1.55200 19.95800 24.57900
C  -2.02100 22.90300 27.05000
C  -1.46300 22.47900 23.67200
O  -1.28300 22.21500 22.51000
C  -1.66800 23.84400 24.04200
N  -1.51400 16.81000 23.97300
C  -1.35100 17.83800 23.04300
C  -1.16800 17.24700 21.58300
C  -1.05700 15.69600 21.90600
C  -1.42400 15.60100 23.39700
C  -2.27800 17.59300 20.62400
C  0.33200 14.93100 21.66800
C  1.58600 15.73000 21.99000
N  -2.11000 15.25900 26.37000
C  -2.17000 14.18500 25.45400
C  -2.46800 12.93000 26.05900
C  -2.45900 13.28800 27.43100
C  -2.24000 14.69800 27.54900
C  -2.62500 11.61800 25.45200
C  -2.58000 12.75500 28.81500
O  -2.75100 11.61400 29.23000
C  -2.48900 14.05000 29.83000
C  -1.33000 13.87200 30.63400
O  -0.17300 14.14300 30.22600
O  -1.65100 13.24600 31.83200
C  -0.51800 13.28400 32.80700
H  -2.37400 20.84000 28.82400
H  -1.36600 19.79000 22.36700
H  -1.92400 13.56600 23.35800
H  -3.54800 16.80900 31.09300
H  -2.13600 19.36300 30.86100
H  -4.97700 18.67700 30.95700
H  -4.79600 19.65600 29.48000
H  -4.34200 20.27500 31.05000
H  -0.65000 17.33700 31.04200
H  -1.45900 16.05800 31.99100
H  -2.35900 18.76100 32.71900
H  -0.69400 18.39300 33.08200
H  -1.22900 23.61700 26.82500
H  -2.04800 22.78400 28.13300
H  -2.92300 23.41900 26.72000
H  -2.63600 24.00500 24.51600
H  -1.64900 24.48100 23.15700
H  -0.84000 24.15400 24.67900
H  -0.19400 17.55800 21.20300
H  -1.89400 15.16000 21.45900
H  -2.53500 18.64600 20.74300
H  -3.07300 16.86900 20.80200
H  -1.84300 17.53200 19.62600
H  0.40300 14.58200 20.63700
H  0.35600 14.03800 22.29300
H  2.10200 15.87200 21.04000
H  2.22800 15.17000 22.67000
H  1.40900 16.69800 22.45900
H  -3.48100 11.05400 25.82400
H  -1.70100 11.05100 25.55900
H  -2.79000 11.70000 24.37800
H  -3.45500 13.95500 30.32600
H  -1.05100 13.73400 33.64400
H  0.31900 13.93600 32.55500
H  -0.11700 12.31700 33.11000
Mg 25.85600 50.18000 25.68500
C  23.97800 51.18300 28.32900
C  28.19600 48.85400 27.99000
C  27.85300 49.32000 23.15700
C  23.67900 51.63700 23.41000
N  26.11800 50.13400 27.92700
C  25.13600 50.60000 28.81600
C  25.58500 50.43500 30.29600
C  26.89900 49.62600 30.09500
C  27.12400 49.54800 28.58800
C  28.03000 50.12900 30.95000
C  24.46200 49.79600 31.15200
C  24.79700 49.04000 32.44600
H  24.09100 49.56800 33.69300
N  27.70100 49.22700 25.57300
C  28.50200 48.75400 26.61600
C  29.72200 48.19300 26.06200
C  29.71200 48.54900 24.66800
C  28.35100 49.07700 24.42100
C  30.71800 47.49600 26.87500
C  30.87500 48.39200 23.67800
O  30.82000 48.74200 22.53000
C  32.19700 47.88100 24.16700
N  25.66600 50.31900 23.55400
C  26.65300 49.77900 22.70100
C  26.30000 50.10700 21.26100
C  24.81000 50.77900 21.38700
C  24.68000 50.94300 22.90100
C  27.35600 51.02700 20.53800
C  23.59500 49.91700 20.85600
C  23.57700 49.82200 19.30600
N  24.24300 51.21500 25.77900
C  23.45700 51.78700 24.82700
C  22.24500 52.32400 25.47300
C  22.43200 52.15500 26.85100
C  23.64900 51.48800 27.01800
C  21.07500 52.95500 24.74400
C  21.81100 52.34100 28.13700
O  20.73200 52.74500 28.49700
C  22.83800 51.69600 29.19300
C  23.21300 52.84100 30.10900
O  24.09400 53.66800 29.99400
O  22.30900 52.64700 31.24600
C  22.60300 53.63100 32.31100
H  28.83200 48.43900 28.77500
H  28.58500 49.01400 22.40600
H  22.91400 52.09200 22.77800
H  25.77000 51.41900 30.72700
H  26.66100 48.60200 30.38200
H  28.82500 50.32100 30.22900
H  28.44500 49.41100 31.65700
H  27.73400 51.01300 31.51400
H  23.97600 49.14700 30.42400
H  23.94600 50.69900 31.47900
H  25.85800 49.24100 32.59900
H  24.53800 47.98600 32.34500
H  30.31700 47.28800 27.86700
H  31.68800 47.99100 26.92400
H  30.84000 46.49500 26.46200
H  32.12600 46.89800 24.63300
H  32.58600 48.55800 24.92700
H  32.92000 47.96500 23.35600
H  26.16600 49.15900 20.74000
H  24.89300 51.73700 20.87200
H  28.26700 51.28900 21.07700
H  26.98000 51.94800 20.09300
H  27.75400 50.59500 19.62000
H  22.60400 50.31500 21.07400
H  23.77300 48.94600 21.32000
H  23.64000 48.80100 18.92900
H  24.32400 50.42600 18.79100
H  22.68900 50.11100 18.74500
H  20.88000 52.41200 23.81900
H  21.21400 53.96800 24.36700
H  20.09900 52.80100 25.20400
H  22.32700 50.90800 29.74700
H  22.96400 54.60400 31.98000
H  23.29400 53.24200 33.06000
H  21.74900 53.82200 32.96000

