158

Mg 50.61900 44.83600 42.29300
C  47.37500 45.22300 41.07900
C  50.39700 41.38400 41.28000
C  53.92500 44.49200 42.53600
C  51.02200 48.37400 42.05000
N  49.07200 43.49600 41.20000
C  47.82900 43.91200 40.90600
C  47.08200 42.78200 40.22400
C  47.94600 41.47400 40.65300
C  49.27500 42.14300 40.95900
C  47.45800 40.63400 41.91200
C  47.11000 43.02900 38.67400
C  45.80500 42.65000 37.90200
H  46.01600 42.28600 36.43100
N  51.94600 43.13000 42.08200
C  51.62000 41.84600 41.78600
C  52.84600 41.04900 41.93700
C  53.86700 41.88200 42.41100
C  53.26300 43.23300 42.42800
C  52.95600 39.60400 41.49300
C  55.35600 41.43400 42.64500
O  55.74900 40.27000 42.58500
C  56.32700 42.43100 43.13000
N  52.21500 46.27700 42.14900
C  53.50900 45.84800 42.44400
C  54.44800 47.08700 42.50900
C  53.45600 48.22600 42.32200
C  52.12200 47.63100 42.20100
C  55.29900 47.20800 43.85500
C  53.76900 49.10300 41.00700
C  53.56800 50.62700 41.20900
N  49.41500 46.45200 41.86400
C  49.69700 47.86400 41.82700
C  48.50400 48.57100 41.47600
C  47.59200 47.62500 41.16000
C  48.17900 46.32700 41.40500
C  48.42800 50.09100 41.48900
C  46.23800 47.36300 40.62300
O  45.39400 48.09300 40.17300
C  46.00200 45.80600 40.65100
C  44.86100 45.37900 41.41400
O  43.96900 44.68700 40.98300
O  44.79600 46.05600 42.56700
C  43.42200 46.15900 43.15100
H  50.25000 40.31500 41.11000
H  55.00300 44.33600 42.62200
H  51.08200 49.46100 41.97600
H  46.02900 42.73700 40.50100
H  48.15900 40.77800 39.84200
H  46.38900 40.79300 42.05400
H  47.89100 40.93600 42.86600
H  47.58000 39.56300 41.74900
H  47.93900 42.49700 38.20700
H  47.22700 44.10800 38.57600
H  45.08200 43.46600 37.90300
H  45.32300 41.82600 38.42600
H  51.95200 39.24500 41.26700
H  53.38400 39.04200 42.32300
H  53.69400 39.33600 40.73600
H  55.72200 42.89100 43.91100
H  56.60800 43.11900 42.33300
H  57.15300 42.04400 43.72700
H  55.05700 46.97100 41.61200
H  53.39900 48.92500 43.15600
H  56.27600 47.64400 43.64600
H  55.57600 46.24500 44.28300
H  54.89200 47.87300 44.61700
H  53.20000 48.80700 40.12500
H  54.83300 49.07100 40.77100
H  54.50000 51.08400 40.87700
H  53.41700 50.99100 42.22500
H  52.77500 51.01600 40.57000
H  49.00100 50.48900 42.32700
H  47.36400 50.32000 41.55100
H  48.77000 50.40700 40.50400
H  45.66800 45.46900 39.67000
H  43.48000 45.59600 44.08300
H  42.59100 45.79100 42.55000
H  43.22500 47.16300 43.52600
Mg 49.15500 35.46700 27.69900
C  46.73000 34.00100 29.88900
C  49.42400 38.01000 29.86300
C  50.89800 37.06600 25.38800
C  48.52400 32.87400 25.41300
N  48.20000 35.86900 29.72700
C  47.26100 35.22400 30.42000
C  46.99900 35.90600 31.74800
C  47.57000 37.27800 31.55500
C  48.41300 37.12400 30.24000
C  46.56900 38.51300 31.31100
C  47.55700 35.15200 33.04800
C  49.08100 34.64500 32.92100
H  50.12000 35.44100 33.84400
N  50.20400 37.21900 27.73000
C  50.22100 38.08900 28.71400
C  51.14300 39.18300 28.43800
C  51.47100 39.04700 27.05500
C  50.82800 37.71500 26.66400
C  51.47900 40.20300 29.52300
C  52.26700 39.90400 26.18200
O  52.45100 39.62000 25.01900
C  52.84900 41.12500 26.76400
N  49.69000 35.03100 25.61500
C  50.37400 35.87300 24.84000
C  50.52900 35.34100 23.41200
C  49.96200 33.87700 23.55400
C  49.40100 33.88000 24.94500
C  49.82200 36.24500 22.40200
C  51.03100 32.71400 23.51700
C  51.39900 32.59500 22.03600
N  48.00700 33.77300 27.62100
C  47.88500 32.80000 26.68500
C  47.02900 31.79900 27.15000
C  46.51000 32.24100 28.36800
C  47.12500 33.47300 28.63200
C  46.73000 30.51200 26.44700
C  45.57400 31.85000 29.45200
O  44.79800 30.90800 29.65300
C  45.76900 33.02800 30.49400
C  46.23400 32.38800 31.68700
O  47.26800 31.76300 31.74000
O  45.33000 32.43100 32.76400
C  45.85500 31.88100 34.03500
H  49.35700 38.85900 30.54700
H  51.43100 37.46800 24.52400
H  48.39200 31.98400 24.79600
H  45.91600 35.89700 31.87000
H  48.20700 37.49600 32.41200
H  46.74900 39.21500 32.12400
H  45.56200 38.16000 31.53600
H  46.61300 39.05300 30.36500
H  46.89300 34.34800 33.36500
H  47.43800 35.87000 33.86000
H  49.56500 34.61900 31.94500
H  49.09100 33.66500 33.39800
H  52.55200 40.39000 29.54900
H  51.12100 40.03300 30.53900
H  51.11700 41.20000 29.27200
H  52.05200 41.63000 27.31100
H  53.24600 41.76500 25.97600
H  53.67600 40.85400 27.42000
H  51.58000 35.44100 23.14300
H  49.24100 33.63100 22.77400
H  49.22100 37.00600 22.89900
H  49.18600 35.74100 21.67300
H  50.51400 36.78700 21.75800
H  50.65200 31.83500 24.03800
H  51.90600 33.11400 24.03000
H  52.29400 33.17500 21.80900
H  50.64500 33.03000 21.38000
H  51.46400 31.52700 21.82800
H  46.17800 30.74400 25.53600
H  46.07000 29.88800 27.04900
H  47.56800 29.88800 26.13600
H  44.77800 33.44400 30.67500
H  46.90600 32.12600 34.18800
H  45.62900 30.82600 34.18800
H  45.28300 32.37400 34.82000

