158

Mg 50.44100 45.87600 42.70900
C  47.58800 46.93900 41.02400
C  50.02300 42.72400 41.26100
C  53.66300 45.15100 43.35500
C  51.04500 49.24400 43.77600
N  48.94900 45.01000 41.21100
C  47.83100 45.60000 40.80200
C  46.95700 44.60000 40.00200
C  47.70100 43.16000 40.21700
C  48.95300 43.60800 40.94400
C  46.87100 42.09800 40.91700
C  46.75600 45.09800 38.50400
C  45.37400 44.88500 37.93600
H  45.13300 43.69800 36.98500
N  51.55700 44.07400 42.59300
C  51.24800 42.95900 41.95500
C  52.35200 41.93600 42.06200
C  53.42100 42.64100 42.65800
C  52.90900 44.03800 42.87900
C  52.11000 40.52300 41.59600
C  54.75000 42.07700 43.05900
O  54.88900 40.88400 43.07600
C  55.86600 42.95700 43.56700
N  52.03700 47.00400 43.55000
C  53.26400 46.44100 43.67400
C  54.24100 47.51000 44.15200
C  53.45400 48.75200 44.49800
C  52.08200 48.32800 44.02000
C  55.23400 47.11600 45.31800
C  53.98600 50.08200 43.96400
C  54.07400 51.25200 44.97100
N  49.55700 47.70800 42.63100
C  49.87200 48.95000 43.09900
C  48.81000 49.88300 42.69000
C  47.92600 49.12300 41.93900
C  48.41000 47.81900 41.82600
C  48.77200 51.32400 43.00500
C  46.65700 49.27400 41.16400
O  45.94000 50.23900 40.89200
C  46.46500 47.79800 40.55700
C  45.13800 47.33900 41.17300
O  44.86600 46.82600 42.29700
O  44.20500 47.49100 40.18800
C  42.85300 47.07200 40.46300
H  49.77000 41.73300 40.87700
H  54.75200 45.12900 43.27600
H  51.20900 50.30300 43.99200
H  45.95600 44.47600 40.41500
H  47.90100 42.54700 39.33800
H  45.81800 42.29600 40.71900
H  46.96300 42.02700 42.00100
H  47.17900 41.15800 40.45900
H  47.44600 44.55000 37.86300
H  46.93200 46.17000 38.41900
H  45.08000 45.72500 37.30700
H  44.63300 44.77700 38.72800
H  52.97900 39.88800 41.76900
H  51.87300 40.34100 40.54700
H  51.41100 39.99200 42.24200
H  55.53800 43.54600 44.42400
H  56.24300 43.59300 42.76700
H  56.74700 42.36100 43.80500
H  54.75500 47.62400 43.19800
H  53.21400 48.88000 45.55300
H  54.80600 46.24700 45.81800
H  55.26900 47.83200 46.13900
H  56.22100 47.01800 44.86500
H  53.47600 50.32100 43.03100
H  55.03500 49.93000 43.70900
H  54.50700 50.87300 45.89700
H  53.06400 51.56700 45.23400
H  54.57700 52.14800 44.60900
H  48.73000 51.96900 42.12700
H  49.63500 51.62900 43.59700
H  47.85100 51.44400 43.57600
H  46.31200 47.79900 39.47800
H  42.24800 47.55100 39.69300
H  42.60200 47.36500 41.48200
H  42.72600 46.01100 40.24900
Mg 9.24700 48.47900 25.65200
C  6.82800 49.06500 28.15900
C  11.65800 49.45900 27.95300
C  11.36900 48.15400 23.23200
C  6.52000 47.81700 23.48200
N  9.24100 49.32200 27.69300
C  8.17400 49.34500 28.53500
C  8.61300 49.55400 30.01500
C  9.95800 50.20500 29.73800
C  10.32900 49.60900 28.40700
C  9.91000 51.70900 29.73700
C  8.83000 48.21100 30.79700
C  9.49500 48.23100 32.23600
H  8.85100 47.23600 33.20600
N  11.19100 48.75700 25.61000
C  12.01000 49.04900 26.63300
C  13.43100 49.01000 26.17200
C  13.32700 48.67400 24.78900
C  11.94100 48.58400 24.48600
C  14.56600 49.28000 27.03500
C  14.54600 48.47200 23.79300
O  14.53000 48.25200 22.61300
C  15.89300 48.45200 24.45800
N  8.94100 47.90000 23.68000
C  10.04900 47.89100 22.86500
C  9.63200 47.38500 21.46200
C  8.05600 47.54500 21.45200
C  7.83500 47.72200 22.96000
C  10.23100 48.05700 20.22000
C  7.24900 46.34100 20.81900
C  6.05300 46.57800 19.86800
N  7.04900 48.34200 25.73500
C  6.11500 48.08000 24.77700
C  4.75400 48.16700 25.40300
C  5.01400 48.43700 26.73000
C  6.41500 48.65200 26.85900
C  3.44600 47.89800 24.71700
C  4.36100 48.51400 27.96000
O  3.19100 48.29100 28.30900
C  5.49000 49.02600 28.91000
C  5.38900 48.07400 30.06300
O  5.49000 46.86800 30.01200
O  4.88800 48.68600 31.19000
C  4.36800 47.68900 32.16400
H  12.44100 49.91600 28.56100
H  12.14800 48.06400 22.47200
H  5.77700 47.61600 22.70800
H  7.88300 50.11700 30.59600
H  10.81500 49.91500 30.34600
H  8.88200 52.06600 29.80600
H  10.37600 52.09700 28.83100
H  10.44400 52.09300 30.60600
H  9.61600 47.67300 30.26700
H  7.97600 47.53500 30.78000
H  9.36000 49.22200 32.66900
H  10.54300 48.00100 32.04500
H  15.12800 48.34900 27.10700
H  14.30200 49.54100 28.06000
H  15.16200 50.05500 26.55400
H  16.18600 49.42900 24.84300
H  16.64800 48.07100 23.77100
H  15.98100 47.63500 25.17400
H  10.00100 46.36100 21.39200
H  7.63200 48.50600 21.16200
H  11.29400 48.21700 20.40400
H  9.67200 48.95900 19.97100
H  10.29900 47.31200 19.42800
H  6.90400 45.72600 21.65000
H  7.89100 45.71300 20.20200
H  6.03200 47.56200 19.39800
H  5.10300 46.30500 20.32800
H  6.14300 45.86300 19.05000
H  3.09900 48.76100 24.14900
H  2.71300 47.46100 25.39500
H  3.63100 47.06900 24.03400
H  5.06600 49.98800 29.19800
H  3.81000 46.86600 31.71600
H  3.81600 48.04000 33.03500
H  5.19000 47.11800 32.59600

