158

Mg -1.52300 17.38500 26.93700
C  -2.18400 15.07000 29.43400
C  -1.89900 19.90800 28.98000
C  -1.17900 19.46300 24.25600
C  -1.48100 14.64600 24.59600
N  -2.02800 17.39900 28.95800
C  -2.14500 16.36400 29.88900
C  -2.23100 16.95400 31.39200
C  -2.15500 18.57300 31.18900
C  -2.07400 18.68600 29.61400
C  -3.33100 19.31900 31.94900
C  -1.16600 16.28700 32.35300
C  -0.97500 16.89200 33.74600
H  -1.03800 15.96900 35.09600
N  -1.52000 19.43800 26.65300
C  -1.80400 20.29100 27.65800
C  -1.80000 21.61200 27.14000
C  -1.59400 21.49300 25.73400
C  -1.36700 20.09800 25.51200
C  -2.05500 22.85000 27.89200
C  -1.62300 22.63100 24.66400
O  -1.55500 22.38800 23.47400
C  -1.98500 23.99500 25.05300
N  -1.44600 17.00000 24.75600
C  -1.14200 18.08100 23.98100
C  -1.04200 17.62800 22.48700
C  -0.86500 15.99700 22.64700
C  -1.28400 15.86900 24.09600
C  -2.18800 18.08900 21.56000
C  0.59500 15.56400 22.36000
C  1.80900 16.34500 22.84100
N  -1.84000 15.22700 26.95300
C  -1.75800 14.23700 25.93600
C  -1.93700 12.95900 26.52800
C  -1.99200 13.23500 27.95100
C  -2.02000 14.65100 28.11700
C  -1.89200 11.62200 25.88600
C  -2.13500 12.57300 29.19100
O  -2.18300 11.39000 29.51900
C  -2.18000 13.69400 30.23900
C  -0.87800 13.60300 30.88800
O  0.23000 14.02800 30.51200
O  -1.07100 13.08300 32.09700
C  0.12200 12.94500 32.99300
H  -2.03300 20.61800 29.79900
H  -1.07600 20.05500 23.34400
H  -1.36700 13.86000 23.84600
H  -3.21200 16.61800 31.73000
H  -1.20400 18.77800 31.68100
H  -4.02800 19.65800 31.18300
H  -2.88900 20.19900 32.41700
H  -3.89400 18.67000 32.61900
H  -0.23400 16.18700 31.79700
H  -1.51600 15.29200 32.62700
H  -1.67500 17.71300 33.90300
H  0.01200 17.35300 33.75800
H  -1.28600 23.61100 27.76500
H  -2.02600 22.64200 28.96200
H  -2.99200 23.31700 27.58900
H  -1.90600 24.57500 24.13300
H  -1.20900 24.47300 25.65000
H  -2.95100 24.05000 25.55500
H  -0.10800 18.04500 22.11000
H  -1.58000 15.45000 22.03300
H  -2.25800 19.13300 21.25300
H  -3.10500 17.65500 21.95800
H  -2.30500 17.50400 20.64800
H  0.68800 15.69100 21.28100
H  0.81100 14.51100 22.53500
H  1.55200 17.13000 23.55200
H  2.35300 16.86000 22.04900
H  2.38700 15.75000 23.54800
H  -1.44700 11.63600 24.89200
H  -2.92600 11.27700 25.91400
H  -1.26900 10.96400 26.49200
H  -2.97900 13.56500 30.96900
H  0.62900 13.88400 33.21200
H  0.93600 12.30000 32.66000
H  -0.09800 12.41700 33.92100
Mg 17.11600 -1.97700 28.14200
C  16.03100 0.09000 30.96800
C  19.18300 -3.56400 30.34400
C  18.25500 -3.58400 25.55900
C  15.02500 0.01000 26.13500
N  17.66300 -1.58400 30.44500
C  16.99800 -0.85100 31.36100
C  17.41800 -1.31200 32.79000
C  18.75100 -2.16600 32.50700
C  18.58600 -2.42200 30.98100
C  20.12300 -1.63800 32.74600
C  16.26200 -2.01100 33.54600
C  15.91100 -1.38600 34.94600
H  17.10800 -0.79600 35.71700
N  18.42500 -3.46900 27.98900
C  19.14900 -4.02200 28.99900
C  19.94800 -5.12300 28.44600
C  19.63700 -5.19600 27.08500
C  18.75300 -4.02600 26.85600
C  20.81100 -6.10300 29.30700
C  20.03100 -6.27000 25.98200
O  19.47500 -6.19700 24.86400
C  21.23700 -7.13800 26.17100
N  16.70400 -1.82200 26.12400
C  17.37500 -2.62400 25.20300
C  16.85500 -2.35100 23.73700
C  15.62900 -1.39700 23.98400
C  15.74200 -0.97300 25.48600
C  17.99100 -1.69400 22.86400
C  14.24700 -2.11800 23.62500
C  13.61300 -1.62300 22.29100
N  15.85100 -0.32900 28.50200
C  15.04500 0.30500 27.53300
C  14.36200 1.42200 28.19400
C  14.70500 1.36100 29.50900
C  15.56600 0.24300 29.68000
C  13.59300 2.47500 27.60900
C  14.49300 1.99000 30.79700
O  13.82900 2.93500 31.14500
C  15.27100 1.16500 31.76700
C  16.17100 2.02700 32.54400
O  17.26100 2.44300 32.08400
O  15.61900 2.32800 33.76500
C  16.44500 3.17600 34.59400
H  19.68000 -4.19000 31.08900
H  18.58900 -4.10300 24.65900
H  14.38500 0.65900 25.53300
H  17.65400 -0.43200 33.38800
H  18.67700 -3.14300 32.98600
H  20.67800 -1.51700 31.81500
H  20.79600 -2.27200 33.32300
H  20.09700 -0.63000 33.16000
H  16.55700 -3.04700 33.71300
H  15.37700 -2.11000 32.91800
H  15.45900 -2.19400 35.52100
H  15.18000 -0.57900 34.89000
H  21.82400 -5.87400 28.97700
H  20.54900 -7.16100 29.31200
H  20.70700 -5.78900 30.34600
H  20.93100 -8.18300 26.22000
H  21.94000 -6.82200 26.94200
H  21.76800 -6.94200 25.23900
H  16.53800 -3.30500 23.31300
H  15.83100 -0.50700 23.38700
H  17.65500 -0.89100 22.20800
H  18.50600 -2.43400 22.25200
H  18.70900 -1.27500 23.57000
H  13.58500 -1.89400 24.46100
H  14.41600 -3.19400 23.64500
H  12.52700 -1.53400 22.32100
H  13.96800 -2.35100 21.56100
H  14.00000 -0.64700 21.99600
H  12.57400 2.08800 27.61500
H  13.96600 2.56100 26.58900
H  13.57100 3.39900 28.18700
H  14.53600 0.72200 32.43900
H  17.46300 2.86200 34.36000
H  16.14600 3.09100 35.63900
H  16.33800 4.19100 34.21200

