158

Mg 24.90600 1.40400 29.98500
C  27.10200 1.37200 32.62300
C  22.29100 1.81800 32.20000
C  22.76700 1.14500 27.36400
C  27.61500 0.71300 27.81900
N  24.76900 1.53500 32.16200
C  25.81800 1.56900 33.04900
C  25.33700 1.92100 34.44200
C  23.79100 1.76300 34.34900
C  23.55900 1.73600 32.86000
C  23.12200 0.55900 35.15800
C  25.84900 3.23200 35.09100
C  26.50600 3.11600 36.49200
H  26.19100 4.09000 37.62600
N  22.88200 1.45300 29.81800
C  21.96000 1.57400 30.85600
C  20.60000 1.38800 30.37400
C  20.70500 1.16000 28.98100
C  22.17500 1.20300 28.62600
C  19.47500 1.09800 31.36300
C  19.60400 0.71100 27.99500
O  19.85800 0.37400 26.87200
C  18.22700 0.66700 28.51100
N  25.11300 1.13100 27.90000
C  24.12200 1.16600 26.98100
C  24.63900 1.03500 25.55500
C  26.19800 1.20300 25.73500
C  26.34800 0.95500 27.24500
C  24.19300 -0.19800 24.76600
C  26.69700 2.58300 25.26400
C  28.18500 2.60200 24.90100
N  26.96400 1.07000 30.13900
C  27.94600 0.79600 29.22100
C  29.19400 0.60000 29.85900
C  28.94100 0.82800 31.23900
C  27.57800 1.06000 31.32100
C  30.50400 0.28900 29.20300
C  29.60800 0.88500 32.51800
O  30.78200 0.67300 32.91000
C  28.37900 1.35200 33.50100
C  28.42900 0.37600 34.65500
O  28.21800 -0.82400 34.55000
O  28.84500 1.02900 35.78300
C  28.92900 0.17700 36.93300
H  21.50400 2.26700 32.81000
H  22.08500 0.89700 26.54900
H  28.48000 0.65400 27.15500
H  25.74800 1.12800 35.06600
H  23.31300 2.69900 34.64000
H  23.94000 0.02400 35.64200
H  22.51200 -0.14300 34.59100
H  22.49800 1.02600 35.92000
H  25.05800 3.96700 35.24000
H  26.57000 3.67800 34.40600
H  27.57900 3.24200 36.34900
H  26.44300 2.14300 36.97800
H  18.98200 2.05000 31.56100
H  19.88500 0.77500 32.31900
H  18.75800 0.33700 31.05500
H  17.85900 1.58900 28.96100
H  18.27200 -0.25100 29.09600
H  17.58200 0.48100 27.65200
H  24.09100 1.78400 24.98200
H  26.52900 0.39800 25.07900
H  23.58800 0.06700 23.89900
H  23.59600 -0.83300 25.42200
H  25.10400 -0.75200 24.54200
H  26.52600 3.36000 26.00900
H  26.11500 2.88400 24.39300
H  28.81200 3.19500 25.56700
H  28.25000 2.94800 23.87000
H  28.64900 1.62800 24.73800
H  30.16500 -0.33600 28.37600
H  31.14300 -0.32700 29.83600
H  30.99500 1.17500 28.80200
H  28.61700 2.35100 33.86500
H  28.10000 0.22100 37.64000
H  29.77300 0.38500 37.59100
H  29.01600 -0.90300 36.82000
Mg -1.95600 33.80900 26.96300
C  -3.76500 32.06200 29.45500
C  -0.73300 35.90000 29.31700
C  -0.67500 35.54700 24.47100
C  -3.93700 31.97800 24.62000
N  -2.42000 34.12600 29.17400
C  -2.90100 33.11400 29.92300
C  -2.70500 33.45000 31.43500
C  -1.98900 34.79700 31.39200
C  -1.65600 34.95700 29.88200
C  -2.82700 35.92100 31.97900
C  -1.87000 32.28400 32.18300
C  -2.52600 31.89500 33.60600
H  -1.49700 31.95200 34.77700
N  -0.76400 35.37100 26.92700
C  -0.31700 36.07400 27.96200
C  0.69500 37.02100 27.49700
C  0.69200 36.97300 26.10100
C  -0.27400 35.87800 25.75500
C  1.46600 37.91200 28.48600
C  1.47100 37.78600 25.09100
O  1.47800 37.51800 23.92700
C  2.29700 39.04000 25.52300
N  -2.25000 33.72600 24.80100
C  -1.56200 34.52300 23.99500
C  -2.13600 34.44200 22.57100
C  -2.99800 33.13500 22.62200
C  -3.09700 32.89100 24.10500
C  -2.96600 35.66900 22.13700
C  -2.30000 31.99300 21.79800
C  -1.27200 31.04900 22.50200
N  -3.49400 32.36600 26.97600
C  -4.09600 31.64400 25.95900
C  -4.87700 30.53600 26.46600
C  -4.77200 30.63600 27.90800
C  -3.93500 31.76100 28.09600
C  -5.49000 29.42900 25.59400
C  -5.26500 30.18700 29.23200
O  -6.11200 29.37500 29.51300
C  -4.44200 31.00600 30.27100
C  -5.39500 31.54200 31.19300
O  -6.16300 32.45700 30.98900
O  -5.46800 30.74100 32.34100
C  -6.47700 30.90200 33.40000
H  -0.23500 36.55300 30.03700
H  -0.33600 36.28900 23.74400
H  -4.50600 31.57100 23.78200
H  -3.70100 33.63900 31.83300
H  -1.04300 34.89900 31.92500
H  -3.65800 35.57900 32.59500
H  -3.32500 36.41200 31.14300
H  -2.16300 36.60200 32.51100
H  -0.83900 32.63400 32.24900
H  -1.75500 31.36300 31.61100
H  -2.78300 30.83800 33.68300
H  -3.34800 32.57200 33.84000
H  1.31900 38.96600 28.25100
H  2.51600 37.62100 28.46500
H  1.13800 37.70700 29.50500
H  2.89000 39.41800 24.69000
H  2.96000 38.62000 26.28000
H  1.71000 39.83100 25.98800
H  -1.28100 34.32800 21.90400
H  -4.04100 33.31600 22.36300
H  -2.59300 36.12900 21.22300
H  -3.08200 36.47700 22.86000
H  -4.01000 35.45800 21.90200
H  -1.95000 32.42200 20.85900
H  -3.10300 31.38000 21.38800
H  -1.62500 30.82500 23.50800
H  -0.26800 31.47500 22.48600
H  -1.39700 30.09000 21.99900
H  -4.76500 29.23100 24.80400
H  -6.37700 29.86100 25.13000
H  -5.65800 28.47300 26.09100
H  -3.74800 30.31900 30.75500
H  -7.19000 31.71900 33.29200
H  -5.97400 31.12000 34.34200
H  -6.98200 29.96100 33.62200

