158

Mg 24.21500 -4.90200 45.87500
C  26.45200 -2.86100 44.39900
C  21.65200 -3.48300 44.07200
C  22.23800 -7.48700 46.76900
C  26.93300 -6.48200 47.69700
N  24.08700 -3.42100 44.24800
C  25.17000 -2.58400 43.90100
C  24.66000 -1.50100 42.87500
C  23.07400 -1.52600 43.07500
C  22.87200 -2.83400 43.88300
C  22.51800 -0.31900 44.02600
C  25.13800 -1.95100 41.43000
C  25.66100 -0.90000 40.44500
H  25.12000 -0.85000 39.00500
N  22.19000 -5.26600 45.63100
C  21.32300 -4.62500 44.71900
C  20.00000 -5.30400 44.66900
C  20.15900 -6.49800 45.51200
C  21.57000 -6.47600 46.00900
C  18.81600 -4.79900 43.87100
C  18.96200 -7.55700 45.73100
O  17.85300 -7.30000 45.31600
C  19.11400 -8.70500 46.69100
N  24.69600 -6.94800 46.92700
C  23.56700 -7.58700 47.33000
C  24.14300 -8.87500 48.07600
C  25.45800 -8.41400 48.62800
C  25.74800 -7.22600 47.69000
C  23.19000 -9.43600 49.07700
C  26.59200 -9.52400 48.57700
C  27.11800 -9.95200 49.95300
N  26.28200 -4.85000 46.00400
C  27.30500 -5.38900 46.79700
C  28.56400 -4.70300 46.58300
C  28.20800 -3.70300 45.68700
C  26.87100 -3.87700 45.32400
C  29.86600 -5.01800 47.22000
C  28.76200 -2.56000 44.97700
O  29.90300 -2.10900 44.96700
C  27.68900 -2.04700 44.03800
C  27.58800 -0.60800 44.42800
O  27.01300 -0.15200 45.41700
O  28.37600 0.20200 43.58500
C  28.34300 1.64800 43.90800
H  20.89200 -3.10900 43.38300
H  21.56500 -8.31700 46.99400
H  27.73500 -6.83300 48.35000
H  25.02400 -0.51500 43.16400
H  22.57300 -1.57900 42.10900
H  23.19400 0.49000 44.30400
H  22.03800 -0.75900 44.90000
H  21.69500 0.20600 43.54100
H  24.36300 -2.54500 40.94600
H  25.99200 -2.61700 41.55700
H  26.74500 -1.02000 40.42900
H  25.42800 0.01100 40.99500
H  18.26500 -5.63300 43.43800
H  19.06000 -3.97800 43.19600
H  18.20800 -4.34900 44.65600
H  18.19500 -9.28700 46.76300
H  19.49900 -8.39500 47.66300
H  19.83500 -9.37400 46.22100
H  24.26800 -9.69600 47.37000
H  25.24200 -8.12700 49.65700
H  23.61200 -9.50600 50.08000
H  22.96700 -10.44200 48.72100
H  22.21500 -8.95400 49.01200
H  27.44900 -9.19600 47.98900
H  26.17200 -10.45700 48.20100
H  28.08100 -9.52300 50.22700
H  27.05700 -11.02800 50.11500
H  26.45400 -9.49200 50.68500
H  29.64500 -4.94600 48.28500
H  30.58200 -4.26800 46.88300
H  30.14500 -6.05100 47.01600
H  28.04700 -2.13000 43.01200
H  27.37000 2.10700 43.73500
H  29.21500 2.00700 43.36200
H  28.62700 1.67300 44.96000
Mg -11.73800 37.90500 41.11100
C  -9.40600 35.22900 40.43200
C  -9.41500 40.10000 39.92700
C  -14.23700 40.19100 41.03800
C  -13.99700 35.41600 42.14200
N  -9.78500 37.60900 40.03300
C  -8.97900 36.47600 40.00300
C  -7.56300 36.77000 39.42700
C  -7.57700 38.36200 39.44300
C  -9.02200 38.69100 39.81200
C  -6.67100 39.03300 40.50400
C  -7.39100 36.18300 38.02100
C  -6.38900 35.04300 37.90500
H  -5.25600 35.25800 36.87800
N  -11.80500 39.86400 40.63200
C  -10.67800 40.64100 40.25000
C  -11.14500 41.97200 40.18300
C  -12.50400 42.03000 40.51000
C  -12.91500 40.65000 40.69600
C  -10.25800 43.14400 39.80800
C  -13.34800 43.26600 40.58800
O  -12.94800 44.37800 40.22300
C  -14.84300 43.21800 41.04700
N  -13.81800 37.77800 41.43400
C  -14.66300 38.88600 41.38300
C  -16.12300 38.44500 41.67700
C  -15.89200 36.98700 42.20800
C  -14.47500 36.70600 41.94400
C  -16.94500 39.45500 42.57900
C  -16.87500 35.85800 41.75700
C  -17.58400 35.00900 42.89400
N  -11.83100 35.80500 41.29200
C  -12.75400 34.95400 41.85200
C  -12.22200 33.63300 41.99800
C  -10.97900 33.67900 41.38700
C  -10.77200 34.99500 40.96900
C  -12.82200 32.40600 42.60200
C  -9.79600 32.87100 41.14000
O  -9.51700 31.73000 41.43800
C  -8.79300 33.88300 40.57300
C  -7.52700 33.74900 41.34400
O  -6.68600 32.83100 41.14900
O  -7.38900 34.73400 42.22400
C  -6.14000 34.84600 43.05300
H  -8.67300 40.88000 39.74500
H  -15.13100 40.81900 41.06400
H  -14.58000 34.66100 42.67500
H  -6.82400 36.41500 40.14500
H  -7.21700 38.81800 38.52100
H  -6.64500 40.05400 40.12200
H  -5.64500 38.66900 40.54300
H  -7.23500 38.97100 41.43500
H  -6.99600 36.88600 37.28800
H  -8.35500 35.84500 37.64100
H  -6.93400 34.15300 37.58900
H  -5.97500 34.92200 38.90600
H  -9.24400 42.78400 39.63500
H  -10.17900 43.96000 40.52600
H  -10.63800 43.50500 38.85200
H  -15.05000 44.28800 41.03900
H  -14.88400 42.80400 42.05400
H  -15.51300 42.70300 40.35900
H  -16.71000 38.39700 40.75900
H  -16.02200 37.00500 43.29000
H  -17.58800 38.95700 43.30500
H  -17.51700 40.03700 41.85600
H  -16.25300 40.09400 43.12800
H  -16.39200 35.24800 40.99300
H  -17.77400 36.27400 41.30000
H  -18.56400 35.46000 43.05500
H  -17.02700 35.10000 43.82600
H  -17.73700 33.97200 42.59400
H  -13.89900 32.49500 42.74700
H  -12.37200 32.08200 43.54000
H  -12.69800 31.51500 41.98700
H  -8.67600 33.48700 39.56500
H  -5.28100 34.53000 42.46100
H  -6.22300 34.26900 43.97400
H  -5.97000 35.91000 43.21700

