158

Mg 2.59300 -0.98300 44.19300
C  5.98800 -0.17000 43.40500
C  1.55800 1.60400 42.36200
C  -0.55000 -2.20500 44.41500
C  3.77000 -4.16400 45.17000
N  3.67600 0.47900 42.94700
C  5.04100 0.67400 42.83200
C  5.30700 2.00000 42.08000
C  3.84900 2.61700 41.88200
C  2.95200 1.48600 42.37900
C  3.54700 4.06100 42.38400
C  6.25200 1.77500 40.88200
C  7.10400 2.95400 40.45700
H  6.71300 3.63200 39.09500
N  0.76400 -0.28300 43.59400
C  0.53700 0.79600 42.84700
C  -0.86300 0.96400 42.59200
C  -1.51100 -0.05900 43.25200
C  -0.37900 -0.94400 43.79700
C  -1.44300 2.16200 41.80600
C  -3.04900 -0.23700 43.32700
O  -3.85500 0.54800 42.84800
C  -3.59800 -1.36300 44.11500
N  1.73800 -2.90300 44.75600
C  0.42100 -3.14800 44.82500
C  0.16100 -4.60100 45.15100
C  1.56000 -5.22200 45.27700
C  2.42900 -4.01700 45.09200
C  -0.81800 -4.81500 46.28500
C  1.76200 -6.41500 44.27500
C  1.43200 -7.82400 44.76000
N  4.41900 -1.91700 44.41100
C  4.74600 -3.19600 44.89500
C  6.14400 -3.42700 44.90400
C  6.71700 -2.16300 44.45900
C  5.60700 -1.34200 44.11400
C  6.79200 -4.75000 45.32000
C  8.00100 -1.47300 44.20500
O  9.15300 -1.87500 44.42200
C  7.53300 -0.15100 43.45900
C  8.05900 1.02600 44.34200
O  7.46300 1.40900 45.36400
O  9.14500 1.64500 43.76000
C  9.71600 2.74400 44.59600
H  1.35200 2.54400 41.84700
H  -1.51900 -2.65700 44.63700
H  4.15400 -5.18400 45.23300
H  5.90700 2.60900 42.75700
H  3.73100 2.59900 40.79800
H  3.26000 4.65600 41.51600
H  4.46800 4.42100 42.84200
H  2.67300 4.22300 43.01500
H  5.62300 1.56400 40.01700
H  7.04100 1.03700 41.02600
H  8.14500 2.67100 40.30400
H  7.21400 3.70800 41.23600
H  -1.86300 1.76000 40.88400
H  -0.77900 2.99300 41.56600
H  -2.18100 2.66900 42.42700
H  -4.68400 -1.31000 44.04800
H  -3.24100 -1.23200 45.13700
H  -3.24500 -2.30500 43.69500
H  -0.28500 -4.94000 44.21500
H  1.67100 -5.49000 46.32800
H  -1.41500 -3.90600 46.34800
H  -0.31300 -4.95400 47.24100
H  -1.39000 -5.69900 46.00100
H  2.75000 -6.36400 43.81900
H  1.22100 -6.23500 43.34600
H  0.57700 -8.23100 44.22000
H  1.16700 -7.92600 45.81200
H  2.23600 -8.54500 44.60900
H  6.53800 -5.10000 46.32100
H  7.86700 -4.66200 45.16900
H  6.55200 -5.54600 44.61500
H  8.07200 -0.14700 42.51100
H  10.77000 2.88200 44.35500
H  9.67200 2.47800 45.65200
H  9.12800 3.65000 44.45600
Mg 47.45200 24.81800 28.37100
C  48.36100 27.07100 31.00900
C  46.21500 22.70300 30.75600
C  46.72600 22.67200 25.86700
C  48.99100 26.93800 26.17200
N  47.31100 24.93600 30.63500
C  47.70900 25.94000 31.48700
C  47.34500 25.65300 32.92700
C  46.78100 24.18700 32.86600
C  46.79800 23.88800 31.35500
C  47.78800 23.17300 33.55400
C  46.39900 26.70200 33.54000
C  46.75700 27.32500 34.89900
H  47.43600 26.45200 35.99800
N  46.62300 22.86600 28.28100
C  46.11200 22.16100 29.35700
C  45.64600 20.89700 28.93700
C  45.70500 20.87700 27.44300
C  46.34800 22.16500 27.14500
C  45.08600 19.87500 29.81500
C  45.28500 19.86600 26.47600
O  45.45100 19.96900 25.27000
C  44.60700 18.69600 26.93600
N  47.91800 24.73500 26.30800
C  47.34800 23.83600 25.50900
C  47.83300 24.18100 24.02600
C  48.32100 25.60600 24.08200
C  48.51800 25.73600 25.60700
C  48.90400 23.22900 23.58100
C  47.29000 26.66700 23.58300
C  45.89900 26.76300 24.13800
N  48.47800 26.61400 28.46700
C  49.01600 27.41100 27.48800
C  49.60800 28.60000 27.99400
C  49.28600 28.53600 29.39700
C  48.64900 27.27000 29.62000
C  50.32100 29.57300 27.22600
C  49.42000 29.23900 30.67400
O  50.03000 30.26400 30.93900
C  48.81500 28.24900 31.79900
C  49.91200 27.89200 32.76400
O  50.65100 26.93600 32.66600
O  49.90800 28.78800 33.73900
C  50.70300 28.50400 34.97400
H  45.79100 22.08500 31.55000
H  46.41700 22.08500 25.00000
H  49.52000 27.61600 25.49900
H  48.27500 25.75200 33.48700
H  45.79700 24.00900 33.29900
H  47.27300 22.62400 34.34200
H  48.55800 23.75500 34.06100
H  48.07100 22.33100 32.92200
H  45.39400 26.35900 33.78700
H  46.19300 27.40700 32.73400
H  45.87600 27.81500 35.31400
H  47.44100 28.15100 34.70200
H  45.55100 18.89600 29.69900
H  44.06900 19.79100 29.43300
H  44.93300 20.19500 30.84500
H  44.19800 18.22400 26.04200
H  43.71400 18.88000 27.53400
H  45.32600 18.09800 27.49400
H  46.99400 24.05000 23.34300
H  49.30700 25.70000 23.62600
H  48.97100 23.43300 22.51300
H  48.69300 22.19400 23.85400
H  49.80300 23.57600 24.09000
H  47.29100 26.47300 22.51100
H  47.69600 27.67600 23.64700
H  45.76400 27.80200 24.43800
H  45.78100 26.14500 25.02700
H  45.26400 26.46000 23.30500
H  50.92700 29.14400 26.42800
H  50.97100 30.11000 27.91700
H  49.59900 30.28500 26.82600
H  47.95900 28.68200 32.31700
H  50.02300 28.05700 35.69800
H  50.94000 29.50300 35.34200
H  51.64800 27.96100 34.98300

