158

Mg 40.91900 9.29100 29.73200
C  42.94800 10.75200 32.13000
C  38.85600 8.17100 32.08500
C  39.33900 7.77400 27.18700
C  43.55900 10.01200 27.18700
N  40.88700 9.57200 31.86600
C  41.73600 10.27500 32.64600
C  41.32600 10.32300 34.12900
C  40.06900 9.33900 34.15100
C  39.97000 8.98000 32.59800
C  40.27100 8.11000 34.99600
C  41.19000 11.84100 34.61300
C  40.31500 12.12200 35.90400
H  40.90200 13.00300 37.04200
N  39.29500 8.19500 29.67600
C  38.50700 7.95400 30.72300
C  37.25700 7.25700 30.22100
C  37.37600 7.14100 28.75200
C  38.75900 7.66500 28.43400
C  36.04400 6.90100 31.20000
C  36.44200 6.54900 27.73000
O  36.62600 6.58700 26.53000
C  35.14100 5.95300 28.07000
N  41.45100 9.05000 27.33100
C  40.55000 8.32700 26.65500
C  40.93700 8.40700 25.11500
C  42.32300 9.18300 25.14400
C  42.50700 9.31500 26.62400
C  41.02600 6.97100 24.46400
C  42.43000 10.51400 24.36800
C  41.71800 11.74900 24.94700
N  42.82300 10.17400 29.61900
C  43.73900 10.31800 28.54900
C  44.85800 11.04100 29.05500
C  44.57700 11.26600 30.43700
C  43.39300 10.61600 30.78500
C  46.04300 11.43800 28.17900
C  45.13400 11.83800 31.63200
O  46.19500 12.45400 31.72800
C  44.07200 11.53700 32.80200
C  44.75500 10.92200 33.96500
O  45.16700 9.76700 33.89200
O  44.66800 11.79400 34.92900
C  45.09900 11.38100 36.28900
H  38.15900 7.80700 32.84300
H  38.77600 7.10600 26.53100
H  44.36600 10.27200 26.49900
H  42.10500 9.95600 34.79800
H  39.08900 9.76900 34.36200
H  40.40700 7.20400 34.40400
H  39.31700 8.00800 35.51200
H  41.18100 8.18100 35.59200
H  40.79800 12.27100 33.69200
H  42.16600 12.28200 34.81800
H  39.96200 11.13300 36.19700
H  39.42300 12.65200 35.57100
H  36.26000 7.01700 32.26200
H  35.75500 5.88900 30.91800
H  35.24000 7.57700 30.90700
H  34.52600 6.65200 28.63800
H  35.24300 5.08900 28.72700
H  34.69600 5.63100 27.12900
H  40.26800 9.04100 24.53300
H  43.19100 8.60000 24.83900
H  40.72600 6.16400 25.13100
H  41.97000 6.67600 24.00500
H  40.26800 7.11000 23.69200
H  42.10000 10.27500 23.35800
H  43.51900 10.56500 24.36400
H  41.20000 11.64300 25.90000
H  41.02700 12.02500 24.15100
H  42.36900 12.61700 25.05700
H  46.58700 12.19600 28.74400
H  45.67800 11.96900 27.30000
H  46.70500 10.64200 27.83800
H  43.67700 12.51300 33.08500
H  45.07000 10.29200 36.32000
H  44.25600 11.83700 36.80800
H  46.09400 11.74800 36.54200
Mg 47.67800 35.09200 26.48900
C  45.59600 33.72300 28.92800
C  48.12200 37.82800 28.31400
C  49.23900 36.46700 23.75700
C  46.46600 32.53500 24.27900
N  47.09800 35.56500 28.39400
C  46.39000 34.82200 29.35900
C  46.44300 35.45200 30.71900
C  46.90200 36.88300 30.41200
C  47.40600 36.79900 28.94300
C  45.77300 37.95500 30.49000
C  47.47800 34.73800 31.64700
C  47.30400 34.86000 33.09700
H  46.22100 35.81000 33.60300
N  48.65900 36.87100 26.13400
C  48.66500 37.88900 27.02200
C  49.31300 38.99900 26.39800
C  49.68400 38.60400 25.03700
C  49.16400 37.21100 24.89900
C  49.52500 40.30700 27.17500
C  50.27500 39.44000 23.88100
O  50.48500 39.06100 22.72300
C  50.55300 40.83100 24.30200
N  48.00500 34.44300 24.38800
C  48.78000 35.18400 23.54700
C  48.85900 34.57400 22.17900
C  48.03800 33.25300 22.39500
C  47.42800 33.37400 23.75900
C  48.40500 35.41300 20.97500
C  48.73500 31.88900 22.04600
C  47.95200 30.82200 21.23900
N  46.34800 33.55900 26.53600
C  45.94900 32.61500 25.55800
C  45.01000 31.63100 26.13100
C  44.77700 32.10000 27.46700
C  45.63400 33.22900 27.65700
C  44.37000 30.46200 25.47800
C  43.99700 31.81300 28.68700
O  43.31100 30.85500 28.97800
C  44.40700 32.96800 29.67800
C  44.79300 32.34900 30.99600
O  45.85700 31.78300 31.15500
O  43.80500 32.51800 32.02500
C  44.20200 32.08600 33.38400
H  48.29300 38.68000 28.97400
H  49.72600 36.87800 22.87000
H  46.12500 31.72400 23.63200
H  45.42200 35.41200 31.09800
H  47.65700 37.25800 31.10200
H  46.18800 38.87500 30.90100
H  45.02900 37.60300 31.20500
H  45.40700 38.20400 29.49400
H  48.49400 34.99700 31.35100
H  47.23100 33.68000 31.55200
H  48.25000 35.26300 33.45900
H  47.12800 33.92000 33.62000
H  50.56700 40.59300 27.03600
H  49.31800 40.09300 28.22400
H  48.86100 41.11700 26.87400
H  50.96300 41.46500 23.51600
H  51.47100 40.69900 24.87400
H  49.64700 41.25200 24.73600
H  49.90000 34.36100 21.93900
H  47.24800 33.21700 21.64500
H  47.64800 36.11900 21.31700
H  48.00200 34.73600 20.22200
H  49.31900 35.85300 20.57700
H  48.93500 31.50700 23.04700
H  49.69500 32.01400 21.54600
H  46.93200 31.15700 21.04900
H  47.92200 29.83900 21.71000
H  48.36400 30.67000 20.24200
H  43.44400 30.20600 25.99200
H  45.00300 29.58400 25.34800
H  44.05000 30.73700 24.47300
H  43.50000 33.53800 29.87900
H  43.46400 32.60600 33.99400
H  45.22300 32.25700 33.72700
H  44.15500 30.99700 33.39000

