158

Mg 47.42800 15.87400 28.85600
C  45.46100 15.18700 31.53100
C  49.64000 17.56500 30.98700
C  49.26000 16.73500 26.08800
C  45.02500 14.42100 26.82600
N  47.44600 16.37100 30.99400
C  46.60000 15.86800 31.90200
C  46.93300 16.41600 33.32000
C  48.10700 17.38700 33.04300
C  48.48400 17.10500 31.56800
C  47.96700 18.90600 33.38500
C  47.15500 15.33800 34.35900
C  47.63700 15.74400 35.75900
H  47.02600 16.92700 36.37000
N  49.19500 17.04500 28.50400
C  49.97600 17.59100 29.55700
C  51.16900 18.15500 28.96300
C  51.05200 17.92400 27.51200
C  49.79000 17.17800 27.32300
C  52.27700 18.69500 29.78400
C  52.00100 18.43500 26.30200
O  51.70900 18.32600 25.10000
C  53.28200 19.15700 26.71400
N  47.23300 15.51100 26.77400
C  48.13300 15.90500 25.81000
C  47.56500 15.63700 24.38600
C  46.35100 14.66900 24.72100
C  46.22400 14.83200 26.24100
C  47.38400 16.80700 23.42300
C  46.68400 13.13900 24.47400
C  46.33400 12.51400 23.11600
N  45.60600 14.93600 29.10200
C  44.68200 14.47800 28.22100
C  43.67100 13.77900 28.90600
C  43.91200 14.01700 30.25400
C  45.04900 14.80300 30.30000
C  42.31700 13.16100 28.33300
C  43.45500 13.86600 31.62300
O  42.47100 13.32200 32.09900
C  44.44600 14.68700 32.49400
C  43.55100 15.75600 33.03800
O  43.07300 16.70300 32.40400
O  43.44500 15.64200 34.41200
C  42.83300 16.74600 35.15800
H  50.26400 18.13700 31.67700
H  49.92700 16.94100 25.24800
H  44.36500 13.88900 26.13800
H  46.10100 17.05400 33.61800
H  48.89500 17.09000 33.73400
H  46.89000 19.05400 33.46800
H  48.38400 19.55900 32.61800
H  48.61400 19.04900 34.25000
H  48.06300 14.89000 33.95500
H  46.48500 14.47900 34.40100
H  48.71800 15.80700 35.63300
H  47.56300 14.88300 36.42400
H  52.68000 19.68500 29.56900
H  53.00000 17.89300 29.63100
H  52.08500 18.63500 30.85600
H  52.98300 19.98200 27.36100
H  53.76800 19.51100 25.80500
H  53.92600 18.43400 27.21600
H  48.39100 15.01100 24.04900
H  45.45400 15.08200 24.26000
H  46.47200 16.64300 22.84900
H  48.16500 16.80900 22.66200
H  47.25800 17.76200 23.93200
H  46.16800 12.53000 25.21600
H  47.75500 13.01400 24.63600
H  47.09600 11.78400 22.84100
H  46.13400 13.24200 22.32900
H  45.43500 11.89800 23.09800
H  41.93000 13.65900 27.44400
H  41.51800 13.12800 29.07400
H  42.51300 12.12700 28.04800
H  44.87700 14.14600 33.33600
H  41.77300 16.49200 35.17200
H  43.10500 17.67300 34.65400
H  43.06000 16.97700 36.19900
Mg 35.56800 48.91500 24.67600
C  35.74300 47.08600 27.78800
C  34.40600 51.59100 26.49900
C  35.18000 50.36400 21.85000
C  36.60100 45.98800 23.06600
N  35.16900 49.26200 26.83900
C  35.34900 48.42200 27.93700
C  35.07900 49.12700 29.24000
C  34.43900 50.53100 28.75400
C  34.70000 50.46000 27.27500
C  32.95700 50.91300 29.05300
C  36.32600 49.47400 30.15300
C  36.21000 48.95300 31.53400
H  34.78400 49.07400 32.26300
N  34.95100 50.71300 24.22500
C  34.47700 51.71500 25.07000
C  34.38200 52.92500 24.25600
C  34.55100 52.59800 22.88900
C  34.90300 51.13700 22.94700
C  34.20100 54.36700 24.88500
C  34.38900 53.42700 21.55300
O  34.42400 52.96300 20.40800
C  34.10200 54.91400 21.84000
N  35.90600 48.28500 22.73700
C  35.69900 49.14500 21.70900
C  36.06500 48.52000 20.33500
C  36.64400 47.12100 20.77400
C  36.34600 47.08200 22.26900
C  34.86400 48.44700 19.33400
C  38.11400 46.86900 20.35200
C  39.13400 47.75700 20.96600
N  36.12400 46.95900 25.20600
C  36.47700 45.85700 24.45700
C  36.84800 44.76400 25.30900
C  36.51000 45.14000 26.57100
C  36.09100 46.47500 26.47400
C  37.33800 43.46500 24.84000
C  36.48000 44.76000 28.03100
O  36.73200 43.68900 28.62300
C  36.06500 46.01400 28.87100
C  34.78500 45.61100 29.44500
O  33.63300 45.47200 29.01400
O  35.17600 45.13700 30.63400
C  34.16800 44.37600 31.40400
H  34.14800 52.51100 27.02800
H  35.24700 50.79000 20.84700
H  36.97800 45.15400 22.47100
H  34.33500 48.52700 29.76500
H  34.96800 51.39600 29.15300
H  32.92600 51.71800 29.78700
H  32.57400 50.06500 29.62100
H  32.31100 51.10300 28.19600
H  36.38400 50.54000 30.36900
H  37.20500 49.04500 29.67200
H  37.04100 49.37900 32.09600
H  36.44700 47.88900 31.55300
H  33.35700 54.94700 24.51200
H  35.07000 55.00200 24.71400
H  34.11100 54.34300 25.97100
H  33.84700 55.50000 20.95800
H  34.99000 55.31200 22.33100
H  33.22800 54.95500 22.49000
H  36.74900 49.22700 19.86500
H  36.07300 46.34900 20.25800
H  34.27000 47.58400 19.63600
H  35.14400 48.50100 18.28200
H  34.25200 49.34000 19.46400
H  38.10300 46.89100 19.26200
H  38.46100 45.89200 20.68900
H  39.27900 48.58900 20.27700
H  39.99500 47.26100 21.41400
H  38.78500 48.08600 21.94600
H  37.93000 43.06500 25.66400
H  37.93600 43.55600 23.93300
H  36.53200 42.78600 24.56200
H  36.86400 46.28800 29.56000
H  33.60100 45.03800 32.05800
H  34.71500 43.73700 32.09700
H  33.53400 43.74400 30.78200

