158

Mg -0.69900 18.36200 28.11900
C  -1.21300 16.20900 30.74500
C  -1.49500 21.07000 30.05600
C  -0.39800 20.59800 25.37500
C  -0.34100 15.74900 25.86200
N  -1.11000 18.59800 30.20100
C  -1.26800 17.54300 31.11100
C  -1.47400 18.09400 32.46800
C  -1.83900 19.61400 32.22800
C  -1.35800 19.87900 30.74500
C  -3.29400 20.00000 32.51800
C  -0.30000 17.83300 33.49700
C  -0.73500 17.61300 34.95600
H  0.38600 17.28800 35.91000
N  -0.90200 20.51500 27.76300
C  -1.29900 21.45400 28.71900
C  -1.25800 22.79900 28.17000
C  -0.96300 22.69100 26.76200
C  -0.74300 21.22300 26.58000
C  -1.52200 24.09100 28.98900
C  -0.88200 23.66300 25.64400
O  -0.89000 23.36400 24.46000
C  -0.77700 25.12700 26.01600
N  -0.42300 18.16000 25.98700
C  -0.34400 19.22800 25.10600
C  -0.20200 18.67200 23.63400
C  0.14200 17.23300 23.84900
C  -0.26200 16.99000 25.31100
C  -1.56100 18.85900 22.85400
C  1.65300 16.80800 23.58300
C  2.70200 17.46700 24.50100
N  -0.79100 16.39300 28.19400
C  -0.58100 15.43600 27.23300
C  -0.84400 14.13700 27.79500
C  -1.05000 14.37900 29.14600
C  -1.01400 15.80900 29.34600
C  -0.77200 12.84000 27.11000
C  -1.31500 13.75400 30.46500
O  -1.41300 12.56200 30.73400
C  -1.40100 14.87900 31.56000
C  -0.43400 14.55900 32.65400
O  0.76900 14.69300 32.52400
O  -1.07700 13.83800 33.64300
C  -0.29600 13.27400 34.75000
H  -1.70700 21.98400 30.61500
H  -0.33600 21.28600 24.52900
H  -0.34800 14.98200 25.08400
H  -2.38100 17.56700 32.76500
H  -1.24100 20.34600 32.77100
H  -3.81900 19.17700 33.00200
H  -3.62600 20.18700 31.49600
H  -3.37900 20.92400 33.09100
H  0.34500 18.70900 33.43000
H  0.33000 17.00000 33.18200
H  -1.57100 16.91900 35.04300
H  -0.99500 18.54800 35.45200
H  -1.97200 24.88700 28.39600
H  -0.60800 24.44900 29.46400
H  -2.28500 23.81400 29.71600
H  -0.24000 25.28200 26.95200
H  -1.80600 25.48600 26.02400
H  -0.37900 25.64000 25.14000
H  0.65900 19.12600 23.14400
H  -0.45200 16.67100 23.12900
H  -1.99800 19.80000 23.18900
H  -2.25600 18.02500 22.95700
H  -1.22100 18.92500 21.82000
H  1.88700 17.06400 22.54900
H  1.72500 15.72700 23.70200
H  3.31400 16.75000 25.04600
H  2.37100 18.26600 25.16500
H  3.48300 17.90300 23.87800
H  -1.80200 12.48500 27.14900
H  -0.11800 12.15300 27.64900
H  -0.45600 12.92900 26.07100
H  -2.41200 14.90800 31.96700
H  -0.08100 13.98600 35.54700
H  0.66400 12.93100 34.36200
H  -0.89400 12.41800 35.06200
Mg 30.36300 57.80300 39.98900
C  27.55200 56.04600 38.98600
C  32.39200 55.36600 38.70800
C  32.90500 59.99300 40.04600
C  28.18700 60.55100 40.58500
N  30.01900 55.90400 39.01300
C  28.75500 55.37800 38.76700
C  28.89400 54.11700 37.88000
C  30.42300 53.72500 38.05700
C  31.01900 55.09800 38.61800
C  30.60400 52.61400 39.04600
C  28.54000 54.45400 36.34400
C  27.37000 53.78800 35.65900
H  26.66700 54.71100 34.62200
N  32.40300 57.67500 39.56800
C  33.06500 56.59000 39.03600
C  34.47600 56.90500 39.12400
C  34.64800 58.20600 39.63800
C  33.27100 58.66400 39.81000
C  35.43500 55.89500 38.66600
C  36.00400 58.86000 39.80200
O  37.05000 58.25300 39.60300
C  36.10800 60.31200 40.36100
N  30.48600 60.03600 40.17600
C  31.71900 60.67300 40.16900
C  31.52200 62.12700 40.61000
C  29.93300 62.28200 40.83300
C  29.52600 60.90400 40.53200
C  32.26300 62.70200 41.87400
C  29.22000 63.44200 40.01800
C  28.27100 64.39000 40.76300
N  28.20800 58.21300 40.01900
C  27.49500 59.28300 40.29900
C  26.08300 58.98200 40.26300
C  26.05300 57.66100 39.76100
C  27.44500 57.31300 39.52000
C  24.96300 59.85000 40.58100
C  25.19000 56.55000 39.22400
O  23.97500 56.56500 39.01000
C  26.15100 55.41600 38.72800
C  25.96100 54.22200 39.57900
O  26.54800 54.04000 40.65400
O  25.23900 53.27900 38.84100
C  24.51400 52.33600 39.65100
H  33.00800 54.49000 38.49800
H  33.69600 60.74500 40.08600
H  27.51000 61.39200 40.74600
H  28.17000 53.35400 38.16600
H  30.91700 53.51900 37.10700
H  29.72400 52.40700 39.65500
H  31.44200 52.89100 39.68600
H  30.98100 51.73100 38.53100
H  29.48600 54.41200 35.80300
H  28.28600 55.51300 36.33300
H  26.63800 53.42700 36.38200
H  27.71100 52.93500 35.07300
H  35.91500 56.10500 37.71000
H  35.00500 54.91000 38.48400
H  36.19700 55.91700 39.44500
H  35.62500 60.95800 39.62800
H  37.17700 60.47900 40.49600
H  35.65900 60.40900 41.34900
H  31.75100 62.70100 39.71200
H  29.75700 62.31500 41.90800
H  33.04100 62.06000 42.28900
H  31.60400 63.06600 42.66200
H  32.86700 63.54800 41.54700
H  28.70300 63.20100 39.09000
H  30.05200 64.09000 39.74300
H  27.34200 64.22800 40.21700
H  28.43800 65.46600 40.71200
H  28.13300 64.15500 41.81800
H  24.06200 59.24900 40.70300
H  24.76100 60.52100 39.74600
H  25.09200 60.44800 41.48300
H  26.09800 55.08400 37.69100
H  24.46100 52.69800 40.67800
H  25.00000 51.36000 39.66700
H  23.48300 52.14800 39.34900

