158

Mg 26.66200 48.89700 26.52700
C  24.67600 50.14600 28.92400
C  29.14900 48.40100 28.80100
C  28.73500 48.05200 23.92500
C  24.42300 50.19000 24.01600
N  26.85900 49.20200 28.57700
C  25.82700 49.55700 29.38200
C  26.07400 49.20700 30.83200
C  27.65100 48.92600 30.87400
C  27.92800 48.82300 29.36500
C  28.52700 50.02600 31.48000
C  25.18600 48.04600 31.38900
C  24.83600 48.11300 32.88700
H  25.61600 48.88800 33.95500
N  28.65700 48.16800 26.39600
C  29.51200 48.11600 27.42800
C  30.71800 47.43200 26.99900
C  30.66900 47.42800 25.57500
C  29.36200 47.95800 25.21800
C  31.88100 47.11900 27.89000
C  31.78000 47.08000 24.52600
O  31.64400 47.11900 23.33600
C  33.10300 46.73400 24.99700
N  26.50800 48.95200 24.32000
C  27.45600 48.44700 23.49700
C  27.02000 48.37600 22.04500
C  25.60800 49.14500 22.13400
C  25.47200 49.37800 23.61000
C  28.07500 48.72900 21.05800
C  24.49000 48.25300 21.44000
C  24.39200 48.37300 19.90400
N  24.94000 50.11000 26.46000
C  24.12900 50.54700 25.44200
C  22.92400 51.24800 26.02200
C  23.10600 51.12500 27.35700
C  24.36800 50.41700 27.57200
C  21.82600 51.93900 25.22800
C  22.55100 51.48100 28.64100
O  21.51900 52.10100 28.92100
C  23.44000 50.72400 29.63700
C  23.96200 51.73000 30.61100
O  24.78400 52.61200 30.34700
O  23.51500 51.43700 31.87300
C  23.79400 52.41400 32.92000
H  29.81200 48.13700 29.62800
H  29.37500 47.81300 23.07300
H  23.71200 50.54200 23.26500
H  25.84600 50.10600 31.40500
H  27.85600 47.92100 31.24400
H  27.95200 50.90300 31.77600
H  29.30900 50.26600 30.76000
H  29.00100 49.51000 32.31600
H  25.68300 47.08700 31.24200
H  24.25300 48.06900 30.82500
H  24.76900 47.07800 33.22300
H  23.83700 48.55000 32.87200
H  31.97000 46.04000 27.76600
H  31.81600 47.53500 28.89600
H  32.75200 47.70500 27.59900
H  33.02700 45.88400 25.67500
H  33.53100 47.53500 25.60100
H  33.87900 46.64600 24.23700
H  26.78500 47.32500 21.88300
H  25.54900 50.17800 21.79000
H  28.96300 49.16800 21.51400
H  27.72800 49.30200 20.19900
H  28.33100 47.80000 20.54900
H  23.52400 48.60300 21.80400
H  24.53300 47.24600 21.85700
H  25.12600 49.03700 19.44700
H  23.39400 48.72700 19.64400
H  24.50000 47.39200 19.44100
H  21.01400 52.06600 25.94500
H  21.59200 51.40600 24.30700
H  22.09900 52.95900 24.95700
H  22.91600 49.98200 30.24000
H  24.10800 51.85300 33.80000
H  22.98900 53.11100 33.15400
H  24.69500 52.96500 32.65000
Mg 1.23600 42.26300 25.43800
C  2.41600 42.44300 28.89400
C  -1.41800 40.41700 26.79700
C  0.25400 41.94500 22.41700
C  4.45500 43.56100 24.45000
N  0.64200 41.52500 27.62800
C  1.12000 42.02800 28.82400
C  0.07700 41.84500 30.01800
C  -1.01500 40.94000 29.29700
C  -0.58500 40.86800 27.80000
C  -1.32900 39.66500 29.99300
C  -0.48400 43.18500 30.68300
C  -0.44600 43.33900 32.20200
H  -0.59100 42.11100 33.10900
N  -0.32300 41.33500 24.68200
C  -1.36800 40.68100 25.30900
C  -2.35900 40.30700 24.38000
C  -1.93400 40.77800 23.06500
C  -0.61200 41.38400 23.34500
C  -3.66900 39.67100 24.82400
C  -2.64100 40.72800 21.71300
O  -2.22000 41.27900 20.75800
C  -3.94400 40.00600 21.61700
N  2.20000 42.77200 23.71400
C  1.53900 42.47400 22.53800
C  2.28600 42.91700 21.36000
C  3.41800 43.74900 21.94000
C  3.41900 43.30900 23.50200
C  2.86000 41.62500 20.60700
C  3.48200 45.24600 21.69300
C  4.01400 45.74500 20.28700
N  3.13900 42.70700 26.45900
C  4.30900 43.26900 25.89300
C  5.24300 43.45700 26.97000
C  4.49700 43.22000 28.15400
C  3.23100 42.74200 27.78500
C  6.64200 43.95800 26.82800
C  4.59200 43.14100 29.63700
O  5.57000 43.47100 30.32700
C  3.19800 42.64800 30.14300
C  3.41700 41.34900 30.76800
O  3.70900 40.30800 30.21300
O  3.21100 41.44300 32.12300
C  3.05200 40.22700 32.92600
H  -2.31100 39.92000 27.18400
H  -0.23800 41.96600 21.44200
H  5.44900 43.90000 24.15200
H  0.49200 41.20400 30.79600
H  -1.89600 41.57700 29.22400
H  -2.30900 39.78100 30.45600
H  -0.64600 39.23400 30.72500
H  -1.57700 38.83800 29.32900
H  -1.49800 43.32800 30.31100
H  0.26500 43.88700 30.31900
H  -1.24500 44.04600 32.42500
H  0.46800 43.86000 32.48700
H  -3.90600 39.86200 25.87100
H  -3.53800 38.62600 24.54600
H  -4.53300 39.97800 24.23400
H  -3.72500 38.97500 21.89300
H  -4.26500 40.04000 20.57600
H  -4.74800 40.45900 22.19700
H  1.71900 43.58600 20.71300
H  4.39200 43.42900 21.57000
H  3.07500 41.94700 19.58900
H  2.14900 40.79800 20.61900
H  3.72300 41.25000 21.15700
H  4.20800 45.70000 22.36800
H  2.51100 45.63600 21.99700
H  3.99800 44.93100 19.56200
H  5.00100 46.18700 20.42200
H  3.30700 46.42200 19.80700
H  7.10900 43.14900 26.26600
H  7.06700 44.13600 27.81600
H  6.86500 44.77400 26.14200
H  2.79000 43.37100 30.84900
H  2.04900 39.81400 32.82300
H  3.33100 40.28600 33.97800
H  3.73100 39.42100 32.64800

