158

Mg 28.35600 57.85300 41.43600
C  25.58600 55.83100 40.48900
C  30.44800 55.60100 39.92900
C  30.89300 60.07700 41.64900
C  25.98100 60.34600 42.39800
N  27.96900 55.86200 40.41900
C  26.80800 55.23100 40.05700
C  27.10100 53.90700 39.30400
C  28.68200 53.94700 39.06400
C  29.07400 55.18900 39.92500
C  29.37000 52.59900 39.54500
C  26.28200 53.82700 37.91500
C  26.52800 55.02000 36.92700
H  26.91200 54.66900 35.47600
N  30.41500 57.76100 40.99200
C  31.08300 56.78800 40.40400
C  32.56000 57.09900 40.35800
C  32.72100 58.36700 40.94700
C  31.31800 58.79300 41.19600
C  33.48300 56.13100 39.95900
C  34.05200 59.03400 41.19500
O  35.08800 58.53000 40.76300
C  34.19900 60.27800 42.02900
N  28.43200 60.02200 41.91400
C  29.61800 60.68300 42.00100
C  29.37500 62.12800 42.34500
C  27.90200 62.12900 42.83300
C  27.40000 60.77900 42.35000
C  30.40500 62.92200 43.25500
C  27.05200 63.36900 42.54500
C  26.37000 64.14400 43.68000
N  26.18200 58.07000 41.60400
C  25.41100 59.12900 42.02700
C  23.98600 58.74700 42.06400
C  24.03100 57.39000 41.54900
C  25.33500 57.07000 41.13800
C  22.89700 59.54900 42.73000
C  23.16400 56.29000 41.20200
O  21.98000 56.07100 41.46900
C  24.07000 55.26100 40.43000
C  23.90900 53.91900 40.97900
O  23.46300 52.97300 40.37700
O  24.30100 53.91500 42.25800
C  24.36000 52.61900 42.90800
H  31.02500 54.88600 39.33900
H  31.71800 60.78700 41.73800
H  25.19600 60.96900 42.83100
H  26.75100 53.00900 39.81400
H  29.05200 54.16700 38.06300
H  29.76400 52.04100 38.69600
H  28.75200 51.93500 40.14900
H  30.21200 52.87300 40.18000
H  25.20200 53.91900 38.03200
H  26.43900 52.88600 37.38700
H  27.30300 55.65600 37.35500
H  25.59400 55.56300 36.77800
H  34.36900 56.04400 40.58700
H  33.80500 56.43800 38.96400
H  33.04700 55.14800 39.77900
H  33.67700 60.11500 42.97200
H  33.79800 61.16600 41.54000
H  35.25100 60.41100 42.28200
H  29.50800 62.68200 41.41500
H  27.87700 61.93700 43.90500
H  31.19400 62.20200 43.47200
H  30.04100 63.29400 44.21300
H  30.83700 63.75000 42.69300
H  26.25800 63.15100 41.83000
H  27.67300 64.12800 42.07000
H  26.45300 63.65200 44.64900
H  25.31600 64.19600 43.40600
H  26.79400 65.13400 43.84800
H  23.17400 59.64400 43.78000
H  21.97800 59.02500 42.46600
H  22.72800 60.55000 42.33100
H  23.67300 55.27400 39.41500
H  24.68900 51.88900 42.16800
H  23.37500 52.36700 43.30100
H  25.01000 52.66600 43.78200
Mg -5.83400 24.71500 26.32000
C  -4.89900 26.44000 29.23000
C  -7.66400 22.64400 28.30900
C  -6.53800 22.78300 23.59900
C  -3.49300 26.49400 24.43900
N  -6.17900 24.54900 28.49100
C  -5.67400 25.37800 29.47400
C  -6.37200 25.13200 30.82800
C  -7.13200 23.81200 30.52500
C  -6.99600 23.63500 29.03000
C  -6.60600 22.54700 31.31600
C  -7.26200 26.36000 31.27200
C  -7.04500 26.69800 32.83000
H  -6.55100 25.66800 33.80900
N  -7.09000 23.12100 25.98800
C  -7.79300 22.38400 26.96800
C  -8.67500 21.36900 26.34400
C  -8.25600 21.39700 24.92800
C  -7.27200 22.46100 24.74900
C  -9.53800 20.55300 27.14000
C  -8.68200 20.45600 23.83800
O  -8.22900 20.40300 22.72200
C  -9.74400 19.47900 24.12700
N  -5.05700 24.64400 24.32500
C  -5.50700 23.67000 23.43800
C  -4.71200 23.76900 22.10500
C  -3.99500 25.16900 22.27100
C  -4.15600 25.47400 23.73100
C  -3.93700 22.53900 21.84000
C  -4.62800 26.38500 21.39900
C  -3.65100 27.02900 20.40300
N  -4.46700 26.11100 26.73000
C  -3.63200 26.87900 25.81100
C  -3.00700 27.97000 26.49000
C  -3.51700 27.82500 27.79800
C  -4.36800 26.68400 27.94000
C  -2.08000 29.05800 25.90000
C  -3.45300 28.39900 29.13200
O  -2.93200 29.40300 29.50600
C  -4.33200 27.53800 30.10900
C  -3.35900 26.88500 31.07700
O  -2.48000 26.01400 30.85000
O  -3.65000 27.49400 32.32300
C  -2.75300 27.20600 33.42400
H  -8.26300 22.01600 28.97200
H  -6.81500 22.31200 22.65300
H  -2.94100 27.13000 23.74400
H  -5.48900 25.09000 31.46600
H  -8.17900 23.99700 30.76200
H  -6.55400 21.68900 30.64600
H  -7.24300 22.45200 32.19500
H  -5.57900 22.76400 31.61100
H  -8.29700 26.06100 31.10400
H  -7.00200 27.21500 30.64800
H  -7.95600 27.17800 33.18700
H  -6.34700 27.53100 32.91900
H  -10.57800 20.64600 26.82600
H  -9.58800 20.90200 28.17200
H  -9.40700 19.47200 27.07500
H  -10.00500 19.08800 23.14400
H  -10.52600 20.04700 24.63100
H  -9.49900 18.71700 24.86700
H  -5.34800 23.95600 21.24000
H  -2.94700 25.14900 21.97100
H  -2.85800 22.65900 21.93500
H  -4.17400 22.25900 20.81400
H  -4.09600 21.73400 22.55900
H  -4.84900 27.25100 22.02200
H  -5.53800 26.06000 20.89500
H  -4.23000 27.33200 19.53000
H  -2.83800 26.35000 20.14600
H  -3.17500 27.92800 20.79500
H  -2.51800 29.58300 25.05200
H  -1.10200 28.64400 25.65400
H  -1.78900 29.78300 26.66000
H  -5.07500 28.13400 30.63900
H  -3.27400 26.70300 34.23800
H  -2.38900 28.15300 33.82200
H  -1.89500 26.58100 33.17600

