158

Mg -1.06300 7.74500 25.83200
C  -0.30100 9.75300 28.57800
C  -0.98500 4.95000 27.89000
C  -1.94800 5.77100 23.23800
C  -1.06000 10.53900 23.74500
N  -0.66900 7.36800 28.04700
C  -0.50600 8.36100 28.97100
C  -0.52800 7.79500 30.34500
C  -0.73700 6.24800 30.14200
C  -0.87600 6.14400 28.63600
C  0.43100 5.38000 30.75200
C  -1.58500 8.36200 31.27300
C  -1.57500 7.95300 32.79200
H  -0.18400 7.80100 33.56100
N  -1.33000 5.61200 25.54600
C  -1.24500 4.65700 26.50000
C  -1.35000 3.40600 25.89000
C  -1.57100 3.61200 24.45900
C  -1.60300 5.05000 24.34500
C  -1.16900 2.20600 26.71500
C  -1.54200 2.63700 23.35300
O  -1.59500 2.88300 22.12000
C  -1.44000 1.15600 23.70700
N  -1.46700 8.13500 23.82500
C  -1.84800 7.11600 22.98100
C  -2.20400 7.65800 21.59900
C  -1.91900 9.25100 21.74900
C  -1.57000 9.32300 23.23900
C  -1.40700 7.01100 20.44500
C  -3.21800 10.12200 21.41100
C  -3.02500 11.58100 20.96900
N  -0.69800 9.69100 26.08700
C  -0.76700 10.72700 25.14100
C  -0.34400 11.97500 25.77300
C  -0.16700 11.62000 27.10200
C  -0.46400 10.24100 27.26900
C  -0.22100 13.30100 25.09400
C  0.19800 12.01200 28.41200
O  0.63500 13.09900 28.75200
C  -0.01500 10.88900 29.49500
C  1.24500 10.81200 30.27200
O  2.25300 10.40600 29.81300
O  1.04200 11.44600 31.45200
C  2.24600 11.63200 32.27800
H  -1.16700 4.12700 28.58400
H  -2.35300 5.23600 22.37700
H  -0.90800 11.38300 23.07000
H  0.45300 8.09600 30.71300
H  -1.61200 5.84800 30.65200
H  1.13400 6.13300 31.10900
H  0.97600 4.81500 29.99500
H  0.07900 4.68700 31.51600
H  -2.59100 8.18700 30.89100
H  -1.46100 9.44500 31.24000
H  -2.32700 7.17200 32.90300
H  -1.91000 8.87500 33.26700
H  -1.46400 1.25600 26.26900
H  -1.88100 2.29500 27.53500
H  -0.15200 2.18700 27.10600
H  -0.55000 1.05800 24.32800
H  -1.26500 0.65700 22.75400
H  -2.25500 0.61600 24.18900
H  -3.27800 7.60400 21.42300
H  -1.00000 9.55600 21.24800
H  -1.19100 7.71800 19.64400
H  -2.20000 6.33700 20.12100
H  -0.55200 6.46600 20.84600
H  -3.91200 10.17900 22.25000
H  -3.77400 9.67200 20.58800
H  -3.58100 11.73300 20.04400
H  -1.99500 11.92800 20.88000
H  -3.44200 12.22700 21.74200
H  0.46400 13.26000 24.24800
H  0.23500 13.99400 25.80200
H  -1.20000 13.73700 24.89400
H  -0.86000 11.18200 30.11900
H  2.33600 10.89500 33.07600
H  2.10000 12.60200 32.75400
H  3.17900 11.65400 31.71500
Mg -2.20600 34.79300 26.34600
C  -3.72600 33.61200 29.32800
C  -0.36900 36.92500 28.40400
C  -0.97000 36.12500 23.67000
C  -4.10800 32.61000 24.41500
N  -2.20900 35.31200 28.57000
C  -2.78500 34.58600 29.60000
C  -2.28800 34.99900 31.01100
C  -1.34000 36.25300 30.68100
C  -1.28400 36.13300 29.12900
C  -2.00400 37.61800 31.13000
C  -1.60300 33.87500 31.82000
C  -1.59800 33.95700 33.34200
H  -2.52700 33.10300 34.15800
N  -0.78100 36.30900 26.02200
C  -0.11200 36.99200 27.02700
C  0.91200 37.81100 26.35800
C  0.78000 37.61900 24.93600
C  -0.40200 36.66500 24.82700
C  1.94100 38.62500 27.09400
C  1.76900 37.97700 23.85700
O  1.67700 37.49900 22.77000
C  3.05500 38.71800 24.24400
N  -2.53600 34.51700 24.36400
C  -1.95100 35.24500 23.37600
C  -2.19500 34.62400 22.03100
C  -2.88400 33.25000 22.25200
C  -3.18200 33.41700 23.76700
C  -2.87100 35.48800 20.94600
C  -2.00100 32.01800 22.00200
C  -2.68600 30.83400 21.18600
N  -3.66600 33.43900 26.72300
C  -4.29000 32.57500 25.86000
C  -5.12000 31.66500 26.63400
C  -4.93200 32.01100 27.95400
C  -4.04000 33.14200 27.99900
C  -6.01200 30.62900 26.07300
C  -5.28200 31.59300 29.32300
O  -5.96600 30.68400 29.78900
C  -4.56400 32.68500 30.21600
C  -5.70000 33.29000 30.88500
O  -6.68000 33.84800 30.41800
O  -5.58200 32.96600 32.19600
C  -6.70000 33.47100 33.08600
H  0.26800 37.47900 29.09600
H  -0.51300 36.53300 22.76600
H  -4.61400 31.84100 23.82800
H  -3.20100 35.22100 31.56300
H  -0.35800 36.13400 31.14000
H  -1.43600 38.00000 31.97800
H  -3.07000 37.47800 31.30900
H  -1.94900 38.39400 30.36600
H  -0.54900 33.87800 31.54000
H  -1.91300 32.87400 31.51900
H  -1.69500 34.97200 33.72700
H  -0.59100 33.68500 33.65800
H  1.80300 38.60400 28.17500
H  1.81400 39.69400 26.92300
H  3.00000 38.42400 26.93000
H  2.87100 39.57600 24.89100
H  3.56300 38.97900 23.31500
H  3.54300 37.92300 24.80800
H  -1.17200 34.45000 21.69800
H  -3.85500 33.29300 21.75800
H  -2.14900 35.83900 20.20900
H  -3.31200 36.38600 21.37800
H  -3.72600 34.95700 20.52600
H  -1.80900 31.58500 22.98300
H  -1.01900 32.22700 21.57800
H  -1.95400 30.03000 21.10900
H  -3.02200 31.19600 20.21500
H  -3.52900 30.49200 21.78600
H  -6.88900 31.20500 25.77800
H  -6.31600 29.89200 26.81700
H  -5.56900 30.17100 25.18900
H  -3.84700 32.24200 30.90700
H  -6.83400 34.53300 32.88200
H  -6.29100 33.48800 34.09700
H  -7.67100 32.98100 33.01300

