158

Mg 25.52900 0.08700 29.27100
C  27.28900 -0.12400 32.26300
C  22.68600 0.14900 31.09500
C  23.86900 0.54400 26.26900
C  28.46800 -0.06400 27.47500
N  25.08600 -0.05500 31.42700
C  25.94600 0.00600 32.50000
C  25.24400 0.06900 33.88100
C  23.72600 -0.14400 33.43500
C  23.81500 0.00700 31.91600
C  23.03600 -1.43000 33.96100
C  25.57700 1.33900 34.77800
C  26.11900 1.06200 36.19600
H  25.07400 0.64200 37.27400
N  23.54100 0.25900 28.80000
C  22.50100 0.20300 29.68500
C  21.28700 0.24800 28.92500
C  21.60900 0.39600 27.49900
C  23.07000 0.45500 27.46200
C  19.85400 0.17200 29.60800
C  20.70700 0.46500 26.24100
O  21.15600 0.62400 25.08800
C  19.24300 0.36000 26.51300
N  26.08200 -0.07000 27.11800
C  25.25100 0.25300 26.10100
C  25.95400 0.37000 24.72000
C  27.46900 0.18700 25.16900
C  27.33400 0.06300 26.71200
C  25.38700 -0.55000 23.65200
C  28.45700 1.35100 24.80600
C  29.87100 0.95100 24.28800
N  27.49400 -0.09500 29.74000
C  28.61100 -0.13300 28.88700
C  29.79700 -0.40300 29.70600
C  29.33700 -0.38800 31.04000
C  27.92100 -0.24100 31.04000
C  31.16600 -0.59300 29.17300
C  29.80300 -0.49800 32.40300
O  30.92200 -0.66700 32.83100
C  28.51500 -0.17600 33.28300
C  28.42300 -1.29600 34.26900
O  27.69900 -2.28400 34.15500
O  29.22600 -1.11200 35.33500
C  28.99900 -2.02500 36.41700
H  21.88900 0.18500 31.84100
H  23.27400 0.80500 25.39200
H  29.32200 -0.14400 26.79900
H  25.43400 -0.81400 34.49100
H  23.02800 0.62100 33.77800
H  23.64400 -2.07200 34.59900
H  22.62800 -2.08500 33.19200
H  22.24600 -1.09600 34.63300
H  24.70600 1.98900 34.86900
H  26.29800 1.93300 34.21800
H  26.65800 1.89700 36.64300
H  26.72200 0.15500 36.15700
H  19.92300 0.10700 30.69400
H  19.41700 -0.79600 29.36600
H  19.18300 0.96300 29.27200
H  18.80200 1.27900 26.89900
H  19.15300 -0.46900 27.21500
H  18.78000 0.08300 25.56600
H  25.80900 1.34500 24.25500
H  27.83700 -0.80300 24.90300
H  25.52500 -0.14100 22.65100
H  24.31500 -0.42700 23.80900
H  25.69200 -1.59500 23.69900
H  28.61100 1.92000 25.72300
H  28.03500 2.06100 24.09600
H  29.84900 -0.10600 24.02500
H  30.52500 1.11100 25.14500
H  30.12300 1.55700 23.41800
H  31.79400 -0.56300 30.06300
H  31.31700 0.09400 28.34000
H  31.24500 -1.64100 28.88400
H  28.64700 0.73800 33.86100
H  28.02900 -1.61700 36.69800
H  29.78300 -1.86200 37.15600
H  28.71500 -3.05100 36.18000
Mg 0.10300 43.93900 24.78600
C  2.31900 43.25400 27.39800
C  -2.51500 43.15600 26.93300
C  -1.91100 43.98400 22.11100
C  2.95700 44.54800 22.68800
N  -0.10000 43.12100 26.87800
C  0.95700 43.18500 27.79800
C  0.49600 43.12900 29.28500
C  -1.05900 42.92900 29.06800
C  -1.26600 43.01600 27.55600
C  -1.61000 41.62900 29.73700
C  0.79800 44.34500 30.16800
C  1.08700 44.16400 31.66800
H  0.87100 42.79000 32.33000
N  -1.92100 43.58600 24.51200
C  -2.86700 43.38800 25.50500
C  -4.19600 43.36400 24.92500
C  -4.03300 43.60200 23.52500
C  -2.56000 43.75700 23.30500
C  -5.48500 43.21900 25.82400
C  -5.11600 43.81400 22.49900
O  -4.74400 44.07600 21.36500
C  -6.55500 43.83700 22.79800
N  0.50100 44.25500 22.72400
C  -0.51600 44.28000 21.81500
C  0.00300 44.66800 20.35700
C  1.48000 45.02000 20.69400
C  1.67000 44.53900 22.10300
C  -0.22600 43.48300 19.46400
C  1.79900 46.53600 20.49100
C  2.59700 46.97700 19.25700
N  2.15900 43.86300 24.90700
C  3.18600 44.20700 23.98200
C  4.44800 44.02800 24.63400
C  4.18100 43.69700 25.96600
C  2.74900 43.61700 26.07900
C  5.83200 44.32900 24.09900
C  4.81500 43.34800 27.21900
O  5.97900 43.16300 27.50000
C  3.62500 43.27000 28.27400
C  3.76500 42.08700 29.09100
O  3.39300 40.94600 28.83300
O  4.41500 42.45200 30.18200
C  4.73400 41.36400 31.14300
H  -3.31000 42.95900 27.65500
H  -2.51500 43.98600 21.20100
H  3.84100 44.88600 22.14500
H  0.94200 42.26600 29.77900
H  -1.60700 43.74900 29.53400
H  -2.00200 41.03100 28.91400
H  -2.31200 41.84100 30.54300
H  -0.80900 41.04100 30.18700
H  0.08100 45.15400 30.03100
H  1.71700 44.75600 29.75200
H  0.31100 44.74600 32.16500
H  2.07600 44.54900 31.91200
H  -5.99600 44.16700 25.99000
H  -5.25000 42.97900 26.86000
H  -6.22500 42.50000 25.47200
H  -6.68000 42.85400 23.25200
H  -7.21700 43.91500 21.93600
H  -6.83700 44.61000 23.51400
H  -0.57800 45.48800 19.93500
H  2.11100 44.37000 20.08800
H  -0.99900 43.76900 18.75100
H  -0.56600 42.68900 20.12900
H  0.70400 43.24400 18.94900
H  2.25700 46.86600 21.42300
H  0.84900 47.07000 20.51600
H  2.13100 47.80700 18.72500
H  2.80100 46.12500 18.60800
H  3.50800 47.42300 19.65900
H  6.36900 44.97900 24.79000
H  5.78900 44.70600 23.07700
H  6.33000 43.36200 24.03100
H  3.64900 44.13100 28.94200
H  5.81300 41.21800 31.09700
H  4.42900 40.33900 30.93200
H  4.43200 41.78400 32.10200

