158

Mg 0.12000 7.39400 27.23600
C  0.77100 9.36900 30.07400
C  0.69700 4.58200 29.13200
C  -0.12200 5.60000 24.38400
C  0.08200 10.37700 25.38600
N  0.62400 7.06400 29.41100
C  0.66000 8.02100 30.36400
C  0.71600 7.36300 31.77500
C  0.97300 5.80800 31.36300
C  0.77400 5.81000 29.87000
C  2.48300 5.35900 31.49800
C  -0.65300 7.57600 32.52500
C  -0.53200 8.15400 33.86800
H  0.69500 7.88600 34.71600
N  0.16100 5.34700 26.82500
C  0.36100 4.32200 27.77000
C  0.22800 3.09300 27.06800
C  -0.00900 3.37600 25.67800
C  0.04300 4.80900 25.59000
C  0.32900 1.70400 27.87300
C  -0.03300 2.36700 24.63200
O  -0.03500 2.74800 23.47900
C  -0.23600 0.90700 24.93400
N  -0.24100 7.89800 25.15200
C  -0.21700 6.96700 24.14300
C  -0.19900 7.59700 22.75000
C  -0.40200 9.13200 23.10100
C  -0.22100 9.15600 24.65600
C  1.05500 7.41100 21.85400
C  -1.78300 9.73400 22.72700
C  -1.87500 10.22900 21.32200
N  0.32400 9.40300 27.57000
C  0.40300 10.51700 26.75000
C  0.71900 11.71400 27.42200
C  0.83600 11.30700 28.73800
C  0.60800 9.91700 28.80800
C  0.76400 13.02200 26.76500
C  1.10200 11.75900 30.07000
O  1.30300 12.91200 30.42700
C  0.95900 10.48200 31.04300
C  2.22000 10.48700 31.81100
O  3.30200 9.96700 31.51200
O  1.91000 11.15400 32.95700
C  3.06500 11.56600 33.80300
H  0.77500 3.63100 29.66300
H  -0.13200 5.09500 23.41500
H  0.18400 11.22400 24.70400
H  1.60100 7.75500 32.27700
H  0.30500 5.10100 31.85600
H  2.62000 4.27900 31.54200
H  2.92800 5.83000 32.37500
H  3.18200 5.55800 30.68600
H  -1.23200 6.65900 32.62600
H  -1.25700 8.29200 31.96700
H  -1.21200 7.56800 34.48500
H  -0.91300 9.17500 33.84600
H  -0.40100 0.95200 27.57400
H  0.15600 1.83500 28.94200
H  1.32900 1.30600 27.69700
H  0.42100 0.34800 25.60000
H  -0.19400 0.42400 23.95800
H  -1.25500 0.77100 25.29800
H  -1.09600 7.31400 22.19900
H  0.39200 9.74200 22.67000
H  0.69100 6.81700 21.01500
H  1.81400 6.89800 22.44400
H  1.43100 8.38800 21.55000
H  -1.96800 10.51300 23.46600
H  -2.55200 8.96900 22.83200
H  -0.93400 10.02600 20.81000
H  -2.14700 11.27900 21.22100
H  -2.68800 9.72600 20.79800
H  1.33800 13.69900 27.39700
H  -0.25500 13.36800 26.58600
H  1.25400 12.91600 25.79700
H  0.11700 10.75700 31.67800
H  2.64300 11.89700 34.75100
H  3.59300 12.36200 33.27700
H  3.81700 10.81200 34.03400
Mg 0.76300 42.87300 25.02500
C  2.26800 42.97800 28.06000
C  -2.11200 41.47100 26.55000
C  -0.47000 41.91100 21.96400
C  3.79900 43.63200 23.46800
N  0.11200 42.39800 26.99400
C  0.89700 42.64000 28.09300
C  0.13000 42.54400 29.44700
C  -1.21800 41.88300 28.97100
C  -1.10600 41.85300 27.46900
C  -1.49300 40.47400 29.61100
C  0.00000 43.90200 30.21800
C  0.49700 43.72000 31.60500
H  -0.56200 43.70700 32.66000
N  -1.05600 41.93800 24.31500
C  -2.05800 41.40700 25.11700
C  -3.04500 40.83500 24.27300
C  -2.65200 40.99800 22.96600
C  -1.36200 41.71400 23.00300
C  -4.28100 40.06100 24.79100
C  -3.32500 40.62000 21.67300
O  -2.88000 40.81400 20.51400
C  -4.60000 39.83700 21.74700
N  1.48100 42.95600 23.02600
C  0.82500 42.47400 21.92100
C  1.74500 42.36500 20.69900
C  2.98700 43.09700 21.11300
C  2.76200 43.26100 22.60300
C  1.91600 40.93400 20.02300
C  3.28600 44.46300 20.43800
C  2.41300 45.69600 20.75400
N  2.57500 43.47000 25.55800
C  3.76500 43.71500 24.90900
C  4.90000 43.98300 25.79900
C  4.33300 43.60300 27.03400
C  2.96400 43.36200 26.85400
C  6.34000 44.37300 25.35100
C  4.61100 43.37800 28.44400
O  5.68600 43.40600 28.98200
C  3.28600 43.11000 29.17600
C  3.48000 41.91800 30.03300
O  3.71200 40.80900 29.67600
O  3.65900 42.30300 31.34000
C  4.13400 41.40200 32.39700
H  -2.95000 41.11000 27.15000
H  -0.76300 41.66400 20.94200
H  4.69800 43.98900 22.96200
H  0.51000 41.76000 30.10100
H  -2.06900 42.51600 29.22300
H  -1.80100 39.81100 28.80300
H  -2.32600 40.50900 30.31300
H  -0.62600 39.97900 30.05100
H  -1.01000 44.30900 30.25600
H  0.57400 44.75600 29.85800
H  1.14400 44.57500 31.79700
H  1.23200 42.93100 31.76800
H  -5.22600 40.59400 24.68000
H  -4.22600 39.68700 25.81300
H  -4.43700 39.14400 24.22200
H  -4.41800 38.83300 22.12900
H  -4.77200 39.71700 20.67800
H  -5.34700 40.48900 22.19900
H  1.24700 43.06200 20.02500
H  3.81800 42.39200 21.07600
H  2.95300 40.66700 19.82000
H  1.46900 41.00400 19.03200
H  1.31300 40.22900 20.59500
H  3.37200 44.42200 19.35300
H  4.26100 44.81600 20.77300
H  1.82800 45.61200 19.83800
H  2.95700 46.63200 20.88300
H  1.69600 45.50900 21.55300
H  6.69600 45.15600 26.02000
H  6.40100 44.70700 24.31500
H  7.08200 43.62500 25.63200
H  3.17600 44.00800 29.78500
H  5.08400 41.79700 32.75600
H  4.22900 40.34900 32.13200
H  3.51600 41.41800 33.29500

