158

Mg 39.63400 9.22500 30.09200
C  41.45800 10.45200 32.82600
C  37.21600 8.17500 32.28300
C  38.01700 7.86600 27.56000
C  42.25100 10.34200 27.93000
N  39.46400 9.20700 32.34200
C  40.23400 9.90500 33.21600
C  39.64600 9.86800 34.65900
C  38.30800 9.06600 34.43400
C  38.33700 8.78400 32.96700
C  38.18400 7.73400 35.28800
C  39.54400 11.34900 35.24300
C  40.35900 11.58700 36.51500
H  39.58000 12.15600 37.66300
N  37.98200 8.03300 29.97500
C  37.08800 7.66700 30.96600
C  35.95400 7.02800 30.43700
C  36.25200 6.74000 29.12100
C  37.48100 7.54600 28.83200
C  34.75300 6.68700 31.32000
C  35.49600 6.15100 27.98000
O  35.92400 5.85500 26.86300
C  34.10100 5.71300 28.35200
N  40.21100 9.01700 28.03800
C  39.27100 8.46400 27.13600
C  39.58200 8.88900 25.67900
C  40.94500 9.58100 25.85600
C  41.22500 9.64500 27.34900
C  39.72700 7.70300 24.70500
C  40.96800 11.01800 25.18300
C  39.84000 12.02400 25.52700
N  41.49900 10.20300 30.34200
C  42.46400 10.59200 29.35700
C  43.56800 11.22400 30.03200
C  43.22600 11.21800 31.41100
C  41.96300 10.52100 31.51500
C  44.84600 11.91900 29.50700
C  43.60700 11.67200 32.73100
O  44.58400 12.32500 33.09900
C  42.45000 11.17400 33.73600
C  43.11000 10.11900 34.63100
O  43.16800 8.92100 34.43300
O  43.76500 10.80200 35.65200
C  44.22900 10.07100 36.89000
H  36.37600 8.08500 32.97300
H  37.44500 7.52200 26.69600
H  43.17100 10.57700 27.39000
H  40.27500 9.22500 35.27500
H  37.40600 9.64600 34.63400
H  38.21400 6.89300 34.59500
H  37.21600 7.68500 35.78700
H  39.03400 7.54700 35.94300
H  38.50400 11.63600 35.39800
H  40.07200 11.98000 34.52800
H  41.03300 12.42000 36.31600
H  41.04100 10.77300 36.76000
H  33.91400 7.37900 31.23700
H  34.99900 6.63200 32.38000
H  34.38300 5.68300 31.11200
H  33.52800 6.38400 28.99200
H  34.32700 4.81700 28.93100
H  33.49800 5.47500 27.47600
H  38.80800 9.47200 25.18100
H  41.80700 9.02600 25.48400
H  40.07900 6.79300 25.19000
H  40.49000 7.84600 23.94000
H  38.78300 7.55000 24.18300
H  40.84100 10.74000 24.13600
H  41.98700 11.38300 25.30800
H  39.21500 12.16300 24.64500
H  40.34200 12.94700 25.81500
H  39.21000 11.78200 26.38300
H  45.14700 11.35300 28.62500
H  45.66200 11.82400 30.22300
H  44.64400 12.97800 29.34200
H  42.14200 11.90200 34.48600
H  44.90600 10.76100 37.39400
H  44.58300 9.09200 36.56900
H  43.32500 9.86800 37.46300
Mg -5.06000 24.68200 25.97000
C  -3.59800 25.76200 28.93400
C  -6.89000 22.51800 27.75800
C  -6.13100 23.23900 23.04800
C  -2.63500 26.40600 24.16900
N  -5.18400 24.26800 28.05400
C  -4.58900 24.83500 29.10100
C  -5.07900 24.34200 30.46600
C  -5.90000 23.08900 30.05800
C  -6.04500 23.28300 28.52900
C  -5.25900 21.71200 30.29600
C  -5.98300 25.43900 31.18500
C  -5.61700 25.83500 32.63400
H  -4.98500 24.74300 33.55500
N  -6.52000 23.22600 25.47700
C  -7.21400 22.52200 26.35700
C  -8.21400 21.71100 25.65300
C  -7.93200 21.82200 24.26000
C  -6.84500 22.82000 24.20200
C  -9.23000 20.94400 26.35400
C  -8.61700 21.10300 23.07900
O  -8.20800 21.20700 21.92100
C  -9.92400 20.24400 23.27700
N  -4.50900 24.90000 23.90900
C  -5.08000 24.10400 22.92300
C  -4.29600 24.29300 21.59100
C  -3.33000 25.45500 21.91300
C  -3.44300 25.61600 23.43200
C  -3.68100 23.02000 21.04100
C  -3.55200 26.80300 21.09100
C  -2.41700 27.19800 20.02500
N  -3.51000 25.98900 26.43000
C  -2.63300 26.61800 25.55100
C  -1.81100 27.51700 26.41600
C  -2.12400 27.17400 27.72300
C  -3.18600 26.27300 27.66900
C  -0.71500 28.40100 26.02800
C  -1.87500 27.51700 29.16400
O  -1.11500 28.31500 29.67200
C  -2.78100 26.59200 29.94400
C  -1.97700 25.80400 30.99300
O  -1.50000 24.68600 30.85000
O  -1.90400 26.60500 32.16100
C  -1.01100 26.05900 33.17300
H  -7.56800 21.83200 28.27000
H  -6.53000 22.73300 22.16700
H  -1.83300 26.86300 23.58500
H  -4.13300 24.06600 30.93200
H  -6.89800 23.11200 30.49600
H  -6.06500 21.16800 30.79000
H  -4.41300 21.80700 30.97700
H  -4.82700 21.22400 29.42300
H  -7.02200 25.11300 31.13000
H  -5.82000 26.32600 30.57300
H  -6.56300 26.21200 33.02200
H  -4.96900 26.71200 32.64000
H  -10.15800 21.21700 25.85200
H  -9.32600 21.28000 27.38700
H  -9.02600 19.87900 26.45900
H  -10.58100 20.94400 23.79400
H  -9.73900 19.31900 23.82200
H  -10.34600 19.98800 22.30500
H  -5.02600 24.60200 20.84200
H  -2.27600 25.19200 21.82500
H  -2.60700 23.15300 20.91200
H  -4.13600 22.77800 20.08100
H  -3.73300 22.17800 21.73200
H  -3.51300 27.64500 21.78300
H  -4.50100 26.76600 20.55600
H  -2.00400 28.18400 20.23800
H  -2.77300 27.18400 18.99400
H  -1.54900 26.53900 20.00900
H  -1.14000 29.29400 25.56900
H  -0.18800 27.89100 25.22100
H  -0.02400 28.68600 26.82100
H  -3.40200 27.25000 30.55100
H  -0.06800 25.64900 32.81000
H  -1.54600 25.15100 33.45300
H  -0.82000 26.79500 33.95400

