158

Mg -2.37300 17.06300 26.43000
C  -2.76300 14.70500 28.95600
C  -3.22300 19.49500 28.66200
C  -2.60500 19.15500 23.85300
C  -1.78100 14.40600 24.14500
N  -2.69100 17.02800 28.57800
C  -2.65100 16.01200 29.45100
C  -2.90400 16.44900 30.94200
C  -3.03700 18.00400 30.73200
C  -3.09700 18.16800 29.24400
C  -4.11400 18.78800 31.53500
C  -1.93300 15.94900 32.04200
C  -1.61500 16.90800 33.23100
H  -0.95700 16.33200 34.51600
N  -2.75600 19.06600 26.27100
C  -3.10200 19.91500 27.28700
C  -3.28000 21.31100 26.77500
C  -3.07200 21.22300 25.35000
C  -2.89500 19.75800 25.09800
C  -3.59900 22.52000 27.64000
C  -3.18000 22.30700 24.37200
O  -2.85500 22.13600 23.16300
C  -3.39000 23.75800 24.76700
N  -2.45600 16.71900 24.20800
C  -2.37700 17.81600 23.43900
C  -1.91800 17.44400 22.02000
C  -1.61900 15.92000 22.11900
C  -1.93700 15.65300 23.59600
C  -2.79500 17.94300 20.90200
C  -0.16800 15.49900 21.72800
C  1.05800 16.29700 22.32600
N  -2.34900 14.94700 26.47200
C  -2.09600 14.02900 25.46100
C  -2.24300 12.69000 26.00300
C  -2.56000 12.91400 27.38500
C  -2.59300 14.29300 27.59700
C  -2.07500 11.43700 25.25400
C  -2.74100 12.20000 28.63900
O  -2.66500 10.99800 28.91300
C  -3.05700 13.35700 29.67300
C  -2.12300 13.19300 30.83400
O  -0.85900 13.28800 30.71800
O  -2.78900 12.68500 31.94400
C  -1.98800 12.10700 33.01600
H  -3.36000 20.28900 29.39800
H  -2.69800 19.80300 22.97800
H  -1.41900 13.64900 23.44700
H  -3.84900 16.05700 31.31600
H  -2.10600 18.48500 31.03400
H  -3.64600 19.66200 31.98900
H  -4.53100 18.14300 32.30800
H  -4.95800 19.16500 30.95600
H  -0.99900 15.82000 31.49600
H  -2.31200 15.04200 32.51500
H  -2.59500 17.36500 33.37100
H  -0.93600 17.72200 32.98000
H  -2.77400 23.20000 27.42700
H  -3.56200 22.26100 28.69800
H  -4.61900 22.88700 27.53200
H  -4.36600 23.75200 25.25200
H  -3.49900 24.31400 23.83600
H  -2.55600 23.94600 25.44300
H  -0.97300 17.98400 21.95900
H  -2.33600 15.42400 21.46500
H  -2.54900 18.96600 20.61600
H  -3.86600 17.79000 21.02900
H  -2.61400 17.31700 20.02800
H  -0.12700 15.45500 20.64000
H  -0.14300 14.44700 22.01200
H  0.77900 17.24000 22.79700
H  1.76400 16.64000 21.57000
H  1.51100 15.73900 23.14600
H  -1.37400 11.58200 24.43200
H  -3.05100 11.13900 24.87000
H  -1.68400 10.64600 25.89500
H  -4.08500 13.07300 29.89700
H  -1.01100 11.75900 32.68000
H  -2.57400 11.23900 33.31900
H  -1.98400 12.79800 33.85900
Mg 42.33600 41.43000 26.50600
C  41.71600 43.65100 29.13800
C  43.24900 38.95900 28.79200
C  43.23900 39.53600 23.90100
C  41.37800 43.95300 24.39600
N  42.53000 41.35500 28.72400
C  42.18400 42.39900 29.63900
C  42.13100 41.84300 31.07800
C  42.85900 40.47100 30.91700
C  42.82300 40.16700 29.39300
C  44.16000 40.34800 31.60600
C  40.67300 41.71600 31.62000
C  40.36000 42.81500 32.72600
H  39.79600 42.34700 34.08000
N  43.22000 39.51900 26.40900
C  43.44200 38.60700 27.41300
C  43.98100 37.38900 26.80700
C  43.95700 37.53700 25.36900
C  43.38000 38.86800 25.15300
C  44.38900 36.08700 27.63300
C  44.43000 36.66100 24.29000
O  44.36200 36.94200 23.10300
C  45.18800 35.42000 24.63500
N  42.50800 41.73500 24.41900
C  42.78300 40.78400 23.53400
C  42.56700 41.25400 22.06300
C  41.86600 42.59700 22.25900
C  41.94000 42.74900 23.74800
C  43.81300 41.15900 21.18400
C  40.41000 42.66200 21.75500
C  39.29900 42.06900 22.62000
N  41.64500 43.37000 26.69700
C  41.39900 44.32300 25.72200
C  40.97100 45.59100 26.31700
C  41.06500 45.36100 27.68300
C  41.52900 44.03400 27.83600
C  40.39300 46.81400 25.58500
C  40.75100 45.91500 28.92400
O  40.19900 46.94500 29.29800
C  41.16300 44.82100 29.97400
C  42.15900 45.38600 30.98000
O  43.37200 45.36900 30.87400
O  41.49300 45.75300 32.17200
C  42.30400 46.29800 33.22500
H  43.42000 38.17800 29.53500
H  43.47400 39.01300 22.97100
H  41.16500 44.76100 23.69300
H  42.64800 42.56100 31.71600
H  42.25300 39.72800 31.43500
H  44.50300 41.37200 31.75100
H  44.86900 39.91200 30.90300
H  44.11600 39.86500 32.58300
H  40.54100 40.75600 32.11800
H  39.96100 41.89300 30.81300
H  39.55500 43.38000 32.25600
H  41.18100 43.50200 32.92800
H  43.65700 35.29700 27.46300
H  44.25200 36.46800 28.64500
H  45.45100 35.86800 27.52100
H  44.50900 34.63400 24.96500
H  45.99800 35.67000 25.32000
H  45.70100 35.09300 23.73100
H  41.85300 40.52500 21.68000
H  42.43900 43.35300 21.72300
H  43.85200 42.13900 20.70800
H  43.67500 40.27600 20.55900
H  44.73100 41.07900 21.76700
H  40.39600 42.18400 20.77600
H  40.25800 43.73700 21.65900
H  39.09700 42.76900 23.43100
H  39.62200 41.19400 23.18400
H  38.42100 41.63300 22.14200
H  40.70000 46.79500 24.53900
H  40.81900 47.64800 26.14300
H  39.30600 46.88900 25.57100
H  40.34700 44.41100 30.56800
H  43.19300 46.85700 32.93100
H  42.61900 45.63200 34.02800
H  41.71200 47.11000 33.64700

