158

Mg 49.38600 35.61300 28.22600
C  46.81900 33.86500 29.86700
C  49.36500 37.95100 30.76800
C  51.17600 37.49600 26.18200
C  48.76200 33.36600 25.47100
N  48.34600 35.75600 30.05300
C  47.39600 34.93500 30.63500
C  47.20100 35.19200 32.16800
C  47.70800 36.68800 32.25500
C  48.55000 36.79100 30.94700
C  46.52300 37.63200 32.24200
C  48.13800 34.23200 32.99800
C  47.92200 34.27900 34.51000
H  46.93000 35.31000 35.14900
N  50.22000 37.47200 28.41900
C  50.08100 38.30100 29.55600
C  50.75600 39.57100 29.27800
C  51.19200 39.51700 27.85700
C  50.87700 38.10800 27.41800
C  50.82800 40.73900 30.26500
C  51.78800 40.59700 26.98500
O  51.92800 40.45100 25.81300
C  52.05900 41.96100 27.55200
N  49.93900 35.36900 26.14200
C  50.81400 36.26900 25.58500
C  51.33300 35.82800 24.24100
C  50.48300 34.48400 24.00100
C  49.66100 34.35900 25.24200
C  51.07100 36.85100 23.09800
C  51.39800 33.18800 23.75800
C  50.82200 32.18200 22.74200
N  48.18100 33.86800 27.77500
C  48.04700 33.06000 26.65800
C  46.90500 32.09200 26.86400
C  46.38400 32.38300 28.07100
C  47.25400 33.35900 28.58500
C  46.44200 31.06200 25.82400
C  45.38000 31.95800 28.99800
O  44.59400 30.99400 28.99000
C  45.56700 32.98400 30.19100
C  45.61600 32.27400 31.43300
O  46.59100 31.61200 31.84200
O  44.43900 32.41500 32.07700
C  44.32700 31.79600 33.40300
H  49.47100 38.69300 31.56200
H  51.70400 38.11900 25.45800
H  48.58000 32.70500 24.62100
H  46.16800 34.97000 32.43800
H  48.25700 36.77800 33.19200
H  45.56500 37.18400 31.97800
H  46.71300 38.43000 31.52400
H  46.36200 38.06100 33.23100
H  49.16800 34.58500 32.94000
H  48.17400 33.19700 32.65800
H  48.90900 34.61700 34.82900
H  47.63700 33.24800 34.72000
H  50.33200 41.61400 29.84400
H  51.83500 41.09600 30.47800
H  50.24200 40.47100 31.14400
H  51.12800 42.51600 27.66500
H  52.64500 42.57600 26.86900
H  52.46000 41.80600 28.55400
H  52.40200 35.61900 24.25200
H  49.79400 34.60900 23.16600
H  50.42700 36.57200 22.26400
H  52.02100 37.17300 22.67300
H  50.50500 37.68000 23.52300
H  51.51500 32.55800 24.64000
H  52.35300 33.51400 23.34700
H  50.94300 31.23300 23.26300
H  51.23500 32.12000 21.73500
H  49.75400 32.39800 22.72700
H  46.70300 30.11300 26.29100
H  46.93600 31.10600 24.85300
H  45.37000 30.96500 25.65200
H  44.72000 33.66400 30.27900
H  43.33100 31.45400 33.68300
H  44.67100 32.50300 34.15800
H  44.96900 30.92800 33.55600
Mg 28.29800 58.69700 42.35200
C  25.80900 56.92100 40.69000
C  30.67600 56.73800 40.86400
C  30.66600 60.77700 43.56300
C  25.75600 60.76300 43.67400
N  28.17900 56.95900 40.93700
C  27.08000 56.38300 40.36400
C  27.47000 55.32900 39.35900
C  28.92700 55.08100 39.81300
C  29.34200 56.31000 40.62500
C  28.99200 53.81700 40.65400
C  27.34700 55.92500 37.93200
C  26.69000 54.90400 36.93000
H  27.39700 54.67800 35.62700
N  30.39300 58.77300 42.20200
C  31.17600 57.88200 41.60000
C  32.52400 58.39600 41.60900
C  32.57000 59.62500 42.37200
C  31.19900 59.73700 42.77500
C  33.60400 57.77500 40.83900
C  33.73500 60.39800 42.65500
O  34.85800 59.95700 42.32800
C  33.70800 61.73300 43.33700
N  28.20400 60.45500 43.58400
C  29.33300 61.05300 43.99300
C  29.01100 62.34000 44.78400
C  27.45500 62.29400 44.86500
C  27.10400 61.10400 43.94700
C  29.76600 62.45900 46.14900
C  26.76200 63.64600 44.47300
C  26.34200 64.62900 45.61500
N  26.14900 58.81200 42.30900
C  25.27700 59.72100 42.84800
C  23.92000 59.35100 42.52000
C  24.07800 58.28400 41.57900
C  25.45800 57.95500 41.53300
C  22.79600 60.15500 42.94600
C  23.37500 57.36900 40.77200
O  22.22700 57.18100 40.54500
C  24.49400 56.50900 40.11300
C  24.03100 55.08600 40.55300
O  23.88500 54.69400 41.68700
O  23.88900 54.33100 39.44200
C  23.62500 52.92700 39.53000
H  31.37800 55.96300 40.54900
H  31.28600 61.60000 43.92600
H  25.08800 61.49100 44.13800
H  26.82700 54.45100 39.41600
H  29.69300 54.82100 39.08300
H  29.66500 53.10200 40.18100
H  28.02200 53.33300 40.76400
H  29.31300 54.01600 41.67700
H  28.36200 56.13600 37.59700
H  26.73400 56.82500 37.88100
H  25.70600 55.30100 36.68200
H  26.61900 53.89400 37.33500
H  34.18100 57.01000 41.36000
H  34.18900 58.59800 40.42800
H  33.21100 57.25500 39.96600
H  32.88100 62.37800 43.04000
H  34.63300 62.23800 43.05800
H  33.72600 61.59000 44.41700
H  29.37800 63.15700 44.16300
H  27.19200 62.20100 45.91900
H  30.54300 61.69500 46.14800
H  29.13200 62.30000 47.02100
H  30.27400 63.41800 46.04500
H  25.82000 63.46000 43.95600
H  27.36900 64.27200 43.81900
H  25.26200 64.76700 45.65700
H  26.94600 65.53200 45.52700
H  26.76800 64.28300 46.55800
H  21.88700 59.65000 42.62000
H  22.79900 61.09300 42.39100
H  22.72600 60.27500 44.02700
H  24.51200 56.61100 39.02800
H  22.71300 52.74200 40.09700
H  24.42300 52.35100 40.00000
H  23.40000 52.51100 38.54900

