158

Mg 43.26300 4.65200 46.45200
C  41.31900 7.66600 46.10900
C  40.29500 2.94700 46.10200
C  45.05000 1.97400 45.92900
C  46.11300 6.70700 46.54600
N  41.10600 5.30000 46.13400
C  40.55200 6.53400 46.24800
C  39.03800 6.45200 46.38200
C  38.71400 4.91400 46.56700
C  40.11500 4.32500 46.17400
C  38.12300 4.46800 48.02600
C  38.26100 6.97400 45.10900
C  38.69700 6.68300 43.66700
H  39.16300 7.75400 42.81600
N  42.76600 2.71300 46.02500
C  41.49700 2.20900 45.88000
C  41.53900 0.77200 45.64800
C  42.92400 0.40400 45.56800
C  43.67500 1.67400 45.84800
C  40.30700 -0.13700 45.61300
C  43.45400 -0.98200 45.27800
O  42.73300 -1.95600 45.15700
C  44.96000 -1.32200 45.21000
N  45.26600 4.40200 46.27900
C  45.73800 3.13200 46.24600
C  47.28000 3.21000 46.48500
C  47.52100 4.65000 46.93900
C  46.23600 5.31600 46.50600
C  47.88700 2.10800 47.45100
C  48.86600 5.33300 46.60700
C  49.52400 6.08300 47.77700
N  43.72200 6.75400 46.44400
C  44.93500 7.41200 46.45900
C  44.69800 8.79900 46.41400
C  43.30100 8.96600 46.36800
C  42.73600 7.66100 46.19700
C  45.80400 9.84200 46.39200
C  42.34100 9.94700 46.26300
O  42.42600 11.18200 46.28800
C  40.97500 9.14100 46.13700
C  40.14400 9.53200 47.28800
O  40.25900 9.15800 48.44500
O  38.90600 10.04400 46.80100
C  37.75600 9.96600 47.73600
H  39.30400 2.49100 46.15100
H  45.78600 1.17700 46.04900
H  47.02900 7.30000 46.59700
H  38.75600 7.07600 47.22900
H  37.93800 4.65600 45.84600
H  37.10300 4.85000 48.08000
H  38.53400 5.12100 48.79600
H  38.30500 3.42000 48.26200
H  38.22000 8.05200 45.26500
H  37.21300 6.67500 45.11800
H  37.87500 6.19300 43.14600
H  39.54500 6.01200 43.80600
H  40.42800 -0.95500 46.32200
H  40.21700 -0.63300 44.64600
H  39.33700 0.32500 45.80100
H  45.58100 -0.81600 45.95000
H  45.35800 -0.90700 44.28400
H  45.12700 -2.39900 45.16500
H  47.77300 3.08000 45.52200
H  47.48200 4.66000 48.02800
H  48.30200 1.36000 46.77500
H  47.11000 1.56300 47.98700
H  48.54900 2.71900 48.06500
H  48.75100 6.03400 45.78100
H  49.44300 4.49000 46.22600
H  50.35800 5.44800 48.07700
H  48.95800 6.47300 48.62300
H  49.75300 7.10400 47.47400
H  45.29200 10.80300 46.33000
H  46.23600 9.95200 45.39700
H  46.58500 9.72000 47.14200
H  40.53800 9.44500 45.18500
H  37.93700 10.52700 48.65300
H  37.44800 8.92700 47.85600
H  36.86500 10.38100 47.26600
Mg 47.59800 16.49300 28.77900
C  45.45200 16.28300 31.67000
C  49.81500 18.26400 30.86900
C  49.31200 17.49700 26.07200
C  45.11300 15.06800 26.90500
N  47.50900 17.29000 30.99500
C  46.62100 17.02700 31.98900
C  47.15800 17.46300 33.33500
C  48.45200 18.22000 32.93300
C  48.62100 17.83900 31.49500
C  48.37300 19.74400 33.17700
C  47.43300 16.31400 34.30300
C  46.87700 16.45400 35.70700
H  46.78900 17.83100 36.32900
N  49.40600 17.59500 28.50600
C  50.16600 18.21300 29.48800
C  51.45100 18.62600 28.97700
C  51.33900 18.45300 27.53100
C  49.96200 17.82000 27.30600
C  52.63500 19.13500 29.74000
C  52.36500 18.75000 26.43200
O  52.27800 18.53600 25.24400
C  53.63300 19.32800 26.99400
N  47.41200 16.06500 26.83400
C  48.09000 16.80700 25.88700
C  47.50200 16.55000 24.50700
C  46.33400 15.61100 24.73400
C  46.22600 15.60900 26.25700
C  47.41700 17.80500 23.58700
C  46.45100 14.16500 24.06600
C  47.17700 13.12300 25.01200
N  45.77000 15.64500 29.21700
C  44.90100 15.08000 28.32000
C  43.75800 14.69900 29.06600
C  44.03600 15.02000 30.42800
C  45.19000 15.71400 30.44000
C  42.42500 14.22700 28.48600
C  43.31800 15.04300 31.71800
O  42.25000 14.60300 32.15400
C  44.39700 15.79400 32.62400
C  43.69400 16.87200 33.26100
O  43.75500 18.00300 32.83400
O  42.88700 16.39600 34.28300
C  42.02400 17.35000 34.99800
H  50.52400 18.69300 31.57900
H  49.92800 17.87000 25.25100
H  44.27600 14.78900 26.26200
H  46.40600 18.16100 33.70400
H  49.31600 17.88700 33.50800
H  49.27800 20.22600 33.54700
H  47.69400 20.06800 33.96600
H  48.06800 20.24600 32.25900
H  48.47300 15.98900 34.31100
H  46.90200 15.46300 33.87500
H  47.38900 15.72800 36.33900
H  45.84600 16.10800 35.62600
H  53.57800 18.59000 29.70200
H  52.38700 18.96700 30.78800
H  52.71400 20.22000 29.81200
H  53.43400 20.20600 27.60700
H  54.26100 19.58800 26.14100
H  54.18900 18.54300 27.50600
H  48.22300 15.88900 24.02600
H  45.43000 16.08300 24.35000
H  47.99500 17.71000 22.66800
H  47.74900 18.75500 24.00400
H  46.38100 17.91100 23.26400
H  47.14600 14.20300 23.22700
H  45.52100 13.72500 23.70700
H  46.48800 12.62800 25.69600
H  47.90800 13.63100 25.64200
H  47.68800 12.46300 24.31000
H  42.32800 13.16500 28.26500
H  42.24100 14.86800 27.62400
H  41.63700 14.45300 29.20500
H  44.82800 15.15500 33.39500
H  41.91800 16.84400 35.95800
H  41.04900 17.64000 34.60500
H  42.61400 18.25400 35.15100

