158

Mg 48.44300 34.98700 26.23300
C  46.76700 33.48700 28.82900
C  48.76600 37.92000 28.02400
C  49.84400 36.48500 23.59900
C  47.69600 32.13200 24.33100
N  47.89000 35.62600 28.14400
C  47.34900 34.82700 29.12400
C  47.24100 35.51600 30.47900
C  47.55100 36.96900 30.06400
C  48.12100 36.85300 28.63300
C  46.31200 37.96500 30.00800
C  48.25000 34.95100 31.54800
C  47.96800 35.20500 33.06500
H  47.25900 36.49600 33.40600
N  49.42900 36.85800 25.95100
C  49.38900 37.92100 26.80300
C  50.26400 38.98700 26.25800
C  50.56200 38.66500 24.97500
C  49.94400 37.25600 24.76700
C  50.62700 40.10800 27.12300
C  51.19900 39.54900 23.89400
O  51.41900 39.10200 22.76300
C  51.54500 40.99100 24.20700
N  48.61800 34.46900 24.24000
C  49.35900 35.24700 23.33300
C  49.54900 34.46500 22.04700
C  49.06900 33.05700 22.37200
C  48.41900 33.19100 23.75100
C  48.68100 35.07600 20.93500
C  50.22600 31.94900 22.21200
C  50.29600 31.09000 21.03000
N  47.30400 33.21600 26.41400
C  47.15200 32.09000 25.62600
C  46.28800 31.16200 26.33100
C  46.14500 31.64800 27.55800
C  46.77200 32.91400 27.60000
C  45.83000 29.82700 25.80100
C  45.50800 31.40300 28.84400
O  44.79800 30.47600 29.23300
C  45.68500 32.71000 29.65700
C  45.92100 32.34900 31.04100
O  46.85200 31.67400 31.43000
O  44.81500 32.73700 31.79000
C  44.73400 32.56500 33.22900
H  48.65200 38.90100 28.48900
H  50.43800 36.91300 22.78900
H  47.63500 31.32400 23.59900
H  46.29500 35.58200 31.01700
H  48.32600 37.38500 30.70800
H  45.43500 37.69900 30.59900
H  45.88300 38.22300 29.04000
H  46.81800 38.85500 30.38100
H  49.27000 35.23600 31.29000
H  48.14900 33.88300 31.35600
H  48.88100 35.13200 33.65500
H  47.35200 34.41200 33.48800
H  50.03200 40.98900 26.88300
H  51.69700 40.29600 27.03500
H  50.38100 40.02900 28.18100
H  50.79800 41.43900 24.86200
H  51.76400 41.63200 23.35300
H  52.36700 40.91900 24.91900
H  50.56800 34.49600 21.66000
H  48.20600 32.80900 21.75400
H  47.91600 35.80100 21.21400
H  48.25000 34.25200 20.36600
H  49.40300 35.53500 20.26000
H  50.15700 31.23800 23.03500
H  51.20100 32.40700 22.38100
H  49.62200 31.36600 20.21900
H  50.00700 30.11300 21.41500
H  51.30100 30.86400 20.67200
H  44.93400 30.12200 25.25600
H  45.59800 29.06600 26.54600
H  46.52100 29.48400 25.03100
H  44.76800 33.30000 29.63500
H  43.71900 32.95000 33.32800
H  45.53600 33.02200 33.80800
H  44.78700 31.51100 33.50400
Mg 9.90800 48.20400 26.23700
C  7.93500 48.58200 29.12200
C  12.70600 49.24700 28.14000
C  11.63000 48.14600 23.40900
C  6.89700 47.67500 24.48700
N  10.29900 48.86200 28.30700
C  9.34700 48.65300 29.36900
C  9.92900 49.04000 30.71600
C  11.33200 49.65000 30.28800
C  11.46900 49.31600 28.79500
C  11.42000 51.16000 30.61500
C  10.04600 47.78300 31.70600
C  9.82500 48.01100 33.26900
H  9.49400 46.76800 34.09300
N  11.94300 48.58400 25.87200
C  12.93000 48.90300 26.76000
C  14.18500 48.94600 26.03600
C  13.87300 48.57800 24.71700
C  12.42300 48.45500 24.56700
C  15.48000 49.37000 26.74700
C  14.83200 48.35300 23.60100
O  14.43300 48.03300 22.53000
C  16.33800 48.42800 23.69500
N  9.36700 47.89600 24.27700
C  10.27500 47.93500 23.25400
C  9.60800 47.80300 21.84200
C  8.17300 47.27600 22.24400
C  8.13400 47.64300 23.72700
C  9.41900 49.08400 20.98100
C  7.76300 45.82000 21.86900
C  6.47800 45.66600 21.09200
N  7.82800 48.13700 26.66700
C  6.75200 47.92900 25.83400
C  5.53400 47.96800 26.56600
C  5.97100 48.27300 27.89700
C  7.37600 48.37900 27.88800
C  4.18200 47.67200 25.96200
C  5.49200 48.47800 29.27100
O  4.35700 48.67300 29.70900
C  6.82200 48.60600 30.14200
C  6.95700 47.32700 31.01500
O  7.27200 46.21400 30.63500
O  6.19600 47.60900 32.11000
C  5.81500 46.56000 33.01100
H  13.45600 49.66400 28.81500
H  12.12300 48.10900 22.43500
H  6.00100 47.30400 23.98700
H  9.27300 49.80700 31.12700
H  12.20400 49.15400 30.71600
H  11.04400 51.70500 29.75000
H  12.42100 51.31300 31.01800
H  10.77400 51.37900 31.46600
H  11.02800 47.34600 31.52900
H  9.34200 46.99300 31.44600
H  9.03300 48.73700 33.45300
H  10.78100 48.45700 33.54500
H  15.26500 49.24400 27.80800
H  15.88900 50.38100 26.73900
H  16.24000 48.69600 26.35100
H  16.50300 47.57200 24.34900
H  16.74900 49.30300 24.19800
H  16.67800 48.10500 22.71100
H  10.18100 47.17000 21.16500
H  7.53000 47.95100 21.67900
H  9.59000 49.98000 21.57700
H  8.47100 49.32500 20.50100
H  10.18200 48.95800 20.21200
H  7.62600 45.31200 22.82300
H  8.58400 45.44600 21.25700
H  5.91600 44.86700 21.57600
H  6.63800 45.46100 20.03400
H  5.95500 46.62100 21.03800
H  4.15200 46.62600 25.65600
H  3.98900 48.34200 25.12400
H  3.35600 47.84000 26.65300
H  6.95900 49.47600 30.78400
H  5.85000 47.14400 33.93100
H  6.41400 45.65000 32.96800
H  4.76300 46.31800 32.85700

