158

Mg 25.32900 0.81500 29.90300
C  27.26600 0.62000 32.67200
C  22.56500 1.61000 32.12800
C  23.09600 0.70600 27.21200
C  27.80300 -0.32700 27.90400
N  25.00800 1.01700 32.16500
C  25.97200 0.90200 33.10500
C  25.51500 1.28800 34.47600
C  23.95700 1.56800 34.31500
C  23.81200 1.46000 32.74600
C  23.16700 0.53200 35.00900
C  26.19700 2.57200 34.97000
C  27.30300 2.54500 36.08700
H  27.11100 3.55300 37.24700
N  23.17000 1.21800 29.73500
C  22.27200 1.44200 30.74900
C  20.95500 1.47900 30.16800
C  21.07700 1.30600 28.76900
C  22.48300 1.06500 28.50900
C  19.71000 1.53700 31.06400
C  19.99200 1.21700 27.70600
O  20.22000 0.99300 26.54000
C  18.53000 1.46100 28.08800
N  25.34400 0.04000 27.93200
C  24.37300 0.21800 26.96600
C  24.89500 -0.11800 25.52400
C  26.40900 -0.46000 25.79900
C  26.58200 -0.28000 27.31800
C  24.17600 -1.26800 24.76300
C  27.41500 0.30000 24.89700
C  27.44400 1.90600 25.07800
N  27.12900 0.18100 30.18600
C  28.08300 -0.17000 29.29600
C  29.32600 -0.30100 29.91200
C  29.06700 0.03400 31.23500
C  27.69300 0.25400 31.34800
C  30.62700 -0.69100 29.23000
C  29.65400 0.21500 32.56100
O  30.80200 0.26700 32.92400
C  28.49300 0.50300 33.54300
C  28.44100 -0.62700 34.47700
O  27.86900 -1.67800 34.23900
O  29.18000 -0.29000 35.66300
C  29.11800 -1.13800 36.86700
H  21.74500 1.86500 32.80200
H  22.44000 0.67100 26.33900
H  28.70600 -0.45000 27.30200
H  25.65800 0.45900 35.16900
H  23.50200 2.52700 34.56300
H  23.52200 0.37500 36.02700
H  22.99800 -0.47800 34.63400
H  22.18800 0.99200 35.14400
H  25.50500 3.36200 35.26100
H  26.74100 3.03000 34.14400
H  28.23800 2.68900 35.54400
H  27.23800 1.60500 36.63500
H  19.10300 2.36700 30.70300
H  19.73300 1.59900 32.15200
H  19.08600 0.68200 30.80500
H  18.09900 0.77900 28.82100
H  17.90300 1.38300 27.20000
H  18.44100 2.45600 28.52400
H  24.77200 0.77200 24.90700
H  26.70100 -1.50300 25.67800
H  23.29100 -1.60300 25.30500
H  24.80400 -2.07400 24.38400
H  23.74500 -0.67100 23.95900
H  27.08200 0.25100 23.86000
H  28.41800 -0.12500 24.93100
H  27.13200 2.34600 24.13100
H  28.40800 2.37200 25.28200
H  26.67200 2.27800 25.75200
H  30.65900 -0.15200 28.28300
H  30.58300 -1.73200 28.90900
H  31.46500 -0.48400 29.89700
H  28.68800 1.48900 33.96300
H  28.38100 -0.70700 37.54500
H  30.02200 -1.12300 37.47600
H  28.94100 -2.14000 36.47500
Mg 27.35100 50.81500 26.41800
C  25.48100 51.72100 29.29400
C  29.94700 49.82200 28.52100
C  29.03700 50.06900 23.73200
C  24.65300 52.08900 24.44400
N  27.67800 50.93800 28.66900
C  26.78000 51.27800 29.64100
C  27.33000 51.07900 31.09400
C  28.81900 50.63200 30.75600
C  28.80200 50.40500 29.19600
C  29.86600 51.75900 31.16500
C  26.51500 50.13600 32.04600
C  25.86200 50.84000 33.27100
H  26.53600 50.62100 34.53400
N  29.23200 50.11100 26.10500
C  30.13400 49.63500 27.12900
C  31.33000 49.21000 26.43300
C  31.13100 49.35500 25.03600
C  29.72100 49.89300 24.88700
C  32.46400 48.57700 27.20100
C  32.13600 48.95000 23.91300
O  31.89400 49.00700 22.68700
C  33.51700 48.47600 24.26900
N  26.95400 51.21300 24.37400
C  27.68900 50.53200 23.46100
C  27.11400 50.61500 21.98400
C  25.69700 51.13800 22.33600
C  25.80600 51.62900 23.76900
C  28.11600 51.46500 21.10600
C  24.61000 50.03600 22.29100
C  23.51400 50.16900 21.22400
N  25.55100 51.80300 26.74300
C  24.48600 52.20700 25.86000
C  23.45200 52.73800 26.62300
C  23.78600 52.50200 27.97500
C  25.04100 51.86100 27.98000
C  22.19000 53.42200 26.02600
C  23.24300 52.60500 29.31600
O  22.17600 53.12900 29.67700
C  24.33900 52.14500 30.20900
C  24.74600 53.26600 31.12600
O  25.52200 54.14900 30.84200
O  23.97600 53.14200 32.33200
C  24.25100 54.11600 33.33600
H  30.75700 49.49000 29.17300
H  29.57100 49.70800 22.85000
H  23.70900 52.22500 23.91200
H  27.19900 52.10700 31.43100
H  29.22300 49.78600 31.31100
H  30.16600 52.30100 30.26900
H  30.80700 51.38000 31.56300
H  29.40500 52.40600 31.91200
H  27.25300 49.46600 32.48700
H  25.73400 49.70000 31.42300
H  24.80000 50.59900 33.21400
H  25.97100 51.92000 33.16800
H  32.37900 47.50200 27.03800
H  32.38000 48.77200 28.27000
H  33.42500 48.93900 26.83600
H  34.00800 48.12200 23.36200
H  33.42500 47.61700 24.93400
H  33.94100 49.27300 24.88000
H  27.02700 49.61400 21.56200
H  25.46200 51.90900 21.60300
H  29.04700 51.69900 21.62200
H  27.69200 52.39000 20.71500
H  28.41500 50.84000 20.26400
H  24.08000 49.92600 23.23700
H  25.12700 49.09400 22.10900
H  23.65000 51.14800 20.76300
H  22.52000 50.31200 21.64800
H  23.56200 49.40700 20.44700
H  22.53700 54.35300 25.57700
H  21.39800 53.60300 26.75300
H  21.62100 52.83200 25.30900
H  24.03800 51.26400 30.77600
H  25.30700 54.38700 33.34200
H  23.99700 53.86900 34.36700
H  23.80400 55.09200 33.14800

