158

Mg 29.85200 58.40600 42.05300
C  27.05500 56.82100 40.47300
C  31.80500 56.01800 40.65400
C  32.49100 60.39300 42.40000
C  27.66500 61.11900 42.72500
N  29.46100 56.76500 40.39000
C  28.25500 56.21800 39.98100
C  28.44900 54.95400 39.16000
C  30.01800 54.58100 39.42000
C  30.48000 55.84700 40.20800
C  30.21900 53.26800 40.31200
C  28.23000 55.08000 37.60900
C  27.41000 53.97400 37.01800
H  26.51100 54.37400 35.83800
N  31.93200 58.09500 41.81900
C  32.50700 57.03900 41.22600
C  34.02700 57.27100 41.17700
C  34.27400 58.59600 41.67600
C  32.90600 59.06800 42.12100
C  35.06600 56.41500 40.58600
C  35.57600 59.27900 41.75700
O  36.56400 58.73000 41.34400
C  35.68500 60.73600 42.14100
N  30.04300 60.39900 42.51000
C  31.31100 61.03900 42.73400
C  31.12800 62.54600 43.00300
C  29.58800 62.63100 43.31200
C  29.05000 61.31600 42.74900
C  32.11400 63.09100 44.06400
C  28.82300 63.87900 42.72700
C  27.90200 64.70600 43.69000
N  27.74800 58.88200 41.86900
C  27.00100 59.96000 42.25300
C  25.51600 59.66300 42.09900
C  25.51700 58.47100 41.38200
C  26.87700 58.06600 41.20500
C  24.51500 60.59000 42.53400
C  24.63700 57.59200 40.68900
O  23.43800 57.60000 40.48600
C  25.63100 56.39700 40.10000
C  25.19600 55.04600 40.60500
O  25.54700 54.58900 41.69300
O  24.48100 54.34800 39.65000
C  24.09800 53.02500 40.12500
H  32.41500 55.17200 40.33000
H  33.30800 61.09700 42.57300
H  27.04700 61.92800 43.12100
H  27.88900 54.15100 39.63900
H  30.55900 54.47900 38.47900
H  29.29500 52.69300 40.26200
H  30.52200 53.42200 41.34700
H  31.07100 52.69900 39.93900
H  29.11600 55.18800 36.98400
H  27.62800 55.98900 37.60200
H  26.72700 53.64300 37.80200
H  28.10400 53.18300 36.73400
H  35.94400 56.36200 41.22900
H  35.42000 56.88600 39.66900
H  34.77500 55.39400 40.34000
H  34.90300 61.26500 41.59800
H  36.67700 61.12700 41.91500
H  35.59900 60.81100 43.22500
H  31.27900 63.14100 42.10200
H  29.60500 62.76900 44.39300
H  32.92200 62.36700 44.16800
H  31.60100 63.15100 45.02400
H  32.51900 64.06800 43.79800
H  28.31100 63.54500 41.82500
H  29.64200 64.45600 42.29800
H  28.12700 65.77000 43.75500
H  28.04100 64.25900 44.67500
H  26.88600 64.51700 43.34000
H  24.91700 61.13900 43.38600
H  23.56400 60.07500 42.66800
H  24.39300 61.30600 41.72200
H  25.48300 56.26800 39.02700
H  23.36100 53.09700 40.92500
H  24.95600 52.41000 40.39700
H  23.60700 52.47600 39.32100
Mg 9.30900 48.24700 25.34500
C  6.98500 48.80500 27.86600
C  11.70100 49.46500 27.44000
C  11.46100 47.64800 22.96800
C  6.67200 47.70000 22.98800
N  9.27800 49.20400 27.40000
C  8.28300 49.05500 28.35000
C  8.81800 49.13700 29.83200
C  10.21500 49.83500 29.60200
C  10.42800 49.47400 28.02300
C  10.15700 51.34300 29.82700
C  8.80600 47.75600 30.52400
C  9.37600 47.75700 31.96000
H  8.46000 47.21600 33.06100
N  11.34000 48.39000 25.25500
C  12.14800 48.90400 26.25200
C  13.50900 48.71900 25.78200
C  13.52000 48.21600 24.51400
C  12.05500 48.08700 24.18400
C  14.66000 49.15200 26.71600
C  14.58300 47.90800 23.57400
O  14.38600 47.35600 22.50000
C  15.96700 48.10200 23.99600
N  9.07200 47.81300 23.23600
C  10.18100 47.60200 22.57300
C  9.86500 46.99000 21.16000
C  8.29500 47.01700 21.13800
C  7.97200 47.61500 22.47700
C  10.67700 47.51000 19.93700
C  7.60600 45.67000 20.78800
C  6.59400 45.75600 19.54200
N  7.25800 48.33100 25.37600
C  6.28400 48.09200 24.30600
C  4.98400 48.18200 24.90900
C  5.25700 48.41800 26.34000
C  6.59000 48.52500 26.50700
C  3.62800 48.18300 24.17600
C  4.58800 48.66500 27.59900
O  3.36000 48.60700 27.88300
C  5.70100 48.85900 28.65100
C  5.39500 47.74800 29.66100
O  5.74900 46.60100 29.59600
O  4.60200 48.23000 30.65900
C  4.06900 47.26200 31.63700
H  12.46900 49.69000 28.18300
H  12.11900 47.31300 22.16400
H  5.87000 47.53400 22.26700
H  8.16000 49.77200 30.42500
H  11.05600 49.35900 30.10600
H  9.26000 51.61300 30.38300
H  10.18700 51.88500 28.88100
H  11.01300 51.60800 30.44800
H  9.23700 46.91900 29.97700
H  7.75500 47.52200 30.69300
H  9.72300 48.78000 32.10900
H  10.23500 47.08700 31.92400
H  14.42900 49.36600 27.75900
H  15.03900 50.12400 26.40000
H  15.44800 48.40000 26.67200
H  16.12500 47.31300 24.73100
H  16.01300 49.05400 24.52400
H  16.60700 48.05500 23.11500
H  10.25500 45.97200 21.13900
H  7.94100 47.86300 20.54900
H  10.08800 48.19400 19.32700
H  11.14300 46.77800 19.27700
H  11.49900 48.06200 20.39300
H  7.14800 45.14300 21.62500
H  8.37700 44.93900 20.54800
H  5.78600 45.04900 19.73300
H  7.07300 45.67600 18.56600
H  6.10900 46.72500 19.65500
H  3.84300 48.10200 23.11100
H  2.99700 49.04400 24.39900
H  3.10500 47.35500 24.65500
H  5.67300 49.83300 29.14000
H  3.44600 47.92100 32.24100
H  4.89500 46.97800 32.28900
H  3.57600 46.37700 31.23500

