158

Mg 26.50000 -0.44200 29.11800
C  28.12900 -0.89700 32.12300
C  23.53000 -0.60000 30.87100
C  24.77100 -0.21900 26.17200
C  29.25900 -1.06200 27.37100
N  25.94800 -0.72000 31.22300
C  26.80100 -0.76500 32.31200
C  26.11600 -0.79200 33.70600
C  24.57400 -0.67900 33.25000
C  24.67300 -0.62200 31.69000
C  23.68200 -1.79000 33.84800
C  26.49100 0.33100 34.68500
C  25.67200 0.38000 35.99100
H  26.47100 0.22800 37.27000
N  24.50500 -0.25500 28.63400
C  23.41300 -0.43800 29.48900
C  22.14500 -0.27500 28.75200
C  22.45400 0.01600 27.37800
C  24.00900 -0.15700 27.35200
C  20.77100 -0.43900 29.39600
C  21.49300 0.30600 26.19500
O  21.85100 0.48200 25.02700
C  20.06000 0.34900 26.44500
N  26.96600 -0.75700 27.07000
C  26.15100 -0.39900 26.05900
C  26.85900 -0.23600 24.71500
C  28.36800 -0.40000 25.10100
C  28.22000 -0.69600 26.62400
C  26.26900 -1.36600 23.69700
C  29.31800 0.84900 24.91100
C  30.76200 0.62400 24.65600
N  28.32900 -0.87500 29.59100
C  29.36100 -1.12300 28.76800
C  30.53700 -1.45400 29.51500
C  30.10300 -1.35500 30.87600
C  28.75900 -0.97800 30.87300
C  31.91000 -1.76400 28.94400
C  30.54200 -1.46300 32.19700
O  31.67800 -1.63700 32.70500
C  29.30200 -1.09400 33.13200
C  29.08800 -2.25300 34.04900
O  28.68900 -3.38100 33.76800
O  29.40800 -1.82300 35.29700
C  29.19800 -2.82500 36.43900
H  22.62000 -0.58300 31.47400
H  24.15800 -0.16200 25.27000
H  30.20200 -1.20300 26.83900
H  26.34800 -1.75300 34.16600
H  24.12500 0.29100 33.46300
H  23.55700 -2.53200 33.05900
H  22.72900 -1.33200 34.11200
H  24.13500 -2.14100 34.77600
H  26.59500 1.38200 34.41400
H  27.55000 0.14300 34.86600
H  24.81200 -0.29000 36.01000
H  25.16900 1.33400 36.15000
H  20.14600 -1.11700 28.81400
H  20.22400 0.50400 29.43200
H  21.00100 -0.89700 30.35800
H  19.62700 0.79000 25.54700
H  20.01700 1.11800 27.21600
H  19.47400 -0.55300 26.62300
H  26.61100 0.78400 24.42100
H  28.88700 -1.25500 24.66700
H  25.90900 -2.11100 24.40600
H  27.08600 -1.83100 23.14500
H  25.39500 -1.01300 23.14900
H  29.42100 1.47700 25.79600
H  29.08500 1.54300 24.10400
H  31.34800 1.36100 25.20600
H  31.06500 0.80100 23.62400
H  31.07700 -0.41900 24.69600
H  32.11400 -1.51600 27.90300
H  32.03700 -2.83700 29.08900
H  32.70500 -1.33300 29.55200
H  29.56500 -0.20200 33.70000
H  29.53800 -3.80200 36.09500
H  28.17100 -2.94300 36.78500
H  29.87900 -2.79300 37.29000
Mg 33.67100 48.62700 25.03700
C  34.09800 47.19900 28.23700
C  31.97300 51.24800 26.62300
C  33.16400 49.80300 22.09200
C  35.18100 45.69100 23.68200
N  33.31000 49.22200 27.25300
C  33.56700 48.52100 28.33400
C  33.28400 49.36600 29.61100
C  32.46800 50.55700 29.05100
C  32.64900 50.38600 27.54800
C  31.05600 50.63900 29.50700
C  34.50100 49.72000 30.35200
C  34.41400 49.69600 31.85600
H  33.01500 49.56000 32.54200
N  32.70100 50.31500 24.43300
C  32.07000 51.26100 25.17500
C  31.64400 52.35900 24.28200
C  31.90900 51.93800 22.96200
C  32.61600 50.59800 23.16000
C  30.99300 53.59500 24.71700
C  31.56500 52.71300 21.72600
O  31.91700 52.23600 20.65400
C  30.73700 54.00500 21.69000
N  34.12900 47.85500 23.14900
C  33.89100 48.58400 21.99000
C  34.47900 47.97400 20.73800
C  35.06300 46.65400 21.28500
C  34.85900 46.77800 22.78400
C  33.38800 47.84700 19.60300
C  36.56500 46.30100 20.78700
C  37.75900 46.75500 21.70500
N  34.31300 46.69600 25.66800
C  34.96200 45.69300 25.09700
C  35.31600 44.63600 26.02800
C  34.92800 45.22300 27.31100
C  34.42300 46.43800 27.05800
C  35.87300 43.30100 25.66800
C  34.97300 45.01300 28.77200
O  35.35200 44.04100 29.34500
C  34.40400 46.30100 29.38800
C  33.17000 45.79500 30.00400
O  32.08600 45.65900 29.45700
O  33.50800 45.46800 31.32500
C  32.44800 44.77100 32.12000
H  31.50600 52.10300 27.11600
H  32.99800 50.20700 21.09100
H  35.68500 44.81400 23.26900
H  32.63500 48.75700 30.24100
H  32.98000 51.49100 29.28300
H  30.70600 49.72800 29.99200
H  30.45800 50.70200 28.59700
H  30.85600 51.42200 30.23800
H  34.72200 50.75200 30.08200
H  35.35700 49.16200 29.97000
H  34.98500 50.52900 32.26500
H  34.93400 48.77300 32.11600
H  31.54000 54.44200 24.30500
H  31.12500 53.69600 25.79400
H  29.92300 53.68300 24.52500
H  29.80600 54.00500 22.25700
H  30.51000 54.28600 20.66100
H  31.35900 54.80000 22.10000
H  35.27600 48.68000 20.50500
H  34.40600 45.83400 20.99500
H  32.62900 48.62000 19.47900
H  32.82200 46.95400 19.87000
H  33.76700 47.68200 18.59400
H  36.79900 46.77600 19.83400
H  36.62200 45.21500 20.71200
H  37.52900 47.43500 22.52600
H  38.34400 47.38400 21.03500
H  38.34600 45.93500 22.11900
H  36.95600 43.35100 25.55600
H  35.37700 42.86900 24.79900
H  35.75500 42.62400 26.51400
H  35.16900 46.67400 30.07000
H  32.82700 43.75200 32.19800
H  31.47300 44.89500 31.64900
H  32.35600 45.26400 33.08800

