158

Mg 46.55800 25.26900 27.51100
C  47.49600 27.52300 29.90700
C  46.18400 22.87200 29.99000
C  45.94100 22.90200 25.20200
C  47.36000 27.53900 25.10900
N  47.01300 25.14200 29.65600
C  47.09900 26.27100 30.51000
C  47.03900 25.99600 31.99300
C  46.62200 24.42800 31.97500
C  46.70200 24.06900 30.45400
C  47.47100 23.45300 32.80200
C  46.07600 26.96900 32.82400
C  45.59300 26.50800 34.19500
H  45.91800 27.46400 35.44200
N  45.94400 23.19400 27.58800
C  45.84500 22.41700 28.68200
C  45.52900 21.02100 28.32400
C  45.40400 21.03500 26.96700
C  45.74500 22.43000 26.51100
C  45.40300 19.83700 29.34600
C  45.06800 19.91200 26.06400
O  44.81100 19.98100 24.86200
C  44.97000 18.57800 26.61300
N  46.61300 25.22500 25.42700
C  46.36800 24.12600 24.71700
C  46.39900 24.39800 23.15800
C  46.57600 25.94800 23.21800
C  46.89500 26.28200 24.71400
C  47.53700 23.68900 22.42000
C  45.35600 26.81100 22.74900
C  45.75100 28.04000 21.84900
N  47.32400 27.14000 27.42200
C  47.65200 27.95200 26.38400
C  48.19500 29.15100 26.81400
C  48.16000 29.10300 28.22500
C  47.62800 27.88300 28.53800
C  48.69000 30.15600 25.86500
C  48.42500 29.79700 29.47900
O  48.91100 30.95000 29.64900
C  47.88000 28.88500 30.56100
C  48.89700 28.61200 31.67300
O  49.79300 27.71600 31.71700
O  48.55000 29.49800 32.66700
C  49.23700 29.45400 33.96100
H  46.07300 22.11400 30.76800
H  45.73400 22.15700 24.43100
H  47.70000 28.18500 24.29700
H  47.98000 26.02100 32.54300
H  45.58000 24.24800 32.24000
H  48.03800 22.80100 32.13700
H  46.96200 22.69600 33.39800
H  48.08600 23.95500 33.54900
H  45.19300 27.17800 32.21900
H  46.62500 27.88600 33.03700
H  45.95800 25.51200 34.44200
H  44.50800 26.39800 34.19300
H  44.36300 19.52300 29.26900
H  45.61800 20.24900 30.33200
H  46.14900 19.05700 29.19400
H  44.20400 18.57100 27.38900
H  45.96400 18.52700 27.05800
H  44.65500 17.81800 25.89900
H  45.42200 24.18900 22.72100
H  47.52300 26.26200 22.78000
H  48.36300 24.28700 22.80800
H  47.45600 23.68800 21.33300
H  47.58900 22.65500 22.76100
H  44.90300 27.32300 23.59800
H  44.52600 26.23900 22.33500
H  46.77700 28.00000 21.48300
H  45.64400 28.94300 22.45100
H  45.16000 28.17200 20.94300
H  49.61400 29.72600 25.47900
H  48.86500 31.11200 26.35900
H  48.02100 30.32600 25.02200
H  46.93300 29.25600 30.95300
H  48.64400 28.71100 34.49300
H  49.22700 30.44700 34.41100
H  50.26200 29.08800 34.02700
Mg 0.31500 43.36600 26.54200
C  2.40400 43.19500 29.41800
C  -2.31600 42.83200 28.52700
C  -1.36200 42.62700 23.85100
C  3.28300 43.54200 24.67900
N  0.14600 43.02200 28.63100
C  1.02300 43.15200 29.68200
C  0.38600 43.16000 31.03900
C  -1.02600 42.61600 30.71400
C  -1.09400 42.72800 29.20200
C  -1.45500 41.21700 31.30500
C  0.32700 44.56200 31.68900
C  0.94500 44.52300 33.10100
H  0.54400 43.34000 33.92600
N  -1.55500 42.97900 26.18300
C  -2.53400 42.76400 27.18000
C  -3.77500 42.57900 26.53600
C  -3.58800 42.58800 25.14600
C  -2.13400 42.74800 25.03300
C  -5.11600 42.36500 27.26900
C  -4.54900 42.45800 23.94600
O  -4.28100 42.29000 22.76600
C  -6.04000 42.45700 24.34700
N  0.85900 43.17500 24.51700
C  -0.02900 42.87700 23.58600
C  0.62600 42.53600 22.25500
C  1.98700 43.29600 22.38600
C  2.07000 43.36200 23.91200
C  0.87500 41.03800 22.05700
C  2.05600 44.79200 21.85700
C  2.54900 44.93500 20.40200
N  2.43100 43.43100 26.90700
C  3.53500 43.62600 26.05900
C  4.77300 43.78600 26.72700
C  4.39200 43.48700 28.03900
C  2.96100 43.30100 28.11300
C  6.12700 44.13100 26.09100
C  4.85600 43.22600 29.44000
O  5.95400 43.08400 29.94200
C  3.58500 43.26900 30.33400
C  3.65200 42.19800 31.27600
O  3.17000 41.03500 31.10500
O  4.23700 42.54700 32.37000
C  4.34700 41.54600 33.51600
H  -3.17500 42.70100 29.18800
H  -1.82200 42.39800 22.88800
H  4.19500 43.78800 24.13200
H  0.87700 42.34800 31.57600
H  -1.85000 43.24800 31.04500
H  -0.75300 40.67300 31.93700
H  -1.56400 40.48800 30.50200
H  -2.39100 41.38500 31.83800
H  -0.70800 44.90300 31.73200
H  0.93100 45.25200 31.10000
H  0.49100 45.33800 33.66600
H  2.01300 44.66000 32.93200
H  -5.59800 43.34200 27.30400
H  -4.91400 42.00900 28.27900
H  -5.82300 41.61600 26.91100
H  -6.29500 43.19600 25.10700
H  -6.22300 41.44600 24.71200
H  -6.64500 42.59600 23.45100
H  -0.05600 42.91000 21.49200
H  2.85900 42.76700 21.99900
H  1.87900 40.74600 21.74800
H  0.15700 40.57000 21.38300
H  0.77500 40.53300 23.01700
H  2.69200 45.41700 22.48500
H  1.01700 45.12000 21.87500
H  1.88900 45.58800 19.83100
H  2.69900 43.94600 19.96900
H  3.49700 45.47300 20.43700
H  6.20000 45.18700 25.83100
H  6.31900 43.61100 25.15300
H  6.86900 43.85400 26.84100
H  3.69200 44.26300 30.77000
H  4.01600 40.54300 33.24700
H  3.70000 41.79100 34.35800
H  5.39500 41.52100 33.81500

