158

Mg -1.08400 34.01400 26.88100
C  -2.86400 32.49500 29.30600
C  0.15000 36.25100 29.28700
C  0.33400 35.92800 24.41100
C  -2.68800 32.17700 24.49400
N  -1.45200 34.33800 29.10900
C  -2.06700 33.42200 29.88400
C  -1.68500 33.63300 31.41100
C  -0.83400 34.98300 31.31900
C  -0.72300 35.25500 29.78300
C  -1.27300 36.18400 32.18000
C  -1.04500 32.30400 31.98900
C  -1.92200 31.59900 33.13600
H  -1.25600 31.41700 34.53500
N  0.09300 35.77700 26.88100
C  0.47000 36.52100 27.98800
C  1.33800 37.56000 27.54900
C  1.38500 37.52300 26.11900
C  0.59400 36.38100 25.72700
C  2.01400 38.51200 28.51300
C  2.10800 38.37900 25.09600
O  2.04700 38.23000 23.88300
C  2.93400 39.53400 25.60400
N  -1.19800 34.03900 24.72800
C  -0.37000 34.83300 23.95600
C  -0.35400 34.38600 22.49600
C  -1.42800 33.21600 22.48900
C  -1.72900 33.03100 24.01500
C  -0.62400 35.40900 21.41400
C  -1.03700 31.98600 21.57400
C  -0.37800 30.74000 22.31800
N  -2.53800 32.67700 26.85800
C  -3.13900 31.98400 25.82500
C  -4.14300 31.16100 26.34200
C  -4.06800 31.22800 27.72400
C  -3.08100 32.20000 28.00500
C  -5.03700 30.18200 25.55700
C  -4.60600 30.77200 28.98700
O  -5.47500 29.92900 29.16900
C  -3.77500 31.56400 30.09200
C  -4.83100 32.23000 30.88100
O  -5.30400 33.30400 30.53800
O  -5.19300 31.47800 32.00500
C  -6.34200 32.03500 32.77900
H  0.67900 36.81300 30.05900
H  0.70600 36.54300 23.58900
H  -3.00200 31.51400 23.68500
H  -2.60600 33.98200 31.87800
H  0.22300 35.00300 31.58800
H  -2.00100 35.83000 32.90900
H  -1.78800 36.89200 31.53000
H  -0.45900 36.76500 32.61400
H  -0.08800 32.57100 32.43600
H  -0.86000 31.51400 31.26100
H  -2.19300 30.58000 32.86100
H  -2.79500 32.18800 33.41500
H  3.06500 38.59500 28.23800
H  1.94100 38.12600 29.52900
H  1.59300 39.51800 28.51500
H  3.03600 40.37200 24.91400
H  3.90400 39.11400 25.86700
H  2.40400 39.87900 26.49200
H  0.64200 33.96500 22.35900
H  -2.42000 33.55600 22.19200
H  -1.02800 36.32300 21.84800
H  -1.27000 34.94700 20.66700
H  0.38400 35.61800 21.05600
H  -0.28500 32.30900 20.85400
H  -1.91100 31.64200 21.01900
H  0.49100 30.46300 21.72100
H  -1.05300 29.88500 22.36300
H  -0.15100 31.10500 23.32000
H  -4.55000 29.70800 24.70400
H  -5.89700 30.64400 25.07200
H  -5.23900 29.36500 26.25000
H  -3.31400 30.75100 30.65300
H  -6.95300 32.75900 32.24000
H  -5.74300 32.47300 33.57700
H  -6.94400 31.21300 33.16500
Mg -11.76400 16.91300 40.81700
C  -8.59000 15.54900 40.13800
C  -10.68400 19.90100 39.89900
C  -15.00200 17.86900 40.87600
C  -13.00300 13.50100 40.90000
N  -9.83900 17.57700 39.85600
C  -8.63400 16.92500 39.88900
C  -7.43300 17.89100 39.64000
C  -8.18800 19.29200 39.97000
C  -9.67300 18.96300 39.82200
C  -7.89400 19.84600 41.43100
C  -6.88400 17.76400 38.27400
C  -5.43100 18.14100 38.11000
H  -4.49500 17.07700 37.40600
N  -12.75500 18.70300 40.41900
C  -12.12000 19.80500 40.00100
C  -13.14100 20.88800 39.80600
C  -14.39900 20.25500 40.13200
C  -14.11600 18.89500 40.52000
C  -12.75600 22.24100 39.20000
C  -15.76400 20.98400 40.03200
O  -15.80300 22.12600 39.64200
C  -17.04800 20.34200 40.35400
N  -13.68500 15.83200 40.81300
C  -14.83400 16.49400 41.04600
C  -16.04100 15.53200 41.38900
C  -15.42900 14.14700 41.06500
C  -13.90800 14.45900 40.92900
C  -16.55400 15.65000 42.81300
C  -15.99100 13.33100 39.85900
C  -16.80900 12.06000 40.08700
N  -11.06500 14.88100 40.68300
C  -11.62300 13.65300 40.86600
C  -10.52600 12.67200 40.88400
C  -9.31900 13.36100 40.69800
C  -9.71200 14.70100 40.42600
C  -10.65300 11.25900 41.14800
C  -7.83100 13.26100 40.59300
O  -7.24300 12.17600 40.72900
C  -7.26200 14.63500 40.28600
C  -6.31800 14.97900 41.41600
O  -6.53200 15.00500 42.64200
O  -5.05900 15.20200 40.84300
C  -4.01900 15.85800 41.70000
H  -10.30400 20.92300 39.83800
H  -16.04100 18.18700 40.99000
H  -13.49000 12.52400 40.92100
H  -6.62500 17.81800 40.36800
H  -7.79500 20.00200 39.24300
H  -7.46000 20.84200 41.52200
H  -7.29700 19.10300 41.96000
H  -8.81300 19.85800 42.01700
H  -7.59200 18.33000 37.66900
H  -6.96700 16.72500 37.95300
H  -5.12700 18.45200 39.10900
H  -5.37800 19.09000 37.57600
H  -12.83600 22.20100 38.11400
H  -11.74900 22.51700 39.51100
H  -13.45700 23.03200 39.46700
H  -17.22000 19.55700 39.61800
H  -17.90400 21.01300 40.27500
H  -17.04000 20.01800 41.39400
H  -16.84300 15.67500 40.66500
H  -15.62900 13.44900 41.87800
H  -15.97700 16.49700 43.18300
H  -16.22900 14.83300 43.45600
H  -17.63000 15.77100 42.93900
H  -15.14900 13.06100 39.22200
H  -16.70300 13.96900 39.33600
H  -17.18800 11.91100 41.09800
H  -16.38300 11.07000 39.92500
H  -17.70100 11.97500 39.46500
H  -11.47000 10.87200 40.54000
H  -10.92100 11.10900 42.19400
H  -9.73000 10.70800 40.96400
H  -6.67000 14.43700 39.39200
H  -4.18300 16.91900 41.51600
H  -2.98400 15.54900 41.55100
H  -4.15500 15.67800 42.76600

