158

Mg 44.55800 5.04900 47.50300
C  42.42800 7.58000 46.58200
C  41.93400 2.75800 46.82800
C  46.80000 2.51300 47.48300
C  47.15600 7.37100 47.71300
N  42.48100 5.18400 46.52000
C  41.81400 6.39100 46.34100
C  40.35600 6.04600 45.88200
C  40.12300 4.55600 46.39700
C  41.58800 4.12200 46.60300
C  39.21600 4.47000 47.71500
C  40.26000 6.26100 44.35600
C  39.13300 7.31100 43.91900
H  39.50100 8.15400 42.73500
N  44.37000 2.95500 47.21300
C  43.23200 2.24000 46.97700
C  43.52000 0.82500 46.99900
C  44.90900 0.70300 47.20800
C  45.44500 2.11400 47.28800
C  42.55000 -0.19500 46.84500
C  45.62000 -0.63100 47.35600
O  45.05900 -1.69000 47.16000
C  47.09900 -0.67300 47.81300
N  46.73500 4.95800 47.24900
C  47.40900 3.79900 47.49800
C  48.86400 3.99800 47.79600
C  48.93800 5.55400 48.04000
C  47.54600 6.00800 47.60400
C  49.54300 3.13300 48.95700
C  50.14500 6.28800 47.49200
C  51.28500 6.47700 48.57300
N  44.79100 7.06300 47.21100
C  45.90500 7.86300 47.42900
C  45.47200 9.27100 47.34500
C  44.12000 9.20900 47.02700
C  43.78500 7.82500 46.90600
C  46.42400 10.43600 47.39000
C  43.00900 9.94700 46.68100
O  42.87200 11.14100 46.42900
C  41.81500 8.97200 46.49900
C  40.86700 9.32200 47.61500
O  40.86700 8.83500 48.74700
O  39.91600 10.22400 47.12100
C  38.70700 10.51000 47.91800
H  41.04300 2.12600 46.81200
H  47.53100 1.70300 47.53600
H  47.93400 8.08100 48.00300
H  39.75200 6.74300 46.46300
H  39.65600 3.86300 45.69800
H  38.67400 5.34600 48.07200
H  39.81500 4.33500 48.61500
H  38.45500 3.70800 47.54500
H  40.05000 5.26500 43.96800
H  41.20200 6.62400 43.94300
H  38.81300 7.84800 44.81200
H  38.32000 6.67000 43.57900
H  41.72400 0.11400 46.20400
H  42.23900 -0.71800 47.75000
H  42.92900 -0.91900 46.12400
H  47.41300 -1.71200 47.71100
H  47.25200 -0.20000 48.78300
H  47.80800 -0.23700 47.10900
H  49.41700 3.66900 46.91700
H  48.84400 5.62000 49.12300
H  50.54300 3.48800 49.20700
H  49.73600 2.09900 48.67100
H  48.99500 3.19000 49.89800
H  49.87000 7.28000 47.13300
H  50.51100 5.73100 46.63000
H  51.10500 5.82700 49.43000
H  51.25100 7.51900 48.89000
H  52.30100 6.36600 48.19500
H  47.25900 10.28700 46.70600
H  46.77000 10.68100 48.39400
H  46.00000 11.36900 47.02000
H  41.28700 9.11500 45.55700
H  37.90200 10.06600 47.33400
H  38.56900 11.58300 48.05800
H  38.64200 10.03000 48.89500
Mg 40.62900 9.20000 30.00400
C  42.49900 10.56700 32.68100
C  38.17200 8.35300 32.10800
C  39.09800 7.73400 27.39900
C  43.30700 9.99700 27.94400
N  40.42400 9.38900 32.23000
C  41.26800 9.99000 33.10200
C  40.81700 9.71800 34.54800
C  39.37000 8.99600 34.32700
C  39.29200 8.86600 32.77800
C  39.26200 7.57100 34.98600
C  40.66700 11.03000 35.42700
C  40.80600 10.94200 36.98300
H  40.67000 12.21800 37.85300
N  38.80100 8.27400 29.73400
C  37.86600 8.16100 30.69000
C  36.70100 7.63600 30.08100
C  36.89500 7.55000 28.68200
C  38.30900 7.89100 28.48800
C  35.45600 7.34100 30.89000
C  35.91400 7.07300 27.55700
O  36.35500 6.88400 26.45700
C  34.46800 6.67700 27.89400
N  41.19400 8.82300 27.92900
C  40.34200 8.21800 27.12300
C  40.92800 8.09100 25.65400
C  42.24400 8.86600 25.90900
C  42.24000 9.32000 27.36400
C  40.87000 6.63100 24.91700
C  42.42200 9.98900 24.83200
C  41.68700 11.30500 24.96300
N  42.52500 10.07700 30.18800
C  43.49300 10.36300 29.26300
C  44.62700 10.97700 29.91200
C  44.26500 11.17900 31.25000
C  42.97500 10.55800 31.37700
C  45.84400 11.48900 29.29500
C  44.63400 11.70700 32.54900
O  45.55400 12.35900 32.88000
C  43.49100 11.34000 33.54200
C  44.09900 10.37300 34.57500
O  44.43800 9.20800 34.37100
O  44.35300 10.97000 35.77800
C  44.92500 10.12400 36.87300
H  37.35500 8.19000 32.81300
H  38.75900 7.28400 26.46300
H  44.13900 10.19500 27.26500
H  41.51100 9.00000 34.98400
H  38.53500 9.60900 34.66700
H  40.20900 7.33900 35.47400
H  39.21400 6.76000 34.26000
H  38.48900 7.55200 35.75400
H  39.61500 11.28700 35.30000
H  41.22500 11.93800 35.19700
H  41.81200 10.53800 37.10400
H  40.18600 10.18500 37.46300
H  35.64000 7.49100 31.95400
H  35.16900 6.29400 30.80000
H  34.58500 7.86600 30.49700
H  33.90600 7.46700 28.39300
H  34.35700 5.70100 28.36600
H  34.06200 6.72600 26.88300
H  40.32300 8.76200 25.04300
H  42.97600 8.06800 25.78300
H  40.57800 5.87900 25.65000
H  41.83400 6.41100 24.45900
H  40.15100 6.64500 24.09800
H  42.16800 9.54200 23.87100
H  43.45500 10.31400 24.95400
H  42.32900 11.92100 25.59200
H  40.77300 11.26300 25.55600
H  41.41300 11.75100 24.00700
H  46.71200 11.54700 29.95200
H  45.61200 12.54300 29.13700
H  46.01800 10.92900 28.37700
H  43.17200 12.21500 34.10900
H  44.33700 9.21000 36.95900
H  44.71100 10.72900 37.75400
H  45.99900 10.01100 36.72800

