158

Mg 35.91600 1.94300 29.59500
C  33.68400 3.33300 32.13900
C  38.32900 1.96600 31.85200
C  38.05100 1.31700 27.13500
C  33.28300 2.41400 27.27900
N  35.96000 2.75000 31.72800
C  34.99000 3.06900 32.58900
C  35.36200 3.01300 34.11800
C  36.94500 2.69800 33.96800
C  37.15300 2.52300 32.39000
C  37.95100 3.75100 34.59700
C  34.56900 1.89900 34.95100
C  34.10600 2.41400 36.30600
H  35.13900 3.28300 37.07500
N  37.84700 1.64300 29.54600
C  38.67200 1.64300 30.53300
C  39.99000 1.05400 30.10500
C  39.91500 0.94100 28.71600
C  38.54100 1.28800 28.43300
C  41.07000 0.70400 31.03600
C  40.97500 0.42700 27.71500
O  40.73700 0.22800 26.50000
C  42.29300 0.12900 28.21700
N  35.69700 1.81500 27.51700
C  36.73500 1.52900 26.67100
C  36.36400 1.49400 25.17100
C  34.92200 1.95700 25.23000
C  34.55300 2.03700 26.74500
C  37.29200 2.40200 24.34600
C  33.89500 1.08300 24.46300
C  33.38700 -0.20500 25.05300
N  33.84300 2.67000 29.65800
C  32.88300 2.68900 28.65000
C  31.65700 3.18700 29.18900
C  31.89700 3.44700 30.58300
C  33.25500 3.18100 30.81700
C  30.32600 3.43100 28.50300
C  31.35200 3.94500 31.81000
O  30.24600 4.40500 32.08900
C  32.46400 3.78100 32.89400
C  32.52200 5.01500 33.82900
O  32.93700 6.11800 33.49700
O  31.88300 4.74900 35.03200
C  31.63400 5.78700 36.01600
H  39.14800 1.88400 32.57000
H  38.70500 1.19800 26.26900
H  32.40600 2.51000 26.63600
H  35.44100 3.99000 34.59400
H  37.28000 1.85000 34.56600
H  37.56100 4.71000 34.93800
H  38.72900 4.08300 33.91100
H  38.41800 3.34200 35.49400
H  35.24500 1.05300 35.07700
H  33.69300 1.54900 34.40400
H  33.82800 1.54100 36.89700
H  33.18600 2.99600 36.34200
H  41.96000 1.33400 31.03200
H  41.29300 -0.36200 31.00100
H  40.72100 0.78700 32.06500
H  42.81100 1.04800 28.49100
H  42.75000 -0.50700 27.45900
H  42.17300 -0.48700 29.10800
H  36.25100 0.46100 24.84100
H  34.68700 2.95800 24.86900
H  37.93600 1.67700 23.84800
H  37.84700 3.04200 25.03200
H  36.75400 2.92300 23.55400
H  34.38800 0.72400 23.56000
H  33.04100 1.65200 24.09400
H  33.97400 -0.41500 25.94800
H  33.56500 -0.99600 24.32500
H  32.31800 -0.09500 25.23200
H  29.48600 3.80400 29.09000
H  29.91400 2.52000 28.06900
H  30.44300 4.08300 27.63700
H  32.08400 2.94800 33.48600
H  31.19900 6.66200 35.53300
H  32.52100 6.26300 36.43400
H  30.98800 5.58500 36.87000
Mg -11.18500 16.47400 41.52600
C  -8.48200 14.21100 41.55100
C  -9.27300 18.89400 40.20300
C  -13.99800 18.27400 41.20300
C  -13.13800 13.68600 42.66400
N  -9.16200 16.41500 40.75500
C  -8.21100 15.46300 40.97500
C  -6.84600 15.99100 40.49300
C  -7.05600 17.51600 40.36700
C  -8.59100 17.63800 40.44700
C  -6.27600 18.48000 41.33800
C  -6.46500 15.22800 39.19700
C  -5.22200 14.24700 39.12600
H  -4.37400 14.43200 37.83800
N  -11.57400 18.31000 40.64400
C  -10.64100 19.18300 40.24800
C  -11.31600 20.49400 40.04700
C  -12.68500 20.25100 40.13700
C  -12.81400 18.87400 40.69100
C  -10.51800 21.67900 39.65400
C  -13.75700 21.27400 39.78300
O  -13.49100 22.34500 39.26200
C  -15.30700 21.01500 39.99500
N  -13.26500 15.95900 41.82800
C  -14.17500 16.97000 41.77300
C  -15.59400 16.38900 41.88800
C  -15.30000 15.04800 42.67100
C  -13.78600 14.83700 42.39300
C  -16.58600 17.25900 42.73100
C  -16.24900 13.84700 42.42300
C  -16.85400 13.34900 43.74900
N  -10.90500 14.32700 42.01700
C  -11.78200 13.39100 42.49700
C  -11.13100 12.08800 42.70300
C  -9.81700 12.40900 42.41600
C  -9.73700 13.75500 42.03300
C  -11.78500 10.80200 43.21200
C  -8.47500 11.91300 42.40500
O  -8.01500 10.81800 42.74800
C  -7.58600 13.02100 41.76000
C  -6.58000 13.38600 42.70000
O  -6.79500 14.08700 43.67300
O  -5.32000 12.92000 42.35100
C  -4.19600 13.55300 43.07600
H  -8.49500 19.64400 40.04600
H  -14.81800 18.99400 41.17700
H  -13.80800 12.92200 43.06400
H  -6.03800 15.90100 41.22000
H  -6.71300 17.79400 39.37100
H  -5.56400 19.07100 40.76200
H  -5.72300 17.85200 42.03600
H  -6.95300 19.14600 41.87400
H  -6.52200 15.93600 38.37000
H  -7.25600 14.52500 38.93600
H  -5.63400 13.23900 39.17900
H  -4.62100 14.28700 40.03500
H  -9.46700 21.67600 39.94200
H  -11.01200 22.58400 40.00700
H  -10.31700 21.76700 38.58600
H  -15.84500 21.84800 39.54300
H  -15.51200 20.89900 41.05900
H  -15.62900 20.06400 39.57200
H  -15.96200 16.03600 40.92500
H  -15.47500 15.38100 43.69400
H  -17.11100 17.91900 42.04000
H  -16.05100 17.86200 43.46400
H  -17.46100 16.76500 43.15300
H  -15.80000 13.00200 41.90100
H  -17.08600 14.13600 41.78800
H  -17.92600 13.54200 43.70400
H  -16.47200 13.80800 44.66100
H  -16.83900 12.25900 43.78400
H  -12.57200 10.58200 42.49200
H  -12.30600 10.86600 44.16700
H  -11.04000 10.00700 43.21500
H  -7.10800 12.68000 40.84200
H  -3.73000 12.84400 43.76100
H  -4.40100 14.56800 43.41900
H  -3.41200 13.72000 42.33700

