158

Mg 7.86900 2.62200 28.49000
C  9.50600 1.26500 31.43700
C  6.15800 4.78000 30.75900
C  5.94600 3.57100 25.93100
C  9.37000 0.15200 26.67100
N  7.79900 2.81200 30.88000
C  8.65300 2.28900 31.80400
C  8.64600 2.95900 33.24600
C  7.39300 3.95000 32.92800
C  7.09700 3.91200 31.42000
C  6.11500 3.70400 33.86600
C  9.96200 3.64200 33.65100
C  10.43900 3.26300 35.10200
H  9.56500 3.61100 36.36300
N  6.34000 3.98300 28.39800
C  5.74600 4.74200 29.42000
C  4.69600 5.57200 28.81300
C  4.79900 5.43600 27.43300
C  5.74100 4.37200 27.14600
C  3.73800 6.37200 29.60500
C  3.88200 6.07000 26.34200
O  3.92200 5.73700 25.17400
C  2.78300 7.13700 26.78400
N  7.77500 2.02400 26.56700
C  6.84300 2.48200 25.72200
C  7.01800 1.80900 24.32900
C  8.30700 0.81900 24.55000
C  8.49500 0.99500 26.00800
C  5.69600 1.06100 23.86600
C  9.67200 1.19400 23.77200
C  10.69900 2.05700 24.49200
N  9.22900 0.99400 28.88300
C  9.71100 0.08400 27.99800
C  10.50000 -0.86900 28.71600
C  10.49200 -0.45300 30.08300
C  9.71300 0.71100 30.14600
C  11.18500 -2.03800 28.13500
C  10.92100 -0.74500 31.44900
O  11.53000 -1.69400 31.89200
C  10.41200 0.41600 32.39800
C  9.59900 -0.35100 33.44000
O  8.45800 -0.75200 33.27100
O  10.39200 -0.56100 34.54100
C  9.76600 -1.14400 35.75800
H  5.66600 5.58200 31.31300
H  5.40000 3.94700 25.06300
H  9.77400 -0.69800 26.11700
H  8.33900 2.17000 33.93100
H  7.67200 4.97700 33.16500
H  6.23700 2.73600 34.35200
H  5.25200 3.68400 33.20200
H  6.05200 4.56900 34.52700
H  9.90800 4.73000 33.62500
H  10.66300 3.34600 32.87100
H  11.25400 3.95100 35.32700
H  10.82100 2.24500 35.17400
H  3.74400 5.90600 30.59000
H  2.72800 6.20800 29.23000
H  4.05100 7.41200 29.70000
H  1.80900 6.69100 26.98500
H  2.67200 7.72500 25.87300
H  3.11800 7.91700 27.46700
H  7.25700 2.57200 23.58700
H  8.05600 -0.22000 24.33300
H  4.90300 1.12800 24.61000
H  5.69500 -0.00500 23.63900
H  5.33800 1.70500 23.06300
H  9.33500 1.75800 22.90200
H  10.13400 0.25300 23.47200
H  11.44900 1.54700 25.09700
H  10.40300 2.93900 25.06000
H  11.24300 2.52000 23.66800
H  12.12900 -1.77400 27.66000
H  10.45400 -2.30600 27.37300
H  11.15400 -2.86500 28.84500
H  11.31600 0.85600 32.81700
H  10.51100 -1.80100 36.20700
H  8.83400 -1.64700 35.50200
H  9.54700 -0.41500 36.53800
Mg 9.73400 49.07600 26.56200
C  7.95200 48.80400 29.57400
C  12.42300 50.34600 28.31100
C  11.25800 49.83800 23.62600
C  6.72100 48.45900 24.86900
N  10.08700 49.53800 28.66700
C  9.30400 49.22100 29.72600
C  10.00700 49.57700 31.09000
C  11.31100 50.34800 30.59900
C  11.29500 50.10500 29.09400
C  11.27600 51.85300 30.98600
C  10.07200 48.38800 32.11900
C  9.50100 48.65700 33.53200
H  9.41800 47.44400 34.44400
N  11.61300 49.85900 26.04100
C  12.57500 50.19200 26.90000
C  13.82700 50.25300 26.19600
C  13.50800 50.29000 24.81400
C  12.03900 50.02000 24.75100
C  15.16400 50.49700 26.91300
C  14.47100 50.48600 23.66500
O  14.09000 50.58600 22.50800
C  15.94100 50.41300 23.91000
N  8.92700 49.43600 24.57800
C  9.84400 49.48300 23.52100
C  9.19500 48.96800 22.25800
C  7.85500 48.38700 22.70700
C  7.84600 48.79600 24.10600
C  9.08100 49.96500 21.02500
C  7.68700 46.81300 22.49400
C  8.30600 45.84500 23.47900
N  7.70600 48.74900 27.04600
C  6.62300 48.56800 26.26500
C  5.45000 48.35000 27.15800
C  5.91700 48.39600 28.47500
C  7.31100 48.64400 28.36400
C  4.00000 48.21300 26.59800
C  5.52800 48.36700 29.88200
O  4.39400 48.17900 30.39400
C  6.84500 48.34000 30.61600
C  7.13600 46.97600 31.12900
O  7.60600 46.08300 30.46500
O  6.77300 46.90500 32.47200
C  7.16000 45.62000 33.16000
H  13.34900 50.74800 28.72900
H  11.70200 50.19800 22.69600
H  5.82300 48.16800 24.32000
H  9.37000 50.29200 31.61100
H  12.18000 49.88400 31.06600
H  10.36600 52.16200 31.49900
H  11.39000 52.31500 30.00500
H  12.15900 52.07200 31.58700
H  11.14400 48.27400 32.27800
H  9.67400 47.47200 31.68300
H  8.55500 49.19700 33.54300
H  10.26500 49.31100 33.95300
H  15.85600 49.74200 26.53800
H  15.10700 50.50600 28.00100
H  15.62400 51.40300 26.52100
H  16.32900 51.18900 24.57000
H  16.25400 50.62700 22.88800
H  16.29900 49.42200 24.19200
H  9.78300 48.09600 21.97000
H  7.05700 48.93600 22.20800
H  9.88000 50.70200 20.94300
H  8.23900 50.65600 20.99600
H  8.91100 49.38000 20.12100
H  8.28400 46.65300 21.59600
H  6.61800 46.66000 22.34800
H  8.45500 46.38900 24.41200
H  9.23800 45.47100 23.05500
H  7.65500 45.01700 23.76200
H  3.24300 48.36000 27.36800
H  3.81000 47.22300 26.18200
H  3.61800 48.87800 25.82400
H  6.86500 49.00800 31.47700
H  6.67800 44.72300 32.77100
H  6.83300 45.58700 34.20000
H  8.23900 45.48500 33.09700

