158

Mg 9.39900 3.93000 28.08700
C  10.87700 2.31100 30.94800
C  7.70200 5.93500 30.17200
C  7.63900 4.92200 25.44000
C  10.77300 1.37700 26.14400
N  9.48400 4.14400 30.27600
C  10.10400 3.42000 31.24100
C  9.85700 3.94100 32.61400
C  8.64100 4.90500 32.40000
C  8.60300 5.04600 30.83400
C  7.27900 4.25200 32.92400
C  11.13700 4.50800 33.29800
C  11.37200 3.83500 34.67000
H  10.18000 3.74600 35.73300
N  8.09900 5.33600 27.86100
C  7.47100 6.04400 28.81000
C  6.66600 7.12900 28.13400
C  6.71700 6.90900 26.76300
C  7.49100 5.68300 26.63800
C  5.97500 8.25700 28.88000
C  6.14800 7.66300 25.65600
O  6.43200 7.42400 24.49900
C  5.25800 8.86100 25.91800
N  8.96600 3.02100 26.12900
C  8.31000 3.74600 25.20000
C  8.35200 3.10600 23.82900
C  9.50800 2.08500 23.98700
C  9.82700 2.21200 25.55100
C  6.98700 2.59500 23.40700
C  10.81400 2.53200 23.24900
C  11.58300 1.34000 22.52500
N  10.62800 2.21000 28.35800
C  11.11100 1.29800 27.50000
C  11.97400 0.40100 28.15800
C  11.89000 0.77400 29.53000
C  11.06500 1.87600 29.61900
C  12.39100 -0.86500 27.63700
C  12.37200 0.48800 30.80400
O  13.16400 -0.41000 31.14100
C  11.77400 1.46600 31.78700
C  10.91900 0.71400 32.75600
O  9.72800 0.69500 32.73100
O  11.67600 0.10500 33.73400
C  10.92500 -0.30900 34.97600
H  7.18100 6.63100 30.83400
H  7.25900 5.31800 24.49600
H  11.23500 0.61400 25.51500
H  9.51600 3.11200 33.23500
H  8.82100 5.88600 32.84000
H  7.32600 3.41300 33.61800
H  6.77600 3.88600 32.02800
H  6.80600 5.08500 33.44200
H  11.02400 5.57500 33.49400
H  11.95700 4.45900 32.58200
H  12.16700 4.35100 35.20700
H  11.63200 2.80500 34.42500
H  6.55300 9.15100 28.64400
H  5.91900 8.13300 29.96100
H  4.95200 8.42500 28.54300
H  5.89700 9.55100 26.47000
H  4.34900 8.54300 26.42900
H  5.03300 9.29200 24.94300
H  8.53700 3.89200 23.09700
H  9.16000 1.10200 23.67000
H  6.57000 2.91900 22.45400
H  6.21500 2.78100 24.15300
H  7.08500 1.52300 23.23600
H  11.40100 3.13400 23.94300
H  10.49600 3.17100 22.42600
H  11.44700 1.29400 21.44400
H  11.32000 0.36900 22.94400
H  12.65000 1.49800 22.68300
H  13.25800 -0.76700 26.98300
H  11.52400 -1.28100 27.12300
H  12.72800 -1.57900 28.38800
H  12.57600 1.99100 32.30700
H  10.23000 -1.13900 34.85400
H  10.34800 0.45400 35.49800
H  11.72400 -0.60300 35.65700
Mg 29.64300 58.40600 41.79700
C  26.91400 56.60500 40.57400
C  31.67700 56.22700 40.00800
C  32.30600 60.47700 42.15400
C  27.51300 61.08300 42.62400
N  29.30000 56.60500 40.44400
C  28.09000 56.04100 40.11700
C  28.15900 54.87400 39.15200
C  29.71900 54.56100 39.31800
C  30.29000 55.87000 39.91900
C  30.09400 53.30100 40.18200
C  27.71400 55.25500 37.72400
C  26.56300 54.44400 37.12800
H  26.68600 53.75500 35.83100
N  31.72100 58.31300 41.33200
C  32.31700 57.31100 40.60000
C  33.73400 57.44700 40.73500
C  34.02600 58.72100 41.30800
C  32.67300 59.26100 41.63000
C  34.75200 56.42000 40.30600
C  35.37200 59.33200 41.66000
O  36.34900 58.64200 41.49900
C  35.62300 60.68300 42.21300
N  29.85800 60.42100 42.43800
C  31.10000 61.08000 42.52600
C  30.95900 62.56400 43.07900
C  29.40200 62.70300 43.26900
C  28.90200 61.34100 42.71900
C  31.80500 63.10500 44.31400
C  28.67800 63.90900 42.53000
C  27.86600 64.87200 43.40500
N  27.59100 58.82900 41.70100
C  26.88200 59.91400 42.03900
C  25.49200 59.65100 41.86700
C  25.41400 58.36300 41.26900
C  26.77000 57.93200 41.20600
C  24.36600 60.58200 42.24800
C  24.49500 57.35000 40.72200
O  23.27900 57.29300 40.72100
C  25.49800 56.12600 40.18000
C  25.05700 54.91600 40.94700
O  25.36600 54.71300 42.11200
O  24.18000 54.20100 40.22500
C  23.91700 52.83600 40.84800
H  32.19800 55.47000 39.41800
H  33.11700 61.20400 42.22500
H  26.81600 61.90700 42.78900
H  27.59100 54.02900 39.54400
H  30.13800 54.43700 38.32000
H  30.13700 52.41600 39.54700
H  29.25600 53.12700 40.85600
H  30.92600 53.50700 40.85500
H  28.45500 55.14400 36.93200
H  27.46000 56.31400 37.68500
H  25.66700 55.04400 36.97500
H  26.29300 53.59400 37.75400
H  35.57200 56.74800 39.66600
H  34.19000 55.54100 39.99000
H  35.27700 56.12100 41.21300
H  35.19600 61.43700 41.55200
H  36.68400 60.93300 42.21600
H  35.06300 60.74000 43.14700
H  31.18700 63.19700 42.22200
H  29.17200 62.84400 44.32500
H  32.28600 64.05000 44.06300
H  32.49200 62.34300 44.68100
H  31.20000 63.42000 45.16500
H  28.17100 63.44900 41.68200
H  29.46300 64.45100 42.00300
H  28.36600 65.10900 44.34400
H  26.91800 64.35900 43.56700
H  27.64700 65.76800 42.82400
H  24.12600 61.40300 41.57200
H  24.48800 61.00800 43.24400
H  23.48500 59.94200 42.26500
H  25.43500 55.92000 39.11200
H  23.13000 52.45300 40.19700
H  23.39400 52.88200 41.80400
H  24.79100 52.18600 40.86900

