158

Mg 1.95500 41.82100 25.55300
C  3.06200 41.82800 28.92500
C  -1.00000 40.08500 26.74800
C  1.03000 41.00200 22.35700
C  5.04800 42.89300 24.50300
N  1.03200 41.26800 27.61600
C  1.71200 41.34000 28.81300
C  0.73700 41.07700 29.96700
C  -0.44300 40.38200 29.27800
C  -0.11600 40.48400 27.77900
C  -0.86500 38.98100 29.76400
C  0.38600 42.38100 30.87900
C  -0.21600 42.05600 32.29300
H  -1.53300 41.28900 32.28600
N  0.24800 40.66800 24.63600
C  -0.80600 40.12500 25.38800
C  -1.76400 39.61200 24.36100
C  -1.24100 39.91500 23.07700
C  0.04900 40.52800 23.29200
C  -3.11200 38.89300 24.67800
C  -1.75800 39.67100 21.66200
O  -1.12100 39.83000 20.63300
C  -3.08000 39.15500 21.42500
N  2.95200 41.74600 23.73000
C  2.32000 41.52700 22.54600
C  3.20000 41.99600 21.37200
C  4.28600 42.82800 22.01400
C  4.15300 42.42800 23.51200
C  3.63800 40.83500 20.35600
C  3.98900 44.34500 21.85000
C  3.94200 44.92300 20.48600
N  3.69300 42.33200 26.44100
C  4.89100 42.76000 25.92000
C  5.82500 43.15900 26.94400
C  5.14900 42.83400 28.13300
C  3.86400 42.24400 27.79700
C  7.09400 43.81500 26.66300
C  5.28000 42.86400 29.57500
O  6.13800 43.32300 30.33800
C  4.01400 42.06100 30.13400
C  4.43000 40.76200 30.84100
O  4.94400 39.71400 30.33600
O  4.41200 40.92100 32.19800
C  4.83000 39.73400 32.99200
H  -1.87200 39.46800 26.97300
H  0.83400 40.88000 21.29000
H  6.01800 43.32100 24.24500
H  1.24900 40.35300 30.60100
H  -1.32700 41.01900 29.30000
H  -1.90000 38.83100 30.07000
H  -0.25100 38.75200 30.63500
H  -0.66100 38.26400 28.96800
H  -0.28300 43.05500 30.34200
H  1.27300 42.98400 31.07100
H  -0.43400 43.08200 32.59000
H  0.64900 41.66800 32.83200
H  -3.39600 39.09400 25.71100
H  -3.13300 37.81600 24.51200
H  -3.98800 39.22900 24.12400
H  -2.97800 38.16800 21.87800
H  -3.36600 38.97800 20.38800
H  -3.87600 39.75800 21.86400
H  2.56000 42.66300 20.79400
H  5.28200 42.75000 21.57800
H  3.64400 39.87600 20.87400
H  4.68300 40.94000 20.06500
H  3.10400 40.86400 19.40600
H  4.81500 44.84300 22.35700
H  3.05600 44.61000 22.34800
H  4.27500 44.11800 19.83000
H  4.66200 45.74100 20.49000
H  2.92100 45.26600 20.32000
H  7.96700 43.18900 26.85000
H  7.05100 44.44500 27.55100
H  7.02500 44.41100 25.75300
H  3.50300 42.58200 30.94400
H  4.24200 39.93200 33.88900
H  5.91300 39.82800 33.06300
H  4.39900 38.82400 32.57300
Mg -11.81100 17.07900 43.00600
C  -9.04000 15.00500 42.40900
C  -9.90400 19.76600 42.02200
C  -14.70400 18.71700 42.47300
C  -13.61500 14.06600 43.72900
N  -9.78300 17.27200 42.19700
C  -8.78000 16.34300 42.10800
C  -7.46600 16.96900 41.64700
C  -7.74100 18.47000 42.16900
C  -9.25700 18.56300 42.17200
C  -7.15000 18.88600 43.52600
C  -7.15300 16.96100 40.13900
C  -5.65600 16.84400 39.72800
H  -5.27300 15.58100 38.98900
N  -12.26800 18.97300 42.24400
C  -11.29000 19.94600 41.89500
C  -12.00400 21.12100 41.58300
C  -13.42000 20.88200 41.67900
C  -13.54500 19.48000 42.24100
C  -11.17300 22.34600 41.14000
C  -14.48500 22.00300 41.43000
O  -14.20400 23.12300 41.00300
C  -15.95000 21.80200 41.88700
N  -13.85200 16.45800 43.03000
C  -14.85400 17.40100 42.92900
C  -16.20800 16.79000 43.19600
C  -15.76800 15.36300 43.75300
C  -14.29100 15.26400 43.56100
C  -17.24300 17.50500 44.06800
C  -16.56200 14.23500 42.89600
C  -17.77800 13.73000 43.74000
N  -11.48300 14.96200 43.20100
C  -12.28800 13.89100 43.51600
C  -11.51500 12.67700 43.56600
C  -10.18200 13.06400 43.19600
C  -10.26900 14.43900 42.89600
C  -12.12300 11.36800 43.75800
C  -8.88500 12.54500 42.96200
O  -8.44400 11.41300 42.96000
C  -8.16600 13.77400 42.22900
C  -6.89600 13.92500 42.98300
O  -6.87000 14.26900 44.13100
O  -5.74600 13.60200 42.25600
C  -4.58900 14.19600 42.87300
H  -9.34300 20.69700 41.92300
H  -15.61200 19.29400 42.28400
H  -14.24500 13.18100 43.83800
H  -6.65600 16.64600 42.30000
H  -7.35100 19.12300 41.38900
H  -7.03100 18.01700 44.17300
H  -7.72700 19.63100 44.07300
H  -6.11800 19.23100 43.45600
H  -7.57800 17.76700 39.54200
H  -7.68600 16.07400 39.79500
H  -5.08000 16.68900 40.64100
H  -5.27300 17.72700 39.21600
H  -11.64000 23.32300 41.26500
H  -10.73900 22.12300 40.16600
H  -10.35200 22.39700 41.85600
H  -16.02000 21.45000 42.91700
H  -16.54600 21.21700 41.18700
H  -16.50600 22.71100 42.11700
H  -16.68700 16.66500 42.22500
H  -15.82900 15.25800 44.83700
H  -17.46300 16.80200 44.87100
H  -18.14700 17.76600 43.51600
H  -16.86800 18.49100 44.34000
H  -15.95100 13.40600 42.53900
H  -16.94900 14.57200 41.93400
H  -17.71900 12.68300 44.03600
H  -18.70100 13.79800 43.16500
H  -17.91600 14.30100 44.65800
H  -12.52300 10.95800 42.83100
H  -12.92400 11.32300 44.49600
H  -11.29600 10.72700 44.06500
H  -7.97500 13.43700 41.21000
H  -4.23000 13.46100 43.59400
H  -4.69300 15.16600 43.35900
H  -3.81400 14.31500 42.11500

