158

Mg 24.92900 -8.04100 46.76900
C  27.26600 -5.53700 45.80900
C  22.50700 -6.35600 44.89600
C  22.91500 -10.65700 47.24900
C  27.67000 -9.85100 48.20700
N  24.94400 -6.21300 45.38700
C  25.93900 -5.29100 45.26100
C  25.51600 -4.09700 44.40500
C  23.90200 -4.10100 44.59000
C  23.78700 -5.66500 44.91200
C  23.29100 -3.16900 45.63200
C  25.99600 -4.31700 42.96400
C  25.80100 -3.16000 42.00000
H  26.29300 -3.38300 40.59600
N  23.01800 -8.51600 46.03100
C  22.17900 -7.66900 45.36400
C  20.85900 -8.32400 45.27500
C  20.97200 -9.54800 46.00000
C  22.32200 -9.63100 46.46300
C  19.69200 -7.74900 44.51800
C  19.80800 -10.62200 46.19500
O  18.68200 -10.45700 45.71400
C  20.00000 -11.89400 46.98300
N  25.30500 -9.94400 47.51400
C  24.23500 -10.84800 47.65100
C  24.68700 -11.99900 48.48800
C  26.31900 -11.80400 48.47100
C  26.44600 -10.40700 48.11300
C  24.11500 -11.85600 49.87200
C  27.19800 -12.74300 47.54700
C  27.86500 -13.98700 48.26100
N  26.96500 -7.65900 47.20700
C  27.91200 -8.48200 47.75800
C  29.16100 -7.77200 47.82400
C  28.93100 -6.60000 47.05300
C  27.60800 -6.65000 46.63300
C  30.39800 -8.16300 48.49300
C  29.59300 -5.36300 46.64900
O  30.70900 -4.86400 46.89300
C  28.53400 -4.67800 45.78000
C  28.37100 -3.20300 46.22300
O  28.89600 -2.22000 45.69300
O  27.40400 -3.06500 47.27600
C  27.09900 -1.67600 47.68200
H  21.72900 -5.66600 44.56400
H  22.31900 -11.50400 47.59500
H  28.51800 -10.41300 48.60300
H  25.93000 -3.21900 44.90000
H  23.42100 -3.96800 43.62100
H  23.77800 -2.19900 45.53200
H  23.53700 -3.52600 46.63200
H  22.21700 -2.98300 45.65200
H  25.56300 -5.18500 42.46700
H  27.07200 -4.39600 43.11600
H  26.39900 -2.37000 42.45400
H  24.77600 -2.81000 41.87700
H  19.72200 -6.66000 44.48200
H  18.73300 -7.94600 44.99700
H  19.64000 -8.25600 43.55400
H  20.32000 -11.62500 47.99000
H  20.77000 -12.48500 46.48700
H  19.04400 -12.41100 47.07100
H  24.28000 -12.94900 48.14200
H  26.72200 -11.97400 49.46900
H  23.06300 -12.13900 49.91400
H  24.03600 -10.78900 50.07700
H  24.76800 -12.24600 50.65400
H  28.00200 -12.15200 47.10700
H  26.60300 -13.09500 46.70400
H  27.76800 -13.88900 49.34300
H  28.91000 -14.15100 47.99900
H  27.23200 -14.79000 47.88300
H  31.12000 -8.64900 47.83700
H  30.16000 -8.76200 49.37100
H  30.87700 -7.24000 48.82000
H  28.86100 -4.62700 44.74200
H  26.72900 -1.07600 46.85000
H  27.99700 -1.22900 48.10800
H  26.32800 -1.93600 48.40800
Mg 34.16900 49.09200 25.54400
C  34.66600 47.32900 28.60800
C  32.29200 51.31900 27.48500
C  33.87200 50.99900 22.80700
C  35.65800 46.59700 23.81800
N  33.49600 49.18000 27.80600
C  33.93900 48.48100 28.86800
C  33.62500 49.14900 30.21600
C  32.59800 50.22000 29.79400
C  32.79400 50.25200 28.26300
C  31.13400 49.97700 30.28200
C  34.87500 49.71000 30.83100
C  34.88900 49.73800 32.39300
H  33.59400 49.59500 33.18700
N  33.26000 50.88000 25.23400
C  32.53700 51.64600 26.12500
C  32.10900 52.87100 25.47500
C  32.54400 52.86300 24.08400
C  33.26100 51.56100 23.98600
C  31.36200 53.93400 26.13300
C  32.26200 53.87500 22.94000
O  32.80300 53.71300 21.86200
C  31.44200 55.07900 23.19100
N  34.68800 48.84800 23.66200
C  34.36100 49.72300 22.65800
C  34.64700 49.08100 21.22100
C  35.51800 47.86100 21.61800
C  35.27500 47.74100 23.14200
C  33.43800 48.84600 20.44000
C  37.01300 47.98300 21.15600
C  37.97300 48.83300 22.09200
N  34.98000 47.28200 26.03000
C  35.54400 46.39400 25.23600
C  35.92700 45.15000 26.01700
C  35.61500 45.52500 27.34800
C  35.12200 46.86900 27.31000
C  36.48200 43.94100 25.55400
C  35.70500 45.00900 28.69500
O  35.97900 43.88700 29.13900
C  35.14300 46.28700 29.56700
C  33.99800 45.76600 30.34700
O  32.88800 45.44300 29.94900
O  34.42400 45.43800 31.58400
C  33.50800 44.54600 32.37100
H  31.64900 51.96000 28.09300
H  33.79700 51.58300 21.88700
H  36.16600 45.83300 23.22700
H  33.32200 48.35100 30.89400
H  32.88700 51.23500 30.06700
H  30.82100 48.93300 30.31500
H  30.46500 50.52400 29.61700
H  31.09900 50.30000 31.32200
H  34.94800 50.75700 30.53500
H  35.77600 49.19800 30.49400
H  35.20700 50.74200 32.67400
H  35.48500 48.92500 32.80600
H  31.14100 53.71300 27.17700
H  30.39500 53.89700 25.63200
H  31.98600 54.82700 26.08300
H  31.87000 55.78000 23.90800
H  30.45400 54.75100 23.51400
H  31.23700 55.59500 22.25400
H  35.23400 49.80900 20.66100
H  35.15100 46.93400 21.17600
H  32.62800 48.80100 21.16800
H  33.29800 47.84900 20.02000
H  33.27300 49.49900 19.58300
H  37.07400 48.35700 20.13400
H  37.46800 46.99300 21.20300
H  38.53300 49.48900 21.42600
H  38.61200 48.17800 22.68500
H  37.42900 49.46300 22.79600
H  37.08200 44.15800 24.67000
H  35.88800 43.05600 25.32500
H  37.21900 43.70300 26.32100
H  35.92900 46.67700 30.21200
H  33.19500 43.69200 31.77100
H  32.67300 45.19300 32.63900
H  34.02700 44.20700 33.26800

