158

Mg 56.18300 24.74700 44.62400
C  53.88900 26.93600 43.23500
C  54.69400 22.15600 43.01000
C  59.09500 22.91900 45.07300
C  57.98400 27.72700 45.68300
N  54.58800 24.57600 43.07100
C  53.80900 25.64600 42.67800
C  52.70100 25.17200 41.72000
C  52.83100 23.58700 41.89600
C  54.09400 23.38900 42.69000
C  51.56000 22.76000 42.35100
C  53.09100 25.62200 40.19700
C  51.93500 26.06500 39.19100
H  51.72500 25.21800 37.94500
N  56.68400 22.76600 44.31500
C  55.86600 21.77100 43.76400
C  56.55100 20.55000 43.83300
C  57.79600 20.69100 44.46600
C  57.93600 22.20700 44.62500
C  55.88700 19.28800 43.35100
C  58.79900 19.58900 44.91700
O  58.64600 18.43800 44.60100
C  59.80800 19.86700 45.91000
N  58.16400 25.21400 45.41700
C  59.22000 24.25600 45.45700
C  60.41200 24.90900 46.15300
C  60.09600 26.45700 46.06400
C  58.65700 26.45000 45.78100
C  60.77700 24.41000 47.57800
C  60.88500 27.32700 44.98900
C  61.41100 28.69400 45.42800
N  55.93700 26.85700 44.72100
C  56.69100 27.90500 45.16600
C  55.95500 29.14000 45.10600
C  54.81500 28.78900 44.37500
C  54.90700 27.42500 44.11500
C  56.28500 30.50900 45.70700
C  53.51100 29.22100 43.91600
O  52.94000 30.28500 43.97700
C  52.83000 28.02400 43.09600
C  52.77800 28.69600 41.76800
O  53.74800 29.07600 41.17400
O  51.48700 28.85700 41.46000
C  51.11600 29.36500 40.14000
H  54.26100 21.29700 42.49200
H  60.03300 22.42300 45.33100
H  58.48600 28.61800 46.06600
H  51.69200 25.50800 41.95900
H  52.87000 23.14800 40.89900
H  51.58400 21.78400 41.86800
H  50.60600 23.28100 42.27200
H  51.71500 22.50300 43.39800
H  53.56800 24.82100 39.63300
H  53.90300 26.34800 40.15600
H  52.23700 27.04900 38.83300
H  51.00600 26.21100 39.74200
H  56.33000 18.77800 42.49500
H  54.87200 19.46400 42.99500
H  55.79600 18.58400 44.17800
H  60.72700 20.13600 45.38900
H  60.00600 18.99900 46.54000
H  59.45100 20.63100 46.60100
H  61.30300 24.85000 45.52800
H  60.28800 27.05100 46.95700
H  60.46200 25.08000 48.37800
H  61.84200 24.19300 47.50000
H  60.29100 23.44000 47.68600
H  60.25300 27.45700 44.11000
H  61.81100 26.85400 44.66000
H  62.49800 28.75400 45.37500
H  61.28100 28.86700 46.49700
H  60.99900 29.50900 44.83200
H  56.78400 31.12100 44.95600
H  56.95300 30.46400 46.56600
H  55.49300 31.19700 46.00500
H  51.90000 27.65400 43.52700
H  50.51000 30.23600 40.39000
H  50.53700 28.62400 39.58900
H  51.89600 29.71600 39.46400
Mg 50.84800 46.93000 41.24600
C  47.62800 47.47700 40.23200
C  50.44100 43.66600 40.09500
C  54.18000 46.44800 41.53700
C  51.13100 50.14800 42.36600
N  49.17400 45.75000 40.21300
C  47.99100 46.18600 39.83300
C  47.09600 45.12900 39.19900
C  47.96800 43.80400 39.46400
C  49.27100 44.41500 39.99600
C  47.35800 42.78200 40.41600
C  46.79800 45.41100 37.71900
C  45.37400 45.24200 37.32200
H  45.04100 44.15300 36.27700
N  52.06300 45.29000 40.92900
C  51.72000 43.99900 40.52500
C  52.85200 43.13900 40.58000
C  53.94000 43.85200 41.04000
C  53.41200 45.26400 41.26000
C  52.92200 41.66000 40.05000
C  55.27800 43.33600 41.21200
O  55.59100 42.18000 40.88200
C  56.35800 44.17700 41.70100
N  52.46000 48.15400 41.74300
C  53.72800 47.69800 41.87100
C  54.65300 48.87300 42.35000
C  53.62200 50.04100 42.59300
C  52.29700 49.39900 42.27100
C  55.59700 48.71700 43.55600
C  53.85400 51.35600 41.81900
C  53.98100 52.65400 42.71600
N  49.57800 48.54000 41.39600
C  49.82900 49.82500 41.86700
C  48.58900 50.64000 41.65700
C  47.72300 49.75700 41.01900
C  48.32700 48.50500 40.89900
C  48.44000 52.04200 41.86800
C  46.42500 49.59100 40.34400
O  45.67900 50.46500 40.01200
C  46.28200 48.18200 39.83400
C  45.02500 47.51900 40.30800
O  44.97500 46.78900 41.27700
O  43.91900 47.97300 39.58500
C  42.64600 47.28300 39.81200
H  50.34900 42.62400 39.77800
H  55.25600 46.26500 41.56900
H  51.23000 51.20800 42.60800
H  46.18100 45.08500 39.79000
H  48.14900 43.32900 38.50000
H  46.43000 43.21000 40.79600
H  48.06500 42.61600 41.22900
H  47.16600 41.86600 39.85800
H  47.40500 44.84600 37.01100
H  47.09700 46.44900 37.57300
H  44.86900 46.13800 36.96200
H  44.88600 45.03600 38.27500
H  53.23900 41.69800 39.00800
H  51.88000 41.34500 40.09700
H  53.56900 40.96700 40.58900
H  56.17000 44.82200 42.55900
H  56.66800 44.81600 40.87400
H  57.19400 43.56200 42.03500
H  55.18800 49.00400 41.41000
H  53.68700 50.18000 43.67200
H  55.38100 47.65900 43.70100
H  55.29500 49.29400 44.43000
H  56.61800 48.83700 43.19300
H  53.07400 51.54700 41.08100
H  54.75000 51.24000 41.20800
H  53.14600 53.30800 42.46500
H  54.92800 53.13100 42.46400
H  53.93100 52.35300 43.76200
H  49.33700 52.56500 42.20000
H  47.74400 52.23000 42.68700
H  48.07600 52.58600 40.99600
H  46.22700 48.16800 38.74500
H  41.94200 47.54000 39.02100
H  42.35700 47.60700 40.81100
H  42.82100 46.20800 39.86400

