158

Mg 24.86600 -4.18400 46.52800
C  26.64300 -1.61400 45.01300
C  22.20800 -3.48600 44.38900
C  23.36100 -7.07500 47.46900
C  27.74700 -5.27400 48.19000
N  24.45400 -2.78600 44.87000
C  25.34600 -1.74900 44.49600
C  24.70200 -0.86500 43.50700
C  23.19100 -1.23200 43.71700
C  23.26900 -2.55100 44.38900
C  22.41400 -0.15900 44.48900
C  25.28800 -0.97300 42.02600
C  25.49600 0.37300 41.28800
H  25.14000 0.46500 39.77800
N  23.02700 -5.12100 46.04100
C  22.08700 -4.65800 45.12200
C  20.96100 -5.57000 45.12300
C  21.22900 -6.67000 46.00800
C  22.58900 -6.30000 46.61700
C  19.73000 -5.39000 44.34300
C  20.35900 -7.86200 46.24800
O  19.30500 -7.97000 45.63800
C  20.77700 -8.99600 47.08900
N  25.45300 -5.89200 47.67900
C  24.65700 -6.93900 47.97100
C  25.41000 -8.04000 48.63500
C  26.79800 -7.46000 48.97700
C  26.70500 -6.14200 48.14900
C  24.63400 -8.58600 49.85400
C  27.91400 -8.40900 48.63700
C  28.61800 -8.26000 47.24800
N  26.77500 -3.50400 46.78300
C  27.85200 -3.96300 47.53800
C  28.88300 -2.98900 47.45700
C  28.53300 -2.10600 46.39900
C  27.20000 -2.42700 46.02400
C  30.20800 -3.10900 48.14600
C  28.96200 -0.95600 45.56400
O  30.04800 -0.39100 45.56400
C  27.71200 -0.62200 44.63100
C  27.33500 0.80000 44.90200
O  27.18200 1.26200 45.98400
O  27.35100 1.49900 43.77300
C  27.22600 2.89800 43.79700
H  21.32400 -3.42700 43.75100
H  22.97500 -8.04900 47.77600
H  28.57900 -5.59700 48.81900
H  24.90800 0.08200 44.00500
H  22.56300 -1.39200 42.84100
H  22.73200 0.82500 44.14300
H  22.46700 -0.34300 45.56200
H  21.38100 -0.26400 44.15800
H  24.57500 -1.45600 41.35800
H  26.09200 -1.70700 41.96900
H  26.55300 0.62200 41.37400
H  24.90900 1.14800 41.78100
H  19.63400 -6.08600 43.50900
H  19.63100 -4.35800 44.00700
H  18.92400 -5.66100 45.02500
H  20.85500 -8.53900 48.07600
H  21.75000 -9.33600 46.73500
H  19.97900 -9.73500 47.15800
H  25.47700 -8.87000 47.93200
H  26.79100 -7.06100 49.99100
H  25.16800 -8.64800 50.80300
H  24.37600 -9.58500 49.50500
H  23.67800 -8.06400 49.88800
H  27.51600 -9.42200 48.56400
H  28.65100 -8.32700 49.43500
H  28.50900 -9.19800 46.70200
H  29.65700 -7.94300 47.32900
H  28.14700 -7.55700 46.56000
H  30.95200 -2.68700 47.47000
H  30.43100 -4.13900 48.42300
H  30.22300 -2.60900 49.11500
H  28.00100 -0.70000 43.58300
H  26.48100 3.32600 44.46800
H  26.97500 3.28100 42.80700
H  28.15600 3.38800 44.08100
Mg 34.81800 3.16500 29.72500
C  32.80500 4.63700 32.22600
C  37.20900 2.71300 32.12400
C  36.88000 2.23000 27.27700
C  32.41400 4.18000 27.38800
N  35.02500 3.70600 31.90100
C  34.00000 4.21800 32.69300
C  34.40700 4.15200 34.17700
C  35.97300 3.80000 34.13600
C  36.09300 3.30500 32.62600
C  36.92900 5.02800 34.36800
C  33.55600 3.21700 35.07900
C  33.11200 3.87100 36.45800
H  33.87200 5.10500 36.95600
N  36.73500 2.52700 29.66500
C  37.57700 2.35900 30.79900
C  38.87500 1.91600 30.39400
C  38.84600 1.83900 28.94700
C  37.44400 2.20200 28.57600
C  39.95100 1.72600 31.37200
C  39.92300 1.31400 27.96500
O  39.74400 1.34600 26.73100
C  41.21300 0.71800 28.50900
N  34.54700 2.98900 27.57700
C  35.56300 2.56900 26.74200
C  35.10100 2.68700 25.24000
C  33.72500 3.27100 25.36800
C  33.51900 3.45000 26.87300
C  36.22000 3.58900 24.55200
C  32.56800 2.54600 24.64100
C  31.87500 1.32000 25.35800
N  32.97100 4.15600 29.69800
C  32.10000 4.47800 28.64600
C  30.84400 5.00900 29.22300
C  31.06200 5.08800 30.66400
C  32.40300 4.61300 30.87000
C  29.69600 5.38000 28.40000
C  30.48600 5.38200 31.93200
O  29.32600 5.68300 32.15400
C  31.66800 5.22100 32.97300
C  31.95200 6.50500 33.64000
O  32.75500 7.35900 33.27600
O  31.12400 6.50000 34.74600
C  31.10300 7.77700 35.45200
H  37.99600 2.58200 32.87000
H  37.58000 1.99300 26.47300
H  31.69700 4.53800 26.64600
H  34.37900 5.20700 34.44700
H  36.29400 3.04100 34.85000
H  36.38100 5.77800 34.93700
H  37.14800 5.43600 33.38100
H  37.88000 4.79100 34.84400
H  34.07500 2.30000 35.36300
H  32.66400 2.77000 34.64000
H  33.07900 3.07600 37.20300
H  32.09300 4.21800 36.28700
H  40.67500 0.97100 31.06500
H  39.53100 1.36400 32.31100
H  40.45000 2.68200 31.52700
H  41.80600 0.19800 27.75700
H  41.03800 -0.06400 29.24700
H  41.79400 1.53100 28.94500
H  35.15200 1.65100 24.90700
H  33.81800 4.23300 24.86200
H  35.81700 4.39100 23.93400
H  36.78500 2.90800 23.91600
H  36.93400 4.02200 25.25300
H  32.88800 2.08200 23.70800
H  31.81400 3.29300 24.39300
H  32.68700 0.59500 25.41900
H  31.12200 0.92100 24.67800
H  31.46600 1.35200 26.36700
H  29.70900 4.83300 27.45700
H  29.79800 6.40500 28.04300
H  28.74600 5.21800 28.90800
H  31.33400 4.50100 33.72000
H  30.53100 8.54600 34.93300
H  32.12300 8.14200 35.56700
H  30.69600 7.62600 36.45200

