158

Mg 1.78000 -1.92900 44.12700
C  5.05300 -0.77500 43.74800
C  0.70600 0.91700 42.53000
C  -1.23400 -3.42500 43.80500
C  3.15400 -5.04200 45.28600
N  2.85800 -0.16000 43.20000
C  4.15500 0.10300 43.17000
C  4.44500 1.40400 42.46100
C  3.00000 2.12300 42.48700
C  2.10000 0.89100 42.78400
C  2.90300 3.24800 43.57500
C  5.03700 1.26800 40.99400
C  6.23500 2.18500 40.64500
H  7.01400 1.94900 39.35600
N  0.01300 -1.26500 43.40700
C  -0.21500 -0.08300 42.72700
C  -1.65300 0.01300 42.46100
C  -2.27400 -1.22700 42.97400
C  -1.11500 -2.06100 43.43300
C  -2.29200 1.27900 41.87000
C  -3.82000 -1.47000 42.93600
O  -4.55800 -0.68700 42.36700
C  -4.48900 -2.72400 43.51400
N  0.99500 -3.95100 44.44300
C  -0.33400 -4.23700 44.37100
C  -0.46500 -5.71300 44.81100
C  0.93000 -6.21500 45.16000
C  1.76900 -4.99900 45.02800
C  -1.54700 -5.98400 45.83000
C  1.29000 -7.43800 44.26300
C  1.41900 -8.83500 44.99500
N  3.69400 -2.77500 44.52400
C  4.06900 -4.00200 45.04400
C  5.51800 -3.96500 45.20200
C  5.93400 -2.73500 44.69400
C  4.77800 -2.04600 44.32900
C  6.31900 -5.06000 45.72200
C  7.09500 -1.91000 44.39900
O  8.25200 -2.09300 44.72700
C  6.54400 -0.57800 43.73900
C  6.88600 0.60500 44.60300
O  6.17900 0.97900 45.50200
O  8.14100 1.01800 44.36800
C  8.50300 2.34300 44.95900
H  0.28800 1.78400 42.01400
H  -2.24800 -3.81600 43.69900
H  3.59300 -5.96700 45.66500
H  5.12800 2.04400 43.02100
H  2.77600 2.47600 41.48100
H  3.88700 3.53400 43.94400
H  2.29600 2.87300 44.39900
H  2.42100 4.14800 43.19200
H  4.21700 1.34800 40.28100
H  5.44100 0.26800 40.84000
H  6.93400 2.24900 41.48000
H  5.76100 3.16700 40.65500
H  -3.34600 1.21300 41.60200
H  -1.65200 1.65700 41.07300
H  -2.24600 1.98300 42.70000
H  -4.44900 -3.41000 42.66700
H  -5.48700 -2.30100 43.63300
H  -3.89600 -3.01900 44.37900
H  -0.83800 -6.30900 43.97700
H  0.91400 -6.55300 46.19600
H  -2.02300 -6.87500 45.42200
H  -2.21400 -5.12300 45.88000
H  -1.31400 -6.13800 46.88300
H  2.23000 -7.26600 43.73900
H  0.69200 -7.53200 43.35600
H  2.46600 -9.09800 45.15000
H  0.97300 -9.56000 44.31400
H  1.01200 -8.73400 46.00100
H  5.92900 -5.61700 46.57400
H  7.24200 -4.65800 46.14000
H  6.69000 -5.69900 44.92100
H  6.98100 -0.45900 42.74800
H  7.78800 3.15500 44.82400
H  9.37500 2.86300 44.56200
H  8.79400 2.27000 46.00700
Mg 16.94900 51.60300 26.50200
C  18.73400 50.44200 29.27400
C  14.50200 52.78700 28.58900
C  15.48300 52.73800 23.73200
C  19.69600 50.45000 24.45400
N  16.65000 51.53400 28.67100
C  17.50900 51.01200 29.61000
C  17.02300 51.35600 31.01800
C  15.52400 51.74400 30.79800
C  15.46200 51.99800 29.24700
C  14.45700 50.68200 31.37800
C  17.88200 52.48300 31.65000
C  18.16900 52.23900 33.13100
H  17.16400 51.39600 33.99800
N  15.23800 52.59600 26.21600
C  14.39800 53.05800 27.17700
C  13.40900 53.87900 26.42600
C  13.55400 53.64600 25.04700
C  14.81300 52.95700 24.92900
C  12.36000 54.65000 27.13500
C  12.64300 54.12300 23.88400
O  12.94700 53.94300 22.66200
C  11.32900 54.73100 24.01300
N  17.60400 51.72500 24.40600
C  16.77200 52.21400 23.49700
C  17.46600 52.14100 22.05200
C  18.93800 51.70000 22.35300
C  18.68100 51.19600 23.78900
C  16.74900 51.16300 21.06800
C  19.99900 52.88100 22.41000
C  21.23100 52.77700 21.49100
N  18.77700 50.57400 26.72900
C  19.78400 50.22500 25.82000
C  20.85300 49.58200 26.55900
C  20.52300 49.70500 27.88700
C  19.26000 50.25800 27.97000
C  22.19900 48.99500 25.99700
C  20.92200 49.41000 29.21000
O  21.96300 48.88100 29.62000
C  19.80800 49.93700 30.19500
C  19.33400 48.74300 31.00300
O  18.85400 47.70200 30.52500
O  19.60700 48.95700 32.33700
C  19.32300 47.82100 33.12400
H  13.73000 53.24800 29.20900
H  15.09300 52.99200 22.74400
H  20.55800 50.11200 23.87600
H  17.16700 50.48400 31.65600
H  15.25500 52.68600 31.27700
H  14.90700 49.77600 31.78200
H  13.70200 50.37100 30.65600
H  13.86100 51.11200 32.18200
H  17.44100 53.47700 31.56700
H  18.87600 52.55500 31.20900
H  18.27200 53.24200 33.54500
H  19.14900 51.81200 33.33900
H  12.27900 55.62200 26.64800
H  12.50500 54.90900 28.18400
H  11.39100 54.14900 27.13300
H  10.65400 54.11100 23.42300
H  11.35900 55.73900 23.60100
H  10.79800 54.63000 24.95900
H  17.35300 53.12400 21.59300
H  19.20900 50.81300 21.78000
H  15.83500 50.78200 21.52200
H  17.36900 50.31100 20.78900
H  16.41500 51.76100 20.22100
H  20.46800 52.80500 23.39100
H  19.45000 53.82200 22.37500
H  21.39100 53.69700 20.92900
H  21.15200 51.91100 20.83400
H  22.08000 52.69300 22.17000
H  21.90200 47.97400 25.75600
H  22.83200 48.97800 26.88400
H  22.57800 49.66100 25.22200
H  20.26300 50.64600 30.88600
H  19.89400 47.80900 34.05300
H  19.45400 46.84700 32.65400
H  18.30300 47.84500 33.50800

