158

Mg -0.13400 7.42400 26.57500
C  0.92700 9.52500 29.23200
C  -0.57400 5.02900 28.82600
C  -0.95500 5.47400 24.02600
C  0.16500 10.15400 24.37500
N  0.23500 7.37400 28.76900
C  0.50400 8.33700 29.69300
C  0.45100 7.82500 31.09900
C  -0.03700 6.30500 30.89700
C  -0.14600 6.17400 29.37900
C  0.79300 5.14500 31.63000
C  -0.50500 8.62000 32.11800
C  0.09400 8.81100 33.55900
H  1.20300 7.93000 34.13300
N  -0.65500 5.47100 26.43800
C  -0.78100 4.64300 27.52600
C  -1.31500 3.34400 27.04300
C  -1.54100 3.42300 25.62400
C  -0.99000 4.77200 25.32200
C  -1.64400 2.25100 28.05200
C  -2.18300 2.42300 24.67000
O  -2.30900 2.67600 23.48900
C  -2.67200 1.08900 25.11400
N  -0.29300 7.81100 24.46700
C  -0.73800 6.81500 23.68600
C  -1.12800 7.38100 22.26400
C  -0.75600 8.88600 22.35400
C  -0.36400 8.99700 23.85400
C  -0.33800 6.64900 21.18500
C  -2.05500 9.76400 22.15000
C  -2.06600 10.72700 20.97100
N  0.54700 9.36200 26.63700
C  0.60400 10.38600 25.70100
C  1.10700 11.61000 26.27100
C  1.32100 11.28200 27.67700
C  0.93200 9.96200 27.83500
C  1.39700 12.97000 25.59400
C  1.64100 11.91300 28.96400
O  2.06200 13.03800 29.23000
C  1.37200 10.73100 30.01900
C  2.65800 10.45100 30.71200
O  3.54300 9.77800 30.19100
O  2.66000 11.06900 31.98100
C  3.89000 10.91700 32.72400
H  -0.82800 4.29200 29.59100
H  -1.17600 4.81000 23.18700
H  0.10800 11.05000 23.75400
H  1.47600 7.78400 31.46700
H  -1.03000 6.13100 31.31200
H  1.66600 5.56100 32.13200
H  1.13500 4.37000 30.94400
H  0.17100 4.69300 32.40300
H  -1.51200 8.21200 32.21200
H  -0.72400 9.63700 31.79200
H  -0.65000 8.63600 34.33700
H  0.44900 9.84100 33.58500
H  -2.68600 2.26800 28.37400
H  -1.08300 2.33400 28.98300
H  -1.36900 1.31400 27.56900
H  -1.93000 0.36500 25.45000
H  -3.20000 0.61900 24.28500
H  -3.48300 1.36000 25.79100
H  -2.20400 7.22000 22.18900
H  0.06100 9.17900 21.69500
H  -0.94100 6.02400 20.52700
H  0.49400 6.08000 21.60000
H  0.23000 7.27700 20.49800
H  -2.09000 10.46500 22.98400
H  -2.93500 9.12000 22.14500
H  -3.01400 10.45600 20.50500
H  -1.28700 10.51300 20.23900
H  -2.07500 11.79500 21.18600
H  1.28500 13.78800 26.30500
H  0.65800 13.09300 24.80300
H  2.44000 12.99700 25.27700
H  0.55000 11.09900 30.63400
H  4.13000 11.97200 32.86000
H  4.67400 10.34500 32.22800
H  3.50300 10.50800 33.65700
Mg 17.16000 52.75000 26.65300
C  19.07400 51.33700 29.16200
C  14.80400 53.63000 29.07200
C  15.41000 54.11500 24.08500
C  19.53900 51.53900 24.26700
N  16.93300 52.30400 28.84200
C  17.93500 51.94600 29.63300
C  17.65300 52.09800 31.10300
C  16.11500 52.56800 31.08900
C  15.90900 52.87900 29.56800
C  15.00500 51.51400 31.66700
C  18.60600 53.02500 31.81800
C  19.07800 52.63700 33.22100
H  18.01400 51.89600 34.02900
N  15.27600 53.65500 26.57300
C  14.53500 53.97300 27.70100
C  13.41000 54.82900 27.19600
C  13.46200 54.79800 25.72200
C  14.76100 54.18600 25.40100
C  12.32900 55.51100 28.09900
C  12.49000 55.24800 24.68700
O  12.73300 55.03800 23.48100
C  11.26800 55.89900 25.08000
N  17.38300 52.71500 24.53800
C  16.56100 53.45100 23.66400
C  17.03300 53.45700 22.17400
C  18.49900 52.87000 22.40200
C  18.41500 52.23700 23.79800
C  16.08200 52.49700 21.39000
C  19.59600 53.97800 22.23500
C  19.98900 54.72700 23.53200
N  18.88900 51.65700 26.65400
C  19.81100 51.28600 25.59600
C  20.93500 50.61300 26.22800
C  20.61400 50.49800 27.55400
C  19.35200 51.18500 27.79900
C  22.10900 50.02200 25.47800
C  21.15200 50.03700 28.85700
O  22.18100 49.45300 29.11800
C  20.22400 50.57800 29.91000
C  19.58100 49.44400 30.63900
O  18.92900 48.61000 30.14800
O  19.98800 49.41300 31.90300
C  19.51300 48.29400 32.82000
H  14.17000 54.02400 29.86900
H  14.95900 54.68100 23.26700
H  20.32100 51.10800 23.63800
H  17.62300 51.14000 31.62200
H  15.98200 53.52800 31.58700
H  14.40800 51.14400 30.83300
H  14.29700 52.03500 32.31100
H  15.48200 50.83100 32.37000
H  18.21800 54.04000 31.74000
H  19.54100 53.10800 31.26400
H  19.19200 53.54300 33.81500
H  19.97000 52.02700 33.07200
H  12.30800 55.06800 29.09400
H  11.33500 55.37800 27.67200
H  12.36000 56.60100 28.09600
H  10.66500 55.15600 25.60200
H  10.83300 56.24900 24.14300
H  11.49000 56.76700 25.70000
H  17.12000 54.50200 21.87700
H  18.76700 52.07100 21.71100
H  15.26200 52.18600 22.03800
H  16.67800 51.65800 21.03000
H  15.76500 53.10400 20.54300
H  19.29200 54.75700 21.53600
H  20.57700 53.61800 21.92400
H  19.51800 55.70800 23.47400
H  21.07000 54.86500 23.55100
H  19.81500 54.24100 24.49200
H  22.48400 50.73600 24.74400
H  21.93200 49.06400 24.99000
H  22.82900 49.87500 26.28300
H  20.70700 51.34000 30.52200
H  19.98600 47.35000 32.54900
H  18.45200 48.23500 32.57900
H  19.69700 48.62600 33.84200

