158

Mg 1.04700 7.87100 26.14400
C  1.77500 9.77900 28.88700
C  1.34000 5.02300 28.12800
C  0.44100 5.94200 23.37900
C  1.53300 10.61800 23.96400
N  1.39600 7.53000 28.25500
C  1.61400 8.41800 29.24400
C  1.75800 7.79900 30.62400
C  2.02200 6.30400 30.26700
C  1.57900 6.27700 28.78200
C  3.38300 5.63500 30.68200
C  0.44200 8.06800 31.42700
C  0.61000 8.18200 32.91900
H  1.68300 7.40800 33.65500
N  0.75200 5.78300 25.82800
C  0.91600 4.79500 26.76600
C  0.52600 3.55800 26.17300
C  0.25900 3.76800 24.74000
C  0.49200 5.23300 24.63300
C  0.46800 2.27200 27.00800
C  -0.16800 2.73800 23.65200
O  -0.50900 3.12600 22.54800
C  -0.21600 1.29000 23.91400
N  0.92100 8.23600 23.94600
C  0.65900 7.25700 23.02500
C  0.59300 7.87000 21.61800
C  0.63100 9.37200 21.89800
C  1.00000 9.48600 23.37600
C  1.79500 7.45900 20.70400
C  -0.68300 10.13300 21.57800
C  -1.03700 10.47000 20.15400
N  1.57300 9.79400 26.34000
C  1.80200 10.78300 25.30300
C  1.89700 12.04600 26.09900
C  1.96300 11.76400 27.43500
C  1.77100 10.34800 27.58900
C  1.96300 13.47000 25.57400
C  2.11300 12.30400 28.77100
O  2.25100 13.44200 29.21000
C  1.98300 11.02500 29.76500
C  3.10900 10.92200 30.82500
O  4.22900 10.42500 30.78500
O  2.62200 11.57200 31.92300
C  3.46800 11.57200 33.12500
H  1.32900 4.15700 28.79400
H  0.13800 5.39700 22.48200
H  1.52500 11.49100 23.30900
H  2.61700 8.28800 31.08200
H  1.30600 5.78100 30.90100
H  4.09700 5.47000 29.87600
H  3.10300 4.69900 31.16600
H  3.91900 6.26000 31.39600
H  -0.30100 7.37800 31.02700
H  0.02400 9.02900 31.12700
H  -0.37000 8.10600 33.39100
H  0.78400 9.23500 33.14000
H  -0.02500 1.44400 26.49900
H  -0.20400 2.40500 27.85600
H  1.39900 2.00100 27.50600
H  -0.98300 1.09800 24.66400
H  0.69700 0.87600 24.34300
H  -0.52400 0.75900 23.01300
H  -0.35900 7.55000 21.19600
H  1.43700 9.93700 21.42900
H  2.19100 6.49700 21.02800
H  2.61700 8.17100 20.78300
H  1.50200 7.55700 19.65900
H  -0.65100 11.02800 22.20000
H  -1.53300 9.61000 22.01500
H  -0.14500 10.20900 19.58500
H  -1.12600 11.55000 20.03300
H  -1.87400 9.89500 19.75800
H  1.55500 14.12700 26.34200
H  1.31100 13.39300 24.70400
H  2.97000 13.71600 25.23500
H  1.03200 11.27400 30.23600
H  4.45400 12.01700 32.99300
H  3.55600 10.53400 33.44400
H  2.90900 12.19700 33.82100
Mg 47.09500 34.86800 28.28700
C  45.27200 32.94500 30.56300
C  47.43700 37.27800 30.73600
C  48.41300 37.05500 25.97200
C  46.20300 32.69100 25.70700
N  46.49400 34.95900 30.45100
C  45.75600 34.09100 31.17100
C  45.83300 34.60400 32.62300
C  46.02900 36.17100 32.46700
C  46.68400 36.16700 31.13600
C  44.63000 36.93600 32.46000
C  47.12400 34.02400 33.37500
C  47.01300 34.02300 34.94900
H  46.07600 35.03900 35.63400
N  47.91100 36.86100 28.32700
C  47.97400 37.68400 29.44400
C  48.76700 38.83300 29.12600
C  49.05000 38.79500 27.75100
C  48.52900 37.49400 27.26400
C  49.10600 39.89300 30.09900
C  49.70000 39.83500 26.91100
O  50.03300 39.57700 25.75600
C  50.06900 41.22200 27.35200
N  47.20700 34.86300 26.19100
C  47.76100 35.90000 25.48200
C  47.57200 35.71500 24.06200
C  47.05500 34.23500 23.90700
C  46.83500 33.87100 25.38400
C  46.60100 36.83800 23.48000
C  48.00200 33.23400 23.14600
C  49.32200 33.00300 23.80800
N  46.10100 33.11900 28.15300
C  45.83600 32.32900 27.03100
C  44.99000 31.23300 27.47800
C  44.75300 31.42600 28.86800
C  45.44300 32.63000 29.20300
C  44.31100 30.12000 26.63000
C  44.08800 30.94300 30.04000
O  43.31500 29.99000 30.26600
C  44.27100 31.96100 31.11500
C  44.37900 31.51100 32.53400
O  45.09500 30.60600 32.88900
O  43.35800 32.05100 33.27000
C  43.08200 31.63200 34.58100
H  47.55200 37.97600 31.56800
H  48.94500 37.65100 25.22700
H  45.93400 32.05400 24.86300
H  44.91900 34.26900 33.11300
H  46.77300 36.50800 33.18900
H  44.58700 37.51900 31.54100
H  44.71400 37.62600 33.30000
H  43.86500 36.16300 32.54100
H  47.98800 34.66100 33.18300
H  47.30900 33.01200 33.01500
H  48.01800 34.27400 35.28600
H  46.84700 33.02900 35.36400
H  48.36700 40.69300 30.06300
H  50.07800 40.35700 29.93500
H  49.15400 39.51600 31.12100
H  49.32200 41.60000 28.05000
H  50.18200 42.03300 26.63200
H  51.00500 41.17100 27.90700
H  48.47000 35.89600 23.47100
H  46.04600 34.18300 23.49800
H  46.24200 37.42400 24.32600
H  45.64500 36.52000 23.06500
H  47.02300 37.54300 22.76400
H  48.21700 33.62700 22.15200
H  47.45200 32.29600 23.08100
H  49.67500 33.85200 24.39400
H  50.06400 32.88700 23.01800
H  49.27200 32.14700 24.48100
H  43.38300 30.57900 26.28800
H  44.05500 29.25100 27.23600
H  44.94800 29.95500 25.76000
H  43.27100 32.39200 31.12900
H  43.63000 30.73600 34.87600
H  42.03700 31.50100 34.86300
H  43.29000 32.45000 35.27000

