158

Mg 16.98300 -1.14700 27.69100
C  15.98300 0.63000 30.39700
C  19.09700 -3.21700 29.92700
C  18.62500 -2.49900 25.14600
C  15.35500 1.09700 25.70900
N  17.42100 -1.41500 29.96700
C  16.80600 -0.46500 30.81700
C  17.24900 -0.76700 32.24100
C  18.44800 -1.69000 32.07700
C  18.34200 -2.19600 30.57800
C  19.83800 -1.02900 32.28000
C  16.08700 -1.21900 33.21300
C  16.06100 -0.65900 34.67900
H  17.33900 -0.21900 35.42400
N  18.54600 -2.62000 27.52500
C  19.18700 -3.38000 28.50600
C  19.93500 -4.38900 27.92400
C  19.70600 -4.36300 26.48600
C  18.98700 -3.11000 26.32500
C  20.66100 -5.46600 28.70700
C  20.08500 -5.27000 25.42900
O  19.87200 -5.02800 24.21600
C  20.71600 -6.63000 25.70600
N  16.88400 -0.90600 25.69100
C  17.63200 -1.55100 24.79800
C  17.60200 -0.95500 23.43000
C  16.44600 0.14400 23.56200
C  16.12800 0.12700 25.11400
C  18.95700 -0.43500 22.85300
C  15.20300 -0.13400 22.71700
C  15.11700 0.70700 21.37600
N  15.72000 0.49500 27.92200
C  15.30400 1.38200 27.03200
C  14.71000 2.50300 27.72800
C  14.92500 2.23300 29.04700
C  15.56600 0.97900 29.11500
C  14.07800 3.57600 27.09400
C  14.61100 2.66200 30.36400
O  13.90500 3.61100 30.67800
C  15.37300 1.67000 31.33300
C  16.35500 2.50800 32.02200
O  17.50500 2.68100 31.65200
O  15.86700 2.85500 33.28600
C  16.61700 3.87600 34.00200
H  19.83800 -3.73100 30.54300
H  19.01500 -2.82700 24.18000
H  15.03900 1.93200 25.08100
H  17.61600 0.19100 32.60900
H  18.42200 -2.60100 32.67500
H  20.51800 -1.69700 32.80900
H  19.79500 -0.15100 32.92400
H  20.23300 -0.70200 31.31800
H  16.06200 -2.30800 33.19100
H  15.22100 -0.77600 32.72100
H  15.67300 -1.51300 35.23500
H  15.38700 0.19600 34.73200
H  21.68900 -5.33100 28.37000
H  20.46100 -6.52600 28.54800
H  20.83600 -5.35300 29.77700
H  21.53200 -6.30500 26.35100
H  21.05900 -7.07300 24.77100
H  19.96600 -7.22100 26.23100
H  17.33200 -1.77000 22.75900
H  16.81600 1.15000 23.36300
H  19.64800 -0.41000 23.69600
H  18.88800 0.59200 22.49300
H  19.41300 -1.01000 22.04600
H  14.29800 0.01400 23.30500
H  15.16000 -1.13500 22.28700
H  16.06700 1.17500 21.11700
H  14.40900 1.53500 21.40600
H  14.89800 -0.00900 20.58400
H  13.66500 4.29200 27.80500
H  13.23700 3.08500 26.60400
H  14.69200 4.02600 26.31400
H  14.68600 1.30600 32.09800
H  16.02400 4.51100 34.66100
H  17.17300 4.62100 33.43200
H  17.40300 3.31500 34.50800
Mg 47.83400 24.49300 28.21000
C  48.76500 26.91000 30.55400
C  47.46900 22.18900 30.78700
C  47.03800 22.18500 25.89100
C  48.80500 26.70600 25.66800
N  48.10400 24.52800 30.36700
C  48.35000 25.65700 31.11400
C  48.01900 25.45200 32.58700
C  47.88500 23.89600 32.72700
C  47.78300 23.44300 31.23300
C  48.91700 23.19900 33.56000
C  46.75900 26.29900 32.91400
C  46.84300 27.26300 34.12500
H  45.80800 27.14500 35.25500
N  47.27600 22.47500 28.29900
C  47.18200 21.72600 29.46200
C  46.75200 20.38500 29.11200
C  46.60400 20.36700 27.66200
C  46.98600 21.70800 27.22600
C  46.56000 19.23100 30.04200
C  46.07000 19.23100 26.73300
O  45.80000 19.46100 25.58300
C  45.65800 17.97000 27.32600
N  47.87300 24.44700 26.04200
C  47.42000 23.40100 25.34900
C  47.39300 23.75700 23.78900
C  47.77400 25.29300 23.81600
C  48.21000 25.52600 25.28000
C  48.29700 22.93100 22.92100
C  46.66600 26.20000 23.23100
C  45.47000 26.45500 24.20900
N  48.67000 26.40900 28.08800
C  48.95900 27.16100 27.00900
C  49.41000 28.48200 27.46400
C  49.28600 28.48700 28.85600
C  48.87600 27.16500 29.16800
C  50.06800 29.57400 26.68000
C  49.50000 29.20800 30.08000
O  49.82800 30.33900 30.25000
C  49.12100 28.21600 31.26200
C  50.24700 28.10600 32.14100
O  51.13100 27.18600 32.13300
O  50.16300 29.05500 33.11000
C  51.05500 28.79200 34.30400
H  47.47300 21.51800 31.64800
H  46.69500 21.59300 25.04000
H  49.03000 27.55400 25.01800
H  48.82800 25.92500 33.14400
H  46.94300 23.66500 33.22500
H  49.58200 23.90900 34.05200
H  49.47700 22.61600 32.82800
H  48.54600 22.51900 34.32700
H  45.93500 25.58700 32.88000
H  46.57500 27.00100 32.10100
H  46.77800 28.28000 33.73900
H  47.78100 27.09300 34.65400
H  47.03400 19.47300 30.99400
H  47.11200 18.37900 29.64600
H  45.52700 18.92200 30.19900
H  44.96800 18.23000 28.12900
H  46.49100 17.32200 27.60100
H  45.09700 17.42100 26.57000
H  46.38500 23.52500 23.44600
H  48.67300 25.52500 23.24500
H  47.89600 21.94400 22.68700
H  49.36800 22.99900 23.11000
H  48.15500 23.44300 21.97000
H  46.33800 25.93700 22.22600
H  47.16800 27.16800 23.20900
H  44.63500 25.94500 23.72900
H  45.28400 27.52100 24.34300
H  45.70000 26.12000 25.22000
H  49.82600 30.55600 27.08600
H  49.67000 29.50700 25.66700
H  51.15800 29.54900 26.69500
H  48.31900 28.65300 31.85600
H  50.42400 28.20100 34.96800
H  51.39000 29.75400 34.69100
H  51.93700 28.18100 34.10900

