158

Mg -1.21900 18.32700 28.03700
C  -1.87000 16.02800 30.48700
C  -1.87200 20.82200 30.21700
C  -0.75300 20.41500 25.42400
C  -1.16300 15.51600 25.66600
N  -1.73100 18.34800 30.21200
C  -1.69500 17.38000 31.02200
C  -1.88900 17.88000 32.54800
C  -2.25500 19.39600 32.36100
C  -2.02700 19.56500 30.84100
C  -3.60100 19.83300 32.95300
C  -0.63800 17.56900 33.43800
C  -0.92200 16.90600 34.86100
H  0.21200 16.79300 35.84800
N  -1.28300 20.30800 27.87300
C  -1.47900 21.17000 28.90600
C  -1.39400 22.50800 28.34800
C  -1.02200 22.41400 26.99300
C  -0.99800 21.01800 26.70600
C  -1.67600 23.78100 29.22300
C  -0.82400 23.54100 26.05600
O  -0.82600 23.33200 24.83700
C  -0.73700 24.89700 26.52500
N  -0.90600 18.01000 25.87100
C  -0.78100 19.06400 25.05400
C  -0.56800 18.69600 23.61200
C  -0.38400 17.13200 23.73600
C  -0.82500 16.80600 25.11200
C  -1.64300 19.11900 22.57100
C  1.06100 16.61800 23.50900
C  2.17100 16.97900 24.45200
N  -1.42000 16.19400 28.00200
C  -1.46000 15.20600 27.03800
C  -1.70100 13.99500 27.59600
C  -1.82000 14.18900 28.96400
C  -1.70700 15.60300 29.18300
C  -1.83400 12.74700 26.85300
C  -2.00400 13.59800 30.31100
O  -2.18900 12.43700 30.60600
C  -1.95900 14.77300 31.32900
C  -0.78600 14.49100 32.06600
O  0.41600 14.74300 31.76600
O  -1.12200 13.90800 33.30800
C  0.05400 13.44200 34.02800
H  -2.04000 21.63600 30.92500
H  -0.55200 21.10200 24.59900
H  -1.04800 14.72100 24.92700
H  -2.77200 17.35900 32.92000
H  -1.56500 19.99800 32.95100
H  -4.06000 19.00400 33.49300
H  -4.29300 20.18300 32.18800
H  -3.46000 20.64900 33.66200
H  -0.05500 18.46200 33.66600
H  0.05700 16.90400 32.92500
H  -1.46700 15.97600 34.69700
H  -1.66400 17.57300 35.30100
H  -0.75100 24.29100 29.49300
H  -2.21300 23.50500 30.13100
H  -2.26000 24.55700 28.72700
H  -0.17700 24.88600 27.46000
H  -1.67100 25.43600 26.68400
H  -0.26300 25.58700 25.82700
H  0.40800 19.07600 23.30800
H  -0.93900 16.57300 22.98200
H  -2.40900 19.62300 23.16100
H  -2.10000 18.22900 22.13700
H  -1.18100 19.83900 21.89600
H  1.52700 17.01500 22.60800
H  1.17300 15.56900 23.23500
H  2.68800 17.90200 24.18600
H  2.79000 16.09300 24.31300
H  1.86700 17.03800 25.49700
H  -2.81600 12.32400 27.06400
H  -1.16700 11.98400 27.25200
H  -1.77500 12.77500 25.76500
H  -2.82900 14.73100 31.98400
H  0.12000 12.37300 34.22900
H  -0.02800 14.01900 34.94900
H  1.02600 13.77900 33.66700
Mg -2.24500 35.38100 27.31900
C  -4.06800 33.45700 29.54200
C  -1.32000 37.45000 29.86500
C  -0.57800 37.13200 25.10500
C  -3.45100 33.24700 24.72200
N  -2.71000 35.49800 29.36400
C  -3.31700 34.55100 30.13000
C  -3.17300 34.75400 31.59900
C  -2.60800 36.11500 31.69000
C  -2.16600 36.38200 30.27400
C  -3.64400 37.15600 32.29200
C  -2.55200 33.60400 32.43200
C  -3.27100 33.04900 33.60900
H  -2.48800 32.51600 34.82000
N  -1.20500 37.09500 27.46400
C  -0.87000 37.78200 28.57300
C  -0.02200 38.93500 28.27900
C  0.21200 38.86800 26.88200
C  -0.52600 37.65700 26.42100
C  0.30300 40.01400 29.28900
C  1.01900 39.75400 26.04100
O  1.13500 39.56700 24.81000
C  1.74300 40.95200 26.68500
N  -2.02300 35.26700 25.27300
C  -1.20900 36.02700 24.55500
C  -1.15000 35.68400 23.03900
C  -2.05300 34.44700 23.00300
C  -2.54900 34.23100 24.44600
C  -1.62500 36.79000 22.02700
C  -1.28200 33.13100 22.46500
C  -1.76200 32.55100 21.09500
N  -3.64600 33.84900 27.08600
C  -3.97300 33.01300 26.02500
C  -4.92500 31.98300 26.41200
C  -4.91800 32.05800 27.78100
C  -4.19000 33.22500 28.18500
C  -5.56100 30.93200 25.55200
C  -5.32500 31.41900 28.94800
O  -5.91300 30.36100 29.10500
C  -4.88200 32.33400 30.20200
C  -6.20200 32.83600 30.89500
O  -7.11600 33.45100 30.24000
O  -6.27600 32.60600 32.18500
C  -7.46200 32.91700 32.88200
H  -0.99600 37.92900 30.79200
H  -0.12700 37.72800 24.30900
H  -3.77300 32.46400 24.03200
H  -4.21600 34.81900 31.90900
H  -1.67600 36.07500 32.25300
H  -3.23300 38.16200 32.37800
H  -3.89700 36.98400 33.33800
H  -4.59000 37.06400 31.75800
H  -1.63400 33.98400 32.88100
H  -2.31000 32.79200 31.74700
H  -3.73400 32.12400 33.26400
H  -4.08400 33.68700 33.95600
H  0.03100 39.85700 30.33200
H  -0.11200 40.94000 28.88900
H  1.39000 40.08900 29.30100
H  2.78600 40.73300 26.91400
H  1.34300 41.39400 27.59800
H  1.58700 41.70100 25.90900
H  -0.13300 35.35000 22.83100
H  -2.97700 34.56700 22.43600
H  -1.12100 36.49100 21.10800
H  -1.57100 37.82100 22.37700
H  -2.68600 36.62100 21.84400
H  -1.34600 32.39200 23.26400
H  -0.21700 33.27000 22.28100
H  -0.79200 32.38500 20.62700
H  -2.45800 33.23400 20.60700
H  -2.30300 31.64200 21.35500
H  -6.43300 30.48500 26.03000
H  -4.88100 30.15900 25.19500
H  -5.88300 31.29700 24.57700
H  -4.23000 31.76500 30.86400
H  -7.15500 33.60400 33.67100
H  -7.88200 31.99400 33.28100
H  -8.28300 33.37700 32.33200

