158

Mg 0.80100 7.48600 25.11100
C  1.24800 8.69200 28.38100
C  1.39500 4.25900 26.38900
C  0.67500 6.04800 21.94400
C  0.99800 10.60000 23.82300
N  1.26000 6.57500 27.10700
C  1.26500 7.28800 28.32200
C  1.52800 6.28200 29.47400
C  1.70200 4.94100 28.77400
C  1.54300 5.26000 27.33300
C  3.10400 4.26400 28.98400
C  0.46900 6.32900 30.58300
C  1.01300 6.32600 31.96400
H  2.07200 5.31500 32.37800
N  0.84900 5.49200 24.29200
C  1.04500 4.34700 24.99000
C  0.91400 3.20200 24.14400
C  0.66000 3.72300 22.86400
C  0.72500 5.17400 23.00600
C  0.84100 1.82700 24.61600
C  0.46000 2.88400 21.61500
O  0.29100 3.32300 20.46200
C  0.37300 1.31600 21.52900
N  0.93500 8.17500 23.15500
C  0.65800 7.47600 22.07200
C  0.31500 8.40700 20.86700
C  0.43400 9.78800 21.51600
C  0.80900 9.52100 22.90600
C  1.29700 8.17400 19.63300
C  -0.90600 10.62900 21.49300
C  -0.91300 11.96500 20.69800
N  1.16700 9.25800 25.88700
C  1.23700 10.51100 25.24000
C  1.43300 11.50600 26.21400
C  1.41400 10.87400 27.49400
C  1.23000 9.51800 27.22000
C  1.52000 13.02100 25.90700
C  1.41700 11.09000 28.91100
O  1.58500 12.09300 29.67700
C  1.34400 9.62900 29.48900
C  2.59600 9.47700 30.29000
O  3.61700 8.97300 29.93400
O  2.42300 9.99400 31.58700
C  3.56100 9.82200 32.52600
H  1.63300 3.23300 26.67500
H  0.58900 5.63000 20.93900
H  0.84800 11.58300 23.37000
H  2.47500 6.63100 29.88700
H  0.97800 4.21700 29.14800
H  3.57800 4.83900 29.77900
H  3.82200 4.38600 28.17300
H  3.07600 3.24000 29.35700
H  -0.18300 5.45700 30.53400
H  -0.11800 7.24500 30.51500
H  0.23100 6.24900 32.72000
H  1.35400 7.34600 32.13700
H  -0.09200 1.35800 24.30500
H  0.94100 1.61900 25.68100
H  1.70100 1.30300 24.19800
H  1.05500 0.77400 22.18400
H  0.47200 0.96600 20.50100
H  -0.65200 1.19400 21.87800
H  -0.67800 8.12200 20.52200
H  1.24900 10.32700 21.03100
H  2.09100 7.43600 19.74500
H  1.67600 9.14900 19.32500
H  0.73200 7.93100 18.73300
H  -1.11600 10.84500 22.54000
H  -1.70500 9.96500 21.16500
H  -1.38600 11.94600 19.71600
H  0.12800 12.25600 20.56100
H  -1.37900 12.73900 21.30700
H  1.25000 13.71000 26.70700
H  0.73000 13.17600 25.17200
H  2.48100 13.35700 25.51800
H  0.54200 9.58600 30.22600
H  3.50300 10.51700 33.36300
H  4.52100 9.94900 32.02500
H  3.54000 8.83600 32.99100
Mg 0.72800 42.97100 26.44400
C  3.13000 42.45600 28.85600
C  -1.58000 41.78600 28.59000
C  -1.37800 42.71500 23.84700
C  3.38900 43.20200 23.97800
N  0.74800 42.51000 28.55300
C  1.83200 42.37900 29.39400
C  1.40900 42.20000 30.91100
C  -0.16100 41.81200 30.77600
C  -0.34100 41.97600 29.21500
C  -0.48500 40.29600 31.23700
C  1.66200 43.52600 31.64600
C  1.86700 43.52000 33.20200
H  1.45000 42.33000 34.07300
N  -1.32600 42.61900 26.32500
C  -2.09900 42.05900 27.29800
C  -3.42100 41.84900 26.75900
C  -3.40400 42.17700 25.38000
C  -1.97700 42.55500 25.12500
C  -4.58900 41.37300 27.56600
C  -4.50900 42.24500 24.33800
O  -4.31400 42.59700 23.17000
C  -5.90700 41.84200 24.72700
N  0.97800 42.80200 24.16900
C  -0.09600 42.90800 23.39300
C  0.28400 43.07700 21.87900
C  1.78300 43.52700 22.04200
C  2.06500 43.13500 23.50400
C  0.03000 41.85000 21.04100
C  2.16500 45.04200 21.68500
C  2.47400 46.01800 22.77600
N  2.78600 42.93700 26.35800
C  3.74000 43.06200 25.35700
C  5.04300 43.16100 25.89400
C  4.87200 42.85900 27.26700
C  3.48000 42.81600 27.49700
C  6.31000 43.45500 25.13500
C  5.55600 42.65700 28.52600
O  6.75900 42.68300 28.76600
C  4.39600 42.56300 29.62200
C  4.73200 41.41400 30.54700
O  4.78800 40.22500 30.31400
O  5.02300 42.00900 31.79000
C  5.19600 41.09300 32.94200
H  -2.43300 41.41700 29.16400
H  -2.06200 42.80800 23.00000
H  4.25300 43.33900 23.32400
H  2.04000 41.49200 31.44800
H  -0.85300 42.46700 31.30500
H  0.34900 39.83900 31.76900
H  -0.81100 39.74700 30.35300
H  -1.30400 40.50400 31.92600
H  0.79200 44.15800 31.46700
H  2.44600 44.07300 31.12300
H  1.45400 44.42400 33.64900
H  2.94900 43.54600 33.32700
H  -5.27400 42.20300 27.73400
H  -4.28200 41.03500 28.55600
H  -5.13000 40.56700 27.06900
H  -5.98600 40.78600 24.98700
H  -6.46900 42.09400 23.82800
H  -6.19800 42.50600 25.54100
H  -0.39100 43.85000 21.51100
H  2.40200 42.88900 21.41200
H  0.36000 41.09700 21.75600
H  0.65400 41.87400 20.14800
H  -0.99800 41.55600 20.83400
H  1.38100 45.53300 21.10800
H  3.01900 44.98900 21.01000
H  3.46100 46.47000 22.69100
H  2.47800 45.67300 23.81000
H  1.72500 46.80500 22.69300
H  6.58700 44.50900 25.09700
H  6.07500 43.10900 24.12800
H  7.13400 42.90300 25.58700
H  4.32400 43.54200 30.09700
H  6.24500 40.93700 33.19600
H  4.69900 40.13200 32.80300
H  4.86600 41.55900 33.87000

