158

Mg 41.70500 42.28800 27.51100
C  40.67900 44.73500 29.87900
C  42.05500 39.96000 29.93700
C  42.90800 40.32500 25.27800
C  41.63800 45.00600 25.17400
N  41.52200 42.39900 29.66900
C  40.93800 43.44700 30.36400
C  40.70900 42.93100 31.80600
C  41.23700 41.49800 31.86400
C  41.69900 41.28000 30.39800
C  42.29800 41.18200 32.89300
C  39.19800 43.07700 32.39800
C  38.78200 42.29600 33.66800
H  38.20000 43.05100 34.81600
N  42.38000 40.36400 27.60300
C  42.50100 39.48200 28.74500
C  42.93400 38.21600 28.29400
C  43.18100 38.29700 26.88700
C  42.86500 39.68100 26.52600
C  43.15600 37.09300 29.18500
C  43.77800 37.31600 25.91400
O  44.30000 37.60300 24.81500
C  43.89900 35.91000 26.26200
N  42.39000 42.71200 25.65100
C  42.60600 41.56600 24.91400
C  42.84200 42.00500 23.44200
C  42.23200 43.35700 23.37900
C  41.99400 43.70300 24.80900
C  44.26700 41.84000 22.94800
C  40.90000 43.48200 22.45700
C  39.83100 42.45800 22.66400
N  41.25800 44.48600 27.46900
C  41.24400 45.36100 26.47900
C  40.68600 46.62500 26.93300
C  40.47200 46.42500 28.23300
C  40.86800 45.11200 28.53800
C  40.21700 47.67000 25.97900
C  40.02400 47.13700 29.41400
O  39.62000 48.30000 29.51100
C  40.08100 46.01600 30.59900
C  40.88500 46.51100 31.64400
O  41.96500 46.99100 31.40700
O  40.25400 46.47600 32.91800
C  40.97600 46.72800 34.10900
H  42.03200 39.34900 30.84100
H  43.43000 39.82600 24.45800
H  41.53500 45.78700 24.41800
H  41.19800 43.58900 32.52500
H  40.38200 40.83500 31.99800
H  43.20600 40.68900 32.54400
H  42.12500 40.43100 33.66400
H  42.66000 42.09100 33.37400
H  38.50400 42.86200 31.58600
H  39.11200 44.10400 32.75400
H  39.61500 41.72700 34.08100
H  38.03700 41.55400 33.37700
H  43.21000 37.37300 30.23700
H  44.17800 36.75200 29.01900
H  42.36700 36.38100 28.94100
H  42.84600 35.63100 26.27100
H  44.45600 35.89400 27.19900
H  44.42900 35.27800 25.55000
H  42.33100 41.30200 22.78400
H  43.00800 44.02400 23.00200
H  44.21800 41.41600 21.94500
H  44.95000 41.26000 23.56800
H  44.66200 42.82400 22.69400
H  41.10600 43.45500 21.38700
H  40.27800 44.36500 22.60600
H  39.12900 42.89800 23.37200
H  40.19000 41.50500 23.05200
H  39.27200 42.31000 21.74000
H  39.59800 48.38700 26.51900
H  39.61700 47.21000 25.19300
H  41.10800 48.12700 25.54900
H  39.08600 45.97800 31.04200
H  41.49500 45.80900 34.37900
H  40.29900 47.17200 34.83800
H  41.71500 47.49900 33.89000
Mg 6.95500 57.12700 42.11300
C  6.12000 53.65300 42.30600
C  10.09500 56.11400 41.12700
C  7.60400 60.24900 41.64900
C  3.65400 57.77400 43.30300
N  7.99900 55.09400 41.72000
C  7.38700 53.85900 41.78600
C  8.42800 52.77000 41.41200
C  9.69500 53.47600 41.56900
C  9.30700 54.96700 41.49800
C  10.38500 53.23000 43.00300
C  8.40400 52.18500 39.97300
C  8.14900 53.15700 38.81800
H  7.07000 52.88000 37.67200
N  8.63500 58.10200 41.38600
C  9.83000 57.48000 40.97100
C  10.68100 58.50400 40.45100
C  10.03000 59.76600 40.57000
C  8.69600 59.41900 41.22800
C  12.02900 58.24300 39.77800
C  10.45600 61.11400 40.14200
O  11.60800 61.36700 39.81100
C  9.57300 62.26700 40.21900
N  5.75700 58.77200 42.29300
C  6.33100 59.96900 42.17700
C  5.43400 61.08100 42.68800
C  4.18900 60.29300 43.32600
C  4.57500 58.79300 43.01900
C  6.04800 62.01300 43.83900
C  2.81900 60.57400 42.59100
C  1.70200 60.77100 43.66200
N  5.18100 56.04000 42.57300
C  3.95200 56.38900 43.06800
C  3.12800 55.24800 43.50900
C  3.92400 54.12400 43.14000
C  5.14100 54.62200 42.64300
C  1.84800 55.25200 44.21100
C  3.87200 52.78800 43.07400
O  3.00300 51.97900 43.32300
C  5.35000 52.31800 42.46800
C  5.05700 51.64400 41.15600
O  5.24000 52.14400 40.08500
O  4.73900 50.34200 41.33300
C  4.88700 49.40100 40.19600
H  11.07600 55.77000 40.79300
H  7.70200 61.33600 41.62500
H  2.75000 58.00000 43.87100
H  8.29400 51.95100 42.11800
H  10.45600 53.35900 40.79800
H  11.35400 52.73700 42.93400
H  9.76200 52.61700 43.65500
H  10.47400 54.20800 43.47800
H  7.69100 51.36100 39.93600
H  9.37400 51.78800 39.67500
H  9.07700 53.29800 38.26300
H  7.85700 54.10900 39.26000
H  12.17800 58.70100 38.80000
H  12.15500 57.17100 39.62100
H  12.80500 58.44300 40.51700
H  9.34400 62.64600 41.21500
H  8.62000 62.04900 39.73600
H  10.06100 63.07600 39.67500
H  5.16300 61.58200 41.75800
H  4.18800 60.31900 44.41600
H  5.56500 61.96500 44.81500
H  5.91900 63.02200 43.44800
H  7.10900 61.77300 43.90500
H  2.53800 59.88500 41.79500
H  2.86700 61.50000 42.01800
H  1.97200 60.54300 44.69300
H  0.88900 60.10800 43.36700
H  1.41000 61.82100 43.63700
H  1.58400 56.21300 44.65100
H  1.68600 54.45700 44.93800
H  1.08000 55.08900 43.45400
H  5.82600 51.69700 43.22700
H  4.14700 49.59600 39.42000
H  4.73200 48.35800 40.47200
H  5.89800 49.51100 39.80300

