158

Mg 27.15300 50.01400 26.11000
C  24.95800 51.36300 28.47500
C  29.28100 49.19300 28.54400
C  29.34300 49.26000 23.65500
C  24.91900 51.30500 23.63600
N  27.26400 50.44100 28.25000
C  26.13600 50.83600 28.99200
C  26.30500 50.43500 30.51100
C  27.78700 49.91700 30.49700
C  28.10300 49.74500 29.02400
C  28.90500 50.67800 31.29700
C  25.25400 49.26100 30.91600
C  24.31000 49.67100 32.06000
H  24.32300 48.84800 33.37400
N  29.06400 49.37100 26.10300
C  29.81300 49.01600 27.23400
C  31.11200 48.47900 26.80700
C  31.19600 48.69200 25.41700
C  29.81100 49.17500 25.01000
C  32.12500 47.99400 27.75700
C  32.30400 48.50000 24.46200
O  32.29900 48.92900 23.30200
C  33.57300 47.83000 25.04300
N  27.20800 50.44400 23.94900
C  28.14300 49.82400 23.17700
C  27.90100 49.98000 21.67900
C  26.42300 50.34300 21.68500
C  26.16900 50.79300 23.17700
C  28.75200 50.91300 20.85200
C  25.33300 49.26000 21.12800
C  24.59900 48.42700 22.19700
N  25.29500 51.07200 26.00200
C  24.54600 51.56200 24.94400
C  23.39300 52.34300 25.44400
C  23.48500 52.17500 26.82500
C  24.66100 51.44700 27.08700
C  22.45400 53.18600 24.66000
C  22.90500 52.56900 28.11600
O  21.92300 53.31000 28.34700
C  23.81200 51.91000 29.24200
C  24.27700 53.03400 30.05700
O  25.17500 53.92600 29.77500
O  23.43900 53.13700 31.13600
C  23.86400 54.18800 32.10700
H  29.90400 48.65300 29.26000
H  30.00800 48.98400 22.83400
H  24.29900 51.61900 22.79400
H  26.13800 51.23100 31.23700
H  27.85500 48.90400 30.89400
H  28.59600 51.69500 31.53700
H  29.78500 50.89100 30.69000
H  29.12700 50.04800 32.15900
H  25.85700 48.40700 31.22600
H  24.78000 48.77800 30.06200
H  23.32200 49.52000 31.62500
H  24.26900 50.75600 32.15800
H  33.04000 48.55500 27.56900
H  32.16300 46.91800 27.58300
H  31.78100 48.16100 28.77800
H  34.06500 48.57000 25.67400
H  34.28400 47.59200 24.25200
H  33.34400 46.93500 25.62100
H  28.00800 48.95800 21.31500
H  26.21900 51.21300 21.06100
H  28.25100 51.82700 20.53500
H  29.31100 50.49600 20.01300
H  29.51400 51.11600 21.60500
H  25.85500 48.56500 20.47000
H  24.62700 49.81600 20.51000
H  25.00400 48.36700 23.20700
H  24.58400 47.37800 21.90200
H  23.54500 48.70400 22.23100
H  22.45700 54.23300 24.96100
H  21.45400 52.78700 24.83600
H  22.66600 53.15700 23.59200
H  23.36400 51.11200 29.83200
H  24.89800 54.06400 32.43100
H  23.25500 54.21200 33.01000
H  23.70700 55.13200 31.58500
Mg -4.89400 25.66400 25.42300
C  -3.39800 27.23600 28.38500
C  -6.29800 23.31000 27.64800
C  -5.95800 23.89200 22.88900
C  -2.90300 27.61400 23.55500
N  -4.93700 25.43000 27.76100
C  -4.35400 26.18200 28.75900
C  -4.74400 25.59200 30.19900
C  -5.74700 24.47200 29.83700
C  -5.56200 24.32900 28.30500
C  -5.36500 23.08600 30.45000
C  -5.23600 26.70100 31.16800
C  -6.31400 26.31000 32.24500
H  -5.95400 25.11000 33.12900
N  -6.15700 23.99400 25.31000
C  -6.56900 23.16300 26.26800
C  -7.45400 22.13500 25.77000
C  -7.40500 22.31100 24.41900
C  -6.49700 23.41900 24.09600
C  -8.16300 21.08500 26.66900
C  -8.15500 21.52700 23.27700
O  -7.99700 21.76000 22.06400
C  -9.12200 20.35900 23.66000
N  -4.46900 25.67800 23.54300
C  -5.05600 24.93100 22.55300
C  -4.80200 25.42400 21.16800
C  -3.92900 26.68700 21.39800
C  -3.70400 26.62400 22.96900
C  -4.20100 24.42900 20.20600
C  -4.58000 28.09800 21.06900
C  -3.77700 29.09900 20.25900
N  -3.36100 27.12400 25.84800
C  -2.63900 27.84100 24.93400
C  -1.86400 28.83700 25.60200
C  -2.10200 28.60800 26.99600
C  -3.05400 27.57100 27.10000
C  -0.90800 29.78600 24.89700
C  -1.73400 29.08800 28.25800
O  -0.94400 29.96900 28.68900
C  -2.59100 28.18300 29.26300
C  -1.66500 27.55500 30.19400
O  -0.85700 26.75200 29.88600
O  -1.92500 27.97700 31.55400
C  -1.16100 27.29400 32.61300
H  -6.73200 22.64100 28.39400
H  -6.28000 23.29400 22.03300
H  -2.31700 28.17400 22.82200
H  -3.82100 25.19700 30.62300
H  -6.80300 24.62000 30.06100
H  -5.17500 22.35700 29.66200
H  -6.21000 22.79200 31.07200
H  -4.55600 23.06300 31.17900
H  -5.65400 27.57700 30.67300
H  -4.38400 27.12500 31.69900
H  -7.29100 26.28500 31.76100
H  -6.40400 27.16800 32.91100
H  -8.37100 20.21500 26.04700
H  -9.06900 21.61700 26.96300
H  -7.48000 20.86100 27.48800
H  -9.93300 20.68600 24.31000
H  -8.45500 19.59600 24.06100
H  -9.63800 20.04500 22.75200
H  -5.77300 25.67100 20.73900
H  -2.95800 26.74100 20.90500
H  -3.88500 23.44300 20.54700
H  -3.29600 24.82000 19.74000
H  -4.88800 24.14300 19.41000
H  -4.74700 28.80700 21.87900
H  -5.50900 27.94800 20.51900
H  -2.74000 28.79100 20.39400
H  -3.81500 30.08900 20.71600
H  -4.10400 29.12000 19.22000
H  -1.43200 30.27900 24.07800
H  0.06100 29.34900 24.65600
H  -0.71800 30.55400 25.64700
H  -3.30400 28.86300 29.72800
H  -0.24700 26.78900 32.30200
H  -1.84700 26.56100 33.03700
H  -0.82200 27.97100 33.39700

