158

Mg 9.07000 3.78500 27.86600
C  10.42700 2.08300 30.75400
C  7.58200 6.04400 29.95200
C  7.20700 4.68600 25.23600
C  10.24500 0.97000 25.91600
N  8.83200 3.82500 30.11600
C  9.54300 3.15200 31.08500
C  9.45200 3.84700 32.45300
C  8.28700 4.92100 32.21300
C  8.25600 4.93200 30.66600
C  6.87700 4.59400 32.78800
C  10.81600 4.53700 32.94300
C  11.26200 4.02000 34.29500
H  10.21300 3.73100 35.38500
N  7.68900 5.18700 27.61800
C  7.32300 6.14300 28.53300
C  6.44500 7.16000 27.90600
C  6.26600 6.72100 26.56400
C  7.02700 5.45800 26.42200
C  5.89200 8.33400 28.63900
C  5.38100 7.35200 25.46600
O  5.19200 6.78900 24.37300
C  4.85300 8.64100 25.65900
N  8.66900 2.90500 25.93500
C  7.98900 3.60500 24.96500
C  8.08400 3.05800 23.58300
C  9.20100 1.91900 23.79800
C  9.38300 1.89400 25.31600
C  6.76100 2.53100 22.97300
C  10.60200 2.29400 23.12100
C  11.39700 3.35200 23.89100
N  10.28800 2.00500 28.16500
C  10.61800 0.90400 27.30600
C  11.38300 -0.08700 28.04300
C  11.39800 0.42900 29.35500
C  10.68100 1.63200 29.39700
C  11.80800 -1.35100 27.50400
C  11.84000 0.09300 30.71200
O  12.44200 -0.83300 31.25200
C  11.34700 1.28600 31.68200
C  10.59500 0.60200 32.79100
O  9.41400 0.27100 32.68900
O  11.30600 0.41200 34.00000
C  10.50700 -0.22200 35.13600
H  7.14100 6.75500 30.65300
H  6.82400 5.24500 24.37900
H  10.54600 0.19000 25.21400
H  9.16700 3.08400 33.17800
H  8.64100 5.85800 32.64400
H  6.40700 5.50900 33.14900
H  6.94000 3.84900 33.58100
H  6.23500 4.18400 32.00800
H  11.00200 5.61100 32.94300
H  11.59600 4.20000 32.26100
H  11.85100 4.76100 34.83600
H  11.93300 3.19700 34.04600
H  6.30000 8.45300 29.64300
H  4.82600 8.12900 28.73200
H  6.09500 9.24500 28.07700
H  5.80500 9.16900 25.72800
H  4.20000 8.79200 26.51800
H  4.26400 8.95100 24.79600
H  8.45100 3.68900 22.77300
H  8.95800 0.96800 23.32500
H  5.90200 2.57700 23.64200
H  6.87000 1.45400 22.85300
H  6.50900 3.04100 22.04300
H  10.45900 2.60600 22.08600
H  11.13400 1.34800 23.22500
H  10.71100 4.06400 24.35100
H  12.01400 3.94900 23.21900
H  11.92700 2.79800 24.66600
H  12.83900 -1.32200 27.15300
H  11.24500 -1.62200 26.61100
H  11.78200 -2.13300 28.26400
H  12.24200 1.78600 32.05300
H  11.22600 -0.35800 35.94300
H  10.09600 -1.17700 34.81000
H  9.71700 0.46100 35.45000
Mg 16.25000 50.89700 25.27400
C  18.03200 49.62900 27.90600
C  13.62700 51.75400 27.48400
C  14.63300 52.16900 22.66800
C  18.90100 49.80100 23.11400
N  15.94100 50.80500 27.38800
C  16.90300 50.39800 28.30200
C  16.42100 50.60300 29.75800
C  14.89500 50.87500 29.55600
C  14.77400 51.15900 28.06800
C  13.92000 49.77700 30.05100
C  17.32500 51.63900 30.33800
C  17.32900 51.84800 31.86600
H  16.38800 51.03300 32.79100
N  14.37100 51.95100 25.11700
C  13.47600 52.16800 26.09800
C  12.37700 52.92400 25.53000
C  12.63000 52.96300 24.13500
C  13.90200 52.38000 23.89500
C  11.22800 53.45600 26.38100
C  11.82700 53.62000 23.10100
O  12.17100 53.74600 21.96000
C  10.44900 54.15600 23.46700
N  16.74000 50.97700 23.22000
C  15.82800 51.53600 22.38400
C  16.25900 51.27700 20.92200
C  17.72900 50.78400 21.13000
C  17.85900 50.54400 22.60900
C  15.30900 50.31300 20.17800
C  18.81600 51.78700 20.72800
C  19.64300 51.46900 19.37500
N  18.02700 49.84200 25.42400
C  19.00900 49.49600 24.51200
C  20.00900 48.66700 25.10800
C  19.66200 48.78300 26.45700
C  18.46100 49.49500 26.56100
C  21.15000 47.94000 24.52700
C  20.07600 48.32300 27.84300
O  20.92700 47.54800 28.20900
C  19.05500 48.86400 28.83100
C  18.45400 47.63800 29.40900
O  17.89300 46.75800 28.75900
O  18.52400 47.67100 30.79000
C  17.60900 46.81300 31.57100
H  12.84500 51.90100 28.23100
H  14.14200 52.38200 21.71600
H  19.62900 49.34600 22.44000
H  16.53000 49.66600 30.30400
H  14.73900 51.84800 30.02300
H  13.23400 50.38400 30.64300
H  14.40500 49.05300 30.70500
H  13.45100 49.20800 29.24800
H  17.13700 52.61900 29.90000
H  18.38900 51.49500 30.15100
H  17.30300 52.92700 32.02100
H  18.32700 51.57800 32.21200
H  10.97800 54.50800 26.24500
H  11.27000 53.17500 27.43400
H  10.36800 52.87900 26.04100
H  10.45100 54.99700 24.16000
H  9.88900 53.27400 23.77700
H  10.17000 54.72300 22.57900
H  16.28900 52.24900 20.43000
H  17.71600 49.83400 20.59500
H  15.83400 49.69300 19.45100
H  14.56200 50.82400 19.57100
H  14.78200 49.62000 20.83300
H  19.54400 51.83300 21.53900
H  18.36600 52.77800 20.78500
H  19.14300 51.28800 18.42300
H  20.46200 50.77600 19.57000
H  20.10400 52.43500 19.16800
H  22.09600 48.45100 24.70500
H  20.97900 47.64000 23.49300
H  21.13300 46.98900 25.05900
H  19.58800 49.50200 29.53700
H  16.95700 47.52100 32.08300
H  18.07600 46.21200 32.35100
H  16.91100 46.23900 30.96100

