158

Mg -0.46000 7.30200 26.30000
C  0.37600 9.64700 28.80800
C  -0.16700 4.88900 28.73900
C  -0.73000 5.16800 23.76400
C  -0.32000 9.96500 23.90400
N  -0.03800 7.28100 28.52400
C  0.34600 8.32500 29.29400
C  0.34800 7.94600 30.77500
C  0.44200 6.34400 30.70300
C  0.11900 6.13300 29.20300
C  1.84300 5.73800 31.13500
C  -0.88500 8.55700 31.49500
C  -0.56100 9.29700 32.85000
H  0.70900 9.01600 33.59800
N  -0.49500 5.39400 26.29300
C  -0.35900 4.51100 27.37100
C  -0.59000 3.18400 26.90000
C  -0.78600 3.23300 25.46000
C  -0.70800 4.65300 25.10400
C  -0.60700 1.91200 27.76400
C  -1.03400 2.05500 24.41800
O  -1.15700 2.21700 23.18100
C  -1.34900 0.62600 24.88500
N  -0.47500 7.61900 24.05700
C  -0.71400 6.50600 23.28500
C  -0.92700 6.88800 21.87900
C  -1.10000 8.47100 21.93800
C  -0.64300 8.74500 23.37100
C  0.24500 6.41600 20.96000
C  -2.52200 9.00000 21.55200
C  -3.28700 9.82500 22.63900
N  -0.03700 9.36400 26.28600
C  -0.03300 10.29500 25.26600
C  0.47100 11.60500 25.82000
C  0.55100 11.41100 27.16000
C  0.26700 10.01900 27.44500
C  0.72600 12.85200 25.09500
C  0.75600 12.04200 28.41400
O  0.94900 13.22000 28.70300
C  0.58100 10.94400 29.60900
C  1.92500 10.95800 30.26600
O  3.04200 10.63300 29.83600
O  1.77800 11.40400 31.57800
C  3.02500 11.73600 32.31100
H  -0.10100 4.10600 29.49700
H  -0.91800 4.41000 23.00200
H  -0.40200 10.80700 23.21400
H  1.33500 8.33200 31.03100
H  -0.32000 5.80000 31.26200
H  2.54300 5.81100 30.30300
H  1.79300 4.70500 31.48000
H  2.04700 6.36900 32.00000
H  -1.62700 7.79300 31.72700
H  -1.36600 9.27800 30.83400
H  -1.48100 9.32000 33.43400
H  -0.46800 10.34200 32.55400
H  -1.62900 1.56400 27.91700
H  -0.33500 2.04000 28.81100
H  0.04300 1.15200 27.33100
H  -2.14700 0.61200 25.62700
H  -0.46400 0.12800 25.28100
H  -1.66500 -0.02500 24.07000
H  -1.83300 6.40600 21.50900
H  -0.31000 8.86200 21.29700
H  1.02400 6.03900 21.62200
H  0.61200 7.22500 20.32900
H  -0.04800 5.54800 20.36800
H  -3.11500 8.13000 21.27000
H  -2.46800 9.67400 20.69700
H  -3.13100 9.30400 23.58400
H  -4.35700 9.67300 22.49600
H  -3.00400 10.87700 22.65200
H  1.17100 12.72000 24.10900
H  1.34400 13.53800 25.67400
H  -0.28300 13.25600 25.01000
H  -0.18400 11.25500 30.32000
H  2.83700 12.30300 33.22300
H  3.60400 12.38700 31.65600
H  3.68200 10.88600 32.49500
Mg 9.93100 47.34000 25.50200
C  7.86200 47.41700 28.34000
C  12.33600 48.62400 27.38400
C  11.80200 47.29100 22.70900
C  7.00800 46.86800 23.62700
N  9.98500 48.15000 27.62300
C  9.15500 47.82600 28.60700
C  9.77900 48.21200 30.00200
C  11.05900 48.98700 29.60200
C  11.11800 48.68700 28.06900
C  11.06400 50.52200 29.93700
C  10.05200 46.95300 30.95100
C  9.88500 47.22600 32.43800
H  10.17900 46.14200 33.50000
N  11.80700 47.71400 25.06600
C  12.74400 48.13500 26.07800
C  14.02800 48.11500 25.49200
C  13.86300 47.87000 24.13100
C  12.46700 47.65600 23.92600
C  15.30900 48.51500 26.20300
C  14.81700 47.88600 23.01000
O  14.43400 47.96000 21.87000
C  16.28600 47.86600 23.25200
N  9.51300 47.03100 23.46500
C  10.46700 47.03900 22.49600
C  9.84900 46.58000 21.11200
C  8.31100 46.60400 21.42200
C  8.24100 46.78000 22.93000
C  10.29100 47.36700 19.87100
C  7.54000 45.34900 20.86500
C  6.62300 45.49600 19.62300
N  7.86400 47.07000 25.83900
C  6.84800 46.91900 25.00200
C  5.62100 46.92100 25.68800
C  6.00800 47.09000 27.03600
C  7.34700 47.11000 27.11000
C  4.30100 46.68700 25.17500
C  5.43500 47.19800 28.35600
O  4.23400 47.18500 28.64400
C  6.68700 47.26600 29.28400
C  6.68800 46.03700 30.08000
O  7.03600 44.97200 29.56800
O  6.15500 46.13000 31.38000
C  5.94200 44.86200 32.07100
H  13.23400 48.89200 27.94500
H  12.22700 47.05400 21.73100
H  6.09100 46.66600 23.06900
H  9.19100 48.96100 30.53200
H  11.93100 48.62700 30.14800
H  10.47900 50.97600 30.73700
H  10.75000 50.97400 28.99600
H  12.08600 50.84400 30.14000
H  10.99300 46.44400 30.74300
H  9.27100 46.26300 30.63100
H  8.83500 47.48100 32.58300
H  10.48300 48.07300 32.77400
H  15.18800 48.65900 27.27600
H  15.74000 49.40300 25.74000
H  16.04800 47.71900 26.11300
H  16.57900 46.92700 23.72100
H  16.49400 48.66400 23.96400
H  16.73500 47.98400 22.26600
H  10.19600 45.56700 20.91200
H  7.89300 47.55800 21.10100
H  11.09200 48.08600 20.04500
H  9.46400 47.85900 19.36000
H  10.83000 46.68200 19.21600
H  6.97300 44.80000 21.61700
H  8.32000 44.66600 20.52700
H  6.27800 46.52800 19.69000
H  5.81400 44.77100 19.70800
H  7.23300 45.39500 18.72500
H  3.67800 46.78400 26.06300
H  4.14700 45.66600 24.82700
H  4.15100 47.47800 24.44000
H  6.63700 48.17800 29.88000
H  5.69800 45.08000 33.11100
H  6.82200 44.21900 32.05500
H  5.11100 44.25900 31.70700

