158

Mg 49.10400 47.35900 43.22200
C  45.72800 47.58200 42.00600
C  49.31600 44.35200 41.45600
C  52.38700 47.35900 43.85300
C  48.93200 50.76200 43.88700
N  47.74400 46.20600 41.67000
C  46.37200 46.46400 41.52400
C  45.63000 45.40100 40.76900
C  46.79000 44.30700 40.56400
C  48.04400 44.97300 41.28200
C  46.46200 42.84100 40.95600
C  44.94900 45.89100 39.47400
C  43.49000 45.61800 39.20400
H  43.06400 45.30800 37.76900
N  50.57200 45.96000 42.90000
C  50.47100 44.85100 42.07800
C  51.79500 44.28400 41.98500
C  52.65800 45.02100 42.86200
C  51.91500 46.18700 43.24100
C  52.05000 43.07900 41.06800
C  54.11200 44.71500 43.11600
O  54.60500 43.70600 42.63000
C  54.95500 45.64300 43.94300
N  50.46000 48.82200 43.80300
C  51.73600 48.54800 44.11100
C  52.43900 49.76600 44.77800
C  51.44300 50.92200 44.35000
C  50.19400 50.14000 43.94000
C  52.58600 49.56600 46.34800
C  51.94600 51.69600 43.05600
C  51.68400 53.23200 43.12500
N  47.63200 48.90300 43.24100
C  47.71900 50.23100 43.52400
C  46.49300 50.88100 43.32200
C  45.64900 49.84000 42.87200
C  46.36400 48.63300 42.70600
C  46.25300 52.37900 43.42000
C  44.27400 49.49600 42.48800
O  43.21100 50.11800 42.53700
C  44.29700 48.01500 41.94200
C  43.27800 47.18800 42.67200
O  43.39400 46.79000 43.80600
O  42.25000 46.81900 41.89500
C  41.28600 45.90500 42.50200
H  49.26300 43.31300 41.12400
H  53.37600 47.49800 44.29500
H  48.92200 51.80500 44.20900
H  44.89700 44.93900 41.43100
H  47.10200 44.27600 39.52000
H  45.41400 42.54500 40.91100
H  46.90300 42.69500 41.94200
H  47.03900 42.10300 40.39900
H  45.59600 45.62300 38.63900
H  45.21500 46.94300 39.37000
H  43.05200 46.60200 39.37100
H  43.09300 44.85000 39.86800
H  51.31400 42.89100 40.28600
H  52.11800 42.19200 41.69900
H  52.95200 43.31100 40.50100
H  55.13300 46.56200 43.38500
H  55.91000 45.14300 44.10800
H  54.39300 45.75800 44.87000
H  53.37900 49.75200 44.22600
H  51.30900 51.56000 45.22400
H  52.43800 48.52500 46.63600
H  51.81900 50.10600 46.90400
H  53.52800 49.97800 46.71100
H  51.48300 51.31100 42.14700
H  53.02200 51.73200 42.88800
H  50.97500 53.48400 42.33600
H  52.66200 53.71100 43.15300
H  51.21300 53.51900 44.06500
H  45.19900 52.65200 43.48200
H  46.62100 52.90900 42.54100
H  46.77900 52.81800 44.26800
H  43.89700 48.25300 40.95600
H  41.88700 45.06000 42.83900
H  40.63400 45.38700 41.80000
H  40.59300 46.42900 43.16000
Mg -12.21100 37.49500 41.84900
C  -10.32200 34.80800 40.45500
C  -10.11900 39.61100 40.36500
C  -14.46300 39.89400 42.66500
C  -14.55900 35.01000 42.86800
N  -10.48600 37.22600 40.64100
C  -9.85600 36.06300 40.07800
C  -8.66100 36.40000 39.12500
C  -8.52000 37.91800 39.33400
C  -9.79100 38.26000 40.23200
C  -7.15900 38.47600 39.84500
C  -8.71600 35.81300 37.68600
C  -7.41200 35.18000 37.00700
H  -6.71500 35.93600 35.96900
N  -12.23500 39.49900 41.62100
C  -11.23800 40.17000 41.03200
C  -11.58000 41.58300 41.11900
C  -12.73600 41.71500 41.85300
C  -13.22500 40.36700 42.07000
C  -10.75800 42.67100 40.50200
C  -13.53900 43.03900 42.18300
O  -13.18000 44.17400 41.74800
C  -14.71800 43.00200 43.07900
N  -14.34000 37.49500 42.35000
C  -15.02700 38.57100 42.85500
C  -16.34200 38.25200 43.45800
C  -16.26100 36.72200 43.62200
C  -15.02400 36.37200 42.78800
C  -16.74700 39.07700 44.71500
C  -17.50700 35.99200 43.09800
C  -18.19600 34.85700 43.98600
N  -12.42300 35.37300 41.71600
C  -13.36300 34.47100 42.32900
C  -12.87100 33.08000 42.31500
C  -11.72300 33.20500 41.48500
C  -11.46000 34.62000 41.22100
C  -13.45800 31.77300 42.84700
C  -10.65500 32.42200 40.93600
O  -10.52600 31.23100 40.99400
C  -9.72100 33.39600 40.16500
C  -8.23600 33.27200 40.47300
O  -7.44900 32.50900 39.89900
O  -8.05800 33.99800 41.65200
C  -6.80200 33.81200 42.41800
H  -9.38300 40.28400 39.92100
H  -15.22400 40.60300 43.00000
H  -15.24200 34.33600 43.38900
H  -7.76300 36.02200 39.61400
H  -8.66100 38.43300 38.38400
H  -6.50900 37.67000 39.50500
H  -7.26300 38.71400 40.90300
H  -6.99200 39.48500 39.46900
H  -9.11300 36.55900 36.99800
H  -9.34200 34.92000 37.68000
H  -7.58800 34.18200 36.60500
H  -6.65000 35.07200 37.78000
H  -10.63400 43.46900 41.23400
H  -11.21600 42.95400 39.55400
H  -9.74000 42.34700 40.28400
H  -15.57400 42.62300 42.52200
H  -14.85300 43.95800 43.58400
H  -14.53900 42.30800 43.90100
H  -17.18000 38.48200 42.80000
H  -15.97400 36.50400 44.65100
H  -16.11100 39.87800 45.09200
H  -16.89900 38.44300 45.58800
H  -17.76400 39.46200 44.64000
H  -17.14400 35.50100 42.19500
H  -18.25900 36.75800 42.90900
H  -19.27400 34.87700 43.82200
H  -17.97800 35.05600 45.03500
H  -17.71600 33.90300 43.76700
H  -14.49900 31.77300 42.52400
H  -13.37900 31.82800 43.93300
H  -12.91000 30.88800 42.52400
H  -10.02400 32.89100 39.24700
H  -6.78400 34.64500 43.12000
H  -6.03700 33.95500 41.65500
H  -6.62400 32.93000 43.03400

