158

Mg 47.69700 16.96200 29.17800
C  45.56400 16.52000 31.95600
C  49.65800 18.94700 31.11000
C  49.59000 17.47800 26.50600
C  45.22100 15.54100 27.21900
N  47.61300 17.74700 31.36100
C  46.71600 17.22900 32.34000
C  47.29100 17.52800 33.65000
C  48.32200 18.64100 33.41200
C  48.57700 18.40700 31.86300
C  47.92800 20.13700 33.75700
C  47.81900 16.24100 34.32100
C  47.91800 16.04000 35.94000
H  47.58100 17.19000 36.91900
N  49.51200 17.83500 28.94600
C  50.16000 18.69800 29.84600
C  51.40700 19.12600 29.21000
C  51.38800 18.72600 27.90000
C  50.17900 17.92100 27.73600
C  52.41400 19.92700 30.05900
C  52.39600 18.95500 26.78700
O  52.26200 18.35900 25.74500
C  53.50200 19.88600 26.92700
N  47.37500 16.59200 27.15300
C  48.36500 16.89800 26.24700
C  47.84500 16.69200 24.79700
C  46.56300 15.85500 25.05000
C  46.33600 16.03200 26.56800
C  47.54300 17.98000 23.87900
C  46.65100 14.30500 24.79000
C  46.05800 13.81300 23.42500
N  45.75500 16.22400 29.45100
C  44.91800 15.61900 28.61400
C  43.66900 15.30400 29.30700
C  43.91400 15.56000 30.66400
C  45.20300 16.08200 30.68600
C  42.39400 14.74000 28.71700
C  43.38500 15.44200 32.02100
O  42.36800 14.88000 32.45300
C  44.46800 16.08000 32.92500
C  43.94900 17.13200 33.84300
O  43.70400 18.31900 33.56700
O  43.68500 16.60500 35.07500
C  43.17200 17.57700 36.03300
H  50.30000 19.49500 31.80200
H  50.08300 17.58900 25.53700
H  44.49800 14.96100 26.64100
H  46.55800 17.94100 34.34400
H  49.35200 18.56700 33.76100
H  47.84700 20.63300 32.79000
H  48.72000 20.69000 34.26200
H  46.94200 20.28200 34.20000
H  48.78200 16.00600 33.86800
H  47.25300 15.37900 33.96600
H  48.91200 15.70300 36.23500
H  47.17600 15.28000 36.18500
H  52.03300 20.22400 31.03600
H  52.48200 20.87700 29.52900
H  53.39900 19.47800 30.18900
H  53.06600 20.85700 26.69500
H  54.13800 19.47000 26.14600
H  54.02400 19.76800 27.87700
H  48.54500 16.04900 24.26400
H  45.71500 16.35400 24.58100
H  47.93900 17.76700 22.88600
H  48.22900 18.71600 24.29800
H  46.49400 18.26200 23.96600
H  46.09300 13.84100 25.60400
H  47.62900 13.87100 24.99600
H  46.93800 13.58100 22.82500
H  45.51500 14.64300 22.97200
H  45.39600 12.95400 23.53000
H  42.51300 14.99800 27.66400
H  41.53400 15.29200 29.09600
H  42.21200 13.69300 28.96200
H  44.88100 15.25700 33.50700
H  43.10900 17.08600 37.00400
H  42.14900 17.79400 35.72500
H  43.77700 18.48300 36.06600
Mg 27.20900 50.51800 26.41900
C  25.09800 51.82500 29.13400
C  29.39900 49.33400 28.87900
C  29.38000 49.81900 23.95300
C  25.21400 52.40500 24.27900
N  27.27300 50.68900 28.69500
C  26.24200 51.05200 29.54600
C  26.54100 50.71300 31.02500
C  28.03700 50.02900 30.87800
C  28.25700 49.94500 29.38300
C  29.21500 50.71000 31.71800
C  25.49300 49.87800 31.77000
C  24.99000 50.55600 33.09000
H  26.07800 50.85600 34.17300
N  29.05300 49.50000 26.36800
C  29.82900 49.17200 27.47000
C  31.03600 48.60300 27.03800
C  31.01100 48.71400 25.56800
C  29.77000 49.36400 25.25900
C  31.88600 47.82200 27.92400
C  32.06500 48.27800 24.56900
O  32.00700 48.45800 23.37500
C  33.34700 47.64700 25.14400
N  27.31500 51.06300 24.50600
C  28.26500 50.65100 23.61500
C  27.97700 51.05300 22.17500
C  26.54200 51.58600 22.28400
C  26.33500 51.68800 23.78000
C  29.08100 51.92200 21.50200
C  25.38100 50.64400 21.75300
C  24.16300 51.34900 21.01400
N  25.44700 51.81900 26.59800
C  24.76500 52.50400 25.63400
C  23.57500 53.12600 26.17700
C  23.67500 52.89200 27.55900
C  24.85800 52.13700 27.77400
C  22.56600 53.82700 25.41900
C  23.00100 53.03000 28.79300
O  21.96400 53.62500 29.02000
C  23.97200 52.47700 29.86900
C  24.46700 53.60400 30.65500
O  25.48400 54.24200 30.53100
O  23.59100 53.62800 31.72900
C  24.10800 54.67200 32.67400
H  30.06800 48.99800 29.67400
H  30.03900 49.69700 23.09100
H  24.50500 52.87500 23.59500
H  26.54200 51.62000 31.62900
H  27.90800 48.98100 31.14900
H  29.63000 49.83100 32.21200
H  28.90400 51.49900 32.40200
H  29.86300 51.08200 30.92500
H  25.89600 48.92700 32.11800
H  24.62800 49.72300 31.12600
H  24.31700 49.79500 33.48600
H  24.37600 51.41200 32.81000
H  32.95800 48.00100 27.84600
H  31.83800 46.74300 27.77300
H  31.63900 47.94500 28.97800
H  33.03000 46.70700 25.59700
H  33.85100 48.25500 25.89500
H  33.96700 47.51900 24.25700
H  27.94900 50.15000 21.56500
H  26.42700 52.54500 21.77800
H  30.04500 51.88200 22.00900
H  28.60600 52.90100 21.44800
H  29.12900 51.59900 20.46200
H  24.94600 49.98900 22.50800
H  25.84900 49.96500 21.04000
H  24.29200 51.20900 19.94100
H  24.10700 52.42100 21.20000
H  23.18300 50.95200 21.27800
H  21.82400 54.34900 26.02300
H  22.12300 53.24100 24.61300
H  23.14800 54.65600 25.01700
H  23.37400 51.80600 30.48500
H  25.06700 54.42300 33.12600
H  23.60100 54.75400 33.63600
H  24.09400 55.67000 32.23700

