158

Mg 9.18200 3.97100 28.18600
C  10.38200 2.14700 31.00000
C  7.37400 5.94800 30.32900
C  8.02900 5.49800 25.48100
C  10.61500 1.44200 26.18200
N  8.77500 3.85600 30.35900
C  9.54400 3.20300 31.29400
C  9.39700 3.82700 32.72300
C  8.34700 4.97000 32.56100
C  8.13900 4.98400 30.95500
C  6.97500 4.73600 33.27500
C  10.76800 4.11800 33.38500
C  11.11200 3.37300 34.69900
H  11.58200 4.28200 35.90100
N  7.89400 5.54700 27.97500
C  7.27700 6.25400 28.95000
C  6.49900 7.32000 28.32800
C  6.84200 7.32200 26.89500
C  7.60800 6.10900 26.69100
C  5.57300 8.22300 29.08800
C  6.44900 8.28600 25.81500
O  6.64300 8.03100 24.63700
C  5.76800 9.54000 26.28200
N  9.23700 3.45000 26.20900
C  8.71800 4.29800 25.23300
C  9.02400 3.85700 23.81500
C  9.92500 2.58500 23.99500
C  9.91700 2.46100 25.56400
C  7.88400 3.69400 22.84900
C  11.31500 2.55400 23.31100
C  11.52500 1.42700 22.18100
N  10.23600 2.07500 28.48400
C  10.79700 1.22800 27.55100
C  11.50800 0.17100 28.18200
C  11.36100 0.53300 29.55500
C  10.61800 1.64500 29.65400
C  12.14400 -0.96200 27.59200
C  11.69300 0.09400 30.93600
O  12.28400 -0.95300 31.34200
C  11.11500 1.18900 31.89600
C  10.15900 0.55100 32.92100
O  8.96100 0.35200 32.74000
O  10.75600 0.29300 34.04900
C  9.98600 -0.37300 35.09900
H  6.89300 6.70400 30.95400
H  7.93200 6.07000 24.55500
H  11.08800 0.71200 25.52200
H  8.86600 3.00600 33.20400
H  8.76000 5.93700 32.85100
H  6.79700 5.58000 33.94200
H  7.10400 3.81300 33.84000
H  6.17300 4.77100 32.53800
H  10.94900 5.17300 33.59000
H  11.52200 3.94800 32.61600
H  11.90900 2.66300 34.47700
H  10.23200 2.84800 35.07200
H  5.45100 7.82500 30.09600
H  4.55000 8.18000 28.71400
H  5.96600 9.23200 29.21000
H  5.00500 9.41400 27.05000
H  5.50200 10.06500 25.36500
H  6.64800 10.01000 26.72200
H  9.62300 4.67200 23.40900
H  9.37900 1.71000 23.64300
H  8.05100 4.32000 21.97300
H  7.02200 4.16600 23.32100
H  7.70100 2.65400 22.58000
H  12.11700 2.52500 24.04900
H  11.52400 3.48600 22.78600
H  11.54300 1.77100 21.14700
H  10.76000 0.65000 22.17200
H  12.44900 0.86700 22.32400
H  11.93000 -1.05100 26.52700
H  11.76300 -1.86000 28.07700
H  13.22400 -0.91500 27.73800
H  11.99600 1.55400 32.42200
H  10.65000 -0.87300 35.80300
H  9.26600 -1.12000 34.76400
H  9.52600 0.41600 35.69400
Mg 48.93200 45.68700 42.29000
C  45.61600 46.51500 41.62300
C  48.67900 42.84500 40.43500
C  52.28200 45.19000 42.51500
C  49.33600 49.06600 43.47800
N  47.35700 44.82700 41.17300
C  46.04600 45.27300 41.06200
C  45.22600 44.36900 40.13300
C  46.14400 43.07400 40.08000
C  47.50100 43.62200 40.56100
C  45.55700 41.84600 40.87200
C  44.99500 44.89100 38.71500
C  43.64800 44.55800 37.98300
H  43.75100 43.51900 36.87200
N  50.33200 44.12500 41.64400
C  49.93500 42.99400 40.97700
C  51.07300 42.13100 40.90600
C  52.21600 42.82700 41.38800
C  51.62500 44.11300 41.90500
C  51.04900 40.76000 40.24500
C  53.53400 42.32800 41.36100
O  53.79300 41.23700 40.87400
C  54.64900 43.12900 41.86600
N  50.59200 46.93700 42.86300
C  51.86000 46.50600 42.88500
C  52.78100 47.64800 43.32900
C  51.77500 48.67900 43.89400
C  50.45200 48.25900 43.35200
C  53.95500 47.28300 44.38400
C  52.14100 50.17600 43.70000
C  51.73000 51.10200 44.87300
N  47.69400 47.44200 42.64200
C  48.02800 48.70200 43.07700
C  46.80200 49.54800 43.15300
C  45.82200 48.62400 42.63500
C  46.41000 47.42400 42.32000
C  46.59500 50.93400 43.69200
C  44.42500 48.50900 42.39100
O  43.53600 49.26600 42.64700
C  44.29900 47.19400 41.55600
C  43.03600 46.41000 42.06900
O  41.83800 46.53500 41.73400
O  43.51200 45.43500 42.95900
C  42.55500 44.61600 43.76000
H  48.58800 41.92500 39.85500
H  53.33500 44.99400 42.72700
H  49.39700 50.07300 43.89500
H  44.27900 44.16900 40.63500
H  46.20600 42.70200 39.05700
H  45.38000 41.15300 40.04900
H  44.66800 42.20900 41.38800
H  46.21600 41.42800 41.63300
H  45.79600 44.61600 38.02900
H  45.01300 45.97000 38.86800
H  43.28900 45.50900 37.58800
H  42.88000 44.09800 38.60500
H  51.86400 40.60400 39.53800
H  50.09600 40.50800 39.78000
H  51.24500 40.02400 41.02500
H  54.72800 43.09600 42.95300
H  54.57800 44.15000 41.49200
H  55.58100 42.82800 41.38800
H  53.25400 47.96000 42.39800
H  51.82200 48.46000 44.96100
H  54.89100 46.93300 43.94900
H  53.65300 46.51300 45.09500
H  54.20500 48.17300 44.96200
H  51.80100 50.57600 42.74500
H  53.21600 50.34500 43.64100
H  51.34300 50.57600 45.74500
H  50.90900 51.74900 44.56300
H  52.52400 51.72300 45.28800
H  45.53600 50.95400 43.94900
H  46.77000 51.69900 42.93600
H  47.17600 51.32500 44.52700
H  44.16200 47.44400 40.50400
H  41.67700 45.24000 43.92800
H  43.05000 44.24500 44.65700
H  42.28000 43.77800 43.12000

