158

Mg 16.68400 -2.70900 28.15600
C  15.37300 -0.29000 30.38600
C  18.65900 -4.10000 30.59500
C  18.26800 -4.57800 25.71600
C  15.37600 -0.65400 25.57100
N  16.93300 -2.25400 30.25200
C  16.29600 -1.22600 31.00000
C  16.80800 -1.25100 32.42200
C  17.86500 -2.38600 32.42400
C  17.87200 -2.95700 30.97300
C  19.19100 -1.85400 32.92200
C  15.65700 -1.42100 33.52100
C  15.46800 -0.49900 34.71200
H  16.83900 0.11300 35.26100
N  18.02600 -4.16800 28.18600
C  18.62100 -4.72500 29.32400
C  19.41700 -5.91800 28.94100
C  19.36900 -6.05600 27.50100
C  18.51700 -4.90800 27.06100
C  20.25900 -6.66200 29.93500
C  20.06700 -7.04500 26.54800
O  19.84800 -7.11000 25.34500
C  21.07100 -8.10900 27.18000
N  16.76800 -2.62800 25.93400
C  17.46700 -3.53600 25.18400
C  17.43300 -3.20000 23.70100
C  16.38200 -2.09600 23.61900
C  16.13800 -1.77100 25.13700
C  18.76600 -2.90900 23.09500
C  15.06000 -2.42700 22.91900
C  14.17600 -1.39600 22.37800
N  15.46200 -0.91900 27.99500
C  14.97000 -0.20900 26.89600
C  14.09900 0.89100 27.26600
C  14.16900 0.84500 28.66700
C  15.02900 -0.23600 29.04400
C  13.50200 1.84700 26.28300
C  13.79800 1.51300 29.87800
O  13.02200 2.47500 29.98300
C  14.50000 0.76100 30.99100
C  15.21100 1.89200 31.70600
O  16.34400 2.36100 31.48600
O  14.47600 2.36900 32.67900
C  15.00900 3.36800 33.57200
H  19.28600 -4.70300 31.25500
H  18.79700 -5.12700 24.93500
H  15.01000 0.00900 24.78400
H  17.30800 -0.29500 32.57700
H  17.42700 -3.10900 33.11100
H  19.29200 -0.77400 32.81700
H  19.93300 -2.35000 32.29700
H  19.32300 -2.07900 33.98000
H  15.56600 -2.45400 33.86000
H  14.75400 -1.19500 32.95400
H  14.91100 -1.20400 35.33000
H  14.84200 0.35700 34.46100
H  20.31300 -7.74100 29.79100
H  19.76200 -6.55800 30.89900
H  21.19200 -6.10000 29.98000
H  21.64200 -7.61400 27.96500
H  21.74600 -8.47800 26.40700
H  20.60500 -9.01500 27.56600
H  16.97700 -4.09400 23.27500
H  16.74500 -1.17300 23.16700
H  19.44600 -2.68600 23.91600
H  18.62700 -1.97900 22.54300
H  19.04900 -3.78700 22.51400
H  14.42000 -3.06400 23.53100
H  15.32900 -2.98100 22.02000
H  14.20700 -1.40000 21.28800
H  14.45900 -0.37500 22.63500
H  13.19400 -1.72600 22.71700
H  12.92700 1.33700 25.51000
H  14.27800 2.52200 25.92100
H  12.80800 2.56300 26.72400
H  13.83000 0.23300 31.67000
H  15.50100 2.97700 34.46300
H  14.12300 3.91500 33.89400
H  15.56500 4.09200 32.97500
Mg 16.25000 51.81300 24.91500
C  18.33200 51.03200 27.50700
C  13.85600 52.54800 27.12300
C  14.30800 52.39700 22.26700
C  18.85300 50.96500 22.72300
N  16.10900 51.76500 27.07000
C  17.12400 51.47800 27.93700
C  16.66100 51.67000 29.38600
C  15.10400 51.94900 29.28900
C  14.99000 52.06300 27.77900
C  14.22900 50.82400 29.79800
C  17.38800 52.84000 30.18000
C  17.51000 52.72700 31.80000
H  16.69400 51.67600 32.61700
N  14.40600 52.38500 24.71800
C  13.55000 52.71900 25.74100
C  12.32400 53.14800 25.18900
C  12.40700 53.11800 23.73700
C  13.73800 52.66100 23.51700
C  11.20200 53.50900 26.10300
C  11.29900 53.34500 22.64600
O  11.41400 53.09900 21.44200
C  9.92400 53.92000 23.06700
N  16.54300 51.63200 22.79000
C  15.57200 51.86600 21.90000
C  16.00000 51.60000 20.45300
C  17.55800 51.46500 20.68000
C  17.70500 51.40700 22.12300
C  15.20300 50.47700 19.83800
C  18.43400 52.63500 20.01100
C  19.63300 52.09400 19.20600
N  18.20300 51.20100 25.02700
C  19.17100 50.89300 24.08100
C  20.44200 50.55200 24.69900
C  20.09700 50.53200 26.09100
C  18.79300 50.96600 26.20200
C  21.75200 50.21100 24.05700
C  20.65100 50.28200 27.42100
O  21.74900 49.94200 27.82600
C  19.51000 50.69700 28.40900
C  19.22400 49.58500 29.32700
O  18.70400 48.53500 29.00100
O  19.70200 49.88600 30.53400
C  19.57000 48.89800 31.66100
H  13.02600 52.87600 27.75400
H  13.74200 52.57300 21.35100
H  19.69400 50.91500 22.02900
H  16.85200 50.71200 29.87000
H  14.79100 52.89000 29.74100
H  14.58900 49.95300 30.34700
H  13.58200 50.51900 28.97600
H  13.54700 51.31800 30.49100
H  16.98100 53.82100 29.93600
H  18.36200 52.84500 29.69100
H  17.09600 53.67600 32.14000
H  18.56900 52.69400 32.05400
H  10.51700 54.25600 25.70200
H  11.58500 53.92800 27.03400
H  10.60500 52.60200 26.19500
H  10.06900 54.84500 23.62500
H  9.42900 53.13800 23.64400
H  9.32600 54.05000 22.16500
H  15.66000 52.43400 19.83900
H  17.76600 50.50000 20.21700
H  14.61000 51.00200 19.09000
H  14.60500 49.90200 20.54500
H  15.90800 49.84300 19.30100
H  18.85300 53.25800 20.80100
H  17.72700 53.21200 19.41600
H  19.58200 52.64800 18.26900
H  19.51700 51.01300 19.12500
H  20.61300 52.31700 19.62700
H  21.87300 50.67600 23.07800
H  21.63800 49.15000 23.83400
H  22.58900 50.49500 24.69400
H  19.88400 51.45700 29.09500
H  19.67700 49.31600 32.66300
H  20.32000 48.10700 31.63800
H  18.62700 48.35500 31.71700

