158

Mg 53.65800 23.74600 45.56800
C  50.80700 25.70900 44.77500
C  51.88900 21.04000 44.68600
C  56.62300 22.11100 45.63400
C  55.29000 26.65400 46.47100
N  51.58300 23.45700 44.57900
C  50.58700 24.35300 44.49800
C  49.25200 23.70000 44.21900
C  49.50800 22.15400 44.45900
C  51.09700 22.16600 44.65800
C  48.63000 21.70500 45.66600
C  48.74300 23.88000 42.76800
C  49.65900 23.51700 41.60300
H  49.45000 24.22700 40.24200
N  54.15300 21.86000 45.20800
C  53.28800 20.90800 44.92300
C  54.00500 19.66100 44.87400
C  55.43700 19.93600 44.85800
C  55.50900 21.34400 45.21800
C  53.28200 18.31300 44.73000
C  56.55600 18.87200 44.63900
O  56.27700 17.70600 44.44200
C  58.04900 19.31100 44.59900
N  55.73000 24.36800 45.91000
C  56.73800 23.44800 45.96400
C  58.04600 24.12000 46.42000
C  57.63100 25.54800 46.72000
C  56.08100 25.55300 46.34800
C  58.67900 23.35600 47.64600
C  58.68000 26.55400 46.11300
C  58.38000 27.14400 44.79300
N  53.24800 25.75300 45.64500
C  53.98300 26.80400 46.04400
C  53.15800 27.97800 46.27600
C  51.90000 27.56000 45.70400
C  52.03300 26.24700 45.29300
C  53.44900 29.19100 46.90900
C  50.54100 28.02200 45.48800
O  50.02500 29.08300 45.66600
C  49.79100 26.79000 44.80400
C  49.32400 27.27400 43.40200
O  50.03400 27.64400 42.46900
O  47.97100 27.45500 43.49700
C  47.27700 28.13200 42.40000
H  51.31700 20.15000 44.41700
H  57.55200 21.60900 45.91000
H  55.77600 27.53300 46.89900
H  48.45800 24.14700 44.81600
H  49.29800 21.58500 43.55300
H  49.19800 20.87900 46.09300
H  47.58600 21.48100 45.44500
H  48.69900 22.63200 46.23500
H  48.22300 24.81300 42.55200
H  47.96600 23.11600 42.73000
H  49.40000 22.48100 41.38000
H  50.71300 23.54100 41.88000
H  54.11200 17.63300 44.91800
H  52.92200 18.16200 43.71300
H  52.48800 18.23400 45.47300
H  58.18600 20.13400 43.89800
H  58.59800 18.45800 44.20000
H  58.44300 19.36300 45.61400
H  58.72900 24.14300 45.57200
H  57.69600 25.55300 47.80800
H  57.86000 22.73000 47.99900
H  59.01100 23.92300 48.51500
H  59.52000 22.78200 47.25700
H  59.69300 26.19800 46.30000
H  58.59400 27.41800 46.77100
H  57.92900 28.12100 44.96300
H  57.54800 26.62100 44.31900
H  59.31100 27.18200 44.22900
H  52.53700 29.76800 47.06100
H  54.18400 29.75600 46.33500
H  53.91600 28.98600 47.87200
H  48.84200 26.59600 45.30600
H  46.40200 28.51500 42.92500
H  46.93100 27.57700 41.52800
H  47.86400 28.99600 42.08600
Mg -10.84900 15.94400 43.42200
C  -7.53400 16.69700 43.12900
C  -11.75100 19.20300 42.80200
C  -14.20400 15.05700 43.59900
C  -10.02300 12.61700 43.69800
N  -9.78100 17.74400 42.97900
C  -8.40800 17.83200 42.94800
C  -7.96900 19.25000 42.71200
C  -9.40800 20.01100 42.61300
C  -10.42700 18.90600 42.87900
C  -9.54800 21.12000 43.61400
C  -7.12300 19.62400 41.42100
C  -5.76200 20.37900 41.58500
H  -4.99200 20.70800 40.37200
N  -12.74700 16.97600 43.12900
C  -12.85400 18.29300 42.94900
C  -14.21500 18.59000 42.77000
C  -15.04600 17.44800 42.96900
C  -14.00200 16.42700 43.25800
C  -14.58300 20.05100 42.59700
C  -16.61500 17.32200 42.88000
O  -17.19800 18.38100 42.51300
C  -17.34000 16.12400 43.25100
N  -12.00700 14.04400 43.29900
C  -13.29500 14.03000 43.73200
C  -13.68900 12.65500 44.25100
C  -12.35900 11.79600 44.21900
C  -11.41200 12.87100 43.65200
C  -14.45800 12.61700 45.61900
C  -12.23300 10.53500 43.31300
C  -12.12100 9.12500 43.98900
N  -9.13400 14.77200 43.38400
C  -8.94300 13.46700 43.52200
C  -7.51400 13.22900 43.57900
C  -6.87400 14.43300 43.37100
C  -7.94700 15.38900 43.24000
C  -6.97700 11.85000 43.82500
C  -5.59900 15.10600 43.25500
O  -4.48900 14.69100 43.21700
C  -5.93100 16.62000 43.06300
C  -5.27800 17.47300 44.06700
O  -5.85700 17.85700 45.08900
O  -3.91500 17.59300 43.86700
C  -3.14200 18.16800 44.96100
H  -11.90700 20.27100 42.63500
H  -15.17500 14.59500 43.79200
H  -9.68400 11.63100 44.02300
H  -7.39900 19.56700 43.58500
H  -9.69400 20.40700 41.63800
H  -8.60300 21.47700 44.02400
H  -10.22300 20.85700 44.42900
H  -10.03700 21.99700 43.19000
H  -7.67200 20.21200 40.68500
H  -6.89500 18.70600 40.87800
H  -5.07400 19.63300 41.98200
H  -5.91000 21.17700 42.31300
H  -15.62500 20.26500 42.83400
H  -14.35300 20.29100 41.55900
H  -14.05200 20.72300 43.27100
H  -18.38400 16.37000 43.05800
H  -17.19900 15.80800 44.28400
H  -17.01300 15.33300 42.57500
H  -14.34900 12.34700 43.44000
H  -11.95900 11.48600 45.18500
H  -14.09600 13.46000 46.20700
H  -14.07500 11.70700 46.08100
H  -15.52800 12.77100 45.47800
H  -11.40900 10.71300 42.62200
H  -13.13900 10.48700 42.70900
H  -11.57900 9.25700 44.92500
H  -11.67500 8.41100 43.29500
H  -13.11900 8.74100 44.20000
H  -7.32400 11.19900 43.02300
H  -7.23400 11.38700 44.77800
H  -5.89900 11.91800 43.68100
H  -5.49000 16.85500 42.09500
H  -2.36400 18.80200 44.53400
H  -2.61300 17.38600 45.50600
H  -3.65900 18.72800 45.74100

