158

Mg 50.18700 46.70700 42.86500
C  46.94500 47.26300 41.53900
C  50.25200 43.78200 41.21000
C  53.23500 46.45900 43.83700
C  50.18200 50.18300 43.75800
N  48.81800 45.69600 41.43100
C  47.50600 45.98800 41.20600
C  46.75500 44.98700 40.40200
C  47.67500 43.77500 40.60800
C  48.99700 44.41500 41.11000
C  47.16600 42.63100 41.55200
C  46.61800 45.45100 38.89000
C  45.27100 45.74400 38.34100
H  44.70500 44.63300 37.39200
N  51.58700 45.30200 42.51100
C  51.46000 44.12200 41.81800
C  52.64700 43.27700 42.07400
C  53.53400 44.04300 42.87200
C  52.83400 45.32200 43.08800
C  52.88900 41.89400 41.51900
C  54.92800 43.59700 43.41200
O  55.32900 42.46700 43.21100
C  55.73000 44.48200 44.36400
N  51.54800 48.21400 43.48300
C  52.76300 47.75700 43.90100
C  53.72700 48.84500 44.42300
C  52.64900 50.05600 44.47200
C  51.35800 49.47100 43.88800
C  54.52400 48.43200 45.71200
C  53.15900 51.30400 43.60500
C  53.43100 52.59100 44.33500
N  48.84900 48.42200 42.67500
C  49.00400 49.76200 43.06300
C  47.83200 50.52200 42.76300
C  46.92600 49.59400 42.22500
C  47.64800 48.33600 42.11700
C  47.63900 51.92800 43.03800
C  45.65300 49.42100 41.57900
O  44.66200 50.11800 41.36800
C  45.58200 47.85600 41.20600
C  44.42500 47.23200 41.80500
O  44.25400 46.93300 42.99500
O  43.39600 47.15600 40.86100
C  42.10100 46.77400 41.32500
H  50.30800 42.77400 40.79400
H  54.30300 46.44600 44.06300
H  50.19000 51.20800 44.13400
H  45.81800 44.70200 40.88100
H  47.91500 43.35200 39.63300
H  46.17800 42.85400 41.95300
H  47.87100 42.52100 42.37700
H  46.96200 41.80100 40.87600
H  47.22900 44.70100 38.38700
H  47.18600 46.37500 38.77900
H  45.35700 46.71900 37.86100
H  44.44800 45.84600 39.04800
H  53.95100 41.78200 41.29700
H  52.36800 41.61300 40.60400
H  52.64200 41.16000 42.28600
H  55.20800 44.79300 45.26900
H  55.89500 45.37800 43.76600
H  56.69900 44.08200 44.66300
H  54.49200 48.97500 43.65800
H  52.51200 50.34600 45.51400
H  54.39600 49.25500 46.41500
H  55.58900 48.37900 45.48500
H  54.19800 47.51800 46.20800
H  52.44900 51.58100 42.82500
H  54.14500 51.11300 43.18100
H  54.48600 52.85500 44.26400
H  53.13200 52.44400 45.37300
H  52.80300 53.40700 43.97800
H  48.46400 52.30600 43.64000
H  46.78800 52.04900 43.70800
H  47.52400 52.44300 42.08400
H  45.51300 47.86200 40.11800
H  42.24400 45.87100 41.91800
H  41.50500 46.62700 40.42400
H  41.48600 47.44700 41.92300
Mg 17.47600 53.42200 25.65600
C  19.04400 52.13400 28.50900
C  14.85300 54.23300 27.71200
C  15.57800 53.97700 22.96600
C  19.98600 52.00000 23.69300
N  17.08700 53.21400 27.86800
C  17.86700 52.83200 28.83100
C  17.30300 53.05200 30.24500
C  15.90000 53.60800 29.92100
C  15.94600 53.73100 28.40200
C  14.65800 52.74300 30.43200
C  18.21700 54.00000 30.99000
C  18.39300 53.66600 32.44000
H  17.51900 54.36000 33.43900
N  15.61800 54.26400 25.39700
C  14.59100 54.42500 26.35700
C  13.36800 54.85300 25.69800
C  13.62200 54.82500 24.29800
C  14.97300 54.38200 24.18100
C  12.12600 55.10800 26.49700
C  12.65600 55.28800 23.19600
O  13.10500 55.42600 22.05700
C  11.19800 55.46800 23.54600
N  17.70600 52.87700 23.69800
C  16.82500 53.39900 22.75400
C  17.38700 53.16300 21.31400
C  18.81800 52.57700 21.54200
C  18.87700 52.53200 23.06200
C  16.53900 52.25200 20.40400
C  19.98700 53.37400 20.85000
C  20.89600 52.47200 20.01100
N  19.18700 52.26200 26.00200
C  20.16900 51.79700 25.11500
C  21.19400 51.18000 25.86800
C  20.74500 51.16200 27.21700
C  19.52000 51.92600 27.17800
C  22.47500 50.70700 25.39500
C  21.00200 50.74600 28.61500
O  22.00100 50.17300 29.01600
C  19.97100 51.40000 29.47000
C  19.30400 50.34600 30.30600
O  18.67200 49.35200 29.94900
O  19.50800 50.66400 31.64000
C  18.87100 49.83400 32.70300
H  14.07300 54.59300 28.38600
H  15.06500 54.14800 22.01700
H  20.72200 51.52900 23.03900
H  17.31200 52.08200 30.74300
H  15.83200 54.60300 30.36000
H  14.83000 52.25500 31.39100
H  14.28200 52.05800 29.67300
H  14.00900 53.54200 30.79100
H  17.93100 55.05000 30.92900
H  19.23600 54.02400 30.60300
H  19.42700 53.89200 32.70000
H  18.31700 52.62700 32.76100
H  12.08300 54.47200 27.38100
H  11.12600 55.01200 26.07400
H  12.29100 56.09100 26.93900
H  11.06400 56.33100 24.19900
H  10.85300 54.58500 24.08500
H  10.62300 55.49700 22.62000
H  17.36300 54.12400 20.80100
H  18.83000 51.52900 21.24600
H  16.41400 51.25400 20.82400
H  17.13700 52.21000 19.49400
H  15.60200 52.75100 20.15600
H  20.69700 53.78700 21.56700
H  19.47600 54.14500 20.27500
H  21.77000 52.97700 19.59900
H  20.41500 52.03600 19.13500
H  21.23200 51.63300 20.62000
H  22.74500 51.13700 24.43100
H  22.47900 49.62600 25.25300
H  23.13600 51.12700 26.15400
H  20.42500 52.17000 30.09300
H  17.81700 49.75200 32.43700
H  19.03000 50.43200 33.60000
H  19.38500 48.88000 32.81900

