158

Mg 25.21400 -5.37800 45.99800
C  27.48700 -3.40900 44.21700
C  22.75000 -4.38700 43.86900
C  23.33800 -8.01100 46.87000
C  27.88300 -6.50700 47.90300
N  25.16700 -4.11500 44.22400
C  26.19000 -3.37600 43.70700
C  25.62800 -2.31300 42.72000
C  24.10300 -2.42300 42.92200
C  24.00400 -3.71100 43.72200
C  23.40600 -1.32100 43.69000
C  26.05800 -2.62400 41.22400
C  26.43000 -1.37500 40.34300
H  25.74000 -1.18900 38.95000
N  23.30300 -6.11300 45.42500
C  22.40000 -5.48900 44.64800
C  21.07600 -6.01700 44.72200
C  21.11700 -7.08000 45.65400
C  22.58500 -7.14900 46.01200
C  19.88100 -5.56300 43.90300
C  20.03300 -8.15300 46.00700
O  18.84600 -8.05700 45.57500
C  20.41200 -9.35000 46.86400
N  25.50400 -7.01800 47.13200
C  24.59400 -7.96800 47.33500
C  25.14400 -9.14200 48.17800
C  26.59600 -8.58200 48.56700
C  26.68600 -7.26200 47.85200
C  24.28000 -9.49900 49.40300
C  27.83300 -9.57800 48.24300
C  28.14000 -10.58100 49.39800
N  27.36400 -5.04400 46.17600
C  28.26800 -5.46800 47.09600
C  29.50700 -4.75300 46.92500
C  29.22900 -3.93700 45.75700
C  27.96400 -4.19200 45.31000
C  30.76100 -4.93000 47.68700
C  29.84600 -2.97200 44.84000
O  30.97700 -2.49500 44.82100
C  28.63700 -2.51600 43.85100
C  28.26700 -1.08000 44.09100
O  27.88000 -0.58300 45.17400
O  28.34300 -0.28800 42.97000
C  28.14300 1.17200 43.11400
H  21.83500 -3.91500 43.50800
H  22.90300 -8.90900 47.31300
H  28.75500 -6.85500 48.46100
H  26.03600 -1.33000 42.95300
H  23.57600 -2.39300 41.96800
H  24.16000 -0.60100 44.00800
H  22.90900 -1.63000 44.61000
H  22.68900 -0.81200 43.04600
H  25.25300 -3.25800 40.85200
H  26.93200 -3.26700 41.32400
H  27.45900 -1.63200 40.09100
H  26.52200 -0.46400 40.93500
H  20.10800 -5.13500 42.92600
H  19.37600 -4.79000 44.48200
H  19.19300 -6.38000 43.68400
H  19.56800 -10.02700 46.99600
H  20.73600 -8.85100 47.77800
H  21.24500 -9.91400 46.44500
H  25.21700 -10.01000 47.52300
H  26.54300 -8.46300 49.64900
H  23.93000 -10.52200 49.27100
H  23.43900 -8.81800 49.53700
H  24.79000 -9.53800 50.36600
H  28.68700 -8.93900 48.01700
H  27.57300 -10.18800 47.37900
H  29.10900 -10.35500 49.84200
H  28.34200 -11.59600 49.05500
H  27.42700 -10.65500 50.21900
H  30.80800 -5.93900 48.09800
H  30.76700 -4.22300 48.51700
H  31.60000 -4.75200 47.01500
H  28.98500 -2.56700 42.81900
H  28.84300 1.58000 43.84200
H  27.11600 1.40700 43.39300
H  28.43600 1.62500 42.16600
Mg 1.53100 41.99300 25.24000
C  2.82900 42.03100 28.62400
C  -1.33900 40.52300 26.45700
C  0.66200 41.51500 22.07200
C  4.80000 42.84000 24.29600
N  0.71000 41.67700 27.37700
C  1.45000 41.59600 28.56200
C  0.56000 41.16500 29.75400
C  -0.71500 40.69100 28.99000
C  -0.43200 40.95400 27.48300
C  -1.09400 39.20100 29.25900
C  0.24000 42.23800 30.83300
C  -0.14200 41.83700 32.22500
H  -1.19800 40.69500 32.41400
N  -0.08100 41.27900 24.32100
C  -1.21300 40.76700 24.99100
C  -2.14100 40.21600 24.03300
C  -1.64500 40.52100 22.72900
C  -0.30200 41.17700 23.00100
C  -3.39900 39.56000 24.49100
C  -2.10200 40.10500 21.35400
O  -1.47700 40.36700 20.29600
C  -3.36100 39.34600 21.22600
N  2.64800 42.05900 23.48300
C  2.02500 41.87800 22.23200
C  2.95100 42.18000 21.07500
C  4.11900 42.85600 21.82600
C  3.86400 42.56700 23.29300
C  3.30700 40.86600 20.24800
C  4.19600 44.34800 21.55300
C  3.04500 45.22400 21.97100
N  3.45100 42.33100 26.22700
C  4.65800 42.68200 25.66800
C  5.72100 42.75900 26.70000
C  5.00300 42.55400 27.91600
C  3.64100 42.26500 27.56100
C  7.18400 42.93600 26.55900
C  5.20600 42.37500 29.30400
O  6.17800 42.49900 30.02800
C  3.75300 42.03200 29.88700
C  3.74200 40.69400 30.55600
O  4.43800 39.71000 30.21200
O  2.90500 40.69600 31.65000
C  2.94400 39.47800 32.45200
H  -2.23600 40.02400 26.83200
H  0.38300 41.23100 21.05500
H  5.72900 43.25300 23.89800
H  0.98200 40.21600 30.08400
H  -1.50700 41.43600 29.06800
H  -0.37700 38.76700 29.95500
H  -0.93300 38.52200 28.42200
H  -2.06900 39.06600 29.72700
H  -0.56500 42.87600 30.47000
H  1.13400 42.85700 30.91100
H  -0.38500 42.73000 32.80000
H  0.79200 41.50800 32.68000
H  -3.66600 39.77600 25.52600
H  -3.28100 38.48200 24.38000
H  -4.27700 39.84500 23.91100
H  -3.25000 38.39700 21.75000
H  -3.39900 39.15600 20.15300
H  -4.26800 39.87500 21.51700
H  2.43100 42.75600 20.30900
H  5.03100 42.32900 21.54800
H  4.31000 40.51100 20.48400
H  3.27800 41.26500 19.23400
H  2.61800 40.03500 20.40300
H  4.45800 44.62400 20.53200
H  5.09200 44.71300 22.05700
H  2.63300 45.69900 21.08100
H  3.39700 45.93400 22.71900
H  2.24000 44.70200 22.48800
H  7.75800 42.12400 27.00600
H  7.38700 43.82100 27.16200
H  7.42200 43.07400 25.50400
H  3.43500 42.84700 30.53800
H  3.61400 38.70100 32.08200
H  1.91400 39.12900 32.51200
H  3.30300 39.64200 33.46800

