158

Mg 24.01000 -5.82300 45.63100
C  26.19400 -3.43700 44.30800
C  21.47800 -4.32400 43.80700
C  22.03700 -8.45400 46.39600
C  26.88900 -7.62000 46.83500
N  23.94700 -4.28200 44.07200
C  24.96700 -3.43900 43.70000
C  24.51300 -2.40800 42.71900
C  22.93200 -2.49200 42.81800
C  22.77400 -3.80000 43.54400
C  22.12700 -1.30000 43.58800
C  25.17900 -2.70400 41.29100
C  25.76300 -1.45400 40.59500
H  25.78000 -1.49100 39.00500
N  22.00400 -6.31800 45.28300
C  21.15100 -5.45600 44.58400
C  19.82300 -6.15500 44.64600
C  19.95400 -7.41200 45.29300
C  21.34200 -7.45300 45.73700
C  18.57200 -5.57100 43.97500
C  18.77200 -8.30300 45.64300
O  17.59700 -8.06500 45.37400
C  19.00400 -9.54500 46.43300
N  24.40600 -7.72800 46.57700
C  23.34700 -8.55200 46.87500
C  23.85000 -9.84300 47.47500
C  25.40000 -9.57600 47.68500
C  25.57400 -8.23000 47.02000
C  22.99500 -10.29500 48.73000
C  26.35700 -10.65100 47.05700
C  25.98000 -12.17800 47.23300
N  26.05200 -5.52300 45.83500
C  27.06900 -6.31500 46.29300
C  28.30100 -5.62900 46.05700
C  28.00600 -4.44800 45.30400
C  26.64200 -4.43700 45.15800
C  29.64600 -6.08700 46.57500
C  28.54700 -3.30000 44.58800
O  29.72700 -3.06100 44.43600
C  27.39200 -2.54600 43.96000
C  27.27900 -1.16900 44.50900
O  26.39400 -0.75900 45.26200
O  28.22500 -0.38600 43.95600
C  28.19300 1.06600 44.23300
H  20.68100 -3.81000 43.26500
H  21.49400 -9.38400 46.57500
H  27.64300 -8.31000 47.21900
H  24.76500 -1.39400 43.02700
H  22.53000 -2.60800 41.81200
H  21.91300 -1.49400 44.63900
H  21.21000 -1.31600 42.99900
H  22.63500 -0.34200 43.47900
H  24.50700 -3.16200 40.56500
H  26.00100 -3.41300 41.39400
H  26.83100 -1.51900 40.80100
H  25.30700 -0.52100 40.92600
H  18.33600 -6.20200 43.11800
H  18.80700 -4.56900 43.61600
H  17.66700 -5.47000 44.57400
H  18.12000 -10.18100 46.38000
H  19.26900 -9.14200 47.41100
H  19.72600 -10.23200 45.99300
H  23.73600 -10.54200 46.64700
H  25.72000 -9.45800 48.72100
H  22.05200 -9.75900 48.84200
H  23.51100 -10.05400 49.65900
H  22.85300 -11.37500 48.74900
H  27.38400 -10.50200 47.38800
H  26.48300 -10.46700 45.99100
H  25.89600 -12.62200 46.24100
H  25.02200 -12.29200 47.74000
H  26.67000 -12.67400 47.91500
H  29.90100 -6.93400 45.93900
H  29.63900 -6.46100 47.59800
H  30.33100 -5.24100 46.51700
H  27.58800 -2.58200 42.88800
H  28.50200 1.30500 45.25100
H  27.16700 1.43300 44.20200
H  28.73900 1.72900 43.56200
Mg 9.90900 47.04400 26.41700
C  7.78300 47.42500 29.23200
C  12.43300 48.36800 28.16100
C  11.66200 46.85900 23.67000
C  6.87400 46.47500 24.48100
N  10.11100 47.84100 28.50800
C  9.14200 47.74100 29.50400
C  9.79000 48.25200 30.82900
C  11.06200 49.04000 30.37000
C  11.22000 48.37300 28.96100
C  10.94700 50.59600 30.28000
C  10.12100 47.05200 31.79700
C  9.45200 47.29900 33.21100
H  9.29500 46.04900 34.06600
N  11.78600 47.35500 25.99800
C  12.75300 47.80700 26.86200
C  14.07700 47.91300 26.25700
C  13.87400 47.55100 24.89500
C  12.38600 47.26200 24.78400
C  15.28200 48.19800 27.01000
C  14.87600 47.22800 23.87800
O  14.55200 47.15300 22.70400
C  16.40400 47.15600 24.17400
N  9.27200 46.75200 24.33800
C  10.25700 46.69600 23.43900
C  9.63500 46.79200 22.06400
C  8.15300 46.37400 22.24700
C  8.06600 46.53000 23.76700
C  9.80800 48.20500 21.42700
C  7.77500 44.99800 21.65600
C  8.68400 43.75800 21.97000
N  7.84700 46.94200 26.71300
C  6.74700 46.66300 25.83200
C  5.50800 46.53000 26.60100
C  5.84500 46.85200 27.94200
C  7.29000 47.10800 27.92500
C  4.08400 46.37300 25.97300
C  5.28100 47.10000 29.29400
O  4.13100 47.16800 29.74500
C  6.58900 47.31000 30.17600
C  6.68500 46.15900 31.13200
O  7.37800 45.14900 30.84000
O  6.00800 46.35000 32.34600
C  5.83500 45.05600 33.09900
H  13.25600 48.80700 28.72800
H  12.31300 46.86500 22.79300
H  5.99800 46.20600 23.88700
H  9.04100 48.90900 31.27100
H  11.96400 48.85200 30.95300
H  11.65800 51.02600 30.98600
H  9.93000 50.91100 30.51100
H  11.11100 51.03400 29.29600
H  11.20500 47.06300 31.91700
H  9.78400 46.10000 31.38800
H  8.51300 47.77000 32.92100
H  9.97100 48.01800 33.84600
H  15.14800 48.15800 28.09100
H  15.73900 49.17300 26.84300
H  16.05300 47.43400 26.90800
H  16.72900 47.93600 24.86400
H  16.93200 47.19300 23.22200
H  16.59100 46.12400 24.47000
H  10.19600 46.15700 21.37800
H  7.61200 47.23700 21.85800
H  10.79600 48.57200 21.70600
H  9.07400 48.94800 21.73900
H  9.86300 48.04600 20.35000
H  7.76300 45.00500 20.56600
H  6.80400 44.67400 22.02900
H  9.34400 43.93800 22.81900
H  9.22700 43.48100 21.06600
H  7.94700 43.06200 22.37000
H  3.59700 45.42300 26.19400
H  4.15900 46.52900 24.89700
H  3.44100 47.16700 26.35200
H  6.43200 48.16200 30.83600
H  5.63300 45.55000 34.04900
H  6.74200 44.47500 33.26700
H  4.95000 44.52000 32.75500

