158

Mg 47.42600 16.34100 28.70000
C  45.19800 16.18200 31.59600
C  49.55500 18.25300 30.63400
C  49.06900 17.02700 25.98100
C  44.74400 15.01400 26.82900
N  47.43500 16.98100 30.99400
C  46.39900 16.94500 31.88100
C  46.80600 17.55400 33.27000
C  48.14900 18.35800 32.88400
C  48.44600 17.84600 31.44900
C  47.98400 19.94000 32.99600
C  47.11400 16.45700 34.28500
C  46.65000 16.64800 35.70300
H  46.51300 18.12900 36.22800
N  49.26000 17.26500 28.42000
C  49.94300 18.02600 29.29200
C  51.16000 18.47100 28.67000
C  51.00800 18.09800 27.28500
C  49.75800 17.38500 27.18700
C  52.30400 19.16300 29.41200
C  51.95200 18.28400 26.04200
O  51.73700 17.81800 24.94800
C  53.24900 19.04400 26.30900
N  46.99900 15.95500 26.74200
C  47.82000 16.45300 25.77100
C  47.10700 16.41600 24.39500
C  45.94900 15.37800 24.67000
C  45.86800 15.44800 26.17800
C  46.49300 17.79500 23.92400
C  46.22600 13.86900 24.12100
C  45.00400 13.15400 23.55400
N  45.38600 15.57400 29.07900
C  44.44900 15.06600 28.23000
C  43.37900 14.48200 28.97800
C  43.61400 14.88100 30.29900
C  44.81800 15.65500 30.28300
C  42.37900 13.52500 28.40800
C  43.10100 14.76600 31.61800
O  42.10900 14.18100 32.09700
C  44.12100 15.65700 32.52800
C  43.32800 16.67600 33.38800
O  42.86100 17.71900 32.96500
O  43.34200 16.29000 34.67100
C  42.77700 17.37500 35.60400
H  50.24200 18.89400 31.19100
H  49.59100 17.32200 25.06900
H  44.04000 14.46300 26.20100
H  46.03000 18.21100 33.66400
H  48.99600 18.00700 33.47300
H  48.36700 20.28500 32.03600
H  48.53200 20.31500 33.86100
H  46.97100 20.27600 33.21900
H  48.15400 16.14200 34.18800
H  46.56500 15.64600 33.80600
H  47.12400 15.88400 36.31900
H  45.62000 16.29100 35.71000
H  52.22800 19.08200 30.49600
H  52.19100 20.22500 29.19200
H  53.23400 18.76600 29.00400
H  53.08200 19.89700 26.96700
H  53.51200 19.46800 25.34000
H  54.08400 18.39400 26.57000
H  47.82200 16.06100 23.65300
H  45.01000 15.72500 24.24100
H  46.85700 18.48800 24.68300
H  45.41100 17.77500 23.78800
H  47.03500 18.00700 23.00300
H  46.51700 13.23800 24.96100
H  47.00400 13.99400 23.36800
H  45.19100 12.10800 23.79800
H  45.04900 13.25800 22.47000
H  44.05800 13.47200 23.99100
H  42.72400 12.49300 28.33800
H  42.12100 13.94500 27.43600
H  41.46300 13.58800 28.99700
H  44.53100 14.91800 33.21600
H  41.70800 17.18200 35.69300
H  42.88400 18.36200 35.15300
H  43.31700 17.21900 36.53800
Mg -1.84000 34.75700 26.40300
C  -3.61600 33.21000 29.15400
C  -0.75200 37.02500 28.68400
C  -0.67700 36.32700 23.79800
C  -3.23200 32.25800 24.41900
N  -2.23300 35.07900 28.72400
C  -2.97500 34.37000 29.58200
C  -2.92200 34.99900 31.03100
C  -2.04600 36.25000 30.82700
C  -1.65500 36.11800 29.34000
C  -2.59400 37.71100 31.34000
C  -2.33700 34.07600 32.03600
C  -2.43900 34.47600 33.53600
H  -3.17100 33.58900 34.60100
N  -0.91500 36.47800 26.25600
C  -0.44500 37.22600 27.30800
C  0.32500 38.29000 26.82200
C  0.44500 38.09200 25.47400
C  -0.42200 36.93600 25.08900
C  0.94200 39.29000 27.75900
C  1.28100 38.81600 24.47100
O  1.45400 38.48600 23.26300
C  2.12000 40.00500 24.93600
N  -2.03600 34.44500 24.42800
C  -1.42200 35.17100 23.49600
C  -1.40700 34.51500 22.08600
C  -2.11700 33.16200 22.37600
C  -2.44100 33.25000 23.84200
C  -1.97900 35.51700 21.03700
C  -1.39900 31.89600 21.89400
C  -0.05000 31.50600 22.58800
N  -3.28400 33.08300 26.60000
C  -3.71400 32.17500 25.75100
C  -4.45300 31.15300 26.41100
C  -4.40800 31.47900 27.71700
C  -3.70100 32.72000 27.80400
C  -5.13100 30.02500 25.74800
C  -4.87200 31.10500 28.96900
O  -5.59600 30.16500 29.25900
C  -4.37600 32.21800 30.01600
C  -5.50900 32.67500 30.73500
O  -6.50900 33.17800 30.27300
O  -5.31700 32.43000 32.12100
C  -6.57600 32.55100 32.91600
H  -0.26100 37.71100 29.37800
H  -0.22500 36.83600 22.94400
H  -3.58400 31.53700 23.67800
H  -3.96000 35.21700 31.28500
H  -1.11500 36.09200 31.37000
H  -2.59300 38.40000 30.49600
H  -2.06700 38.08800 32.21600
H  -3.62600 37.51800 31.63600
H  -1.33200 33.78100 31.73300
H  -2.84800 33.12300 31.89800
H  -2.73400 35.52200 33.45200
H  -1.37700 34.55300 33.77000
H  2.01800 39.29500 27.57900
H  0.70500 39.23900 28.82200
H  0.75800 40.31000 27.42200
H  1.42600 40.77200 25.28100
H  2.61000 40.31300 24.01200
H  2.87300 39.68500 25.65500
H  -0.33700 34.39800 21.91500
H  -3.05000 33.08500 21.81900
H  -1.19000 35.78800 20.33600
H  -2.33900 36.45100 21.46800
H  -2.74300 35.08000 20.39400
H  -1.26900 31.99100 20.81600
H  -2.16700 31.12500 21.95900
H  0.13300 32.13600 23.45900
H  0.79500 31.40800 21.90700
H  -0.09700 30.48400 22.96300
H  -5.42700 29.37700 26.57300
H  -4.53800 29.51400 24.99000
H  -6.04300 30.42100 25.30300
H  -3.66200 31.60600 30.56700
H  -6.39900 32.73900 33.97500
H  -7.14600 31.62300 32.86600
H  -7.24400 33.38100 32.68600

