158

Mg 8.60300 3.47300 27.73700
C  10.19900 1.96900 30.50100
C  6.44800 5.17400 29.87500
C  6.93400 4.79700 25.05800
C  10.27900 1.33000 25.57400
N  8.20500 3.31900 30.00800
C  9.12400 2.86700 30.94900
C  8.72700 3.44300 32.39300
C  7.51600 4.40800 32.08100
C  7.33200 4.29900 30.56200
C  6.20100 4.22000 32.82300
C  9.81000 4.03700 33.30400
C  9.44700 5.24000 34.29100
H  10.23900 5.13100 35.60700
N  6.86500 4.82900 27.52400
C  6.15900 5.38100 28.49600
C  5.15800 6.32400 27.93700
C  5.32100 6.27200 26.56000
C  6.45600 5.30400 26.29600
C  4.26000 7.14700 28.78700
C  4.65500 6.95000 25.41900
O  4.92600 6.76400 24.26400
C  3.69800 8.08300 25.73900
N  8.64800 3.16400 25.75900
C  7.88300 3.79900 24.78700
C  8.37000 3.62400 23.40500
C  9.46200 2.60100 23.58500
C  9.46700 2.31300 25.09800
C  7.21800 3.29000 22.32500
C  10.86800 3.06000 22.91600
C  11.24600 2.51200 21.53600
N  9.96300 1.92000 27.91100
C  10.59400 1.15600 26.96500
C  11.43700 0.23500 27.65800
C  11.38200 0.62900 28.97300
C  10.43000 1.65000 29.08200
C  12.24600 -0.80900 27.00000
C  11.94300 0.31800 30.27300
O  12.82000 -0.46000 30.53100
C  11.24600 1.26000 31.39400
C  10.60900 0.41300 32.39300
O  9.69200 -0.34500 32.20800
O  11.22200 0.64800 33.57200
C  10.57900 0.18900 34.76900
H  5.86500 5.74500 30.60100
H  6.41200 5.06400 24.13700
H  10.84300 0.80000 24.80300
H  8.19200 2.69500 32.97900
H  7.80500 5.45600 32.15800
H  5.83200 5.21500 33.07600
H  6.44200 3.71200 33.75700
H  5.51500 3.60500 32.24100
H  10.69400 4.23500 32.69700
H  10.13000 3.14000 33.83400
H  8.39600 5.15400 34.56600
H  9.69400 6.16800 33.77600
H  4.44100 8.19200 28.53600
H  4.29400 7.03700 29.87100
H  3.22900 6.98700 28.46900
H  3.27800 8.42900 24.79400
H  4.25300 8.87100 26.24700
H  2.93800 7.58200 26.33800
H  8.82000 4.55300 23.05200
H  9.22900 1.63200 23.14300
H  7.70100 2.87000 21.44200
H  6.68100 4.14500 21.91400
H  6.58100 2.50300 22.72800
H  11.69000 2.65900 23.50800
H  10.90900 4.13500 23.09300
H  11.40000 3.27200 20.77000
H  10.38600 1.90400 21.25600
H  12.18700 1.97500 21.42100
H  13.11000 -1.06500 27.61200
H  12.61100 -0.39800 26.05900
H  11.73000 -1.76400 26.89700
H  12.02600 1.84900 31.87700
H  11.36400 0.34600 35.50900
H  10.31600 -0.85700 34.61300
H  9.72700 0.72700 35.18400
Mg 25.32200 2.23200 29.54300
C  27.49900 1.75400 32.25600
C  22.83900 2.68200 31.66600
C  23.39000 2.47900 26.84500
C  28.10400 1.52800 27.35900
N  25.17400 1.96200 31.74900
C  26.20700 2.07000 32.63100
C  25.64700 2.35800 34.01500
C  24.13000 2.56900 33.91800
C  24.03500 2.44300 32.33800
C  23.18400 1.60900 34.62500
C  26.41300 3.44600 34.86100
C  26.94700 3.01300 36.28000
H  26.59800 4.03500 37.45200
N  23.33100 2.42000 29.31300
C  22.46400 2.63900 30.36000
C  21.12100 2.73900 29.79900
C  21.28100 2.52100 28.36300
C  22.72800 2.49500 28.09200
C  19.91500 2.88700 30.63700
C  20.35300 2.26300 27.29300
O  20.58800 2.12600 26.10300
C  18.90900 2.14300 27.75900
N  25.70500 2.03200 27.39300
C  24.67700 2.19600 26.50100
C  25.12200 2.06300 25.08600
C  26.72000 1.93100 25.22500
C  26.88600 1.89500 26.76700
C  24.33100 0.96900 24.37400
C  27.58400 3.00700 24.51900
C  27.14600 4.43500 24.71800
N  27.36000 1.73100 29.75900
C  28.37600 1.48100 28.78000
C  29.59500 1.10600 29.42400
C  29.28800 1.19900 30.75900
C  27.95400 1.52400 30.89700
C  30.90100 0.71600 28.81000
C  29.84900 1.14400 32.11700
O  31.02600 0.96500 32.46300
C  28.70900 1.58000 33.17900
C  28.66000 0.48500 34.19800
O  28.02000 -0.53200 34.17100
O  29.34500 0.91500 35.17400
C  29.07700 0.39300 36.48900
H  22.01300 3.01900 32.29600
H  22.75900 2.79600 26.01200
H  28.86000 1.20300 26.64200
H  25.94000 1.41800 34.48300
H  23.92300 3.62200 34.10800
H  23.00100 0.81600 33.90000
H  22.30500 2.19500 34.89200
H  23.61300 1.06400 35.46600
H  25.65000 4.18400 35.11200
H  27.15500 3.93700 34.23200
H  28.03500 2.96300 36.24000
H  26.53500 2.02600 36.49200
H  20.08200 3.16900 31.67700
H  19.46000 1.89600 30.66000
H  19.14600 3.56200 30.26300
H  19.10200 1.40600 28.53900
H  18.32300 1.65900 26.97800
H  18.44900 3.06200 28.12300
H  24.82900 3.01600 24.64500
H  27.02600 0.94700 24.86900
H  23.42300 0.63000 24.87300
H  24.96800 0.09100 24.26800
H  24.01800 1.35600 23.40400
H  27.54700 2.73300 23.46400
H  28.62900 2.91500 24.81500
H  26.76600 4.72800 23.74000
H  27.93200 5.15300 24.94800
H  26.31100 4.70300 25.36700
H  30.75400 -0.16100 28.17800
H  31.58700 0.46200 29.61700
H  31.29800 1.49900 28.16400
H  29.02000 2.49900 33.67500
H  28.00900 0.52700 36.65900
H  29.60800 1.10600 37.11900
H  29.39500 -0.64900 36.45300

