158

Mg 25.61900 -0.23900 29.42500
C  27.44200 -0.76100 32.25000
C  22.78100 -0.09600 31.35400
C  23.62900 -0.27700 26.55500
C  28.43000 -0.82200 27.47300
N  25.19200 -0.61300 31.52600
C  26.15800 -0.56400 32.52400
C  25.59600 -0.29400 33.98900
C  24.03700 -0.27800 33.64300
C  23.95600 -0.42000 32.10800
C  23.14800 -1.25600 34.44500
C  26.19900 0.96200 34.69100
C  26.79000 0.64600 36.05400
H  26.47000 1.70300 37.13900
N  23.56300 -0.06700 29.01400
C  22.50900 0.13400 29.95800
C  21.28500 0.47800 29.28600
C  21.55000 0.37100 27.90600
C  22.96100 -0.06200 27.76100
C  20.04100 0.82800 30.00200
C  20.61700 0.57200 26.72900
O  20.87600 0.36400 25.53300
C  19.26400 1.24700 27.00500
N  25.91000 -0.40000 27.32900
C  25.00700 -0.38400 26.34200
C  25.69300 -0.51900 24.94500
C  27.19300 -0.41800 25.28000
C  27.22000 -0.54000 26.83500
C  25.28100 -1.73600 24.09900
C  27.85600 0.92700 24.87800
C  29.14500 0.98700 24.10700
N  27.59900 -0.57200 29.78600
C  28.59500 -0.84200 28.90200
C  29.76600 -1.12000 29.69800
C  29.50100 -0.93800 31.02600
C  28.08400 -0.79900 31.01700
C  31.12300 -1.49800 29.13400
C  29.95900 -0.92000 32.34700
O  31.06600 -0.90700 32.83500
C  28.62100 -0.96200 33.20800
C  28.44100 -2.21500 33.96000
O  27.66600 -3.14200 33.75400
O  29.36500 -2.08000 35.01200
C  29.11800 -2.97500 36.14900
H  21.93200 0.00900 32.03300
H  22.94200 -0.37700 25.71200
H  29.25400 -1.00500 26.78000
H  25.85300 -1.14900 34.61600
H  23.65100 0.72700 33.81400
H  23.34500 -1.43700 35.50200
H  23.10700 -2.19800 33.89900
H  22.15900 -0.80200 34.39400
H  25.34100 1.61600 34.84700
H  26.93300 1.41800 34.02600
H  27.84200 0.45700 35.84100
H  26.39200 -0.23900 36.55200
H  19.80300 1.86600 29.77300
H  20.30700 0.83000 31.05900
H  19.22500 0.10700 29.93800
H  19.40500 2.10400 27.66400
H  18.55400 0.49600 27.35200
H  18.87900 1.67200 26.07700
H  25.37200 0.36000 24.38600
H  27.73300 -1.27300 24.87400
H  24.79200 -2.48100 24.72600
H  26.16400 -2.21200 23.67200
H  24.57000 -1.44300 23.32500
H  28.14900 1.53900 25.73100
H  27.10300 1.42500 24.26700
H  29.06300 1.62900 23.22900
H  29.52600 0.01400 23.79500
H  29.85500 1.36000 24.84500
H  31.93100 -1.32600 29.84500
H  31.34600 -1.03700 28.17200
H  31.04000 -2.55100 28.86200
H  28.61100 -0.15700 33.94200
H  28.81500 -3.96300 35.80300
H  28.48600 -2.50200 36.90100
H  30.08100 -3.09100 36.64600
Mg 46.70300 45.01700 43.66000
C  43.17400 44.08700 43.33900
C  47.42800 41.86900 42.48000
C  49.86500 45.93500 43.42600
C  45.67200 48.36500 44.01300
N  45.37900 43.18400 42.83200
C  44.01800 43.04000 43.06400
C  43.63400 41.60300 42.72200
C  45.04500 40.89000 42.43600
C  46.00600 42.08200 42.54900
C  45.23200 39.68500 43.30000
C  42.63600 41.35600 41.54500
C  42.87900 42.16500 40.21000
H  42.83400 41.45200 38.85500
N  48.48600 43.95200 43.22700
C  48.53800 42.66700 42.80300
C  49.90800 42.21700 42.65600
C  50.70300 43.42100 42.91700
C  49.73600 44.53500 43.18700
C  50.34300 40.81200 42.16000
C  52.18700 43.53500 42.95100
O  52.89200 42.50500 42.75700
C  53.03300 44.88800 43.22400
N  47.54800 46.93200 43.48600
C  48.88500 46.99200 43.65000
C  49.40200 48.45600 43.83500
C  48.08500 49.23200 44.11100
C  47.04100 48.09000 43.92200
C  50.49000 48.59000 44.98400
C  47.93000 50.58100 43.42300
C  47.84000 51.87800 44.24000
N  44.86300 46.03500 43.71100
C  44.62400 47.42900 43.86300
C  43.19600 47.62700 44.10900
C  42.56400 46.31800 43.90500
C  43.60100 45.39600 43.58700
C  42.65400 48.98900 44.51500
C  41.32400 45.67200 43.75800
O  40.21700 46.05000 43.83300
C  41.66200 44.13200 43.53500
C  41.20900 43.50600 44.77200
O  40.26600 42.69200 44.86100
O  41.91900 43.99800 45.83900
C  41.55700 43.57000 47.16300
H  47.67800 40.87400 42.10800
H  50.89000 46.29000 43.29900
H  45.25600 49.35900 44.19100
H  43.13300 41.20100 43.60200
H  45.04400 40.48700 41.42400
H  46.27700 39.43700 43.48700
H  44.88100 38.76500 42.83300
H  44.70100 39.73500 44.25100
H  41.68600 41.64400 41.99500
H  42.71700 40.28900 41.33500
H  43.91700 42.39800 40.44500
H  42.35200 43.11000 40.34300
H  50.68800 41.14400 41.18100
H  49.60100 40.03500 41.97700
H  51.17500 40.39100 42.72600
H  52.80900 45.65200 42.48000
H  54.10500 44.69300 43.17800
H  52.86300 45.21500 44.25000
H  49.88500 48.66000 42.88000
H  48.03200 49.51300 45.16300
H  50.72000 47.64300 45.47100
H  50.25600 49.36200 45.71700
H  51.39000 48.90100 44.45400
H  47.03600 50.57000 42.80000
H  48.81200 50.67900 42.78900
H  47.33600 51.84400 45.20500
H  47.49300 52.68800 43.59800
H  48.85400 52.18400 44.50200
H  41.56700 49.05800 44.51400
H  43.03000 49.85900 43.97600
H  42.87700 49.20500 45.56000
H  41.04700 43.71300 42.73800
H  40.63100 42.99500 47.14900
H  41.38100 44.42400 47.81700
H  42.38100 42.93400 47.48700

