158

Mg 40.72500 9.02400 29.71000
C  42.72900 10.10300 32.33000
C  38.77200 7.35400 31.91100
C  39.25000 7.67200 27.20000
C  43.27300 10.29200 27.49900
N  40.78900 8.76900 31.89100
C  41.60700 9.43800 32.74200
C  41.04200 9.35900 34.11900
C  40.07600 8.15000 34.05200
C  39.84600 8.07300 32.52200
C  40.68300 6.80400 34.60900
C  40.23600 10.71400 34.61600
C  40.12500 10.76100 36.18100
H  41.23900 11.46800 36.96900
N  39.02100 7.76700 29.55200
C  38.31100 7.26100 30.59900
C  37.13600 6.61900 30.06400
C  37.25000 6.73100 28.64300
C  38.53200 7.42300 28.42400
C  36.05200 6.00800 30.92000
C  36.27000 6.29900 27.57000
O  36.42300 6.50700 26.38800
C  34.96800 5.67300 27.99500
N  41.28800 8.77500 27.69800
C  40.41900 8.25100 26.81800
C  40.75900 8.52200 25.33800
C  41.98800 9.46100 25.50500
C  42.24900 9.50500 26.99300
C  40.87100 7.27200 24.50400
C  41.71500 10.83100 24.90700
C  40.87100 11.73300 25.82100
N  42.55900 10.01900 29.82900
C  43.47900 10.40100 28.89500
C  44.59800 11.04400 29.58100
C  44.29100 11.01500 30.94000
C  43.09600 10.33300 31.02400
C  45.80700 11.79800 29.02500
C  44.77100 11.41500 32.22200
O  45.73300 12.04300 32.52900
C  43.73500 10.83400 33.20900
C  44.41800 10.05000 34.21600
O  44.55500 8.81700 34.20700
O  44.91800 10.89100 35.19300
C  45.59900 10.27800 36.26500
H  38.14900 6.83900 32.64600
H  38.82400 7.11200 26.36600
H  43.91600 10.76000 26.75000
H  41.87900 9.22900 34.80500
H  39.19000 8.30100 34.67000
H  41.74900 6.70600 34.39900
H  40.31600 5.91800 34.09200
H  40.51700 6.51600 35.64700
H  39.20800 10.72200 34.25300
H  40.76200 11.55100 34.15800
H  40.18300 9.72000 36.50200
H  39.17700 11.20300 36.48800
H  35.90900 4.95700 30.66800
H  35.05300 6.43900 30.85800
H  36.29200 5.90500 31.97900
H  35.03100 4.68300 28.44600
H  34.25300 5.59800 27.17500
H  34.57700 6.38000 28.72600
H  39.91300 9.02600 24.87000
H  42.92300 9.02100 25.15700
H  40.16800 7.17500 23.67700
H  40.77700 6.40700 25.16100
H  41.85400 7.43700 24.06500
H  41.14600 10.75200 23.98100
H  42.65000 11.34700 24.68600
H  40.66100 11.31100 26.80300
H  39.83700 11.86600 25.50100
H  41.37900 12.67900 26.00800
H  45.62000 12.06600 27.98500
H  46.71000 11.19800 29.13500
H  45.91300 12.67900 29.65900
H  43.27600 11.69600 33.69300
H  46.37400 9.65200 35.82200
H  44.87500 9.90400 36.98900
H  46.14400 10.99500 36.87700
Mg 6.66600 53.91400 41.00100
C  5.77200 50.56400 40.43700
C  9.79600 53.10900 39.83700
C  7.46300 57.19300 41.22100
C  3.44500 54.55200 42.11800
N  7.66400 52.12900 40.13700
C  7.10500 50.84000 40.00200
C  8.02400 49.84300 39.39900
C  9.41200 50.59400 39.59500
C  8.96000 52.04000 39.91000
C  10.32100 50.02600 40.77300
C  7.77700 49.32700 37.92900
C  7.07900 50.41400 36.94200
H  6.68500 50.06900 35.50600
N  8.41900 55.06500 40.49800
C  9.58200 54.51900 40.10100
C  10.61700 55.56900 39.95900
C  9.91100 56.79600 40.39200
C  8.54900 56.39400 40.69800
C  11.92300 55.36300 39.41500
C  10.60400 58.22100 40.58100
O  11.78900 58.30900 40.30600
C  9.87800 59.50800 40.73800
N  5.42100 55.73500 41.35100
C  6.10000 56.85100 41.66600
C  5.08000 57.88300 42.22500
C  3.84400 56.99100 42.61000
C  4.24400 55.68700 41.98200
C  5.52700 58.89900 43.28800
C  2.40500 57.56300 42.25600
C  1.48800 58.00200 43.41800
N  4.89800 52.87700 41.20200
C  3.67000 53.19200 41.76900
C  2.88100 52.00700 42.01500
C  3.63800 50.96700 41.43600
C  4.87200 51.54700 41.01000
C  1.52200 51.97700 42.72200
C  3.61100 49.60300 41.03500
O  2.76200 48.74000 41.13500
C  4.96700 49.26900 40.48500
C  4.69900 48.68400 39.05900
O  4.28800 49.25200 38.06400
O  4.98500 47.38500 39.12400
C  4.56700 46.52500 38.05800
H  10.77800 52.85700 39.43100
H  7.74100 58.22400 41.45100
H  2.49300 54.56800 42.65200
H  8.06900 48.98100 40.06400
H  9.98600 50.60700 38.66800
H  9.90300 49.15200 41.27200
H  10.58500 50.77800 41.51600
H  11.25700 49.69100 40.32500
H  7.16900 48.42400 37.98100
H  8.73500 49.11400 37.45500
H  7.58600 51.37000 36.80900
H  6.22000 50.79000 37.49700
H  12.26400 54.33300 39.31100
H  12.65500 55.89200 40.02600
H  11.97600 55.69900 38.37900
H  10.44700 60.37300 40.39900
H  9.71100 59.61200 41.81000
H  8.91000 59.49700 40.23600
H  4.76700 58.43800 41.34100
H  3.93600 56.78500 43.67700
H  6.59700 59.00000 43.47100
H  5.11000 58.60000 44.25000
H  5.24700 59.92100 43.03300
H  1.84500 56.67900 41.95100
H  2.45200 58.27900 41.43600
H  1.30700 59.07500 43.48000
H  1.89400 57.68000 44.37700
H  0.49100 57.57600 43.30500
H  0.81800 52.75000 42.41600
H  1.61600 51.83500 43.79900
H  1.01200 51.05400 42.44700
H  5.52200 48.54600 41.08200
H  4.61400 45.48600 38.38300
H  5.26600 46.59300 37.22500
H  3.54100 46.65800 37.71400

