158

Mg 36.13300 1.90600 29.94300
C  33.77500 2.91400 32.39700
C  38.28200 1.25600 32.41600
C  38.14500 0.90300 27.63400
C  33.57800 2.24500 27.56000
N  36.08400 2.33800 32.18000
C  35.01900 2.69100 33.00400
C  35.37900 2.47700 34.48200
C  36.95000 2.29300 34.43500
C  37.07800 1.88400 32.90700
C  37.76600 3.58500 34.64800
C  34.59000 1.43300 35.24600
C  33.95800 1.81700 36.63800
H  34.57100 2.99500 37.42100
N  38.08300 1.30700 30.01300
C  38.78000 1.12700 31.08500
C  40.13300 0.68400 30.66400
C  40.11600 0.52700 29.26700
C  38.78500 0.93200 28.90200
C  41.30500 0.53700 31.67300
C  41.29000 0.06200 28.38000
O  41.14700 0.03800 27.15200
C  42.64000 -0.41400 28.83200
N  35.84200 1.51400 27.93100
C  36.88500 1.14400 27.16600
C  36.53100 1.31000 25.70300
C  35.04400 1.25200 25.70400
C  34.79200 1.75300 27.12300
C  37.22300 2.50000 24.95600
C  34.42500 -0.17100 25.47700
C  33.22000 -0.23200 24.54800
N  33.99000 2.55000 29.88100
C  33.13500 2.69800 28.82300
C  31.81400 3.09800 29.37200
C  32.01500 3.16600 30.73000
C  33.34200 2.84400 31.03200
C  30.57600 3.24400 28.46100
C  31.39700 3.48000 32.04400
O  30.24900 3.78200 32.30800
C  32.50200 3.32300 33.11900
C  32.57200 4.61600 33.76700
O  33.17600 5.60200 33.35600
O  31.73800 4.68500 34.83000
C  31.76600 5.84500 35.78000
H  39.04100 1.04100 33.17200
H  38.77600 0.45200 26.86500
H  32.74300 2.34200 26.86300
H  35.22100 3.43700 34.97300
H  37.14000 1.46000 35.11200
H  37.25700 4.53000 34.45900
H  38.66300 3.51900 34.03200
H  38.02900 3.50700 35.70300
H  35.24200 0.57100 35.38900
H  33.72500 1.13600 34.65200
H  33.99800 0.89200 37.21400
H  32.88500 1.89800 36.46500
H  41.00500 0.97500 32.62500
H  42.25500 1.01000 31.42400
H  41.39800 -0.54700 31.74000
H  43.41100 -0.60400 28.08600
H  42.55700 -1.32200 29.42900
H  43.02800 0.39200 29.45600
H  36.91400 0.40900 25.22300
H  34.65900 2.07300 25.10000
H  36.40800 3.13600 24.61100
H  37.97700 2.25300 24.20900
H  37.70400 3.20200 25.63700
H  34.18700 -0.65700 26.42300
H  35.20900 -0.79400 25.04700
H  33.52700 -0.85500 23.70800
H  32.85500 0.72200 24.16700
H  32.38300 -0.78000 24.98200
H  29.76000 2.69200 28.92800
H  30.77300 2.71000 27.53100
H  30.41200 4.27300 28.14100
H  32.14700 2.60800 33.86100
H  32.68700 6.40000 35.60000
H  31.84900 5.43500 36.78600
H  30.93500 6.54900 35.74200
Mg 47.76500 15.86700 27.97900
C  45.72000 15.35200 30.93400
C  49.96900 17.61500 29.96500
C  49.63400 16.39500 25.27600
C  45.28000 14.31900 26.12700
N  47.78100 16.45900 30.21100
C  46.91100 16.08000 31.23000
C  47.47600 16.62500 32.58400
C  48.57100 17.61400 32.09900
C  48.82100 17.21100 30.68200
C  48.25300 19.13100 32.34500
C  47.79100 15.48100 33.60400
C  47.30200 15.67200 35.04700
H  47.09500 17.05700 35.66600
N  49.52700 16.82200 27.67800
C  50.33200 17.31300 28.68300
C  51.56700 17.66000 27.98900
C  51.48200 17.40100 26.65000
C  50.20000 16.81300 26.46200
C  52.74600 18.26200 28.76000
C  52.53300 17.74100 25.52500
O  52.41400 17.32600 24.38500
C  53.78900 18.56300 25.97900
N  47.39700 15.52200 25.92400
C  48.41400 15.72000 25.04700
C  47.89000 15.32500 23.63900
C  46.52400 14.61600 23.91800
C  46.41100 14.72100 25.40700
C  47.80400 16.54500 22.73400
C  46.43900 13.16100 23.46100
C  46.95500 11.99400 24.25500
N  45.83700 15.10200 28.38000
C  44.92400 14.55800 27.46700
C  43.80800 14.00300 28.22700
C  44.04500 14.29600 29.58700
C  45.27200 14.95200 29.62400
C  42.69500 13.11000 27.78400
C  43.65300 14.11300 30.96600
O  42.69700 13.56000 31.40100
C  44.70300 14.85700 31.91000
C  43.95700 15.95000 32.60400
O  43.76900 17.04200 32.20100
O  43.54400 15.50700 33.88000
C  42.73200 16.46100 34.68700
H  50.68400 18.22900 30.51600
H  50.27400 16.54100 24.40300
H  44.62600 13.71100 25.49800
H  46.66500 17.22900 32.99000
H  49.47600 17.52200 32.70000
H  49.02200 19.69200 32.87600
H  47.39400 19.34100 32.98200
H  48.21800 19.71300 31.42500
H  48.86600 15.30700 33.55100
H  47.42100 14.54100 33.19400
H  48.09400 15.21500 35.64100
H  46.43300 15.02300 35.15600
H  53.69000 17.73100 28.63600
H  52.54900 18.05800 29.81300
H  52.88100 19.33300 28.60900
H  54.34900 18.84000 25.08600
H  54.48900 17.96900 26.56700
H  53.48500 19.46900 26.50400
H  48.62600 14.58000 23.33500
H  45.74300 15.24900 23.49700
H  48.66100 16.55700 22.06000
H  47.85300 17.48600 23.28300
H  46.96600 16.49500 22.03800
H  46.86500 13.06100 22.46300
H  45.37200 13.00500 23.29900
H  47.08800 11.15200 23.57600
H  46.17700 11.70300 24.96100
H  47.87100 12.26500 24.78000
H  41.94300 13.64800 27.20700
H  42.28300 12.61500 28.66300
H  43.10400 12.39100 27.07400
H  45.06300 14.11100 32.62000
H  41.69400 16.50000 34.35700
H  43.10200 17.48600 34.71600
H  42.79800 16.18200 35.73900

