158

Mg 17.67900 -1.74600 28.05500
C  16.34600 0.23600 30.62800
C  19.45100 -3.43300 30.11000
C  19.03000 -3.21100 25.29600
C  15.89400 0.52300 25.77800
N  17.88400 -1.48200 30.17300
C  17.23900 -0.73300 31.13600
C  17.62600 -1.12500 32.51600
C  18.64900 -2.29000 32.31100
C  18.73400 -2.40400 30.79000
C  20.04200 -2.17000 32.97500
C  16.40700 -1.52600 33.40700
C  16.42200 -1.26800 34.92500
H  17.68100 -0.78300 35.62100
N  19.11200 -3.14900 27.81200
C  19.55800 -3.93400 28.79900
C  20.17900 -5.13300 28.30700
C  20.25700 -4.98200 26.89800
C  19.46900 -3.70700 26.56000
C  20.77200 -6.10500 29.13900
C  20.82100 -5.88000 25.87000
O  20.95600 -5.67100 24.67700
C  21.28400 -7.32900 26.19900
N  17.59500 -1.25800 25.88000
C  18.20100 -2.10700 24.96300
C  17.99500 -1.59000 23.51900
C  16.85100 -0.61100 23.74000
C  16.77200 -0.38400 25.21100
C  19.22700 -1.01700 22.80600
C  15.47100 -1.09500 23.27300
C  14.67200 -0.26600 22.23400
N  16.41200 -0.04300 28.13500
C  15.79200 0.75500 27.16500
C  15.00700 1.79000 27.75600
C  15.21100 1.59200 29.13600
C  16.01200 0.47100 29.26800
C  14.21600 2.81500 27.03200
C  14.88200 2.15800 30.49600
O  14.24600 3.17000 30.80800
C  15.52100 1.18000 31.48900
C  16.34700 2.07300 32.39300
O  17.32300 2.73500 32.03800
O  15.78900 2.02400 33.66900
C  16.30000 3.00800 34.63100
H  19.90600 -4.12100 30.82600
H  19.42300 -3.84700 24.50000
H  15.31700 1.12100 25.07000
H  18.02200 -0.22600 32.99000
H  18.24600 -3.17100 32.81000
H  20.08500 -1.17000 33.40500
H  20.80900 -2.30300 32.21200
H  20.32100 -2.88200 33.75100
H  16.06800 -2.54700 33.23100
H  15.53700 -0.96100 33.07200
H  16.15600 -2.21800 35.38800
H  15.66700 -0.48800 35.03200
H  21.83000 -6.22000 28.90200
H  20.11200 -6.92100 28.84500
H  20.69400 -5.84100 30.19300
H  21.46400 -8.05200 25.40300
H  20.55000 -7.77600 26.86900
H  22.25400 -7.24000 26.68700
H  17.60300 -2.38100 22.88100
H  17.06400 0.40800 23.41900
H  19.92600 -0.80800 23.61600
H  18.92000 -0.07900 22.34200
H  19.57400 -1.72900 22.05700
H  14.90000 -1.45600 24.12900
H  15.63500 -1.99700 22.68400
H  13.68500 -0.04900 22.64400
H  14.55600 -0.79000 21.28500
H  15.22200 0.65200 22.03100
H  14.57700 3.10400 26.04500
H  14.08600 3.64800 27.72300
H  13.34100 2.22400 26.76300
H  14.68700 0.64000 31.93900
H  16.52100 3.93700 34.10600
H  17.07000 2.54800 35.25000
H  15.38000 3.27500 35.15000
Mg 36.16600 49.48200 25.98500
C  35.67600 47.61300 28.97700
C  35.84200 52.34500 27.65200
C  35.90900 51.00600 23.06700
C  36.54700 46.47200 24.26100
N  35.76500 49.93300 28.06300
C  35.64300 49.04000 29.14300
C  35.38800 49.82700 30.44100
C  35.70300 51.37800 30.01600
C  35.89200 51.17400 28.48800
C  34.53900 52.35600 30.47500
C  36.33100 49.37600 31.64000
C  35.70200 48.82000 32.86900
H  34.23700 49.17700 33.17900
N  35.85500 51.42200 25.42000
C  35.79400 52.45200 26.28900
C  35.64400 53.66800 25.55400
C  35.60100 53.34900 24.15000
C  35.83500 51.86200 24.16400
C  35.47500 55.01500 26.13700
C  35.41300 54.17600 22.90600
O  35.53800 53.78100 21.77900
C  35.33100 55.71300 23.05400
N  36.00800 48.78500 23.94700
C  35.89000 49.65500 22.94700
C  36.09000 48.97000 21.57300
C  36.50900 47.51200 21.96300
C  36.26700 47.58700 23.46500
C  34.92500 49.01800 20.50900
C  38.00400 47.15800 21.61200
C  38.12300 45.97700 20.60000
N  36.16400 47.38500 26.48200
C  36.39600 46.30900 25.65500
C  36.42600 45.10800 26.45800
C  36.13500 45.56500 27.83000
C  36.01000 46.97900 27.75000
C  36.67100 43.68300 26.08300
C  36.06200 45.12000 29.21100
O  36.27400 44.01600 29.75600
C  35.62500 46.53000 30.01600
C  34.33400 46.28700 30.66700
O  33.29300 46.69200 30.17000
O  34.49700 45.48600 31.78100
C  33.32600 45.18000 32.50000
H  35.92600 53.26500 28.23400
H  35.94400 51.52600 22.10700
H  36.75300 45.63400 23.59100
H  34.34200 49.77500 30.74500
H  36.61600 51.83500 30.39700
H  34.98900 53.16900 31.04600
H  33.93400 51.81200 31.20100
H  33.88500 52.70600 29.67700
H  36.94800 50.19900 31.99900
H  36.86700 48.52700 31.21500
H  36.23800 49.22300 33.72900
H  35.76400 47.73200 32.90100
H  36.29700 55.68100 25.87600
H  35.37700 55.02500 27.22200
H  34.59200 55.45500 25.67400
H  36.26500 56.04600 23.50500
H  34.43600 56.10500 23.53600
H  35.33900 56.05000 22.01700
H  36.94600 49.50600 21.16300
H  35.79700 46.83500 21.49000
H  34.96200 49.86600 19.82400
H  33.92200 49.07000 20.93200
H  35.00900 48.11400 19.90500
H  38.58500 46.90700 22.50000
H  38.42800 48.06600 21.18200
H  38.80700 46.36000 19.84200
H  37.20200 45.81400 20.04000
H  38.39700 45.03500 21.07700
H  37.70300 43.53200 26.40000
H  36.52900 43.48700 25.02100
H  36.04400 43.06200 26.72400
H  36.35700 46.56300 30.82300
H  32.82900 46.12100 32.73500
H  33.54300 44.59300 33.39300
H  32.60800 44.57500 31.94700

