158

Mg 5.93800 55.12200 40.76800
C  3.46900 52.66900 41.20200
C  7.88900 52.81600 39.21300
C  8.17600 57.53300 40.07900
C  3.57600 57.42900 41.77000
N  5.56200 53.10800 39.97000
C  4.56700 52.23800 40.39700
C  4.69700 50.93100 39.66800
C  6.24500 50.92400 39.29400
C  6.62600 52.36800 39.56000
C  7.13400 49.99300 40.16400
C  3.92500 50.78400 38.36600
C  3.74100 49.23300 37.89000
H  4.63700 48.76200 36.85200
N  7.66400 55.23100 39.56500
C  8.37000 54.15200 39.16000
C  9.74700 54.49700 38.76600
C  9.87900 55.85400 39.03900
C  8.54200 56.25400 39.62100
C  10.76600 53.42900 38.37500
C  11.17500 56.66300 38.91700
O  12.23600 56.10800 38.70000
C  11.29600 58.13600 39.03000
N  5.90500 57.12000 40.87200
C  6.97800 57.87500 40.67700
C  6.76600 59.29400 41.21600
C  5.17500 59.39100 41.34200
C  4.86500 57.88500 41.32200
C  7.49200 59.52800 42.63100
C  4.34200 60.24000 40.28400
C  4.09100 61.74600 40.61400
N  3.90300 55.10100 41.48000
C  3.06200 56.13200 41.83100
C  1.82600 55.63000 42.29500
C  2.02600 54.24600 42.18300
C  3.27200 53.95000 41.68800
C  0.58000 56.41800 42.74600
C  1.34600 52.93500 42.33100
O  0.22500 52.66600 42.74000
C  2.38800 51.88200 41.91600
C  1.63400 50.91500 41.11900
O  1.07000 51.05800 40.06200
O  1.66300 49.79400 41.92800
C  1.08500 48.63600 41.29500
H  8.54300 52.01700 38.85900
H  9.01900 58.21900 39.97500
H  2.85700 58.19000 42.07900
H  4.40100 50.12400 40.33800
H  6.43100 50.63900 38.25800
H  7.63100 49.24600 39.54600
H  6.55100 49.38600 40.85700
H  7.81700 50.57300 40.78600
H  4.57200 51.20200 37.59600
H  2.94100 51.24700 38.44200
H  2.68700 49.25600 37.61300
H  3.78200 48.71500 38.84800
H  11.63900 53.68700 37.77700
H  10.20600 52.71400 37.77200
H  10.97200 52.75300 39.20500
H  12.17400 58.51600 38.50900
H  11.17900 58.49300 40.05300
H  10.43700 58.61400 38.56100
H  7.11200 60.00600 40.46600
H  4.84200 59.77800 42.30500
H  6.90500 59.08500 43.43600
H  7.75700 60.56500 42.83800
H  8.46000 59.02700 42.65100
H  3.36900 59.75600 40.19400
H  4.95700 60.15000 39.38900
H  3.03700 61.88700 40.37700
H  4.72800 62.50700 40.16400
H  4.12300 61.85900 41.69700
H  0.62400 57.48800 42.54300
H  0.47700 56.32100 43.82700
H  -0.32300 56.12900 42.20700
H  2.69100 51.42100 42.85600
H  0.14100 48.94400 40.84500
H  0.95000 47.90400 42.09100
H  1.81000 48.34600 40.53400
Mg 17.69500 53.31100 26.01000
C  19.58800 51.89300 28.66300
C  15.46200 54.30600 28.43500
C  15.77300 54.28500 23.64900
C  20.00800 51.89500 23.72300
N  17.53400 53.13800 28.33600
C  18.42100 52.51100 29.17200
C  17.95900 52.68000 30.59900
C  16.54900 53.24600 30.44600
C  16.56700 53.71500 29.02100
C  15.48200 52.14900 30.71300
C  18.91600 53.67900 31.39800
C  19.07500 53.45000 32.90900
H  18.04500 52.66600 33.72500
N  15.80700 54.20300 26.07700
C  15.09500 54.61800 27.12500
C  13.85700 55.30300 26.67400
C  13.89900 55.20500 25.23600
C  15.20000 54.52800 24.93600
C  12.77600 55.64200 27.60800
C  12.85300 55.65500 24.21700
O  13.00300 55.57400 23.03200
C  11.53200 56.31400 24.70200
N  17.91300 53.13100 24.02500
C  16.94500 53.60600 23.18800
C  17.43500 53.79100 21.77800
C  18.83300 53.07100 21.82800
C  18.98300 52.73500 23.28800
C  16.55700 53.34500 20.53600
C  20.06600 54.00200 21.33800
C  21.29400 53.26500 20.82300
N  19.46800 52.27100 26.08900
C  20.32900 51.79200 25.08900
C  21.44100 51.03200 25.68600
C  21.14700 51.07300 27.05900
C  19.96200 51.78800 27.25700
C  22.50800 50.36800 24.96400
C  21.66200 50.65200 28.31700
O  22.65600 49.95700 28.55600
C  20.72500 51.25300 29.43100
C  20.28300 50.20300 30.36300
O  19.46800 49.35300 30.08100
O  20.81900 50.46900 31.61000
C  20.55400 49.54300 32.72500
H  14.72500 54.68500 29.14600
H  15.22100 54.63600 22.77500
H  20.82800 51.54800 23.09100
H  18.00800 51.73100 31.13300
H  16.37900 54.12800 31.06400
H  15.08600 51.90700 29.72700
H  14.67800 52.51100 31.35300
H  15.76500 51.24900 31.25900
H  18.71600 54.72500 31.16400
H  19.89100 53.53000 30.93500
H  19.07900 54.43700 33.37100
H  20.07700 53.07100 33.10600
H  11.76400 55.44900 27.25300
H  12.78300 56.68200 27.93400
H  12.93800 55.09600 28.53700
H  11.76300 56.98000 25.53300
H  10.92400 55.48500 25.06500
H  11.10100 56.79500 23.82400
H  17.59100 54.84400 21.54300
H  18.95600 52.08200 21.38500
H  15.53700 53.02300 20.74900
H  16.97900 52.42900 20.12400
H  16.67200 54.01400 19.68300
H  20.34100 54.51500 22.25900
H  19.67300 54.74500 20.64400
H  21.30100 52.18200 20.94800
H  22.17000 53.75900 21.24200
H  21.32700 53.46900 19.75300
H  23.43400 50.37200 25.54000
H  22.77900 51.07600 24.18200
H  22.35100 49.31200 24.74500
H  21.27700 51.99100 30.01300
H  20.99500 48.57300 32.49600
H  19.48800 49.44600 32.92700
H  20.99800 49.85200 33.67100

