158

Mg 49.65400 45.95200 42.73200
C  46.20500 46.68400 41.99100
C  49.24200 42.94700 41.31400
C  52.98900 45.56700 43.10300
C  49.77000 49.24000 44.04700
N  47.86400 44.99500 41.81400
C  46.65200 45.38200 41.54700
C  45.77600 44.34000 40.90200
C  46.70300 43.17200 40.61800
C  48.03800 43.75600 41.28200
C  46.37800 41.79900 41.20800
C  44.94100 44.77200 39.66100
C  43.81900 43.81100 39.10900
H  43.98000 43.03500 37.81000
N  50.94000 44.49500 42.18700
C  50.59500 43.22600 41.74000
C  51.76600 42.45100 41.78300
C  52.83700 43.16300 42.40000
C  52.28800 44.48900 42.54500
C  51.71600 40.93400 41.38200
C  54.23000 42.64800 42.73900
O  54.39400 41.47500 42.56600
C  55.42100 43.53800 43.08600
N  51.25600 47.25600 43.31200
C  52.56600 46.88900 43.39500
C  53.46900 48.10800 43.85400
C  52.39700 49.15300 44.33900
C  50.99900 48.52300 43.91000
C  54.61500 47.75500 44.86400
C  52.67900 50.65300 43.85700
C  52.72500 51.87000 44.85500
N  48.36400 47.63100 42.97800
C  48.55000 48.78700 43.64300
C  47.33700 49.51900 43.77000
C  46.35600 48.66300 43.16900
C  47.05800 47.54600 42.66900
C  47.01600 50.96700 44.25000
C  44.95900 48.59400 42.82400
O  44.03800 49.33800 42.92100
C  44.85700 47.27600 41.97900
C  43.76000 46.50400 42.64900
O  43.85300 45.87000 43.66600
O  42.63500 46.57900 41.81200
C  41.33600 46.21000 42.40600
H  49.10600 41.90700 41.00800
H  54.06000 45.54000 43.31400
H  49.71100 50.20700 44.55000
H  45.09800 43.99500 41.68300
H  47.01800 43.16000 39.57400
H  46.76700 41.67500 42.21800
H  46.97300 41.06400 40.66600
H  45.36500 41.40500 41.11700
H  45.61600 44.77500 38.80400
H  44.52000 45.76600 39.81400
H  42.96700 44.45100 38.87800
H  43.45000 43.13400 39.87900
H  52.60800 40.64800 40.82300
H  50.84600 40.97900 40.72700
H  51.51900 40.33000 42.26700
H  55.36700 43.91600 44.10700
H  55.60000 44.22100 42.25500
H  56.36300 42.99100 43.08600
H  53.84400 48.51100 42.91400
H  52.20900 49.15200 45.41300
H  55.48400 47.95900 44.23700
H  54.66400 46.73100 45.23300
H  54.70300 48.42400 45.72000
H  51.95600 50.86600 43.06900
H  53.67900 50.69500 43.42700
H  52.27100 52.75600 44.41000
H  53.75400 52.13100 45.10400
H  52.10500 51.57800 45.70200
H  47.68100 51.07400 45.10600
H  45.99600 51.26800 44.49000
H  47.41600 51.58500 43.44600
H  44.51100 47.67700 41.02600
H  41.25200 46.75100 43.34900
H  41.23900 45.14300 42.60600
H  40.53800 46.47700 41.71300
Mg 48.41900 35.03100 26.89600
C  46.66200 33.76000 29.66900
C  49.55100 37.50300 28.90300
C  49.79300 36.49200 24.20400
C  47.25200 32.40700 24.92000
N  48.11500 35.54400 29.00000
C  47.43700 34.88400 29.93400
C  47.75900 35.42000 31.38100
C  48.48500 36.76400 31.02100
C  48.69900 36.65500 29.54400
C  47.60200 38.01900 31.46700
C  48.71700 34.50400 32.22400
C  48.57500 34.48500 33.78300
H  47.77700 35.56000 34.53900
N  49.57200 36.71800 26.58600
C  49.94800 37.60700 27.52800
C  50.95500 38.47300 27.03000
C  51.01500 38.25300 25.63700
C  50.10500 37.10400 25.39400
C  51.58500 39.57800 27.87700
C  51.75100 38.98000 24.45700
O  51.80100 38.60800 23.22700
C  52.66900 40.18100 24.93000
N  48.37100 34.55200 24.79000
C  49.04800 35.33200 23.90600
C  49.01500 34.65700 22.44900
C  48.31400 33.30100 22.75500
C  47.95000 33.44500 24.21500
C  48.32900 35.53800 21.37300
C  49.21000 32.05600 22.36200
C  50.52200 31.96800 23.02000
N  47.18500 33.42600 27.16400
C  46.86500 32.39100 26.26200
C  46.17800 31.34800 27.03200
C  45.98700 31.90700 28.32800
C  46.65700 33.10200 28.32300
C  45.42100 30.21400 26.44800
C  45.30300 31.62100 29.55900
O  44.64800 30.69300 29.94000
C  45.68600 32.81100 30.49400
C  46.18000 32.37200 31.79100
O  46.87100 31.38100 32.01700
O  45.60400 33.17600 32.71800
C  45.36300 32.58900 34.03900
H  50.01600 38.30200 29.48500
H  50.23600 37.02600 23.36100
H  47.09300 31.46300 24.39700
H  46.83200 35.63700 31.91000
H  49.42600 36.89000 31.55700
H  48.11400 38.60300 32.23200
H  46.64800 37.70500 31.88800
H  47.34000 38.56900 30.56300
H  49.75000 34.69000 31.92900
H  48.45600 33.49700 31.90100
H  49.58100 34.31000 34.16500
H  48.05100 33.54600 33.96300
H  52.53100 39.96100 27.49400
H  51.69500 39.27500 28.91800
H  50.97100 40.47400 27.97100
H  53.60400 39.78800 25.32900
H  52.10200 40.79000 25.63500
H  52.90800 40.65800 23.97900
H  50.07300 34.62800 22.18500
H  47.39000 33.17400 22.19200
H  47.94000 36.44200 21.84400
H  47.46500 35.11200 20.86200
H  49.00000 35.88100 20.58600
H  49.33700 31.98400 21.28200
H  48.65800 31.19800 22.74500
H  51.21700 31.60500 22.26300
H  50.61800 31.28600 23.86500
H  50.80500 32.95300 23.39100
H  45.32500 30.26700 25.36300
H  44.41800 30.22400 26.87400
H  45.91900 29.28100 26.71200
H  44.79500 33.42100 30.64500
H  45.57000 31.56000 34.33500
H  44.30300 32.81100 34.15700
H  45.82500 33.20300 34.81100

