158

Mg 2.45500 -2.45500 45.06200
C  5.76600 -1.81300 44.44000
C  1.62000 0.15300 42.84000
C  -0.85500 -3.42100 45.07200
C  3.29100 -5.51700 46.55900
N  3.54300 -0.95500 43.94500
C  4.92500 -0.89700 43.81900
C  5.45200 0.16200 42.81200
C  4.06200 0.80900 42.38500
C  3.00600 -0.08000 43.08200
C  3.93400 2.22000 42.93400
C  6.30900 -0.35500 41.60100
C  7.72200 0.27500 41.47000
H  8.01800 1.01600 40.21200
N  0.62200 -1.54400 44.33300
C  0.51800 -0.53600 43.38200
C  -0.85300 -0.31300 43.18900
C  -1.63200 -1.21700 43.96900
C  -0.64400 -2.12200 44.55400
C  -1.28900 0.88000 42.25800
C  -3.14100 -1.17200 44.14000
O  -3.85700 -0.37000 43.48800
C  -3.73000 -2.01900 45.11800
N  1.40000 -4.34000 45.58200
C  0.04300 -4.37100 45.58800
C  -0.48100 -5.66800 46.26500
C  0.85700 -6.39300 46.67300
C  1.93700 -5.46600 46.14000
C  -1.62300 -5.45200 47.34300
C  0.91300 -7.83000 46.10700
C  0.53200 -9.03200 47.07000
N  4.16300 -3.44700 45.52800
C  4.33500 -4.70600 46.06700
C  5.79100 -4.97900 46.18400
C  6.43400 -3.84100 45.55000
C  5.39700 -3.01300 45.17800
C  6.50600 -6.20500 46.75200
C  7.72000 -3.20600 45.19800
O  8.88800 -3.50100 45.43300
C  7.30800 -1.89700 44.45900
C  7.76200 -0.75200 45.25800
O  7.61700 -0.64400 46.46600
O  8.45400 0.19000 44.46300
C  8.69400 1.46700 45.05900
H  1.49000 0.84900 42.00900
H  -1.91100 -3.60300 45.28400
H  3.60400 -6.47200 46.98700
H  5.98700 0.90000 43.41000
H  3.81600 0.82700 41.32300
H  3.74200 2.89100 42.09700
H  4.74100 2.50300 43.60800
H  3.04600 2.37800 43.54600
H  5.80500 -0.12600 40.66100
H  6.28200 -1.43700 41.73000
H  8.39300 -0.56000 41.67200
H  7.98800 1.00200 42.23700
H  -2.18200 0.49700 41.76400
H  -0.59600 1.09200 41.44400
H  -1.41700 1.82600 42.78400
H  -3.16300 -2.04300 46.04800
H  -3.77400 -3.01100 44.66800
H  -4.77200 -1.75700 45.29900
H  -1.00600 -6.21500 45.48200
H  0.94800 -6.55300 47.74800
H  -2.07600 -4.46200 47.30200
H  -1.27800 -5.39700 48.37500
H  -2.42800 -6.18100 47.25100
H  1.95100 -7.98300 45.81200
H  0.36000 -8.03400 45.19000
H  -0.42000 -9.38800 46.67800
H  0.27900 -8.65500 48.06100
H  1.36900 -9.72700 47.13600
H  6.09000 -6.54500 47.70100
H  7.56500 -5.98500 46.88400
H  6.42300 -6.92500 45.93900
H  7.79900 -1.97600 43.48900
H  7.80500 1.80800 45.59000
H  8.85100 2.21300 44.28000
H  9.53500 1.39300 45.74800
Mg -11.56200 16.23500 41.24100
C  -8.48100 14.65800 40.76100
C  -10.12800 19.13500 39.74500
C  -14.62500 17.58000 41.04100
C  -13.00900 13.05600 41.59300
N  -9.47500 16.79100 40.15600
C  -8.33000 16.00200 40.32000
C  -7.12400 16.69500 39.73800
C  -7.65200 18.15600 39.52300
C  -9.20700 18.05200 39.89100
C  -6.82100 19.21100 40.38700
C  -6.63700 16.00100 38.43600
C  -5.10400 16.31200 37.99800
H  -5.11900 17.03400 36.57000
N  -12.22700 18.10200 40.72300
C  -11.50000 19.16300 40.17900
C  -12.34900 20.35800 40.19900
C  -13.69200 19.96100 40.58000
C  -13.56500 18.48900 40.88300
C  -11.89400 21.79100 39.76000
C  -14.89500 20.84300 40.49500
O  -14.79300 22.03000 40.25500
C  -16.16600 20.38100 41.11600
N  -13.55400 15.38600 41.36800
C  -14.57800 16.17300 41.18200
C  -15.88200 15.33900 41.34500
C  -15.35700 13.92300 41.28400
C  -13.87000 14.09300 41.42900
C  -16.65200 15.79100 42.61600
C  -15.60900 13.17700 39.92900
C  -16.53300 11.88000 39.91900
N  -10.90000 14.30000 41.38900
C  -11.59500 13.11400 41.52700
C  -10.60400 12.03700 41.78900
C  -9.35700 12.60300 41.48100
C  -9.65100 13.98400 41.18700
C  -10.90000 10.54300 41.99400
C  -8.02200 12.32200 41.30800
O  -7.46300 11.25000 41.45100
C  -7.36800 13.63300 40.96700
C  -6.46800 14.06400 42.07300
O  -6.76900 14.44900 43.17800
O  -5.14100 13.75100 41.66600
C  -4.13900 13.75800 42.73600
H  -9.66100 20.10900 39.58500
H  -15.63100 18.00400 41.07600
H  -13.46500 12.07800 41.75700
H  -6.36600 16.65200 40.52000
H  -7.63600 18.42600 38.46700
H  -6.46600 19.95300 39.67200
H  -6.15100 18.68700 41.06800
H  -7.53100 19.67600 41.07200
H  -7.27800 16.38800 37.64400
H  -6.90400 14.94500 38.40200
H  -4.53700 15.39300 37.84800
H  -4.73000 16.99800 38.75800
H  -12.56900 21.91500 38.91400
H  -10.82600 21.79800 39.54100
H  -12.14300 22.57500 40.47600
H  -16.75200 21.26300 41.37300
H  -16.02100 19.89600 42.08200
H  -16.79800 19.80400 40.44200
H  -16.43700 15.61900 40.44900
H  -15.72700 13.43300 42.18400
H  -16.71200 16.87700 42.67700
H  -16.06600 15.42500 43.46000
H  -17.64100 15.33400 42.64700
H  -14.69300 12.80000 39.47500
H  -16.19900 13.81900 39.27400
H  -15.96100 10.97300 39.72800
H  -17.36100 11.89300 39.21000
H  -16.95200 11.73100 40.91400
H  -11.40300 10.11500 41.12700
H  -11.57800 10.39500 42.83400
H  -9.93100 10.06800 42.14600
H  -6.71900 13.50400 40.10000
H  -4.39000 12.95700 43.43100
H  -4.08800 14.67200 43.32900
H  -3.11300 13.62100 42.39300

