158

Mg 25.72700 -0.76900 29.37800
C  27.44900 -0.97200 32.33700
C  22.78600 -0.52200 31.22900
C  23.92700 -0.76700 26.57500
C  28.63300 -1.36000 27.55300
N  25.21700 -1.02600 31.51500
C  26.05800 -0.93500 32.59300
C  25.34800 -0.53000 33.96600
C  23.91300 -0.86700 33.49400
C  23.96300 -0.85300 31.94600
C  23.30100 -2.22300 34.13600
C  25.72900 0.90200 34.40600
C  24.83200 1.63300 35.40800
H  25.59700 2.19100 36.68600
N  23.68500 -0.51400 28.95100
C  22.66900 -0.38600 29.82700
C  21.44600 -0.07300 29.14000
C  21.79400 -0.10100 27.78600
C  23.19200 -0.46000 27.71100
C  20.10000 0.07000 29.84400
C  20.97700 0.31400 26.56000
O  21.48900 0.34700 25.44800
C  19.53200 0.82400 26.67800
N  26.26100 -1.08500 27.39600
C  25.29900 -1.09200 26.36500
C  25.97300 -1.26800 25.03200
C  27.51300 -1.24400 25.34700
C  27.45000 -1.31000 26.82500
C  25.50600 -2.55900 24.21100
C  28.21800 0.10000 24.94100
C  29.29800 0.05900 23.81900
N  27.67400 -1.25600 29.80000
C  28.75000 -1.38900 28.95900
C  29.90000 -1.54700 29.80500
C  29.48300 -1.28000 31.10900
C  28.12900 -1.15400 31.06200
C  31.25000 -1.86100 29.29100
C  29.93300 -1.03000 32.46000
O  31.07500 -1.04900 32.89800
C  28.61400 -0.69600 33.31900
C  28.67000 -1.68600 34.39900
O  28.46400 -2.89300 34.23800
O  29.07400 -1.09000 35.63000
C  29.37400 -2.01200 36.74800
H  21.90700 -0.43500 31.87100
H  23.33900 -0.85400 25.65900
H  29.52000 -1.46700 26.92500
H  25.63100 -1.23200 34.75000
H  23.40900 0.04400 33.81800
H  23.96800 -2.67900 34.86800
H  23.06400 -2.94500 33.35600
H  22.31300 -1.95000 34.50600
H  25.80800 1.45400 33.47000
H  26.71400 0.89300 34.87300
H  23.98100 1.05100 35.76100
H  24.43700 2.56400 35.00100
H  19.50100 0.89300 29.45600
H  20.17000 0.12300 30.93100
H  19.44300 -0.78900 29.70700
H  19.19900 1.07700 25.67100
H  19.46600 1.64200 27.39500
H  18.81800 0.08800 27.04900
H  25.55900 -0.41900 24.48800
H  28.00200 -2.16900 25.04100
H  24.65900 -3.07400 24.66500
H  26.21500 -3.38300 24.12900
H  25.18800 -2.35500 23.18800
H  28.71300 0.64400 25.74600
H  27.48500 0.80000 24.53800
H  30.22300 0.39800 24.28600
H  28.97300 0.59400 22.92700
H  29.40400 -0.98000 23.50700
H  31.33500 -2.05600 28.22200
H  31.77800 -2.64900 29.82800
H  31.82900 -0.94100 29.37600
H  28.59700 0.28500 33.79500
H  29.35300 -3.05100 36.41700
H  28.55900 -1.90300 37.46300
H  30.30900 -1.81200 37.27200
Mg 36.76300 49.21400 24.89900
C  37.12900 47.30100 27.88900
C  35.19900 51.54200 26.75100
C  36.32500 50.89100 22.15400
C  37.55300 46.28000 23.06600
N  36.15200 49.37500 27.08600
C  36.52000 48.53800 28.14000
C  36.18800 49.20000 29.47600
C  35.33600 50.43400 29.05600
C  35.51800 50.48100 27.55900
C  33.88000 50.45900 29.57500
C  37.50500 49.51600 30.25200
C  37.45700 49.48600 31.76800
H  36.07800 49.49400 32.50100
N  35.99800 50.99700 24.56300
C  35.52600 51.88600 25.41800
C  35.32400 53.16000 24.78000
C  35.41800 52.95600 23.40700
C  35.90700 51.51900 23.30200
C  34.79900 54.36700 25.49800
C  35.23400 53.89200 22.15400
O  35.29100 53.40100 20.98500
C  34.90000 55.31500 22.30000
N  36.79500 48.65400 22.88700
C  36.78400 49.59000 21.90200
C  37.03200 49.06300 20.57000
C  37.48400 47.57500 20.90800
C  37.26600 47.46000 22.39700
C  35.72800 49.10800 19.67400
C  38.85800 47.32500 20.30800
C  40.01400 47.72100 21.27800
N  37.23900 47.18800 25.29600
C  37.54800 46.09700 24.46000
C  37.89200 44.96700 25.21800
C  37.82600 45.43600 26.60600
C  37.30100 46.72100 26.59100
C  38.41300 43.66100 24.66500
C  37.98000 44.99200 27.94900
O  38.28500 43.87800 28.40300
C  37.58600 46.17900 28.80800
C  36.42200 45.63400 29.60400
O  35.34700 45.26300 29.13800
O  36.73300 45.68700 30.91900
C  35.81000 45.06900 31.87800
H  34.56100 52.22300 27.31900
H  36.18400 51.40800 21.20200
H  37.71000 45.41000 22.42500
H  35.59200 48.47100 30.02500
H  35.70100 51.42300 29.33300
H  33.29000 50.67300 28.68400
H  33.78800 51.31200 30.24800
H  33.69100 49.51700 30.08900
H  37.85000 50.52500 30.02900
H  38.30100 48.80400 30.03300
H  37.97500 50.35100 32.18100
H  38.05800 48.64800 32.12200
H  34.57400 54.22800 26.55600
H  33.78600 54.52700 25.13000
H  35.40900 55.26300 25.37900
H  33.93800 55.31800 22.81200
H  34.92500 55.73300 21.29300
H  35.65900 55.83000 22.88900
H  37.83000 49.65600 20.12300
H  36.83400 46.86000 20.40400
H  34.84300 49.19600 20.30400
H  35.71500 48.28700 18.95700
H  35.77600 49.96100 18.99600
H  39.08600 47.90800 19.41500
H  39.11000 46.30700 20.01000
H  40.17500 46.95400 22.03500
H  39.73700 48.62100 21.82800
H  40.98800 47.76500 20.79200
H  37.88600 43.57000 23.71500
H  38.05600 42.78000 25.19900
H  39.49100 43.56500 24.54100
H  38.44900 46.50300 29.39100
H  35.11900 45.86900 32.14100
H  36.32500 44.61900 32.72700
H  35.15400 44.35300 31.38200

