158

Mg 35.80700 1.72600 29.71500
C  33.49300 2.70100 32.17700
C  38.12600 1.52800 32.36300
C  38.11400 1.12200 27.47800
C  33.37800 2.25900 27.23300
N  35.81500 2.19400 32.01800
C  34.70800 2.50500 32.78900
C  35.01400 2.48900 34.27100
C  36.60400 2.39700 34.25700
C  36.90400 1.96700 32.77700
C  37.32600 3.59200 34.70800
C  34.36200 1.22200 34.88500
C  33.78100 1.48300 36.34000
H  34.41900 2.52900 37.23300
N  37.86100 1.27800 29.85400
C  38.57300 1.12500 31.04700
C  39.91800 0.63300 30.68100
C  39.97300 0.62100 29.24900
C  38.66100 1.04200 28.81400
C  40.89700 0.08300 31.76700
C  41.21000 0.34200 28.36700
O  41.14600 0.39500 27.10000
C  42.45900 -0.10800 29.02000
N  35.72700 1.77000 27.65900
C  36.83300 1.34600 26.98000
C  36.57200 1.30100 25.51200
C  35.00200 1.43900 25.42300
C  34.69300 1.89200 26.81400
C  37.37400 2.29800 24.63700
C  34.13800 0.20500 25.00400
C  33.16500 0.38700 23.77000
N  33.77600 2.36000 29.61100
C  32.91200 2.53000 28.56800
C  31.64900 2.99800 29.07500
C  31.79200 3.03600 30.50800
C  33.14300 2.60200 30.77900
C  30.49000 3.29900 28.17900
C  31.11700 3.28300 31.73900
O  29.98600 3.61200 32.02300
C  32.24200 3.04500 32.91300
C  32.21700 4.30500 33.77200
O  32.66700 5.37900 33.46200
O  31.65600 4.08700 35.01000
C  31.46700 5.24600 35.91900
H  38.83300 1.60600 33.19200
H  38.91700 0.79900 26.81300
H  32.69500 2.24100 26.38000
H  34.71200 3.40900 34.77000
H  36.98100 1.53600 34.81000
H  36.70300 4.44500 34.97900
H  37.98500 3.85800 33.88200
H  37.93000 3.32500 35.57500
H  35.08100 0.40300 34.90000
H  33.45200 0.98200 34.33600
H  33.78300 0.46800 36.73800
H  32.70900 1.67200 36.29900
H  41.61500 0.88800 31.92000
H  41.42600 -0.80800 31.42800
H  40.32100 -0.09100 32.67500
H  42.65900 0.46100 29.92800
H  43.25600 0.16900 28.33000
H  42.34500 -1.16700 29.25100
H  36.81000 0.30500 25.14000
H  34.79200 2.22400 24.69700
H  37.79100 3.12500 25.21200
H  36.65800 2.64100 23.89000
H  38.12400 1.65500 24.17600
H  33.44000 -0.00400 25.81500
H  34.82900 -0.62700 24.86900
H  33.28200 1.39100 23.36100
H  32.16400 0.12800 24.11500
H  33.43600 -0.24000 22.92100
H  30.95000 3.71400 27.28200
H  29.78300 3.96800 28.66900
H  29.96900 2.36600 27.96800
H  31.91200 2.23400 33.56200
H  31.44500 6.19100 35.37600
H  32.25700 5.32000 36.66600
H  30.53500 5.10500 36.46600
Mg 16.69800 51.98700 26.17300
C  18.46300 50.60600 28.94700
C  14.20100 52.92300 28.26500
C  15.12400 53.32500 23.47700
C  18.93500 50.37500 24.06500
N  16.35100 51.70700 28.29200
C  17.25100 51.27000 29.27900
C  16.86500 51.64500 30.67100
C  15.38600 52.14400 30.44700
C  15.33200 52.35500 28.90800
C  14.29900 51.12900 30.90300
C  17.90300 52.55700 31.33500
C  17.93500 52.70400 32.86700
H  16.85200 52.08100 33.65700
N  14.87200 53.00500 25.90000
C  13.94900 53.17600 26.85900
C  12.80500 53.84700 26.27900
C  13.04200 54.09600 24.87700
C  14.38600 53.49200 24.68200
C  11.54700 54.21600 27.07500
C  12.17500 54.69300 23.83900
O  12.54900 54.77000 22.66700
C  10.76500 55.13000 24.22600
N  17.05100 51.92900 24.05500
C  16.27400 52.56800 23.18100
C  16.74000 52.31800 21.79200
C  18.12600 51.58200 21.98200
C  18.08800 51.25600 23.46000
C  15.81300 51.61300 20.85400
C  19.27600 52.42200 21.63800
C  20.56100 51.67500 21.28200
N  18.41800 50.83100 26.40100
C  19.17000 50.18400 25.45000
C  20.18400 49.33300 26.12100
C  19.91600 49.48200 27.45800
C  18.89600 50.42300 27.60400
C  21.21200 48.49600 25.37900
C  20.34200 49.03500 28.79200
O  21.26000 48.31400 29.23300
C  19.41200 49.74500 29.81100
C  18.74400 48.89300 30.82500
O  17.92900 48.02000 30.64600
O  19.24200 49.20400 32.05500
C  18.77800 48.31900 33.17300
H  13.38900 53.21800 28.93300
H  14.70900 53.75800 22.56400
H  19.63800 49.84700 23.41700
H  16.86700 50.74100 31.28100
H  15.22700 53.03600 31.05300
H  13.91200 50.51500 30.09000
H  13.41100 51.52100 31.39800
H  14.64400 50.53000 31.74600
H  17.74400 53.58000 30.99500
H  18.86500 52.13900 31.03800
H  17.88500 53.77600 33.05800
H  18.91700 52.31700 33.14100
H  11.79200 54.29700 28.13400
H  10.76500 53.46000 26.99800
H  11.23100 55.24700 26.91300
H  10.21300 55.27400 23.29700
H  10.79100 56.00900 24.86900
H  10.12800 54.35800 24.65800
H  16.96600 53.31900 21.42400
H  18.17700 50.62100 21.47000
H  14.89700 51.34200 21.37800
H  16.33300 50.73600 20.47100
H  15.59200 52.26500 20.00800
H  19.63900 53.16000 22.35400
H  19.06100 53.00200 20.74100
H  21.16000 52.15300 20.50700
H  20.61800 50.60700 21.07000
H  21.17000 51.84100 22.17100
H  21.63000 47.95000 26.22500
H  21.93600 49.09000 24.82200
H  20.73000 47.82800 24.66600
H  20.02200 50.48300 30.33200
H  19.61800 48.29400 33.86600
H  18.65500 47.27000 32.90500
H  17.92900 48.69800 33.74200

