158

Mg 24.19800 -5.12600 46.60300
C  26.42100 -2.92500 45.00900
C  21.74200 -4.10700 44.50100
C  22.49000 -7.69300 47.70500
C  27.11700 -6.41600 48.31400
N  24.12300 -3.66900 44.86500
C  25.13600 -2.88500 44.40500
C  24.60800 -2.00500 43.23600
C  23.06200 -2.36500 43.15500
C  22.92700 -3.40600 44.25500
C  22.09000 -1.08100 43.38600
C  25.34100 -2.24600 41.92000
C  26.10300 -1.05400 41.25600
H  25.87000 -0.92400 39.71400
N  22.34300 -5.83900 46.09300
C  21.45800 -5.28500 45.28400
C  20.17100 -6.03000 45.38400
C  20.35900 -7.11900 46.35300
C  21.76700 -6.91900 46.76300
C  18.94500 -5.62000 44.59500
C  19.31000 -8.15200 46.77300
O  18.15600 -8.10500 46.32100
C  19.60400 -9.28200 47.72800
N  24.78100 -6.91900 47.73500
C  23.82300 -7.80100 48.09700
C  24.48600 -9.01300 48.81400
C  25.91100 -8.46200 49.17800
C  25.95300 -7.16100 48.35300
C  23.68000 -9.69500 49.99800
C  27.11300 -9.39000 48.87500
C  27.60600 -9.54800 47.43500
N  26.33000 -4.75300 46.74700
C  27.34000 -5.32100 47.49400
C  28.54900 -4.59700 47.28000
C  28.28400 -3.56700 46.32300
C  26.91700 -3.79500 45.99200
C  29.76800 -4.92700 48.00200
C  28.77300 -2.40400 45.64900
O  29.84400 -1.80400 45.73800
C  27.57400 -1.98900 44.71700
C  27.16400 -0.56200 44.95200
O  26.54000 -0.14500 45.92400
O  27.50700 0.20200 43.84700
C  27.20200 1.62900 43.80200
H  20.90400 -3.59300 44.02500
H  21.99300 -8.61400 48.01700
H  28.08100 -6.71500 48.72900
H  24.78300 -1.00100 43.62200
H  22.70000 -2.79300 42.22000
H  21.48000 -1.21000 44.28000
H  21.42700 -0.88600 42.54300
H  22.86800 -0.33100 43.52800
H  24.59400 -2.61500 41.21600
H  26.14600 -2.95900 42.09500
H  27.16300 -1.26400 41.40100
H  25.76700 -0.17300 41.80100
H  19.18900 -4.89700 43.81700
H  18.22500 -5.12600 45.24800
H  18.51300 -6.48100 44.08400
H  19.69100 -8.96400 48.76700
H  20.47300 -9.76300 47.27800
H  18.84300 -10.05900 47.65500
H  24.68800 -9.75500 48.04100
H  25.94100 -8.11300 50.21000
H  24.16800 -9.68200 50.97300
H  23.68800 -10.75200 49.73100
H  22.69600 -9.23100 50.05900
H  26.81900 -10.37900 49.22500
H  27.90400 -9.17500 49.59400
H  27.74500 -10.61500 47.26000
H  28.61800 -9.14300 47.43200
H  26.99100 -9.05600 46.68300
H  30.40900 -5.75700 47.70600
H  29.56100 -5.17000 49.04500
H  30.45600 -4.08300 48.03300
H  27.90700 -2.15700 43.69300
H  27.52000 2.11600 44.72400
H  26.16700 1.81400 43.51600
H  27.69100 2.14500 42.97600
Mg -5.25000 25.55400 25.43900
C  -3.89100 26.64300 28.43400
C  -7.25900 23.40600 27.24900
C  -6.07800 24.03000 22.57800
C  -2.51300 27.09300 23.79700
N  -5.43000 25.04400 27.62900
C  -4.91700 25.72900 28.67900
C  -5.49500 25.20000 30.01500
C  -6.39500 24.02200 29.64100
C  -6.42400 24.19600 28.07400
C  -5.89800 22.59700 29.97300
C  -6.12000 26.30900 31.00600
C  -5.92400 26.06300 32.53300
H  -5.47200 24.76100 33.19100
N  -6.65800 24.07800 25.01200
C  -7.34500 23.36300 25.87700
C  -8.27700 22.58400 25.18600
C  -8.04400 22.86500 23.78100
C  -6.84300 23.68900 23.73600
C  -9.43100 21.64800 25.77200
C  -8.68300 22.24400 22.50800
O  -8.34000 22.45200 21.36600
C  -9.84200 21.36300 22.67200
N  -4.44200 25.59500 23.44400
C  -5.04100 24.89900 22.38900
C  -4.17600 25.10300 21.11400
C  -3.18000 26.21000 21.50200
C  -3.36200 26.30300 23.03500
C  -3.57100 23.80200 20.61500
C  -3.34000 27.62100 20.80200
C  -2.46600 28.00100 19.59600
N  -3.64900 26.92100 25.91800
C  -2.55800 27.47200 25.17600
C  -1.71100 28.22500 26.05000
C  -2.21100 27.90400 27.38000
C  -3.34400 27.14200 27.20800
C  -0.56400 29.10600 25.67400
C  -1.96000 28.06500 28.80600
O  -1.02900 28.60700 29.39000
C  -3.07100 27.27000 29.57100
C  -2.43000 26.25900 30.57600
O  -1.89200 25.16000 30.25300
O  -2.43400 26.82100 31.82300
C  -1.67100 26.09700 32.83700
H  -8.02500 22.84800 27.79100
H  -6.29200 23.58700 21.60300
H  -1.69400 27.65300 23.33900
H  -4.64700 24.85000 30.60300
H  -7.34700 24.26600 30.11300
H  -5.80200 21.85800 29.17800
H  -6.66400 22.22500 30.65400
H  -4.97800 22.59700 30.55700
H  -7.19600 26.30900 30.82900
H  -5.58800 27.24500 30.84100
H  -6.87300 26.32600 32.99900
H  -5.23500 26.79800 32.95100
H  -9.62300 21.65500 26.84500
H  -9.34300 20.62400 25.40900
H  -10.34100 22.05300 25.33000
H  -10.62400 21.88400 23.22500
H  -9.51700 20.41100 23.09200
H  -10.31400 21.13200 21.71600
H  -4.87400 25.49100 20.37200
H  -2.20300 25.88000 21.15000
H  -2.52300 23.71100 20.89900
H  -3.75300 23.73400 19.54300
H  -4.04300 22.90600 21.01800
H  -3.20000 28.48600 21.45100
H  -4.36300 27.65100 20.42600
H  -2.06200 29.01300 19.58900
H  -2.94700 27.76200 18.64700
H  -1.62000 27.31700 19.51500
H  -0.34900 28.85400 24.63500
H  0.23400 28.77800 26.34000
H  -0.75700 30.17700 25.74300
H  -3.69900 27.99400 30.08900
H  -0.79300 26.71700 33.02100
H  -1.24800 25.13900 32.53600
H  -2.29700 26.05200 33.72800

