158

Mg 17.18400 52.18400 24.59900
C  18.89000 50.95600 27.31200
C  14.48800 53.04000 26.52000
C  15.36900 53.02300 21.70200
C  19.65500 50.86300 22.47700
N  16.74900 51.96200 26.68900
C  17.67900 51.51100 27.63300
C  17.11600 51.86100 29.00000
C  15.60100 52.23200 28.71100
C  15.59800 52.45800 27.19100
C  14.55100 51.19100 29.22900
C  17.89200 52.99100 29.68700
C  17.49900 53.71000 31.00200
H  16.58800 52.92900 32.01600
N  15.17600 52.94800 24.21900
C  14.24800 53.23100 25.11500
C  13.06500 53.76100 24.46000
C  13.34400 53.92600 23.09100
C  14.70400 53.30500 22.91800
C  11.82900 54.05300 25.22600
C  12.45500 54.50700 22.04900
O  12.80800 54.67200 20.86500
C  11.00000 54.83400 22.36700
N  17.46000 51.98300 22.41800
C  16.60100 52.43200 21.45800
C  17.22800 52.39200 20.10000
C  18.61900 51.90800 20.32300
C  18.61700 51.54300 21.84300
C  16.39700 51.35400 19.16400
C  19.74800 52.87900 19.98600
C  21.10000 52.20300 19.80300
N  19.04800 51.20600 24.81800
C  19.89300 50.68500 23.87200
C  20.96000 49.91600 24.54600
C  20.69200 50.16800 25.98200
C  19.40400 50.77000 26.03200
C  22.08800 49.09900 23.88900
C  21.14800 49.94100 27.25500
O  22.14300 49.36600 27.62300
C  20.01800 50.52100 28.22900
C  19.64500 49.59200 29.30900
O  19.17500 48.45400 29.21400
O  19.86200 50.19300 30.53200
C  19.24200 49.53000 31.72400
H  13.67700 53.28400 27.21000
H  14.76500 53.17800 20.80600
H  20.47400 50.49400 21.85600
H  17.23700 51.02700 29.69100
H  15.25400 53.18800 29.10200
H  13.67700 51.77900 29.50700
H  14.91500 50.56600 30.04400
H  14.21600 50.54000 28.42100
H  17.93700 53.79800 28.95500
H  18.95100 52.75300 29.78900
H  17.01000 54.65700 30.77400
H  18.45900 53.98200 31.44200
H  11.60400 55.09700 25.00800
H  11.99500 54.19200 26.29500
H  11.04700 53.35800 24.92200
H  10.49600 54.20600 23.10300
H  10.38300 54.65100 21.48700
H  10.99800 55.85900 22.73600
H  17.24800 53.37600 19.63200
H  18.84000 50.95700 19.83700
H  17.01300 50.67700 18.57100
H  15.89900 51.92900 18.38400
H  15.70800 50.78200 19.78500
H  19.78600 53.60900 20.79400
H  19.56100 53.34100 19.01700
H  21.85300 52.55600 20.50800
H  21.44900 52.45200 18.80100
H  21.01900 51.11600 19.79900
H  22.74700 49.83500 23.42900
H  21.73800 48.37100 23.15800
H  22.63900 48.49700 24.61200
H  20.42400 51.43200 28.66700
H  19.24700 48.44500 31.62000
H  18.19800 49.83700 31.67500
H  19.74000 49.73400 32.67200
Mg 9.45500 48.11500 24.56400
C  7.33900 49.14700 27.17600
C  12.16100 49.58100 26.31300
C  11.38400 47.79100 21.72500
C  6.67700 47.42300 22.64400
N  9.72700 49.27900 26.46500
C  8.69200 49.42200 27.42600
C  9.29100 49.78300 28.75200
C  10.67200 50.37000 28.28900
C  10.93200 49.65600 26.95000
C  10.57900 51.93100 28.09700
C  9.44200 48.53100 29.73000
C  8.76500 48.81500 31.06100
H  8.25100 47.59600 31.86400
N  11.47700 48.48900 24.23700
C  12.36500 49.02500 25.06000
C  13.66200 48.86200 24.46600
C  13.45200 48.38600 23.11500
C  12.01200 48.24600 22.96700
C  14.87400 49.19100 25.21200
C  14.51900 48.20700 22.03500
O  14.34800 47.91200 20.87100
C  15.94600 48.24100 22.49100
N  9.10500 47.63400 22.50800
C  10.01900 47.64100 21.55400
C  9.43900 46.96700 20.24100
C  7.96300 46.70200 20.62600
C  7.91700 47.25100 22.03500
C  9.64300 47.82400 19.00200
C  7.41900 45.23000 20.52000
C  8.27900 44.08300 21.05500
N  7.39600 48.16700 24.80600
C  6.36700 47.84000 23.95300
C  5.11800 48.11000 24.59400
C  5.51000 48.62000 25.82400
C  6.84500 48.65600 25.95200
C  3.69500 47.93100 24.07900
C  4.93500 49.18300 26.97900
O  3.72500 49.28500 27.23100
C  6.08600 49.25400 28.00100
C  5.82800 48.06500 28.92500
O  6.46000 46.98900 29.00900
O  4.86200 48.45700 29.77000
C  4.20600 47.50100 30.64600
H  13.05100 49.97900 26.80500
H  12.04000 47.52500 20.89300
H  5.82400 47.24400 21.98500
H  8.83900 50.63700 29.25600
H  11.49600 50.19800 28.98200
H  10.99500 52.36800 27.18900
H  11.12500 52.40600 28.91100
H  9.53500 52.21700 28.22600
H  10.48500 48.34000 29.98200
H  9.08300 47.57400 29.35300
H  8.08900 49.66900 31.11200
H  9.60600 49.08300 31.70000
H  15.50500 48.32200 25.02600
H  14.81800 49.30300 26.29400
H  15.30300 50.08500 24.76000
H  16.66800 47.96400 21.72200
H  15.95300 47.36200 23.13600
H  16.18100 49.15400 23.03900
H  9.94700 46.02500 20.03600
H  7.28800 47.29600 20.00900
H  9.30700 47.31500 18.09800
H  10.65400 48.20400 18.85700
H  9.02900 48.71900 19.09600
H  7.41900 45.05700 19.44300
H  6.42800 45.11100 20.95800
H  8.97000 44.42800 21.82400
H  9.01700 43.75500 20.32300
H  7.67900 43.29900 21.51800
H  3.61200 47.58500 23.04800
H  3.20900 48.90400 24.02400
H  3.31800 47.29300 24.87800
H  6.08300 50.20700 28.52900
H  3.45800 46.90700 30.12000
H  3.72000 48.08100 31.43100
H  4.88800 46.90900 31.25600

