158

Mg 41.15000 9.05100 30.30200
C  43.14300 10.24600 32.81900
C  39.09100 7.67500 32.60100
C  39.51000 7.34100 27.76500
C  43.52900 10.05500 27.95600
N  41.19700 8.91500 32.55400
C  41.97600 9.63200 33.36000
C  41.52800 9.50100 34.78300
C  40.27100 8.55900 34.70000
C  40.16700 8.36500 33.17600
C  40.41100 7.19800 35.44600
C  41.27500 10.87700 35.41200
C  40.33800 10.95900 36.58800
H  40.78200 11.64300 37.88100
N  39.50300 7.80500 30.16400
C  38.71200 7.43300 31.26200
C  37.52700 6.76500 30.78500
C  37.58400 6.76800 29.39100
C  38.92000 7.28200 29.04600
C  36.55700 6.03200 31.70800
C  36.56600 6.23400 28.37800
O  36.76100 6.18800 27.20300
C  35.18800 5.94300 28.92900
N  41.42200 8.79300 28.15000
C  40.59500 8.08400 27.37700
C  41.09800 8.00400 25.97100
C  42.22100 9.10800 25.93900
C  42.41900 9.39100 27.47400
C  41.49700 6.59700 25.45800
C  41.93000 10.46600 25.15600
C  41.14800 11.56000 25.82500
N  43.01900 9.94300 30.36400
C  43.84900 10.33500 29.33000
C  45.03800 10.96800 29.82800
C  44.75000 11.01700 31.21600
C  43.60900 10.34100 31.45700
C  46.19800 11.49500 29.11500
C  45.28300 11.44900 32.48800
O  46.21300 12.16600 32.72200
C  44.32300 11.04600 33.54300
C  45.02100 10.23200 34.61800
O  45.65300 9.22200 34.41100
O  44.94300 10.89300 35.78100
C  45.80200 10.43300 36.87900
H  38.41500 7.25400 33.34800
H  38.96100 6.97100 26.89600
H  44.17700 10.47200 27.18100
H  42.39100 9.02600 35.24900
H  39.45200 9.17600 35.07000
H  39.78500 7.20000 36.33800
H  41.38400 7.09700 35.92600
H  40.32900 6.30400 34.82800
H  40.75800 11.54900 34.72700
H  42.27400 11.18800 35.71900
H  40.13000 9.94000 36.91500
H  39.43900 11.48400 36.26400
H  35.58700 6.51000 31.84900
H  36.90900 5.91200 32.73300
H  36.47600 5.01000 31.33700
H  34.83000 6.81600 29.47500
H  35.12200 5.08300 29.59600
H  34.50200 5.71900 28.11100
H  40.35000 8.37700 25.27200
H  43.19300 8.73700 25.61300
H  42.48100 6.51100 24.99600
H  40.74600 6.38300 24.69800
H  41.39100 5.84200 26.23600
H  41.35500 10.28400 24.24800
H  42.80000 10.91000 24.67300
H  40.96000 11.40100 26.88700
H  40.24000 11.76000 25.25700
H  41.79100 12.42900 25.68400
H  45.98200 12.56400 29.09400
H  46.35100 11.03000 28.14200
H  47.16500 11.19400 29.51800
H  43.83500 11.88900 34.03200
H  45.23100 10.40900 37.80800
H  46.61100 11.11800 37.13100
H  46.24200 9.44800 36.72700
Mg 35.17500 48.21800 26.40000
C  35.55800 46.20600 29.08200
C  34.12400 50.70000 28.51400
C  34.62700 50.22400 23.64600
C  36.33000 45.68700 24.33500
N  34.91900 48.38300 28.57800
C  35.20200 47.46600 29.46100
C  35.21700 47.96800 30.86600
C  34.32000 49.31700 30.69800
C  34.51900 49.54500 29.16700
C  32.85800 49.12200 31.06900
C  36.72100 48.17500 31.32300
C  37.05500 47.70100 32.80800
H  36.73300 48.68100 33.96500
N  34.38900 50.17200 26.16400
C  34.02200 51.03400 27.09300
C  33.46700 52.16900 26.57400
C  33.83100 52.15000 25.17900
C  34.34300 50.79100 24.92700
C  32.71300 53.21100 27.31600
C  33.64900 53.27800 24.16000
O  33.97900 53.22200 22.94300
C  33.11800 54.59600 24.62800
N  35.37000 47.97600 24.32600
C  35.02500 48.91800 23.40900
C  35.25000 48.35200 22.03500
C  36.27900 47.12100 22.28300
C  35.80500 46.86100 23.72600
C  33.99900 48.06900 21.22400
C  37.77900 47.42900 22.02800
C  38.59500 46.69500 20.91600
N  35.82600 46.22600 26.60900
C  36.38300 45.36200 25.72400
C  36.70400 44.17500 26.37600
C  36.38800 44.39400 27.73700
C  35.86300 45.68300 27.78400
C  37.17800 42.89500 25.69700
C  36.42300 43.88500 29.09300
O  36.87300 42.82100 29.50100
C  36.04800 45.04200 30.02600
C  35.00600 44.58600 30.93300
O  33.84400 44.32400 30.67200
O  35.57000 44.46100 32.13700
C  34.61400 44.29200 33.25900
H  33.82900 51.50600 29.18900
H  34.55700 50.79700 22.72000
H  36.63800 44.91700 23.62600
H  34.92200 47.29000 31.66700
H  34.66600 50.25200 31.13800
H  32.27200 49.36600 30.18300
H  32.67100 49.86600 31.84400
H  32.65100 48.11200 31.42100
H  37.05800 49.21200 31.31500
H  37.42100 47.62500 30.69400
H  38.12500 47.49800 32.85900
H  36.48000 46.78700 32.95600
H  31.86900 53.48200 26.68300
H  33.27700 54.11000 27.56600
H  32.27200 52.92200 28.27100
H  32.09400 54.39400 24.94300
H  33.19300 55.30400 23.80300
H  33.65700 55.02400 25.47300
H  35.80600 49.01700 21.37400
H  35.91700 46.28900 21.67800
H  33.08000 48.47700 21.64500
H  33.89200 46.98800 21.14500
H  34.19800 48.55400 20.26800
H  38.42500 47.31700 22.89900
H  37.97900 48.49000 21.87700
H  38.85200 47.51000 20.23900
H  37.97900 45.98300 20.36800
H  39.48800 46.17300 21.26200
H  36.52200 42.11800 25.30400
H  37.95800 42.46000 26.32200
H  37.55100 43.23700 24.73100
H  36.98500 45.27700 30.53000
H  34.63300 45.15600 33.92400
H  34.90200 43.39200 33.80400
H  33.59100 44.17600 32.90300

