158

Mg 48.61000 35.89000 28.36500
C  46.71800 34.49100 30.86600
C  48.71000 38.93300 30.20400
C  49.86900 37.63400 25.63500
C  47.95400 33.11500 26.31700
N  47.96400 36.54700 30.29500
C  47.29600 35.73200 31.18400
C  47.45400 36.43100 32.60800
C  47.68800 37.96900 32.26100
C  48.16800 37.80900 30.79200
C  46.31300 38.70600 32.28300
C  48.55900 35.73500 33.45400
C  49.48500 36.63700 34.29100
H  48.80900 37.66100 35.28200
N  49.43800 37.94200 28.12700
C  49.24600 39.04400 28.94300
C  49.90400 40.19600 28.37200
C  50.18600 39.87000 26.96800
C  49.83000 38.42900 26.84700
C  50.18500 41.51300 29.14500
C  50.82300 40.68800 25.88000
O  50.81200 40.32400 24.71800
C  51.36500 42.02600 26.25100
N  48.90800 35.50300 26.33500
C  49.48700 36.32700 25.40400
C  49.59700 35.66400 24.02500
C  49.19900 34.19600 24.31500
C  48.61900 34.26000 25.74700
C  48.60700 36.22100 22.97000
C  50.36200 33.15500 24.30900
C  50.21700 32.01700 23.22400
N  47.71600 34.05300 28.51000
C  47.53900 33.03800 27.64300
C  46.81800 31.92200 28.29400
C  46.48400 32.48600 29.55600
C  46.99300 33.82100 29.62000
C  46.52900 30.49000 27.81300
C  45.76500 32.17100 30.71800
O  45.18000 31.15200 31.00600
C  45.76400 33.49200 31.62000
C  46.05100 33.09500 33.05500
O  46.99300 32.41400 33.41800
O  45.11600 33.62300 33.87700
C  45.00300 33.12100 35.24000
H  48.66300 39.85800 30.78300
H  50.17300 38.13500 24.71300
H  47.77700 32.31400 25.59600
H  46.45500 36.30000 33.02400
H  48.32600 38.49200 32.97300
H  46.53800 39.66500 32.75100
H  45.56700 38.14100 32.84200
H  45.93700 38.74700 31.26100
H  49.23100 35.14300 32.83300
H  48.15300 34.96000 34.10400
H  50.06500 37.14400 33.52000
H  50.11800 35.91400 34.80500
H  49.22400 41.96700 29.38700
H  50.76500 42.30700 28.67500
H  50.74000 41.18400 30.02400
H  51.74600 42.51100 25.35200
H  52.19800 41.81300 26.92100
H  50.57500 42.65500 26.66100
H  50.62300 35.83800 23.70200
H  48.30900 33.79800 23.82800
H  49.14000 36.91200 22.31600
H  47.74500 36.69600 23.43800
H  48.26500 35.44600 22.28400
H  50.43900 32.68600 25.29000
H  51.24700 33.75000 24.08400
H  50.06900 31.11200 23.81300
H  51.11500 31.86800 22.62500
H  49.41300 32.28500 22.53800
H  46.88600 30.50400 26.78300
H  45.49000 30.16200 27.76600
H  46.98300 29.71800 28.43400
H  44.76300 33.92500 31.61900
H  43.91900 33.05000 35.33100
H  45.45900 33.67600 36.06000
H  45.41600 32.11400 35.18600
Mg 10.42500 46.34000 25.40300
C  8.26200 46.55900 28.11900
C  12.78700 47.79000 27.43000
C  12.41300 46.47300 22.73400
C  7.64200 45.72800 23.31500
N  10.50200 47.02800 27.64100
C  9.55600 46.97400 28.53700
C  9.97100 47.50700 29.86400
C  11.30000 48.25200 29.53900
C  11.61600 47.66400 28.11800
C  11.18200 49.78300 29.55500
C  9.99100 46.32500 30.96100
C  10.92900 46.32700 32.23700
H  10.68400 45.40000 33.39200
N  12.31100 46.95100 25.15400
C  13.15800 47.49700 26.09300
C  14.44200 47.72400 25.50800
C  14.40800 47.20000 24.18900
C  12.99500 46.84900 23.93500
C  15.49500 48.62900 26.17400
C  15.51900 46.82800 23.29700
O  15.38600 46.20100 22.24600
C  16.89700 47.28100 23.78500
N  10.09800 46.18600 23.31400
C  11.09700 46.14800 22.41800
C  10.61900 45.88100 20.99000
C  9.10000 45.74900 21.23500
C  8.89800 45.85000 22.69300
C  11.02000 47.01600 20.02300
C  8.52400 44.41700 20.60800
C  7.54700 44.72100 19.45500
N  8.38200 46.03100 25.68200
C  7.39100 45.85800 24.72100
C  6.13200 45.69300 25.39600
C  6.43700 45.85400 26.72000
C  7.79600 46.13100 26.87900
C  4.77900 45.51900 24.75200
C  5.86600 46.03400 28.02700
O  4.67900 45.91500 28.37500
C  7.01500 46.45600 28.97600
C  7.07900 45.47400 30.05600
O  7.53600 44.36100 29.96000
O  6.53200 45.98800 31.22300
C  6.50000 45.02400 32.28500
H  13.58700 48.26100 28.00400
H  12.97200 46.45800 21.79600
H  6.78800 45.64700 22.63900
H  9.25400 48.25700 30.19900
H  12.10900 47.89400 30.17600
H  10.16100 50.09800 29.76700
H  11.46700 50.13200 28.56200
H  11.95500 50.24000 30.17400
H  10.03600 45.35400 30.46800
H  9.03800 46.39700 31.48500
H  10.96200 47.36400 32.57100
H  11.94200 46.06200 31.93500
H  14.94300 49.28200 26.85000
H  16.03100 49.27900 25.48300
H  16.13100 47.99100 26.78900
H  17.76400 47.07900 23.15600
H  17.02600 46.76700 24.73700
H  16.78400 48.36500 23.76000
H  11.20900 45.04100 20.62400
H  8.56100 46.56900 20.76000
H  11.55400 47.80900 20.54600
H  10.12800 47.46300 19.58300
H  11.69500 46.57200 19.29200
H  7.93000 43.92000 21.37500
H  9.41800 43.86500 20.31600
H  7.04600 45.68700 19.38400
H  6.69600 44.04100 19.47300
H  8.10700 44.54000 18.53700
H  4.74800 44.54800 24.25800
H  4.64100 46.18500 23.90000
H  3.94100 45.61100 25.44300
H  6.74400 47.40000 29.44900
H  5.66200 45.34200 32.90500
H  7.45700 45.04600 32.80500
H  6.37800 43.99600 31.94200

