158

Mg 17.16500 -0.78500 28.41000
C  16.25100 1.29900 31.12700
C  18.94700 -2.78700 30.51000
C  18.29200 -2.52200 25.69300
C  15.39800 1.36700 26.37900
N  17.69100 -0.55500 30.51600
C  17.17800 0.26200 31.44400
C  17.57100 -0.14900 32.85700
C  18.71500 -1.19000 32.55400
C  18.56300 -1.56400 31.07500
C  20.15500 -0.63500 32.73700
C  16.39100 -0.83300 33.72800
C  16.15000 -0.06100 35.04900
H  17.32900 0.19900 35.99600
N  18.38900 -2.47500 28.13300
C  18.93000 -3.20900 29.18800
C  19.60300 -4.37500 28.64000
C  19.33300 -4.38400 27.22100
C  18.62400 -3.13200 26.92800
C  20.48300 -5.35500 29.45900
C  19.79000 -5.47900 26.15800
O  19.68400 -5.29300 24.95300
C  20.43300 -6.76500 26.62500
N  16.92200 -0.61200 26.42600
C  17.50300 -1.41000 25.44600
C  17.16300 -0.94300 23.98900
C  16.13900 0.16400 24.31100
C  16.12700 0.33000 25.80200
C  18.47900 -0.44600 23.32100
C  14.65800 -0.09500 23.70300
C  13.62500 -0.89800 24.55900
N  16.12900 0.97800 28.62000
C  15.43800 1.76100 27.70100
C  14.84600 2.88800 28.36900
C  15.07500 2.73900 29.69200
C  15.85800 1.56800 29.79600
C  14.00400 3.99300 27.71500
C  14.83800 3.31900 31.02400
O  14.21700 4.27500 31.39900
C  15.57700 2.35100 32.03700
C  16.53800 3.23900 32.77200
O  17.68100 3.55600 32.45600
O  15.92200 3.65600 33.94000
C  16.58600 4.44100 34.93000
H  19.33700 -3.51900 31.22100
H  18.62200 -3.15100 24.86400
H  14.94000 2.12700 25.74200
H  17.96100 0.74300 33.34800
H  18.70700 -2.15400 33.06300
H  20.21000 0.29100 33.30900
H  20.68100 -0.42800 31.80500
H  20.70800 -1.39400 33.29000
H  16.61600 -1.89400 33.83100
H  15.50900 -0.70200 33.10200
H  15.43200 -0.62900 35.64100
H  15.75400 0.92200 34.79300
H  19.86500 -6.19700 29.77100
H  20.72900 -4.85600 30.39700
H  21.35600 -5.60200 28.85500
H  21.43000 -6.61300 27.03800
H  20.63100 -7.42100 25.77800
H  19.72600 -7.25300 27.29600
H  16.71900 -1.85600 23.59200
H  16.35000 1.13700 23.86700
H  19.31200 -0.59100 24.00900
H  18.43400 0.59600 23.00300
H  18.51600 -1.00700 22.38800
H  14.85700 -0.59100 22.75300
H  14.28800 0.89700 23.44600
H  13.88700 -1.13200 25.59100
H  13.38400 -1.82800 24.04500
H  12.72600 -0.28200 24.55100
H  13.16300 3.61200 27.13600
H  14.57900 4.59100 27.00700
H  13.71200 4.64900 28.53400
H  14.85200 1.86700 32.69300
H  16.03400 5.35500 35.14500
H  17.61100 4.64500 34.61800
H  16.61000 3.84200 35.84000
Mg 0.39500 44.07100 25.86300
C  1.94600 44.27600 28.89600
C  -2.52300 43.13100 27.47300
C  -1.02900 43.33600 22.80000
C  3.41200 44.67800 24.24100
N  -0.16600 43.67600 27.87300
C  0.62500 43.86600 28.97200
C  -0.21900 43.82000 30.28700
C  -1.58400 43.15000 29.81700
C  -1.42800 43.34500 28.27600
C  -1.83500 41.67200 30.30500
C  -0.38200 45.22700 31.06500
C  -0.01100 45.30700 32.55900
H  0.02800 44.04000 33.41800
N  -1.57300 43.52200 25.25000
C  -2.57500 43.23100 26.04500
C  -3.71700 43.03900 25.20300
C  -3.29900 43.14800 23.83400
C  -1.91400 43.28400 23.93300
C  -5.05800 42.60700 25.73800
C  -4.06400 42.98500 22.50900
O  -3.55100 42.95900 21.39500
C  -5.57300 42.82200 22.56600
N  1.04500 44.08100 23.87300
C  0.28600 43.71300 22.80300
C  1.17500 43.62400 21.56100
C  2.45200 44.43500 21.89900
C  2.31700 44.35800 23.43300
C  1.34300 42.10600 21.08900
C  2.58300 45.82200 21.17800
C  3.81000 46.10100 20.20300
N  2.30500 44.36000 26.41200
C  3.40100 44.65400 25.69800
C  4.49800 44.85300 26.56700
C  4.02200 44.63100 27.87800
C  2.69500 44.44500 27.73400
C  5.96700 45.13900 26.11500
C  4.34400 44.62600 29.31400
O  5.38400 44.78800 29.93400
C  2.97500 44.37000 30.04400
C  3.20700 43.11000 30.82800
O  3.09700 42.01800 30.29300
O  3.71400 43.41300 32.06800
C  4.19600 42.24800 32.85600
H  -3.44700 42.77900 27.93700
H  -1.34100 43.10100 21.78000
H  4.42000 44.73200 23.82500
H  0.25200 43.10400 30.96000
H  -2.45200 43.72400 30.13900
H  -1.00600 41.45500 30.97900
H  -1.83100 41.01200 29.43800
H  -2.82500 41.69900 30.75900
H  -1.36100 45.66800 30.87800
H  0.27900 45.93700 30.56700
H  -0.76100 45.86700 33.11800
H  0.89500 45.90900 32.63200
H  -4.96100 42.19500 26.74200
H  -5.65000 41.94300 25.10700
H  -5.63000 43.48400 26.04200
H  -6.10300 43.28400 23.39900
H  -5.64100 41.75000 22.74800
H  -6.06600 42.99500 21.60900
H  0.65200 44.12400 20.74600
H  3.33300 43.82700 21.69300
H  2.39600 41.92500 20.87400
H  0.69900 41.79400 20.26700
H  1.15800 41.43300 21.92700
H  2.71300 46.52300 22.00400
H  1.72000 45.92000 20.52000
H  4.59000 46.60000 20.77800
H  3.58000 46.63300 19.28000
H  4.10600 45.12900 19.80900
H  5.93200 45.90500 25.34100
H  6.21600 44.15700 25.71300
H  6.63300 45.34700 26.95300
H  2.86000 45.28100 30.63100
H  5.24800 41.96900 32.79400
H  3.70600 41.31100 32.59100
H  3.91900 42.36900 33.90300

