158

Mg 27.02200 50.29500 25.93500
C  24.81900 51.13300 28.60100
C  29.04600 48.73200 28.29300
C  29.19000 49.74600 23.47100
C  24.81000 51.71800 23.73200
N  26.92100 49.99800 28.15000
C  25.94500 50.38100 29.02700
C  26.26100 49.97000 30.48300
C  27.71500 49.49900 30.31200
C  27.93700 49.38200 28.79300
C  28.96200 50.20800 31.09600
C  25.15500 49.02100 31.05800
C  24.52100 49.47600 32.39100
H  25.36900 50.06600 33.57900
N  28.86500 49.37500 25.86400
C  29.52000 48.72800 26.93500
C  30.79900 48.17500 26.37900
C  30.86000 48.57300 25.00500
C  29.61700 49.18900 24.71200
C  31.66800 47.29400 27.16000
C  32.02600 48.34800 23.94700
O  32.04600 48.51700 22.73600
C  33.32000 47.81400 24.59600
N  26.98200 50.66000 23.92000
C  28.02000 50.34700 23.11100
C  27.63400 50.63100 21.63100
C  26.22700 51.25100 21.74400
C  25.96400 51.16000 23.20900
C  28.62600 51.43600 20.75000
C  25.15000 50.62000 20.81000
C  24.07600 51.52600 20.22000
N  25.18900 51.29900 26.08600
C  24.43600 51.78100 25.11500
C  23.29000 52.49400 25.63900
C  23.40400 52.25400 27.01700
C  24.61100 51.55600 27.24900
C  22.33900 53.31800 24.81400
C  22.75000 52.52100 28.30700
O  21.79000 53.16500 28.66100
C  23.74000 51.84800 29.41400
C  24.25000 52.93400 30.23700
O  25.29300 53.52800 29.99900
O  23.48700 53.13100 31.33000
C  23.96900 54.06000 32.31400
H  29.79000 48.34900 28.99500
H  29.86400 49.59300 22.62600
H  24.06100 52.08100 23.02500
H  26.17800 50.93000 30.99100
H  27.74100 48.47300 30.67900
H  29.52800 50.83000 30.40200
H  29.57900 49.43300 31.55100
H  28.58300 50.87700 31.86900
H  25.57900 48.02000 31.13100
H  24.36400 48.90400 30.31800
H  24.03600 48.59400 32.81100
H  23.61200 50.07300 32.31700
H  31.76500 46.28500 26.75800
H  31.28500 47.25400 28.18000
H  32.64900 47.76400 27.23100
H  34.11000 48.05300 23.88400
H  33.20800 46.75900 24.84600
H  33.43300 48.51100 25.42600
H  27.62100 49.63000 21.19900
H  26.28700 52.32300 21.55400
H  29.17500 52.07000 21.44600
H  28.04800 52.10800 20.11500
H  29.34800 50.84800 20.18400
H  24.57100 49.86600 21.34200
H  25.42500 50.01000 19.94900
H  23.94000 51.14700 19.20600
H  24.53100 52.50700 20.08700
H  23.22700 51.49000 20.90200
H  22.91200 53.72900 23.98300
H  21.88900 54.02600 25.51100
H  21.61500 52.74900 24.23100
H  23.27000 51.11400 30.06800
H  24.35700 54.95100 31.82100
H  24.81000 53.52400 32.75100
H  23.27400 54.23400 33.13600
Mg 0.85900 42.03100 26.24000
C  2.17100 42.13200 29.51300
C  -2.03500 40.78900 27.80900
C  -0.24400 41.35600 23.29700
C  4.05000 42.65500 25.10100
N  0.13700 41.57500 28.45400
C  0.79700 41.94300 29.56100
C  -0.15800 41.78300 30.83400
C  -1.49100 41.21500 30.23200
C  -1.11000 41.21900 28.72500
C  -2.10300 39.91900 30.92500
C  -0.36800 43.09000 31.66400
C  -0.26800 43.02000 33.15300
H  -0.77500 41.72500 33.90000
N  -0.92100 41.21900 25.62400
C  -2.05800 40.89200 26.38500
C  -3.08200 40.48500 25.42400
C  -2.62600 40.67600 24.09500
C  -1.21300 41.07200 24.27900
C  -4.44400 39.95100 25.95200
C  -3.28300 40.53200 22.75700
O  -2.69900 40.68500 21.67500
C  -4.64000 40.01600 22.75000
N  1.77900 41.88700 24.44900
C  1.06700 41.72700 23.37100
C  1.99200 41.90500 22.12100
C  3.30300 42.48500 22.70700
C  3.03700 42.27000 24.16800
C  2.13200 40.62000 21.20000
C  3.61500 43.98700 22.37400
C  4.30400 44.21000 20.92700
N  2.76400 42.44100 27.08200
C  3.99700 42.72800 26.47100
C  4.97700 42.82900 27.45600
C  4.33500 42.56700 28.64900
C  2.96000 42.34300 28.37200
C  6.42800 42.97200 27.31000
C  4.47900 42.48300 30.08200
O  5.50300 42.63200 30.71900
C  3.18300 42.16300 30.71400
C  3.36500 40.82400 31.42100
O  3.44900 39.73300 30.85100
O  3.65600 41.07000 32.77700
C  4.30200 39.95300 33.59000
H  -2.95500 40.39600 28.24600
H  -0.52300 41.08300 22.27800
H  5.01200 42.85600 24.62500
H  0.31300 41.02000 31.45300
H  -2.29100 41.93700 30.40300
H  -3.04400 40.29500 31.32600
H  -1.40200 39.60400 31.69700
H  -2.21200 39.07700 30.24100
H  -1.38500 43.43100 31.46800
H  0.43000 43.75700 31.34000
H  -0.97800 43.74700 33.54800
H  0.74300 43.16800 33.53100
H  -5.33700 40.24000 25.39800
H  -4.55800 40.42500 26.92700
H  -4.45500 38.86600 26.05500
H  -4.87900 40.08400 21.68900
H  -5.33400 40.67300 23.27300
H  -4.61300 39.02300 23.20000
H  1.54500 42.70500 21.53000
H  4.08700 41.81500 22.35400
H  1.55200 40.74800 20.28700
H  1.71200 39.78700 21.76500
H  3.17500 40.39000 20.98500
H  4.19000 44.54000 23.11700
H  2.65500 44.50100 22.42800
H  3.46600 44.51100 20.29900
H  4.70500 43.24400 20.62300
H  4.97600 45.03300 21.17100
H  6.90300 42.02000 27.54900
H  6.81800 43.76700 27.94600
H  6.67300 43.11600 26.25800
H  2.96200 42.90500 31.48100
H  5.35400 40.04100 33.31800
H  3.91100 38.94800 33.43300
H  4.38300 40.21000 34.64600

