158

Mg 35.84200 1.79900 29.59500
C  33.51100 2.75500 32.09300
C  38.22300 1.63800 32.02700
C  38.11100 1.16900 27.24900
C  33.38400 2.48500 27.22900
N  35.74800 2.05300 31.82400
C  34.70500 2.42500 32.63800
C  35.13300 2.58700 34.12600
C  36.70400 2.46700 33.98600
C  36.90600 2.01200 32.56300
C  37.49500 3.73600 34.42900
C  34.53100 1.41800 34.96800
C  34.30700 1.65800 36.49200
H  35.02400 2.86500 37.17900
N  37.88800 1.38700 29.66400
C  38.69700 1.29200 30.74400
C  40.06100 0.95300 30.32200
C  40.09800 0.85200 28.90500
C  38.66500 1.10900 28.51800
C  41.14200 0.92900 31.43200
C  41.28600 0.52300 27.98700
O  41.17000 0.56000 26.77100
C  42.65500 0.20300 28.48900
N  35.78500 1.90000 27.59500
C  36.81300 1.51300 26.76100
C  36.43700 1.49000 25.27600
C  34.86100 1.57500 25.31700
C  34.62200 2.11000 26.79800
C  37.01500 2.74800 24.59100
C  34.09000 0.24200 24.89700
C  33.84100 -0.72700 26.03900
N  33.88100 2.35500 29.61800
C  33.02200 2.63200 28.59200
C  31.76900 3.05100 29.06400
C  31.89000 3.10800 30.45500
C  33.18700 2.67500 30.71600
C  30.55400 3.33500 28.23400
C  31.19800 3.34400 31.71200
O  29.96700 3.46700 31.95500
C  32.25200 3.15700 32.82700
C  32.41100 4.42700 33.65500
O  33.13000 5.36800 33.36800
O  31.58800 4.33700 34.79700
C  31.63900 5.51800 35.60000
H  38.95600 1.52300 32.82800
H  38.76500 0.94500 26.40400
H  32.54400 2.57600 26.53700
H  34.92500 3.55900 34.57400
H  37.02700 1.60700 34.57400
H  36.89400 4.40900 35.04100
H  37.96900 4.29900 33.62400
H  38.28500 3.44100 35.11900
H  35.22400 0.57900 34.90300
H  33.63700 1.12500 34.41800
H  34.70900 0.73600 36.91200
H  33.23800 1.76500 36.67600
H  42.05900 0.43900 31.10500
H  40.74000 0.50200 32.35100
H  41.31800 1.97200 31.69500
H  42.94600 1.04300 29.12000
H  43.33900 0.21900 27.64100
H  42.66200 -0.78800 28.94300
H  36.76500 0.51100 24.92600
H  34.38600 2.25900 24.61400
H  37.39700 2.42900 23.62100
H  37.76600 3.14600 25.27300
H  36.20600 3.46100 24.43300
H  34.81000 -0.15500 24.18200
H  33.15700 0.48300 24.38800
H  34.78800 -1.25700 26.14000
H  33.09800 -1.46900 25.74800
H  33.65800 -0.25800 27.00600
H  30.23100 2.44200 27.70000
H  30.75700 4.17800 27.57300
H  29.79800 3.78400 28.87900
H  31.88700 2.30800 33.40600
H  32.61300 5.74000 36.03500
H  31.02200 5.40800 36.49200
H  31.46100 6.46000 35.08100
Mg 47.10700 35.86500 28.96900
C  45.55000 33.57500 31.19800
C  47.19200 38.07000 31.65100
C  48.04800 38.16900 26.91900
C  46.49600 33.64100 26.23500
N  46.54700 35.81900 31.13800
C  45.97900 34.72300 31.89400
C  46.12600 34.89500 33.37800
C  46.20000 36.40500 33.45400
C  46.69000 36.81000 31.98800
C  44.84100 37.10400 33.82200
C  47.41400 34.06300 33.86700
C  47.38300 33.65500 35.34000
H  46.51900 34.45400 36.32400
N  47.82900 37.75800 29.26600
C  47.68900 38.46700 30.41100
C  48.41600 39.82200 30.16600
C  48.76600 39.78400 28.80300
C  48.17800 38.55900 28.20600
C  48.58900 40.88000 31.19000
C  49.62700 40.73200 27.91900
O  49.85100 40.56500 26.75400
C  50.00500 42.05300 28.50600
N  47.20000 35.91000 26.87300
C  47.67200 36.99400 26.27200
C  47.75100 36.91300 24.77100
C  47.26600 35.45400 24.53100
C  47.02700 34.92500 25.98100
C  46.81300 37.96700 23.97800
C  48.13700 34.57900 23.59700
C  47.68900 34.43500 22.09100
N  46.25300 34.05100 28.73100
C  46.08600 33.27900 27.51000
C  45.34900 32.08100 27.87300
C  45.12200 32.20500 29.30100
C  45.68800 33.42000 29.80200
C  45.13800 30.83200 26.96900
C  44.59300 31.44100 30.43700
O  44.12200 30.27500 30.54700
C  44.66300 32.40000 31.60800
C  45.00600 31.75000 32.92000
O  46.06500 31.30200 33.27900
O  43.87100 31.75300 33.72900
C  44.04800 31.15600 35.07600
H  47.18300 38.89500 32.36600
H  48.19700 38.96500 26.18600
H  46.19900 33.05100 25.36600
H  45.28000 34.59400 33.99600
H  46.84900 36.66700 34.28900
H  43.97900 36.44400 33.72500
H  44.67000 37.83200 33.02800
H  44.80200 37.63900 34.77000
H  48.22300 34.79300 33.84600
H  47.55900 33.24000 33.16700
H  48.40100 33.72300 35.72200
H  47.05100 32.64700 35.59100
H  48.07300 41.79600 30.90400
H  49.67000 40.90500 31.32400
H  48.20500 40.58700 32.16700
H  50.57100 42.61100 27.76100
H  50.68200 41.78400 29.31700
H  49.12200 42.57300 28.87700
H  48.80900 36.96700 24.51700
H  46.27000 35.70800 24.16800
H  46.08200 37.46200 23.34800
H  47.43400 38.61900 23.36200
H  46.29700 38.64500 24.65800
H  48.13500 33.61200 24.10000
H  49.13200 35.01900 23.52400
H  46.61400 34.55400 21.95400
H  47.94900 33.40700 21.83900
H  48.21000 35.07700 21.38200
H  46.08700 30.45400 26.59000
H  44.53900 31.17600 26.12500
H  44.64700 29.97300 27.42500
H  43.63600 32.76500 31.60100
H  44.62100 31.78900 35.75400
H  44.44700 30.14200 35.10300
H  43.05500 31.11200 35.52400

