158

Mg 8.65800 48.46200 24.72700
C  6.66100 48.70600 27.38900
C  11.28600 49.83200 26.47600
C  10.51400 48.35800 21.94900
C  5.82000 47.90200 22.68900
N  8.97800 49.05700 26.69000
C  7.97400 49.08800 27.65300
C  8.53300 49.59900 28.94500
C  9.77800 50.28900 28.46000
C  10.06600 49.62700 27.12400
C  9.54600 51.81900 28.28000
C  8.94300 48.42100 29.87400
C  9.00900 48.65900 31.32200
H  8.40900 47.60500 32.23800
N  10.69200 48.77300 24.34100
C  11.60800 49.31400 25.22600
C  12.91900 49.25700 24.68400
C  12.77800 48.82900 23.26700
C  11.30200 48.57700 23.13400
C  14.16700 49.66400 25.52600
C  13.82000 48.61400 22.13700
O  13.46600 48.33900 20.95000
C  15.33200 48.78800 22.44800
N  8.14600 48.29000 22.54700
C  9.12200 48.34700 21.65700
C  8.60400 48.07700 20.23800
C  7.14100 47.62600 20.59900
C  7.00200 48.00200 21.97600
C  8.70200 49.27900 19.25600
C  6.81100 46.11800 20.29600
C  5.44000 45.97600 19.68100
N  6.60600 48.24700 24.94300
C  5.63100 48.02100 24.06300
C  4.34400 47.99200 24.76100
C  4.71700 48.19800 26.12400
C  6.08500 48.33600 26.15700
C  3.02400 47.89300 24.14200
C  4.28200 48.22100 27.44600
O  3.21200 47.87200 27.96700
C  5.45300 48.80500 28.33900
C  5.45000 48.07200 29.69900
O  5.54000 46.85100 29.85500
O  5.19500 49.03000 30.61300
C  4.91500 48.51400 32.00700
H  12.11500 50.30500 27.00600
H  11.02200 48.44500 20.98600
H  4.95800 47.78700 22.02700
H  7.85600 50.30200 29.42900
H  10.65900 50.19300 29.09500
H  8.53200 52.10100 27.99600
H  10.24600 52.10100 27.49300
H  9.67600 52.18400 29.29900
H  9.91600 47.99400 29.63400
H  8.25300 47.61000 29.64100
H  8.56200 49.61800 31.58300
H  10.04900 48.76200 31.63200
H  13.89300 49.77400 26.57500
H  14.50400 50.66900 25.27000
H  14.97700 48.93400 25.50000
H  15.89000 48.27100 21.66700
H  15.50500 48.36800 23.43900
H  15.48900 49.86500 22.50200
H  9.19300 47.25600 19.82900
H  6.37000 48.04100 19.95000
H  9.14600 50.11000 19.80400
H  7.67400 49.41900 18.92200
H  9.27800 49.00600 18.37200
H  6.86000 45.52300 21.20800
H  7.58600 45.73300 19.63300
H  5.27700 44.90000 19.61600
H  5.41100 46.43100 18.69100
H  4.61600 46.32300 20.30500
H  2.28800 47.61900 24.89700
H  3.12400 47.04700 23.46300
H  2.70700 48.79800 23.62400
H  5.33700 49.87400 28.51200
H  4.87100 49.32700 32.73100
H  5.67800 47.82100 32.36300
H  3.99400 47.93300 31.95100
Mg -4.57700 24.22300 27.25900
C  -3.18400 26.45400 29.61500
C  -5.21500 22.01700 29.86900
C  -5.47300 21.94900 25.00200
C  -3.56300 26.31500 24.66500
N  -4.32700 24.25800 29.46700
C  -3.88200 25.32700 30.21100
C  -3.92300 25.05800 31.72300
C  -4.27700 23.54500 31.79300
C  -4.69000 23.20000 30.29300
C  -3.07000 22.56800 32.26300
C  -5.04400 25.96600 32.35200
C  -4.67400 26.42900 33.71600
H  -5.00400 25.46200 34.78100
N  -5.40200 22.29100 27.44400
C  -5.54200 21.53000 28.64800
C  -6.16700 20.28000 28.30500
C  -6.10200 20.20800 26.92000
C  -5.64000 21.49000 26.38600
C  -6.72600 19.37000 29.38900
C  -6.59000 19.02100 25.95300
O  -6.62800 19.16500 24.75200
C  -7.24700 17.85200 26.61300
N  -4.71200 24.23800 25.10300
C  -5.21500 23.18700 24.39700
C  -5.19000 23.40500 22.95700
C  -4.64600 24.88700 22.82400
C  -4.22300 25.20500 24.24200
C  -4.39100 22.25900 22.19300
C  -5.52000 25.94800 22.12600
C  -4.81900 26.93000 21.20200
N  -3.68700 26.06700 27.11500
C  -3.29400 26.78500 25.97000
C  -2.60700 27.97600 26.44300
C  -2.51400 27.81200 27.83900
C  -3.18800 26.74500 28.21100
C  -1.95300 29.13800 25.67300
C  -2.05600 28.44100 29.03100
O  -1.44900 29.51900 29.22700
C  -2.54900 27.64900 30.28000
C  -1.30200 27.41300 30.98100
O  -0.49300 26.54400 30.71700
O  -1.17100 28.18500 32.05200
C  -0.23300 27.71000 33.05300
H  -5.24200 21.30600 30.69700
H  -5.75300 21.18000 24.28000
H  -3.32600 27.07800 23.92000
H  -2.92100 25.21500 32.12100
H  -5.16700 23.39300 32.40300
H  -3.45800 21.76000 32.88300
H  -2.35300 23.19100 32.79600
H  -2.46700 22.08600 31.49300
H  -6.03200 25.50800 32.40500
H  -5.17800 26.81800 31.68600
H  -5.01700 27.39700 34.08100
H  -3.58800 26.51600 33.66400
H  -6.11900 18.46400 29.38900
H  -7.76600 19.16700 29.13200
H  -6.68300 19.86300 30.36000
H  -7.36400 17.10100 25.83200
H  -8.28400 18.12600 26.80500
H  -6.62400 17.35700 27.35800
H  -6.19700 23.41100 22.53900
H  -3.76200 24.77800 22.19500
H  -3.82700 21.58600 22.83900
H  -3.72000 22.58700 21.40000
H  -5.17600 21.62700 21.77800
H  -6.13800 26.39500 22.90400
H  -6.16000 25.42400 21.41700
H  -5.19000 27.92600 21.44400
H  -4.98000 26.84400 20.12700
H  -3.77100 26.99200 21.49400
H  -2.64800 29.36200 24.86500
H  -0.95500 28.85800 25.33400
H  -1.80700 30.00500 26.31800
H  -3.25100 28.20200 30.90300
H  -0.52100 28.30200 33.92200
H  0.83900 27.77000 32.86400
H  -0.51700 26.68200 33.28000

