158

Mg 47.51200 15.75700 28.43500
C  45.34500 15.47100 31.46200
C  49.72100 17.09400 30.50000
C  49.00500 16.66900 25.71500
C  44.76600 14.40900 26.67700
N  47.48300 16.19300 30.74200
C  46.57100 16.05600 31.72400
C  47.07000 16.53000 33.07600
C  48.51100 17.12100 32.72600
C  48.58100 16.70200 31.19900
C  48.68900 18.66400 33.02400
C  47.14400 15.45300 34.13800
C  46.87500 15.82300 35.56300
H  47.07300 17.27300 36.00600
N  49.19200 16.61400 28.14700
C  50.00300 17.08800 29.13800
C  51.16600 17.61600 28.52000
C  51.01700 17.50200 27.13500
C  49.68000 16.92900 26.94500
C  52.32500 18.18600 29.35800
C  51.91000 17.96900 26.05700
O  51.70700 17.85100 24.81800
C  53.23200 18.73700 26.38400
N  46.91200 15.68600 26.47700
C  47.75500 16.04200 25.51200
C  47.20500 15.70600 24.12300
C  45.95900 14.81000 24.37200
C  45.82200 14.95500 25.92600
C  46.79800 16.97500 23.45700
C  46.11000 13.30700 23.87700
C  47.06400 12.36500 24.62400
N  45.59200 15.04300 28.94100
C  44.61100 14.54800 28.05700
C  43.49200 14.11200 28.75300
C  43.68200 14.58800 30.07200
C  44.98100 15.11500 30.14200
C  42.28800 13.47200 28.22400
C  43.03500 14.64200 31.38800
O  41.90900 14.30700 31.67000
C  44.12600 15.18700 32.39100
C  43.69500 16.42000 33.04300
O  43.39400 17.48800 32.45200
O  43.75300 16.33400 34.42300
C  43.30500 17.63500 35.01700
H  50.40800 17.59700 31.18400
H  49.59100 16.94000 24.83400
H  43.97300 13.89800 26.12700
H  46.34900 17.29500 33.36200
H  49.26300 16.58000 33.29900
H  47.84300 18.93100 33.65700
H  48.72500 19.27100 32.11900
H  49.50800 19.05900 33.62600
H  48.11400 14.95900 34.19600
H  46.51400 14.60400 33.87000
H  47.55100 15.12400 36.05500
H  45.86200 15.45900 35.73800
H  53.29900 17.73900 29.15500
H  52.12600 18.24700 30.42800
H  52.42900 19.24000 29.10300
H  53.90100 18.02100 26.86000
H  52.96900 19.55800 27.05100
H  53.72500 19.03600 25.45900
H  48.03700 15.24100 23.59500
H  45.07000 15.28800 23.95900
H  46.65800 16.83300 22.38500
H  47.61300 17.68200 23.61500
H  45.91100 17.46200 23.86200
H  46.13300 13.20700 22.79200
H  45.10200 12.95100 24.09100
H  47.69400 11.93700 23.84400
H  46.53600 11.54400 25.11000
H  47.65900 12.98900 25.29100
H  42.18200 13.39500 27.14200
H  41.44200 14.06800 28.56600
H  42.14900 12.52300 28.74200
H  44.29800 14.51800 33.23400
H  42.22100 17.56200 34.93000
H  43.79100 18.50700 34.57900
H  43.60200 17.64100 36.06600
Mg 6.23600 53.85700 41.26500
C  5.35500 50.39400 40.95900
C  9.29300 53.05100 40.35500
C  6.72500 57.06000 41.11500
C  2.68100 54.41700 41.82100
N  7.07600 51.99000 40.53800
C  6.62000 50.68600 40.54500
C  7.68300 49.64700 40.03900
C  8.93800 50.48400 40.43600
C  8.40200 51.95100 40.48400
C  9.73300 50.02100 41.73500
C  7.50500 49.13800 38.56500
C  6.80100 50.01100 37.56900
H  6.28600 49.44700 36.22600
N  7.84200 54.93600 40.87600
C  9.02100 54.41400 40.38400
C  9.92600 55.53400 40.09800
C  9.22200 56.72600 40.38500
C  7.90200 56.28400 40.81000
C  11.34300 55.44000 39.51700
C  9.67600 58.14500 40.27600
O  10.84700 58.41700 39.91800
C  8.84800 59.47300 40.47900
N  4.81500 55.48700 41.35000
C  5.37300 56.76200 41.22900
C  4.23200 57.78000 41.35700
C  2.89600 56.96500 41.24300
C  3.44000 55.56100 41.50800
C  4.12100 58.60900 42.68600
C  2.21600 56.92500 39.88300
C  0.84800 57.62500 39.77800
N  4.41000 52.68400 41.43600
C  3.08400 53.08800 41.77100
C  2.25600 51.94000 41.90400
C  3.17500 50.83900 41.73800
C  4.45000 51.35600 41.36000
C  0.84000 51.97300 42.39300
C  3.24700 49.42000 41.70700
O  2.40200 48.52600 41.95200
C  4.62200 49.08400 41.13400
C  4.27100 48.34900 39.81300
O  3.89500 48.86900 38.74500
O  4.31800 47.03900 40.03700
C  4.19000 46.16700 38.90200
H  10.34700 52.84100 40.16100
H  6.86100 58.12100 41.33500
H  1.63100 54.68300 41.95800
H  7.57100 48.83600 40.75900
H  9.56800 50.55100 39.54900
H  9.93500 50.88000 42.37400
H  10.70600 49.60700 41.47200
H  9.21600 49.27900 42.34300
H  6.89900 48.23300 38.61100
H  8.45100 48.80300 38.13900
H  7.48100 50.82500 37.31900
H  6.00200 50.60700 38.01200
H  11.09400 55.85600 38.54000
H  11.76200 54.44900 39.34100
H  12.13700 56.01300 39.99400
H  9.50300 60.34300 40.44400
H  8.46300 59.33400 41.49000
H  7.97500 59.48800 39.82700
H  4.34300 58.48900 40.53600
H  2.14100 57.18100 42.00000
H  3.91100 57.98500 43.55500
H  3.26500 59.28300 42.68400
H  5.05000 59.13000 42.92000
H  2.17600 55.87900 39.58100
H  2.90900 57.46100 39.23400
H  0.82800 58.11200 40.75300
H  0.07100 56.86200 39.72200
H  0.86500 58.35000 38.96500
H  0.21000 52.19800 41.53200
H  0.71100 52.72000 43.17600
H  0.55200 50.97600 42.72700
H  5.11100 48.41700 41.84400
H  4.97300 46.32600 38.16000
H  3.21800 46.14500 38.40800
H  4.37400 45.15100 39.25100

