158

Mg 25.73300 0.61800 29.05600
C  27.73000 0.29300 31.80200
C  23.07900 1.56300 31.03500
C  23.80500 0.92600 26.26900
C  28.38100 -0.73700 27.11600
N  25.48900 0.96300 31.15300
C  26.45200 0.82500 32.10500
C  25.88700 1.23100 33.44300
C  24.43200 1.60700 33.19900
C  24.25800 1.24700 31.69500
C  23.37300 0.85600 34.06800
C  26.67900 2.36200 34.18100
C  27.26500 2.07800 35.58300
H  27.12400 3.25000 36.59900
N  23.77600 1.18400 28.72600
C  22.80100 1.45100 29.68200
C  21.54800 1.71200 29.00900
C  21.72700 1.53100 27.63900
C  23.13500 1.18500 27.50400
C  20.33200 2.24100 29.70300
C  20.64600 1.67700 26.44400
O  20.86900 1.49100 25.20800
C  19.23700 1.91000 26.80800
N  25.96300 0.08600 26.94900
C  25.09400 0.46200 25.94600
C  25.63900 0.23600 24.50900
C  27.07200 -0.32700 24.83900
C  27.21000 -0.26300 26.43000
C  24.72600 -0.76300 23.61900
C  28.22600 0.35600 24.12600
C  28.72300 1.67300 24.69400
N  27.58800 -0.18800 29.30600
C  28.59900 -0.68600 28.49400
C  29.74100 -0.97500 29.20200
C  29.51200 -0.61400 30.53300
C  28.13000 -0.18300 30.53700
C  30.98600 -1.59400 28.58000
C  30.02400 -0.55100 31.92200
O  31.11300 -0.84900 32.33300
C  28.92200 0.06100 32.70500
C  28.62600 -0.96100 33.73100
O  27.93000 -1.96700 33.58000
O  29.08400 -0.56100 34.96100
C  28.80600 -1.50300 36.05200
H  22.24100 1.86100 31.66800
H  23.15200 0.94600 25.39400
H  29.23500 -1.09200 26.53500
H  25.98100 0.48900 34.23600
H  24.26800 2.67200 33.36300
H  22.31300 1.05300 33.90800
H  23.70300 1.28600 35.01300
H  23.54500 -0.20700 34.24000
H  26.13500 3.30400 34.24800
H  27.54700 2.57200 33.55500
H  28.32000 1.82200 35.48900
H  26.95000 1.15300 36.06700
H  20.45600 2.45500 30.76400
H  19.53900 1.49500 29.74300
H  20.00200 3.15600 29.21100
H  19.17100 2.92700 27.19600
H  19.00200 1.11700 27.51800
H  18.55900 1.70600 25.98000
H  25.75700 1.11400 23.87500
H  27.04300 -1.40100 24.65700
H  23.75300 -0.83000 24.10600
H  25.19600 -1.74100 23.51800
H  24.49100 -0.36900 22.63000
H  27.96400 0.54300 23.08500
H  29.06600 -0.33800 24.15400
H  28.23800 1.94400 25.63200
H  28.59700 2.50200 23.99700
H  29.78100 1.56100 24.92800
H  30.69700 -2.23000 27.74300
H  31.39300 -2.30100 29.30200
H  31.77700 -0.98100 28.14700
H  29.33700 0.92200 33.22700
H  29.23600 -2.49200 35.89400
H  27.75500 -1.50100 36.34200
H  29.32200 -1.06100 36.90400
Mg 48.82400 45.73700 43.34900
C  45.42100 45.94000 42.09500
C  48.99200 42.64400 41.70400
C  52.12400 45.86700 43.61500
C  48.55300 49.07900 44.12900
N  47.34000 44.43600 41.99400
C  46.07700 44.72600 41.64800
C  45.52800 43.67300 40.72100
C  46.50600 42.44100 41.00800
C  47.68600 43.16400 41.64200
C  45.90900 41.25800 41.85200
C  45.50300 44.02600 39.25600
C  44.20400 43.80400 38.49400
H  44.24400 42.72000 37.43600
N  50.29600 44.36500 42.95100
C  50.13400 43.15300 42.31800
C  51.45900 42.51800 42.25800
C  52.40100 43.37600 42.98000
C  51.61000 44.56500 43.30700
C  51.71100 41.09800 41.72100
C  53.79900 43.05500 43.39200
O  54.25000 41.91400 43.15300
C  54.65400 43.98900 44.20100
N  50.09500 47.18900 43.95800
C  51.45100 47.06700 43.94000
C  52.17600 48.41800 44.15400
C  51.00900 49.37900 44.30800
C  49.82700 48.49600 44.05900
C  53.21400 48.46900 45.33000
C  51.06400 50.65600 43.35000
C  50.56200 51.92000 44.09200
N  47.26600 47.24400 43.34000
C  47.31400 48.52700 43.72800
C  46.04800 49.08700 43.68100
C  45.25500 48.11200 42.95300
C  46.03600 46.97700 42.84500
C  45.69200 50.50800 43.97400
C  43.95400 47.87900 42.36200
O  43.02900 48.65100 42.03100
C  44.00800 46.47800 41.76600
C  42.96400 45.60800 42.30600
O  42.27200 44.92100 41.58900
O  42.73900 45.72500 43.68500
C  41.66100 44.77600 44.07700
H  49.12700 41.60900 41.38400
H  53.21000 45.97500 43.64000
H  48.49000 50.13000 44.41600
H  44.52700 43.42300 41.07400
H  46.82600 42.05700 40.04000
H  45.83200 40.31000 41.32100
H  44.90500 41.51600 42.19200
H  46.57100 41.09000 42.70200
H  46.30700 43.58100 38.66800
H  45.63500 45.10800 39.25700
H  43.77900 44.79600 38.34600
H  43.52100 43.33700 39.20400
H  52.63600 41.02200 41.14900
H  50.89200 40.66800 41.14500
H  51.78500 40.36300 42.52300
H  55.04500 44.80200 43.58900
H  55.46700 43.39000 44.61100
H  54.23500 44.34600 45.14100
H  52.71200 48.60000 43.22200
H  50.75300 49.63700 45.33600
H  54.04300 49.08900 44.98900
H  53.64300 47.59200 45.81600
H  52.68200 48.94400 46.15400
H  50.35000 50.52800 42.53700
H  52.00500 50.94400 42.87900
H  51.36900 52.57200 44.42400
H  50.10200 51.75700 45.06700
H  49.88500 52.49600 43.46300
H  46.39400 51.08100 44.58000
H  44.81600 50.50500 44.62200
H  45.53300 50.97500 43.00200
H  43.91700 46.42300 40.68100
H  40.64600 45.11200 43.86800
H  41.68500 44.61000 45.15400
H  41.89700 43.76400 43.74700

