158

Mg 2.18200 -2.09900 44.92200
C  5.45200 -0.78400 44.83300
C  1.19000 0.80300 43.39800
C  -0.79300 -3.50600 44.59700
C  3.58700 -5.19500 45.97300
N  3.28800 -0.22100 44.00500
C  4.56900 0.08500 44.17200
C  4.92400 1.49600 43.69800
C  3.42200 2.09300 43.57700
C  2.55200 0.85000 43.64100
C  3.08500 3.03600 44.73300
C  5.76400 1.55300 42.35900
C  5.29700 0.73000 41.16100
H  5.06000 1.48400 39.85200
N  0.39200 -1.47600 44.12300
C  0.20800 -0.23000 43.47800
C  -1.17700 -0.08800 43.16800
C  -1.79000 -1.36400 43.50000
C  -0.70600 -2.16300 44.09900
C  -1.74900 1.19600 42.47900
C  -3.21700 -1.64200 43.37300
O  -3.90300 -0.74400 42.83900
C  -3.77600 -2.92800 43.69600
N  1.54900 -4.16700 45.20000
C  0.17600 -4.42900 45.07500
C  -0.07800 -5.87200 45.55400
C  1.34800 -6.41100 45.91100
C  2.21700 -5.20800 45.65300
C  -1.07000 -5.92400 46.72800
C  1.77100 -7.62000 44.98200
C  2.26300 -8.98200 45.66400
N  4.10100 -2.92900 45.39400
C  4.54400 -4.13400 45.77900
C  5.98400 -4.13900 46.07800
C  6.37500 -2.76900 45.69000
C  5.21200 -2.09900 45.30600
C  6.80100 -5.34200 46.56900
C  7.45100 -1.88300 45.48500
O  8.65200 -2.00100 45.68500
C  6.93700 -0.57600 45.05500
C  7.23900 0.28800 46.24100
O  6.73500 0.18900 47.33900
O  8.05200 1.29200 45.88500
C  8.48800 2.27200 46.85700
H  0.85700 1.79800 43.09800
H  -1.74800 -4.02400 44.70000
H  3.98700 -6.08900 46.45600
H  5.58700 1.92700 44.44800
H  3.24300 2.56300 42.61000
H  3.13100 4.09800 44.49300
H  3.86400 2.85600 45.47400
H  2.12000 2.79800 45.18000
H  6.69900 1.07900 42.65500
H  5.96500 2.58400 42.06800
H  4.47100 0.09500 41.48200
H  6.14800 0.06600 41.01400
H  -2.27600 1.89300 43.13100
H  -2.34300 0.83000 41.64200
H  -0.91300 1.75700 42.06100
H  -4.75100 -2.98900 43.21400
H  -3.68400 -3.16700 44.75600
H  -3.18500 -3.63000 43.10800
H  -0.40800 -6.47000 44.70400
H  1.30800 -6.63100 46.97800
H  -1.57300 -6.88500 46.62000
H  -1.81800 -5.13200 46.70900
H  -0.62200 -5.97400 47.72000
H  2.58100 -7.30800 44.32300
H  1.03100 -7.76200 44.19400
H  2.63100 -8.87800 46.68500
H  3.08500 -9.25000 45.00000
H  1.43200 -9.68700 45.64300
H  7.22600 -5.77200 45.66100
H  6.11800 -6.09400 46.96300
H  7.47300 -4.89300 47.30000
H  7.52500 -0.27000 44.19000
H  9.56300 2.40100 46.73200
H  8.31700 2.11700 47.92200
H  8.12100 3.24400 46.52800
Mg 51.31400 46.29100 43.43200
C  48.33200 47.11300 41.95100
C  50.75300 43.01400 42.16100
C  54.37800 45.47200 44.43900
C  51.87500 49.59000 44.31500
N  49.57800 45.21400 42.32500
C  48.54200 45.79900 41.69400
C  47.68100 44.77200 40.89900
C  48.54000 43.53600 41.00800
C  49.69000 43.94400 41.96400
C  47.69900 42.24400 41.34400
C  47.43100 45.21500 39.38000
C  46.03700 44.89500 38.83900
H  45.88500 44.12100 37.59700
N  52.44800 44.55000 43.29800
C  52.05500 43.30800 42.72000
C  53.13400 42.35500 42.84300
C  54.20800 43.04200 43.53400
C  53.68200 44.38100 43.87200
C  53.05800 40.92100 42.38300
C  55.55800 42.45700 43.81700
O  55.86100 41.34300 43.46600
C  56.50700 43.29000 44.55100
N  53.04200 47.48300 44.05800
C  54.15200 46.89400 44.57800
C  55.06900 47.99700 45.32200
C  54.13100 49.15500 45.32300
C  52.98600 48.75600 44.46400
C  55.55300 47.45200 46.76100
C  54.70600 50.57300 44.99000
C  54.11000 51.69300 45.78400
N  50.33100 48.03900 43.37600
C  50.62500 49.27400 43.74900
C  49.59400 50.22000 43.35700
C  48.65200 49.40900 42.62700
C  49.12800 48.09800 42.68000
C  49.53700 51.67400 43.73900
C  47.39800 49.39200 42.04200
O  46.55100 50.29600 41.96800
C  47.17200 47.96100 41.40600
C  45.85800 47.41100 41.67000
O  45.41500 47.13400 42.75300
O  45.13700 47.37800 40.53200
C  43.70200 47.05300 40.58400
H  50.66600 42.02500 41.70500
H  55.30000 45.32500 45.00600
H  51.92900 50.61000 44.70100
H  46.85600 44.64700 41.60100
H  48.93800 43.34500 40.01100
H  47.90400 42.15900 42.41100
H  48.19100 41.41500 40.83600
H  46.62000 42.34900 41.23300
H  48.13500 44.68400 38.73900
H  47.54600 46.29700 39.31800
H  45.48400 45.81400 38.64600
H  45.43200 44.37100 39.57900
H  53.92900 40.74300 41.75300
H  52.21200 40.72800 41.72300
H  52.94900 40.23000 43.21900
H  57.43900 42.80100 44.83300
H  56.05100 43.49500 45.52000
H  56.79500 44.21100 44.04400
H  55.92700 48.32100 44.73400
H  53.70400 49.18600 46.32600
H  55.18800 48.16200 47.50300
H  56.61400 47.48900 47.00800
H  55.25500 46.40800 46.86000
H  54.49600 50.98900 44.00500
H  55.78700 50.60100 45.13200
H  53.63800 52.35200 45.05600
H  54.87700 52.20200 46.36800
H  53.35300 51.36600 46.49600
H  48.58300 52.11800 43.45800
H  50.41000 52.22300 43.38800
H  49.51900 51.67200 44.82900
H  47.45000 48.22500 40.38600
H  43.40800 46.32200 41.33600
H  43.43700 46.65400 39.60400
H  43.16500 47.98300 40.77100

