158

Mg 1.15900 8.32700 25.08300
C  1.93500 10.35500 27.96400
C  1.32100 5.65100 27.17200
C  0.84700 6.41800 22.45300
C  1.50900 11.16700 23.10300
N  1.61300 8.11200 27.39900
C  1.75300 9.01300 28.32200
C  1.64900 8.36000 29.73700
C  1.67300 6.83300 29.40500
C  1.55700 6.80300 27.85300
C  2.91600 6.02600 29.96200
C  0.46500 8.79800 30.65200
C  0.77200 9.23000 32.03200
H  1.74600 8.48400 32.94400
N  1.07000 6.29100 24.79500
C  1.09400 5.36200 25.79300
C  0.92500 3.95400 25.28500
C  0.77500 4.19600 23.83900
C  0.91400 5.67300 23.61400
C  0.90400 2.70800 26.12800
C  0.54300 3.23300 22.80600
O  0.46300 3.58200 21.62400
C  0.37100 1.79400 23.14200
N  1.50400 8.65000 22.91500
C  1.04300 7.72000 22.10000
C  0.84400 8.22700 20.69200
C  1.13100 9.76600 20.86000
C  1.33600 9.89900 22.38300
C  1.75400 7.56800 19.51000
C  0.02800 10.67000 20.27500
C  -1.19000 11.12500 21.17500
N  1.53100 10.34500 25.34600
C  1.69900 11.36100 24.41100
C  2.04800 12.60600 25.14800
C  2.04300 12.24300 26.50100
C  1.80600 10.86300 26.54500
C  2.20800 14.03300 24.47700
C  2.20700 12.74900 27.83100
O  2.37000 13.93200 28.16900
C  2.10200 11.61100 28.89900
C  3.28100 11.66300 29.82400
O  4.37400 11.30900 29.35100
O  2.98000 11.97400 31.14900
C  4.06800 12.03000 32.09000
H  1.32100 4.75700 27.79800
H  0.62100 5.90300 21.51600
H  1.50700 11.99300 22.38900
H  2.60200 8.55800 30.22700
H  0.80100 6.30000 29.78300
H  2.56900 5.41000 30.79100
H  3.72400 6.61500 30.39500
H  3.29100 5.29400 29.24600
H  -0.25600 7.98100 30.67000
H  0.05100 9.67300 30.15100
H  -0.18300 9.29800 32.55300
H  1.03100 10.28500 31.94100
H  0.53400 1.77300 25.70800
H  0.27900 2.97300 26.98000
H  1.90200 2.54800 26.53500
H  1.20600 1.38300 23.70900
H  0.21300 1.04700 22.36500
H  -0.58500 1.71600 23.66000
H  -0.18000 8.05000 20.36100
H  2.08100 10.14700 20.48600
H  2.48600 6.87500 19.92600
H  2.27700 8.32100 18.92000
H  1.13500 7.06000 18.77100
H  -0.42000 10.13300 19.43900
H  0.43700 11.63300 19.96900
H  -1.04900 12.14500 21.53000
H  -1.17700 10.34400 21.93500
H  -2.16600 11.05700 20.69500
H  1.27700 14.59800 24.52300
H  2.32600 13.96100 23.39600
H  2.92200 14.71900 24.93300
H  1.18600 11.67000 29.48800
H  4.36300 13.06100 32.28500
H  4.84600 11.31700 31.81400
H  3.57600 11.71000 33.00800
Mg -5.44600 25.92400 25.39700
C  -3.70400 27.06700 28.26600
C  -7.27700 23.80200 27.41800
C  -6.80600 24.76600 22.64600
C  -3.33200 27.85700 23.41900
N  -5.50000 25.49000 27.67100
C  -4.75700 26.14800 28.65900
C  -5.38200 25.89100 30.05200
C  -6.28200 24.61200 29.74100
C  -6.35000 24.61200 28.17000
C  -5.71300 23.30200 30.37800
C  -6.12400 27.11000 30.69100
C  -5.79400 27.34400 32.15400
H  -5.41000 26.17000 33.10500
N  -6.85200 24.41900 25.08200
C  -7.48000 23.63100 26.03400
C  -8.42900 22.76000 25.40200
C  -8.35300 23.02000 23.99000
C  -7.28600 24.09500 23.81200
C  -9.19300 21.62900 26.22900
C  -9.08200 22.31100 22.84300
O  -8.99200 22.74500 21.67900
C  -9.98900 21.15300 23.21700
N  -5.04800 26.19100 23.30300
C  -5.75000 25.58800 22.38000
C  -5.43300 25.96200 20.97000
C  -4.45300 27.21100 21.20500
C  -4.26200 27.06300 22.72700
C  -4.82400 24.78900 20.15500
C  -5.17000 28.57900 20.84400
C  -5.83700 28.84700 19.48400
N  -3.76400 27.14000 25.73900
C  -3.04100 27.83800 24.85100
C  -2.08400 28.65100 25.63500
C  -2.34700 28.39800 26.93200
C  -3.34800 27.46900 26.95000
C  -0.99200 29.72000 25.13000
C  -2.02400 28.85200 28.31000
O  -1.31100 29.76300 28.64700
C  -2.85300 27.83900 29.27000
C  -1.90200 27.03500 30.10700
O  -0.84100 26.53000 29.73800
O  -2.30600 27.19800 31.40300
C  -1.46600 26.52600 32.40500
H  -8.07100 23.33300 28.00300
H  -7.37400 24.39700 21.78900
H  -2.72700 28.55300 22.83400
H  -4.60600 25.66200 30.78300
H  -7.27900 24.81100 30.13300
H  -4.74000 23.30800 30.86900
H  -5.51400 22.62500 29.54700
H  -6.42600 22.83400 31.05700
H  -7.20100 26.99100 30.57700
H  -5.87200 27.93600 30.02600
H  -6.65400 27.82300 32.62200
H  -5.01700 28.10400 32.06400
H  -10.20500 21.47900 25.85200
H  -9.17400 21.78200 27.30800
H  -8.70700 20.66400 26.09100
H  -10.33900 20.54100 22.38600
H  -10.85400 21.49900 23.78300
H  -9.43000 20.48400 23.87100
H  -6.37200 26.23200 20.48600
H  -3.51000 26.99700 20.70100
H  -4.74400 23.85500 20.71100
H  -3.88700 24.98900 19.63500
H  -5.54200 24.48800 19.39200
H  -4.43900 29.38500 20.90400
H  -5.83900 28.75900 21.68500
H  -5.87600 27.94200 18.87700
H  -5.49600 29.69400 18.88700
H  -6.84600 29.15400 19.75700
H  -1.08500 30.60400 25.76000
H  -1.11800 29.98800 24.08100
H  0.01200 29.30300 25.21500
H  -3.48400 28.42500 29.93800
H  -1.11100 25.58700 31.98000
H  -1.99700 26.27900 33.32500
H  -0.59300 27.10800 32.69900

