158

Mg 48.90300 46.46200 44.11800
C  45.66400 46.63000 42.84500
C  49.36100 43.54100 42.58500
C  52.11500 46.56100 45.09700
C  48.73900 49.99400 44.69400
N  47.60400 45.30500 42.82100
C  46.34800 45.46900 42.40900
C  45.86600 44.24800 41.64900
C  47.02600 43.29500 41.62700
C  48.07600 44.10300 42.31400
C  46.66800 41.92100 42.32300
C  45.27700 44.57500 40.25300
C  43.72400 44.54200 40.02800
H  43.17000 43.80400 38.80300
N  50.45200 45.21800 43.91600
C  50.44700 44.02200 43.27000
C  51.76900 43.37500 43.34500
C  52.48100 44.09800 44.31000
C  51.72000 45.39200 44.49500
C  52.13400 42.14400 42.65300
C  53.90000 43.85900 44.74600
O  54.56800 42.90800 44.35400
C  54.59200 44.64900 45.81200
N  50.29400 48.12900 44.61800
C  51.52200 47.85500 45.10000
C  52.26700 49.12700 45.66300
C  51.19400 50.25400 45.30600
C  50.01900 49.40600 44.88400
C  52.45500 49.00800 47.22700
C  51.57000 51.19200 44.10400
C  50.78100 52.47000 43.72000
N  47.52300 47.92900 43.81000
C  47.57300 49.32500 44.09000
C  46.26400 49.88700 43.89500
C  45.45800 48.81300 43.45600
C  46.30800 47.71600 43.31900
C  45.80700 51.28400 44.18400
C  44.14200 48.40700 43.04200
O  43.05300 48.99800 42.94800
C  44.14000 46.92100 42.63500
C  43.16800 46.17200 43.47800
O  43.43700 45.63400 44.52900
O  41.90800 46.23600 42.88300
C  40.72900 45.63300 43.55300
H  49.35100 42.51600 42.20800
H  53.05100 46.61300 45.65600
H  48.59600 51.03800 44.98000
H  45.05800 43.78700 42.21700
H  47.38200 42.99200 40.64200
H  45.60700 41.81200 42.54500
H  47.21500 41.81600 43.26100
H  47.00100 41.24100 41.54000
H  45.83300 44.01700 39.49900
H  45.54300 45.60700 40.02500
H  43.47700 45.58900 39.85200
H  43.16200 44.32100 40.93400
H  52.87100 42.47400 41.92200
H  51.33100 41.54000 42.23000
H  52.61900 41.47500 43.36400
H  54.01900 44.87900 46.71000
H  54.90800 45.60200 45.38700
H  55.34900 43.95000 46.16700
H  53.22100 49.11800 45.13600
H  50.91900 50.93600 46.11200
H  52.97600 48.08300 47.47200
H  51.46400 49.08700 47.67300
H  52.98800 49.88000 47.60500
H  51.61500 50.49500 43.26700
H  52.61300 51.47000 44.25500
H  49.95200 52.67900 44.39600
H  50.21500 52.31600 42.80100
H  51.46300 53.30500 43.56000
H  46.06000 51.52200 45.21700
H  44.77000 51.56800 44.00300
H  46.33300 51.95200 43.50100
H  43.96600 46.84700 41.56200
H  40.02500 45.42600 42.74800
H  40.24700 46.25800 44.30500
H  41.12900 44.69100 43.92900
Mg -1.21600 35.36800 26.80000
C  -2.98300 33.79200 29.39000
C  -0.09600 37.68800 29.12400
C  0.45500 36.86100 24.45800
C  -2.49500 32.96100 24.58500
N  -1.55900 35.68200 28.95900
C  -2.19000 34.88200 29.83400
C  -2.00900 35.26200 31.29700
C  -1.36200 36.68400 31.15800
C  -0.95100 36.67300 29.62700
C  -2.24100 37.83500 31.59500
C  -1.10100 34.19500 31.99200
C  -0.67100 34.58800 33.41300
H  -0.57800 33.64100 34.63300
N  -0.03800 37.13000 26.78900
C  0.26000 37.94100 27.81600
C  1.10700 38.99200 27.30100
C  1.07900 38.91700 25.88900
C  0.47200 37.62700 25.64600
C  1.71600 39.93300 28.23600
C  1.78600 39.85900 24.90300
O  1.98800 39.44800 23.78700
C  2.39300 41.10100 25.35900
N  -1.16600 35.01000 24.81700
C  -0.15700 35.67900 24.07700
C  -0.18600 35.23600 22.62300
C  -1.01300 33.91800 22.73300
C  -1.64800 33.94400 24.11500
C  -0.81700 36.20400 21.65000
C  -0.07000 32.61900 22.54700
C  0.91200 32.23900 23.68300
N  -2.60200 33.66100 26.87200
C  -3.00600 32.84500 25.88200
C  -4.04500 31.98400 26.44000
C  -3.96500 32.26800 27.84400
C  -3.14300 33.33400 28.04800
C  -4.99800 31.05400 25.75400
C  -4.45300 31.85200 29.13600
O  -5.19500 30.92000 29.43500
C  -3.87200 32.85100 30.21300
C  -5.01600 33.61800 30.78400
O  -5.76100 34.40700 30.19500
O  -5.25000 33.17800 32.10600
C  -6.46300 33.66000 32.77700
H  0.30300 38.20600 29.99900
H  1.11300 37.15100 23.63500
H  -2.84100 32.23200 23.84900
H  -2.98500 35.32300 31.77800
H  -0.42200 36.86500 31.67800
H  -1.87200 38.28700 32.51600
H  -3.26000 37.51500 31.81400
H  -2.43800 38.53900 30.78700
H  -0.32000 33.88700 31.29700
H  -1.74300 33.33100 32.16600
H  -1.22100 35.43100 33.83200
H  0.29600 35.05600 33.22300
H  1.54400 39.78500 29.30300
H  1.69800 40.97200 27.90700
H  2.75400 39.76400 27.94900
H  3.12900 41.50300 24.66200
H  3.07800 40.99500 26.20100
H  1.63600 41.87300 25.49600
H  0.86700 35.07000 22.39300
H  -1.75300 33.86300 21.93400
H  -1.81100 35.93300 21.29500
H  -0.10300 36.44600 20.86300
H  -0.96600 37.12700 22.21100
H  0.60100 32.84500 21.71800
H  -0.80600 31.83800 22.36000
H  0.80600 31.15500 23.73400
H  0.66400 32.67100 24.65300
H  1.93000 32.44100 23.35200
H  -4.71400 30.07800 26.14800
H  -4.85100 30.96900 24.67700
H  -5.98200 31.43200 26.03100
H  -3.34300 32.30500 30.99500
H  -6.83700 32.76800 33.28000
H  -7.31600 33.87500 32.13300
H  -6.31900 34.33800 33.61800

