158

Mg 2.03600 -1.26600 44.64600
C  5.24000 0.48000 43.99300
C  0.73300 1.46600 42.57000
C  -0.73800 -2.75800 44.51000
C  3.85700 -3.87300 45.89300
N  2.91100 0.79000 43.52500
C  4.18600 1.25100 43.55600
C  4.39200 2.53600 42.70600
C  2.87400 2.93900 42.54200
C  2.09500 1.62200 42.85700
C  2.46700 4.16000 43.41400
C  5.22600 2.33500 41.31700
C  6.40100 3.31600 40.98600
H  6.10700 4.37400 39.91200
N  0.24800 -0.69800 43.83800
C  -0.06300 0.36000 42.97400
C  -1.47500 0.22300 42.62100
C  -1.98600 -0.95900 43.35200
C  -0.83200 -1.49600 43.98400
C  -2.25100 1.20600 41.69200
C  -3.48700 -1.39300 43.35700
O  -4.29100 -0.68900 42.78200
C  -3.98400 -2.54000 44.31700
N  1.61800 -3.12400 45.05400
C  0.36100 -3.55100 45.03700
C  0.23800 -4.91000 45.73000
C  1.68500 -5.29000 46.02600
C  2.44200 -4.00400 45.71500
C  -0.67800 -4.73900 46.98300
C  2.33500 -6.50300 45.30300
C  1.56500 -7.80000 45.68800
N  4.05500 -1.62400 45.03200
C  4.62700 -2.74400 45.62500
C  6.05800 -2.56300 45.66400
C  6.28600 -1.31100 45.04500
C  5.05500 -0.78200 44.66500
C  7.01600 -3.52800 46.23500
C  7.33600 -0.34200 44.71600
O  8.54800 -0.35300 44.99300
C  6.60900 0.87500 44.04800
C  6.86000 2.11600 44.79900
O  6.13900 2.43400 45.73500
O  7.83600 2.90700 44.23500
C  8.01300 4.21200 44.95500
H  0.30400 2.23100 41.92000
H  -1.56100 -3.47500 44.47800
H  4.38700 -4.74200 46.28800
H  5.04200 3.21600 43.25600
H  2.67800 3.29900 41.53200
H  2.37600 5.11800 42.90300
H  3.21400 4.16900 44.20800
H  1.47800 4.00100 43.84200
H  4.47000 2.34200 40.53200
H  5.73500 1.37100 41.29100
H  7.28100 2.81900 40.57900
H  6.77100 3.90500 41.82500
H  -2.94000 0.65500 41.05200
H  -1.51800 1.79200 41.13700
H  -2.76100 1.92900 42.32800
H  -5.06100 -2.45900 44.46700
H  -3.40300 -2.51800 45.23900
H  -3.71400 -3.46800 43.81300
H  -0.18700 -5.66900 45.07500
H  1.90100 -5.51800 47.07000
H  -1.32900 -5.61300 46.95200
H  -1.16300 -3.76400 47.00200
H  -0.27200 -4.72700 47.99500
H  3.38600 -6.68400 45.53000
H  2.23700 -6.28500 44.24000
H  2.25200 -8.62500 45.87800
H  0.95100 -8.14900 44.85900
H  0.83000 -7.63200 46.47500
H  7.54100 -4.06500 45.44500
H  6.46900 -4.33800 46.71800
H  7.62800 -3.18600 47.06900
H  6.93600 1.15700 43.04700
H  7.26000 4.90700 44.58200
H  8.94100 4.71400 44.68100
H  8.02400 3.98600 46.02100
Mg -10.96100 39.11200 40.18000
C  -10.17100 35.62200 39.98600
C  -7.78600 39.79600 39.17000
C  -12.03700 42.24700 39.87300
C  -14.32800 38.05900 41.02200
N  -9.21600 37.81700 39.51000
C  -9.09100 36.45200 39.55300
C  -7.68400 36.06600 39.05300
C  -6.85000 37.38700 39.23700
C  -8.02300 38.40800 39.32100
C  -5.85300 37.49800 40.41700
C  -7.59600 35.30500 37.69400
C  -7.00000 35.98500 36.51500
H  -7.79600 37.05500 35.72400
N  -10.01200 40.78900 39.54300
C  -8.69500 40.86700 39.32000
C  -8.41900 42.28700 39.20900
C  -9.56300 43.02500 39.36800
C  -10.60000 42.05000 39.60600
C  -6.98200 42.78200 38.98100
C  -9.70400 44.54100 39.44000
O  -8.69900 45.22500 39.29100
C  -10.90800 45.22300 39.73700
N  -12.98400 39.93600 40.22300
C  -13.06800 41.28900 40.09400
C  -14.50200 41.82300 40.29000
C  -15.20700 40.48800 40.94700
C  -14.17500 39.39500 40.57300
C  -14.63000 43.04300 41.18200
C  -16.66200 40.22800 40.48900
C  -17.73300 40.75000 41.37700
N  -12.03800 37.26200 40.59300
C  -13.35400 37.04100 41.02000
C  -13.50500 35.56700 41.31500
C  -12.26200 35.00100 40.86700
C  -11.42800 36.08800 40.45600
C  -14.67800 34.82500 41.90400
C  -11.55400 33.70600 40.69400
O  -11.83400 32.59100 41.02600
C  -10.26200 34.09700 39.90800
C  -9.07800 33.31100 40.47200
O  -8.66500 33.32000 41.57700
O  -8.40400 32.73800 39.41500
C  -7.34200 31.86900 39.76400
H  -6.74900 40.09400 39.00400
H  -12.39900 43.27500 39.80000
H  -15.35400 37.82900 41.31400
H  -7.26700 35.30000 39.70600
H  -6.30500 37.62400 38.32300
H  -6.04700 38.38000 41.02800
H  -4.92400 37.69300 39.88100
H  -5.74800 36.62700 41.06400
H  -8.59500 34.90500 37.51600
H  -6.99100 34.42300 37.90300
H  -6.86900 35.17200 35.80100
H  -5.98100 36.31500 36.71900
H  -7.21100 43.56700 38.26000
H  -6.40000 41.97400 38.53700
H  -6.50500 43.17000 39.88100
H  -11.29400 44.93100 40.71400
H  -11.51900 44.83100 38.92300
H  -10.84200 46.30700 39.64000
H  -15.00400 41.94300 39.33000
H  -15.31400 40.57100 42.02800
H  -15.14700 42.79500 42.10900
H  -15.21700 43.78300 40.63900
H  -13.69900 43.48200 41.54100
H  -16.76600 39.14400 40.44700
H  -16.85800 40.65800 39.50700
H  -17.32800 41.16900 42.29900
H  -18.41900 39.93100 41.58900
H  -18.28400 41.52700 40.84700
H  -14.72600 34.99100 42.98000
H  -14.49100 33.75400 41.82700
H  -15.54800 35.25100 41.40400
H  -10.51400 33.68200 38.93300
H  -6.64000 31.80100 38.93300
H  -7.84400 30.91000 39.89300
H  -6.82900 32.16000 40.68000

