158

Mg 47.74300 45.22700 43.17200
C  44.27500 44.93900 43.18400
C  47.90700 41.78200 43.02600
C  51.00400 45.49200 42.48000
C  47.33900 48.73100 42.73300
N  46.25100 43.58100 42.90800
C  44.86600 43.69700 43.10800
C  44.23200 42.26700 43.19000
C  45.45900 41.34400 43.47900
C  46.59600 42.28000 43.11800
C  45.57900 40.90000 44.94700
C  43.46500 41.85000 41.91500
C  43.47200 42.79500 40.71700
H  42.84800 42.36800 39.35800
N  49.20200 43.85900 42.70400
C  49.08800 42.51000 42.76800
C  50.40500 41.90500 42.47900
C  51.35000 42.92000 42.30100
C  50.53500 44.17600 42.48900
C  50.55000 40.41000 42.26500
C  52.87000 42.74800 41.90300
O  53.36500 41.64000 41.96300
C  53.70200 43.94200 41.58200
N  48.94300 46.84100 42.49800
C  50.26600 46.65000 42.47500
C  50.95200 47.98600 42.71000
C  49.83500 49.06900 42.55100
C  48.58700 48.18200 42.61400
C  51.70200 48.08100 44.10200
C  49.97400 49.80700 41.17300
C  49.74000 51.31000 41.29400
N  46.24600 46.60800 43.02100
C  46.20300 47.99600 42.92700
C  44.81000 48.44500 43.01900
C  44.05800 47.27000 43.05100
C  44.92200 46.20900 43.12600
C  44.41500 49.86400 43.05400
C  42.67900 46.79700 43.22400
O  41.63200 47.44000 43.20300
C  42.77900 45.28600 43.25200
C  42.21800 44.88400 44.53900
O  42.59100 45.26500 45.62100
O  41.20200 43.90500 44.37800
C  40.59600 43.47200 45.59800
H  48.02700 40.73100 43.29700
H  52.07700 45.69000 42.43900
H  47.21900 49.79600 42.52600
H  43.63900 42.22400 44.10400
H  45.45500 40.53400 42.75000
H  44.69900 40.29100 45.15700
H  45.54000 41.74900 45.62900
H  46.59000 40.49600 45.00300
H  42.42800 41.73600 42.22900
H  43.90300 40.90900 41.58100
H  44.47100 43.10700 40.41100
H  42.90200 43.67500 41.01300
H  50.65200 40.34200 41.18200
H  49.77400 39.73300 42.62300
H  51.53200 40.04900 42.57000
H  53.23900 44.43100 40.72500
H  54.73200 43.61200 41.44400
H  53.66100 44.56100 42.47900
H  51.69600 48.05500 41.91600
H  49.83000 49.77200 43.38400
H  51.51300 48.90300 44.79300
H  52.72100 48.09800 43.71700
H  51.59700 47.12500 44.61500
H  49.22300 49.36900 40.51500
H  50.96200 49.72200 40.71900
H  48.79000 51.48100 40.78700
H  50.51700 51.77000 40.68400
H  49.68600 51.53700 42.35900
H  45.06700 50.41800 43.72900
H  43.40100 50.03300 43.41600
H  44.54200 50.23900 42.03800
H  42.19700 44.96500 42.38900
H  40.04200 44.32500 45.98900
H  41.26100 43.13500 46.39400
H  40.01600 42.60800 45.27200
Mg -1.70500 34.44800 26.73200
C  -3.19200 32.58700 29.10400
C  -0.33900 36.44800 29.16600
C  -0.60600 36.61300 24.26000
C  -3.67700 32.89900 24.34700
N  -1.61600 34.38300 28.82400
C  -2.24800 33.45400 29.63400
C  -1.95300 33.65200 31.17000
C  -1.00600 34.91700 31.17600
C  -0.92300 35.28800 29.64200
C  -1.49100 36.13700 32.02100
C  -1.23600 32.36200 31.74800
C  -1.85700 31.73700 32.96600
H  -1.06900 31.88400 34.27600
N  -0.49100 36.23000 26.69700
C  -0.09000 36.87700 27.83700
C  0.67400 38.00600 27.43300
C  0.78900 37.96500 25.96300
C  -0.11500 36.90700 25.54900
C  1.16200 39.05800 28.40800
C  1.58400 38.82100 25.05300
O  1.51700 38.71700 23.81400
C  2.46300 39.86300 25.60200
N  -2.12600 34.76600 24.63700
C  -1.56700 35.70500 23.87400
C  -2.10200 35.56400 22.39200
C  -2.88100 34.25500 22.45300
C  -2.97200 34.01900 23.91500
C  -2.95300 36.81600 21.97300
C  -2.36100 33.05900 21.66200
C  -1.27600 32.09500 22.28600
N  -3.11800 32.94900 26.56900
C  -3.85500 32.41700 25.64900
C  -4.62600 31.30800 26.08500
C  -4.44300 31.36800 27.46600
C  -3.51400 32.37000 27.74200
C  -5.52300 30.45700 25.36300
C  -4.76100 30.80900 28.73200
O  -5.46900 29.81700 28.97100
C  -4.04500 31.68700 29.86300
C  -5.07400 32.29000 30.73100
O  -5.97800 33.08500 30.37100
O  -5.02800 31.73300 32.01600
C  -6.13300 32.13100 32.81000
H  0.25100 36.95800 29.93000
H  -0.34600 37.29000 23.44400
H  -4.23200 32.36800 23.57100
H  -2.90800 33.91400 31.62600
H  -0.01500 34.57900 31.47900
H  -1.74000 36.99700 31.40100
H  -0.60000 36.43800 32.57300
H  -2.23700 35.78900 32.73600
H  -0.20700 32.61100 32.00800
H  -1.24700 31.72100 30.86600
H  -1.91200 30.66100 32.80000
H  -2.79900 32.27200 33.08400
H  0.86400 40.07100 28.13800
H  2.24000 39.21000 28.46200
H  0.84800 38.94100 29.44600
H  3.17900 40.13700 24.82700
H  2.99100 39.51500 26.49000
H  1.69700 40.61200 25.80500
H  -1.18700 35.41800 21.81900
H  -3.91900 34.36800 22.13800
H  -2.34800 37.49900 21.37600
H  -3.21300 37.43100 22.83400
H  -3.81000 36.48000 21.38900
H  -1.90200 33.28800 20.70000
H  -3.20900 32.38700 21.53000
H  -1.58800 31.13700 22.70200
H  -0.66200 32.67300 22.97600
H  -0.52600 31.96300 21.50700
H  -5.79200 29.49200 25.79400
H  -5.20400 30.14100 24.37000
H  -6.46300 30.99000 25.21600
H  -3.40300 30.98700 30.39700
H  -5.94000 32.74800 33.68800
H  -6.37400 31.14600 33.20900
H  -7.06300 32.41400 32.31600

