158

Mg 9.04700 4.17200 27.32500
C  10.27000 2.61600 30.15700
C  7.16400 6.20800 29.20300
C  8.10900 5.62500 24.49900
C  10.79900 1.67600 25.33700
N  8.73200 4.42500 29.49800
C  9.39500 3.68000 30.45600
C  9.15000 4.21400 31.81600
C  7.92500 5.22600 31.56300
C  7.96600 5.33100 29.99000
C  6.58500 4.82600 32.21600
C  10.39900 4.79100 32.61900
C  10.10900 5.88100 33.72000
H  10.86400 5.64000 35.06000
N  7.82700 5.72700 26.94600
C  7.01300 6.31400 27.83300
C  6.06000 7.17000 27.06900
C  6.47300 7.09300 25.66100
C  7.58900 6.13800 25.67800
C  4.99200 7.92000 27.77500
C  5.87600 7.82700 24.44800
O  6.21600 7.64400 23.33200
C  4.96700 8.92800 24.60100
N  9.34500 3.62700 25.16300
C  8.88300 4.45300 24.23900
C  9.09100 3.90000 22.79400
C  9.95100 2.59200 23.08200
C  10.11300 2.64000 24.60700
C  7.73200 3.65500 22.05300
C  11.34100 2.39100 22.38500
C  11.56500 1.05800 21.55200
N  10.19600 2.43800 27.61500
C  10.90300 1.62100 26.74500
C  11.64800 0.71300 27.53300
C  11.46800 1.08700 28.87700
C  10.53500 2.09600 28.89100
C  12.47000 -0.37500 27.06700
C  11.91900 0.77500 30.26300
O  12.62000 -0.09200 30.77300
C  11.05500 1.76400 31.12600
C  10.15800 0.93200 32.00100
O  9.35600 0.05200 31.66900
O  10.38400 1.38400 33.29600
C  9.42300 0.84000 34.28600
H  6.47800 6.84300 29.76700
H  7.76300 5.99700 23.53300
H  11.39200 0.94000 24.79000
H  8.77900 3.37600 32.40700
H  8.18500 6.23700 31.88000
H  5.88700 4.81600 31.38000
H  6.27100 5.63200 32.88000
H  6.69000 3.93700 32.83900
H  10.98900 5.16000 31.78000
H  10.94500 4.00600 33.14100
H  9.03400 5.81700 33.88700
H  10.30200 6.89500 33.36800
H  4.69400 7.46400 28.71900
H  4.11900 7.81100 27.13100
H  5.10500 9.00400 27.80400
H  5.44200 9.70800 25.19500
H  4.01500 8.61700 25.03100
H  4.84300 9.39600 23.62400
H  9.60200 4.72000 22.29000
H  9.43500 1.66700 22.82300
H  6.89100 4.12700 22.56100
H  7.51300 2.60200 21.87600
H  7.79700 4.14600 21.08200
H  12.17900 2.31600 23.07800
H  11.46400 3.15000 21.61300
H  12.10400 1.39300 20.66500
H  10.63700 0.59100 21.22300
H  12.12200 0.34000 22.15300
H  13.14000 -0.17000 26.23100
H  11.84900 -1.23500 26.81400
H  13.09600 -0.53300 27.94600
H  11.78400 2.34500 31.69000
H  9.43300 -0.24900 34.24600
H  8.49400 1.37800 34.09500
H  9.71900 1.10400 35.30100
Mg 9.21200 48.49500 25.46000
C  6.91800 48.91200 28.08500
C  11.83100 49.22400 27.49500
C  11.22400 48.16100 22.69300
C  6.39800 47.88300 23.23500
N  9.32300 49.14800 27.49000
C  8.36000 49.03900 28.46500
C  8.93000 49.14400 29.90600
C  10.36700 49.63600 29.60500
C  10.56900 49.33800 28.09900
C  10.63100 51.17500 29.88700
C  8.70000 47.91600 30.77200
C  9.51300 47.76500 32.03600
H  8.75800 47.05900 33.19600
N  11.20000 48.67800 25.15900
C  12.15000 48.93100 26.14300
C  13.46000 48.71200 25.66800
C  13.34100 48.29300 24.26600
C  11.84900 48.39400 23.95800
C  14.65100 48.86100 26.56400
C  14.48700 47.86500 23.35600
O  14.28900 47.56500 22.20400
C  15.88700 47.89600 23.81100
N  8.81200 48.15800 23.17400
C  9.85100 47.99800 22.33400
C  9.33300 47.53900 20.94800
C  7.76100 47.47600 21.05300
C  7.60900 47.73600 22.58100
C  9.81300 48.37800 19.77500
C  7.04200 46.11800 20.55200
C  5.82900 46.31500 19.68000
N  7.15800 48.50700 25.58700
C  6.15900 48.27300 24.56600
C  4.90000 48.35200 25.20100
C  5.11800 48.65500 26.54300
C  6.49600 48.75200 26.71800
C  3.59900 48.20100 24.49800
C  4.50500 48.97600 27.81700
O  3.35300 49.22900 28.08100
C  5.70200 49.03000 28.90800
C  5.45800 47.86200 29.73200
O  5.67100 46.65700 29.46500
O  5.04200 48.30000 30.99200
C  4.81700 47.40600 32.17200
H  12.58900 49.46200 28.24500
H  11.93800 47.88100 21.91600
H  5.55300 47.56000 22.62400
H  8.31500 49.95000 30.30700
H  11.06800 49.03900 30.18900
H  9.78500 51.61300 30.41500
H  10.69900 51.65100 28.90900
H  11.48000 51.26200 30.56500
H  8.87100 47.04800 30.13500
H  7.64100 47.82900 31.01500
H  9.85700 48.72800 32.41500
H  10.39000 47.18400 31.75400
H  14.33400 48.97900 27.60000
H  15.21100 49.72400 26.20200
H  15.29400 47.98300 26.49500
H  16.06100 47.26400 24.68100
H  16.24700 48.90200 24.02300
H  16.55200 47.41400 23.09400
H  9.50900 46.46500 20.89300
H  7.33400 48.36800 20.59300
H  10.47700 49.13500 20.19100
H  9.00200 48.93900 19.31000
H  10.18200 47.83800 18.90300
H  6.72600 45.58500 21.44800
H  7.73000 45.44400 20.04100
H  5.82800 45.80700 18.71600
H  5.68200 47.34200 19.34500
H  4.93200 45.99600 20.21100
H  3.11600 47.30600 24.89100
H  3.60100 48.30400 23.41300
H  3.05000 49.06400 24.87500
H  5.81300 49.98300 29.42300
H  5.07600 46.36700 31.97200
H  3.78100 47.37400 32.51100
H  5.53800 47.64300 32.95400

