158

Mg 47.04900 15.79500 28.22300
C  44.92400 15.60100 31.03200
C  49.27000 17.37300 30.43400
C  49.16300 16.26300 25.63900
C  44.64900 14.48700 26.27900
N  47.05900 16.45400 30.50500
C  46.12800 16.15300 31.43000
C  46.59600 16.41500 32.87800
C  47.91100 17.19900 32.57600
C  48.12600 16.99600 31.09000
C  47.96200 18.72200 32.99100
C  46.66800 15.12100 33.77700
C  46.25700 15.39000 35.25900
H  46.10800 16.82000 35.78500
N  48.98000 16.58600 28.04800
C  49.75800 17.10900 29.07600
C  51.04400 17.29400 28.54100
C  51.03600 17.06300 27.09400
C  49.67400 16.58300 26.86500
C  52.18300 17.75000 29.33800
C  52.17500 17.18800 26.05100
O  52.19600 16.75900 24.89500
C  53.51600 17.80800 26.48800
N  46.97600 15.36300 26.27800
C  47.88600 15.74300 25.36100
C  47.51900 15.39400 23.92300
C  46.11900 14.76400 24.16200
C  45.88400 14.79500 25.68800
C  47.64100 16.52400 22.86000
C  46.01300 13.29200 23.72000
C  45.08400 13.15200 22.59000
N  45.12700 15.17000 28.53900
C  44.28200 14.58100 27.62300
C  43.10100 14.18600 28.31900
C  43.30400 14.54700 29.64900
C  44.55300 15.13700 29.73600
C  41.95500 13.51400 27.63300
C  42.69500 14.54800 31.03400
O  41.66000 14.08400 31.40000
C  43.82800 15.12000 31.99200
C  43.19400 16.26500 32.79800
O  43.21800 17.47600 32.52100
O  42.55800 15.66900 33.90200
C  41.90100 16.65500 34.77000
H  49.98500 17.96900 31.00600
H  49.73900 16.61400 24.77900
H  43.86200 14.08600 25.63700
H  45.84000 17.08000 33.29400
H  48.66900 16.67400 33.15700
H  46.95500 18.99700 33.30300
H  48.27700 19.35000 32.15800
H  48.73000 18.73900 33.76500
H  47.70300 14.80400 33.90800
H  46.21500 14.30200 33.21900
H  46.92600 14.84100 35.92100
H  45.29400 14.88300 35.32800
H  53.13400 17.36800 28.96700
H  52.02900 17.33800 30.33600
H  52.17600 18.84000 29.34000
H  53.50900 18.70300 27.11000
H  54.10000 18.02700 25.59500
H  54.09200 17.02500 26.98100
H  48.19400 14.59500 23.61600
H  45.40000 15.42300 23.67400
H  47.35200 17.50100 23.24700
H  47.07400 16.16200 22.00200
H  48.66300 16.61800 22.49500
H  45.74400 12.59700 24.51600
H  47.02500 13.02400 23.41500
H  45.47700 12.39700 21.90900
H  45.01200 14.11100 22.07700
H  44.10900 12.89800 23.00500
H  41.74200 14.08000 26.72700
H  41.02800 13.48600 28.20500
H  42.22700 12.50000 27.34000
H  44.08800 14.26700 32.61800
H  40.95300 17.03500 34.39100
H  42.48000 17.57400 34.86700
H  41.71700 16.25000 35.76500
Mg 9.20600 48.76800 26.27200
C  7.10300 48.92600 28.99500
C  11.73800 49.99300 28.14300
C  11.15900 48.76300 23.51500
C  6.39400 48.12900 24.18800
N  9.30500 49.54600 28.30300
C  8.36300 49.40600 29.25800
C  8.82100 49.88400 30.66500
C  10.30000 50.44300 30.29700
C  10.45800 50.00400 28.80800
C  10.43200 51.96700 30.48700
C  8.78900 48.80900 31.81700
C  9.80400 48.66400 32.91300
H  9.54300 47.62200 34.04700
N  11.24300 49.21100 25.89400
C  12.09800 49.74100 26.82000
C  13.40300 49.84000 26.13800
C  13.27500 49.40400 24.81300
C  11.82200 49.08800 24.68500
C  14.67000 50.09600 26.90300
C  14.29500 49.15200 23.66600
O  14.01900 48.64600 22.52700
C  15.78400 49.41600 23.93500
N  8.79700 48.67200 24.11300
C  9.82600 48.51800 23.24800
C  9.26600 47.99200 21.85800
C  7.79400 47.71400 22.19800
C  7.60100 48.28400 23.53800
C  9.44400 49.05100 20.64700
C  7.43400 46.18000 22.02100
C  6.13300 45.97900 21.35000
N  7.17100 48.37800 26.46300
C  6.15800 48.17600 25.56100
C  4.87700 48.02500 26.29500
C  5.23300 48.26800 27.67000
C  6.61300 48.48100 27.70200
C  3.59200 47.94400 25.68100
C  4.64600 48.27800 29.04100
O  3.55000 48.00200 29.41900
C  5.84200 48.67100 29.93400
C  5.92500 47.60200 30.84000
O  6.59200 46.61000 30.67500
O  5.10300 47.77300 31.92000
C  4.96500 46.64700 32.90100
H  12.51400 50.33100 28.83300
H  11.78600 48.50400 22.65900
H  5.49100 47.83400 23.65000
H  8.28800 50.70200 31.14900
H  11.02600 49.87900 30.88300
H  9.41800 52.36600 30.51700
H  11.09500 52.56400 29.86100
H  10.85200 52.03500 31.49000
H  8.75100 47.76600 31.50100
H  7.88400 48.84500 32.42300
H  9.91500 49.62000 33.42500
H  10.71400 48.31800 32.42300
H  14.46300 49.90500 27.95600
H  15.10700 51.06900 26.67600
H  15.44700 49.37300 26.65600
H  16.41300 49.23700 23.06300
H  16.18700 48.73800 24.68700
H  15.82500 50.41100 24.37800
H  9.77100 47.09400 21.50300
H  7.09400 48.22800 21.53900
H  10.03500 49.91600 20.94600
H  8.60300 49.69500 20.39000
H  9.97200 48.66300 19.77500
H  7.30700 45.80300 23.03600
H  8.33100 45.72200 21.60200
H  5.61400 45.06600 21.64200
H  6.23600 45.91800 20.26700
H  5.44400 46.78900 21.58500
H  3.27400 46.91900 25.87500
H  3.81100 48.12400 24.62900
H  3.00000 48.75600 26.10300
H  5.53300 49.61300 30.38700
H  4.00600 46.27400 32.54000
H  4.83000 47.03400 33.91100
H  5.71300 45.85900 32.98200

