158

Mg 41.49900 7.35300 29.59100
C  43.38100 8.99000 31.96900
C  39.45600 6.22300 32.04500
C  39.71700 5.72100 27.28400
C  44.17800 7.66700 27.36100
N  41.55600 7.52500 31.78300
C  42.25700 8.39700 32.53600
C  41.80300 8.39800 33.97700
C  40.71300 7.29500 34.00000
C  40.56200 6.95200 32.56500
C  41.15200 6.04700 34.83400
C  41.41400 9.78200 34.52700
C  40.68800 9.81600 35.91300
H  41.25900 10.75600 36.92900
N  39.79400 6.20000 29.62000
C  39.03100 5.84500 30.72800
C  37.91700 5.14600 30.31900
C  37.86000 5.27500 28.93100
C  39.13000 5.75000 28.59000
C  37.03700 4.33000 31.26500
C  36.82100 4.84500 27.96800
O  36.96300 4.80200 26.75300
C  35.48500 4.31700 28.49300
N  41.95400 6.67600 27.61300
C  41.02500 6.11900 26.84700
C  41.53900 5.93900 25.39200
C  42.97700 6.62100 25.38700
C  43.06700 6.98100 26.89400
C  41.54900 4.52600 24.79000
C  43.17200 7.83200 24.42600
C  42.61500 9.16300 24.77900
N  43.39000 8.21700 29.60400
C  44.36500 8.28700 28.65100
C  45.45800 9.11200 29.09500
C  45.11300 9.44800 30.42500
C  43.88700 8.80700 30.71000
C  46.63200 9.45200 28.26200
C  45.60800 10.10200 31.58100
O  46.67900 10.72400 31.76800
C  44.47100 9.82500 32.66000
C  45.06600 9.11400 33.76200
O  45.03000 7.92200 33.96700
O  45.76800 10.00200 34.57100
C  46.25900 9.39100 35.79500
H  38.72300 5.92000 32.79600
H  39.20400 5.26900 26.43300
H  44.72100 7.99200 26.47100
H  42.73700 8.19600 34.50100
H  39.72000 7.64000 34.28600
H  41.28200 5.24600 34.10600
H  40.33500 5.75000 35.49100
H  42.09300 6.20200 35.36300
H  40.79800 10.30900 33.79900
H  42.32300 10.38200 34.57100
H  40.55700 8.83700 36.37300
H  39.64300 10.11200 35.82900
H  37.51700 4.38100 32.24200
H  37.00200 3.27200 31.00600
H  36.02100 4.71000 31.37300
H  35.59400 3.34600 28.97700
H  34.87700 4.09100 27.61700
H  34.86200 4.88700 29.18200
H  40.84400 6.48200 24.75100
H  43.74900 5.86200 25.25400
H  41.99100 4.54800 23.79400
H  40.63700 3.92800 24.80100
H  42.20400 3.94000 25.43600
H  42.92500 7.50900 23.41500
H  44.24700 8.00900 24.38900
H  41.83800 8.95000 25.51400
H  42.07700 9.61100 23.94400
H  43.35100 9.85700 25.18600
H  47.20200 8.52500 28.20200
H  47.28200 10.14800 28.79300
H  46.33000 9.89300 27.31200
H  44.05100 10.76400 33.01900
H  47.01700 8.66100 35.51200
H  45.53500 9.08700 36.55100
H  46.87400 10.13800 36.29600
Mg 48.42900 14.23300 27.17400
C  46.59100 14.70500 30.09100
C  50.76200 16.30700 28.19000
C  49.85800 13.73700 24.18100
C  45.43900 12.51400 25.77000
N  48.55600 15.42200 28.93500
C  47.75600 15.44600 30.10200
C  48.41300 16.23100 31.25300
C  49.47800 17.02500 30.38200
C  49.68200 16.22100 29.07200
C  49.14400 18.50300 30.25400
C  49.09900 15.25500 32.20500
C  48.74900 15.36300 33.66000
H  49.82600 15.09100 34.73300
N  50.10900 14.80600 26.42500
C  51.01700 15.63100 27.01900
C  52.20900 15.57600 26.23400
C  51.98200 14.87600 25.04300
C  50.56200 14.37700 25.17100
C  53.44800 16.31000 26.78900
C  52.80300 14.64800 23.85200
O  52.53100 14.04500 22.81400
C  54.19600 15.26800 23.91800
N  47.75100 13.34000 25.19500
C  48.60800 13.19900 24.22600
C  47.98200 12.48600 22.99400
C  46.56600 12.05500 23.49900
C  46.57400 12.66100 24.90500
C  47.91200 13.46400 21.72900
C  46.20400 10.54000 23.40400
C  46.88700 9.51600 24.31800
N  46.46200 13.74400 27.75200
C  45.40900 12.95100 27.10400
C  44.41400 12.69700 28.09800
C  44.80700 13.40800 29.28000
C  46.04400 14.05100 29.02600
C  43.19900 11.81600 27.96300
C  44.41600 13.68500 30.67400
O  43.37700 13.38800 31.28800
C  45.58800 14.52500 31.14600
C  45.00500 15.84500 31.70400
O  44.03400 16.41400 31.25000
O  45.66400 16.17900 32.90400
C  44.93800 17.14200 33.76900
H  51.58700 16.98000 28.43100
H  50.24600 13.63200 23.16500
H  44.59600 11.90700 25.43400
H  47.71700 16.85500 31.81300
H  50.51200 16.95800 30.72300
H  48.68900 18.69700 29.28300
H  50.06500 19.08600 30.28400
H  48.45500 18.96000 30.96400
H  50.17500 15.38000 32.08400
H  48.92200 14.23700 31.85800
H  47.89000 14.77600 33.98600
H  48.39400 16.38200 33.81000
H  53.43800 16.33000 27.87900
H  53.43600 17.31400 26.36600
H  54.35900 15.81700 26.44900
H  54.92400 14.82900 24.60200
H  54.14100 16.34500 24.07800
H  54.62900 15.08500 22.93500
H  48.59300 11.60900 22.78200
H  45.82600 12.60500 22.91700
H  47.99800 14.52200 21.97500
H  46.97500 13.38900 21.17800
H  48.70800 13.24600 21.01700
H  46.40000 10.24500 22.37300
H  45.16800 10.29300 23.63300
H  47.52900 8.84700 23.74500
H  46.18800 9.03100 24.99900
H  47.54300 10.15800 24.90500
H  43.41700 10.76400 27.77600
H  42.69900 12.06900 27.02800
H  42.67700 11.91100 28.91500
H  45.95400 13.89900 31.95900
H  43.87600 17.30900 33.59100
H  45.43100 18.11400 33.76500
H  45.10800 16.76900 34.78000

