158

Mg 9.07500 3.06100 27.69700
C  10.42800 1.77100 30.67300
C  7.09200 5.14000 29.67400
C  7.52300 4.02000 25.06300
C  10.56800 0.29000 26.10700
N  8.60000 3.16400 29.93300
C  9.49300 2.75500 30.90400
C  9.20800 3.40300 32.27800
C  7.91400 4.21700 31.95300
C  7.88000 4.20900 30.38900
C  6.63100 3.58400 32.52400
C  10.43200 4.27600 32.75500
C  10.88900 4.12800 34.21200
H  9.90400 3.65100 35.20800
N  7.60500 4.54600 27.37400
C  7.01100 5.32200 28.29000
C  6.25200 6.26600 27.57000
C  6.24300 5.96000 26.19900
C  7.13000 4.80300 26.10800
C  5.58600 7.50700 28.27100
C  5.50500 6.62200 25.06000
O  5.63100 6.16100 23.91600
C  4.49800 7.86300 25.31700
N  9.23900 2.41700 25.81300
C  8.38800 2.90100 24.89500
C  8.61700 2.29700 23.48200
C  9.44500 1.10800 23.92100
C  9.77700 1.21900 25.38800
C  7.32300 1.87600 22.71800
C  10.68500 0.87400 23.06900
C  10.65600 -0.40400 22.23700
N  10.45000 1.52800 28.22100
C  10.94000 0.52600 27.44000
C  11.81400 -0.31700 28.25500
C  11.69500 0.12900 29.52000
C  10.73000 1.16100 29.45800
C  12.70600 -1.37600 27.70300
C  12.14300 -0.00500 30.86700
O  13.06300 -0.68900 31.29800
C  11.27000 1.03800 31.65800
C  10.46400 0.30000 32.75100
O  9.30300 -0.12500 32.65300
O  11.27200 0.04800 33.85400
C  10.59700 -0.65600 34.86700
H  6.46600 5.88000 30.17700
H  7.16100 4.35000 24.08700
H  10.76500 -0.64900 25.58600
H  8.93900 2.62100 32.98900
H  7.95100 5.22700 32.36100
H  6.37500 4.15900 33.41400
H  6.98200 2.58400 32.78000
H  5.89300 3.39600 31.74500
H  10.12100 5.31200 32.61700
H  11.18700 4.17700 31.97600
H  11.24700 5.12700 34.45600
H  11.79900 3.52900 34.24400
H  6.01600 7.78300 29.23400
H  4.51100 7.34300 28.33700
H  5.68400 8.38300 27.62900
H  3.89900 8.11500 24.44200
H  5.12700 8.72400 25.54400
H  3.84400 7.59600 26.14700
H  9.25500 3.00800 22.95700
H  8.81400 0.22000 23.90800
H  6.49100 2.02500 23.40600
H  7.23800 0.88200 22.27900
H  7.26500 2.47100 21.80700
H  11.58700 0.96200 23.67500
H  10.72400 1.58300 22.24200
H  11.32600 -0.30800 21.38300
H  9.69700 -0.68600 21.80300
H  11.09400 -1.27000 22.73400
H  13.55500 -1.58400 28.35400
H  13.01700 -1.20900 26.67100
H  11.98100 -2.18900 27.65900
H  12.02500 1.71600 32.05600
H  11.14700 -0.52100 35.79800
H  10.56300 -1.72500 34.65600
H  9.58000 -0.31800 35.06400
Mg 47.23300 44.85300 44.06800
C  43.92400 44.72600 43.26200
C  47.65100 41.55200 43.00000
C  50.60000 45.37500 44.20600
C  46.77000 48.21800 45.02300
N  45.97700 43.39300 43.20500
C  44.64100 43.49100 42.98900
C  44.01100 42.19300 42.36200
C  45.18700 41.13100 42.65200
C  46.36200 42.06900 42.94500
C  44.87500 40.18100 43.81500
C  43.71600 42.37400 40.82500
C  42.32400 42.01500 40.29900
H  42.40200 41.12000 39.12700
N  48.87100 43.68000 43.74600
C  48.82400 42.30000 43.29000
C  50.18200 41.86500 43.06600
C  51.08500 42.90500 43.57200
C  50.20100 44.04500 43.84000
C  50.54200 40.58100 42.46900
C  52.60800 42.81300 43.73200
O  53.25500 41.70500 43.55000
C  53.35400 43.81300 44.51500
N  48.53900 46.58800 44.42800
C  49.89600 46.47000 44.49500
C  50.49100 47.76800 44.95900
C  49.27100 48.60600 45.37800
C  48.10100 47.76400 44.98800
C  51.59200 47.56700 46.08600
C  49.17600 50.08700 44.93400
C  48.53100 51.06600 45.91400
N  45.67400 46.21700 44.12200
C  45.62500 47.48900 44.60300
C  44.32000 48.03900 44.65700
C  43.57900 46.96300 44.03300
C  44.48500 45.86600 43.77600
C  43.84000 49.34300 45.01400
C  42.31000 46.57400 43.49600
O  41.25400 47.21600 43.32800
C  42.45200 45.12500 42.89600
C  41.40100 44.17900 43.50200
O  40.57500 43.57300 42.85100
O  41.54400 44.06600 44.84800
C  40.97200 42.85600 45.47300
H  47.72400 40.49600 42.72900
H  51.67000 45.57200 44.30600
H  46.60100 49.18800 45.49600
H  43.17600 41.83200 42.96100
H  45.37000 40.46400 41.81000
H  43.81800 40.20400 44.08100
H  45.29700 40.48900 44.77200
H  45.13800 39.14700 43.59400
H  44.57700 41.98900 40.27800
H  43.83000 43.44000 40.63200
H  41.84200 42.94800 40.00500
H  41.84300 41.54400 41.15600
H  49.73300 39.85600 42.37700
H  51.25800 40.23800 43.21600
H  51.00400 40.61900 41.48300
H  54.26600 43.37500 44.92000
H  52.75600 43.94600 45.41700
H  53.51000 44.75900 43.99800
H  50.92900 48.21900 44.06900
H  49.29500 48.59000 46.46800
H  52.62600 47.72700 45.77700
H  51.46800 46.57000 46.50900
H  51.36300 48.03200 47.04400
H  48.70300 50.08600 43.95200
H  50.18400 50.38100 44.64400
H  49.20300 51.88700 46.16400
H  48.15400 50.52800 46.78400
H  47.69300 51.50500 45.37100
H  43.80900 49.50200 46.09200
H  42.83800 49.50700 44.61900
H  44.46600 50.07300 44.50000
H  42.28700 45.06000 41.82100
H  41.13700 41.94600 44.89600
H  39.91700 43.02300 45.69300
H  41.45900 42.67000 46.43000

