158

Mg 35.66200 2.86900 29.30800
C  33.50900 3.81600 31.94000
C  38.37100 3.06400 31.47400
C  37.72300 2.22100 26.64500
C  32.96500 3.42600 26.98900
N  35.91400 3.50000 31.34200
C  34.90100 3.65800 32.29000
C  35.46800 3.71000 33.71000
C  36.98500 3.83600 33.50900
C  37.10300 3.37800 32.06200
C  37.50700 5.30400 33.70100
C  34.90800 2.57100 34.64900
C  34.90200 2.80200 36.20300
H  35.76200 3.96200 36.77400
N  37.70900 2.51700 29.12800
C  38.62700 2.58500 30.15100
C  39.93800 2.16700 29.64100
C  39.80700 1.96200 28.28400
C  38.35700 2.28100 27.92800
C  41.09700 2.02400 30.64000
C  40.95800 1.67300 27.28400
O  40.68900 1.57300 26.06100
C  42.40400 1.42600 27.72700
N  35.38900 2.79500 27.10900
C  36.41600 2.58300 26.24300
C  35.96400 2.71900 24.76500
C  34.44800 3.09300 24.93000
C  34.23900 3.12000 26.41600
C  36.72500 3.71600 23.97500
C  33.44700 2.12300 24.18000
C  32.93600 0.84100 24.85100
N  33.70600 3.50300 29.38000
C  32.70700 3.59400 28.40600
C  31.42500 4.03300 29.04200
C  31.68300 4.03100 30.39100
C  33.07200 3.70900 30.57500
C  30.15100 4.39000 28.27300
C  31.11700 4.27100 31.75200
O  30.01500 4.55700 32.16600
C  32.25200 4.05900 32.71400
C  32.30500 5.26700 33.49000
O  32.54400 6.34600 33.01700
O  32.07200 4.98300 34.82100
C  32.09700 6.21300 35.62600
H  39.12000 3.01300 32.26700
H  38.37200 2.07600 25.77900
H  32.04600 3.60400 26.42700
H  35.05600 4.56500 34.24500
H  37.47800 3.13400 34.18200
H  36.67800 5.96500 33.44700
H  38.39900 5.43600 33.09000
H  37.83100 5.43900 34.73300
H  35.58800 1.72100 34.59900
H  33.89000 2.31100 34.35700
H  35.10000 1.85300 36.70200
H  33.87700 3.08800 36.43800
H  41.77400 1.23000 30.32400
H  40.69400 1.73500 31.61000
H  41.66900 2.93500 30.81500
H  42.66000 2.18900 28.46300
H  43.18200 1.38100 26.96500
H  42.46800 0.45700 28.22200
H  35.97200 1.75900 24.24800
H  34.19000 4.11700 24.66300
H  36.71300 3.31400 22.96200
H  37.74600 3.79800 24.34900
H  36.24700 4.69500 24.00600
H  34.00800 1.73000 23.33200
H  32.57100 2.63100 23.77700
H  33.57400 0.03600 24.48600
H  31.92500 0.53600 24.57700
H  33.13800 0.73800 25.91700
H  29.70700 3.51800 27.79200
H  30.36500 5.09100 27.46600
H  29.46300 4.81800 29.00200
H  32.07600 3.25900 33.43200
H  33.10100 6.62500 35.51800
H  32.00300 6.04000 36.69800
H  31.24600 6.78600 35.25800
Mg 39.90400 10.09100 29.57500
C  42.15500 11.21300 32.30600
C  37.81700 8.92000 31.97100
C  38.27600 8.66800 27.10900
C  42.50700 10.92700 27.52100
N  39.98600 10.18200 31.88400
C  40.90700 10.74100 32.75400
C  40.43300 10.71600 34.15400
C  39.05500 9.79800 33.98900
C  38.89900 9.60600 32.51800
C  38.95700 8.46800 34.79400
C  40.13400 12.17800 34.69100
C  40.84100 12.48700 36.02000
H  40.02800 13.10100 37.24500
N  38.22800 8.98200 29.53500
C  37.48900 8.61700 30.63900
C  36.34300 7.85800 30.15200
C  36.46300 7.72100 28.72900
C  37.72600 8.42400 28.39700
C  35.30300 7.17800 31.08500
C  35.51700 7.12500 27.74900
O  35.72000 7.19900 26.52400
C  34.26400 6.54000 28.16400
N  40.41900 9.66300 27.60800
C  39.48900 9.22600 26.73800
C  39.90800 9.52200 25.25800
C  41.35300 10.18100 25.37700
C  41.41600 10.32900 26.89300
C  39.90800 8.22900 24.37200
C  41.54600 11.54500 24.53700
C  41.00800 12.82000 25.13400
N  41.81700 10.93800 29.76900
C  42.79600 11.15000 28.85100
C  44.00700 11.76000 29.29100
C  43.76500 11.85000 30.70400
C  42.50200 11.24200 30.95300
C  45.13500 12.29300 28.54000
C  44.30600 12.24400 31.93300
O  45.34000 12.77400 32.24000
C  43.32000 11.76400 33.05200
C  43.92200 10.78500 34.01800
O  44.30500 9.62800 33.75900
O  44.15200 11.44600 35.17000
C  44.81500 10.55700 36.14600
H  37.13300 8.57200 32.74700
H  37.63200 8.44400 26.25600
H  43.30400 11.10900 26.79700
H  41.26500 10.27400 34.70200
H  38.20400 10.45700 34.16400
H  39.18900 7.59100 34.19000
H  37.95400 8.37600 35.21000
H  39.70700 8.50900 35.58300
H  39.06300 12.35000 34.79400
H  40.49700 12.85600 33.91800
H  41.56800 13.28600 35.87200
H  41.49500 11.67000 36.32400
H  35.13500 6.10500 30.98700
H  34.35200 7.66600 30.87200
H  35.57600 7.38200 32.12100
H  34.26400 5.80300 28.96700
H  33.82800 6.08000 27.27700
H  33.72100 7.45300 28.40600
H  39.12700 10.21100 24.93800
H  42.14800 9.49300 25.09000
H  39.69400 7.43900 25.09200
H  40.91300 8.11000 23.96900
H  39.24900 8.41700 23.52400
H  40.89500 11.49100 23.66500
H  42.58400 11.59200 24.20700
H  40.59700 13.52600 24.41300
H  41.89500 13.28900 25.56000
H  40.22900 12.64500 25.87600
H  44.67100 12.85700 27.73200
H  45.65300 11.42700 28.12900
H  45.79600 12.82400 29.22600
H  42.98100 12.66100 33.57000
H  45.69700 10.06400 35.73600
H  44.15700 9.79500 36.56300
H  45.24800 11.26600 36.85100

