158

Mg 49.85100 46.42600 43.09600
C  47.27200 48.67900 42.24700
C  47.95400 43.89400 41.84400
C  52.66200 44.70600 43.00500
C  51.64600 49.33900 43.95900
N  47.86800 46.36900 42.22500
C  46.99800 47.35400 41.85100
C  45.80900 46.77900 41.16100
C  45.83300 45.28200 41.67700
C  47.33600 45.16200 41.86800
C  45.14300 44.93500 42.95700
C  45.80300 46.86700 39.60600
C  44.40100 46.68900 38.93200
H  44.46700 45.55700 37.92400
N  50.24300 44.55200 42.55200
C  49.37500 43.69100 42.01300
C  49.98200 42.46400 41.84100
C  51.32900 42.60000 42.17900
C  51.53300 43.99900 42.60500
C  49.34900 41.11200 41.42100
C  52.44500 41.60400 41.87600
O  52.22100 40.51900 41.39400
C  53.93900 41.93000 42.19300
N  51.90300 46.99400 43.32500
C  52.87400 45.99500 43.32200
C  54.18200 46.48100 43.95300
C  53.91700 48.00100 43.81600
C  52.36700 48.16000 43.66500
C  54.64600 45.94000 45.34700
C  54.68600 48.76300 42.75800
C  56.19400 49.11600 43.01200
N  49.53700 48.51500 43.37000
C  50.28600 49.51700 43.80400
C  49.53100 50.80100 43.84000
C  48.39700 50.55600 43.12600
C  48.42700 49.12600 42.87100
C  50.22700 52.09700 44.27700
C  47.19600 51.14900 42.64300
O  46.74800 52.27700 42.77600
C  46.41000 49.96000 41.99100
C  45.11600 49.79500 42.66100
O  45.00400 49.28500 43.70700
O  44.10200 49.91900 41.73300
C  42.78000 49.54500 42.29100
H  47.31800 43.13300 41.38800
H  53.63300 44.24400 43.19300
H  52.22100 50.21300 44.27200
H  44.90100 47.24900 41.53900
H  45.55900 44.57600 40.89400
H  44.27500 44.31000 42.75000
H  44.77500 45.86900 43.38100
H  45.79000 44.43800 43.67900
H  46.44000 46.01600 39.36800
H  46.12500 47.82700 39.20200
H  44.14600 47.61300 38.41200
H  43.60100 46.33500 39.58200
H  48.26000 41.15900 41.43600
H  49.64600 40.41800 42.20800
H  49.79200 40.84800 40.46100
H  53.94000 42.14700 43.26100
H  54.06500 42.92800 41.77100
H  54.64700 41.20800 41.78700
H  54.99700 46.24600 43.26800
H  54.24200 48.51100 44.72300
H  55.72700 46.02200 45.46100
H  54.40300 44.88400 45.46400
H  54.31600 46.62000 46.13300
H  54.08400 49.61000 42.42900
H  54.73900 48.09300 41.90000
H  56.18700 50.20500 42.98200
H  56.86600 48.60000 42.32700
H  56.46800 48.92000 44.04800
H  51.20100 52.16800 43.79200
H  50.49100 52.11000 45.33400
H  49.62900 52.99300 44.11100
H  46.33100 50.21000 40.93300
H  42.68000 48.46800 42.42900
H  41.98000 49.89600 41.64000
H  42.73200 50.14100 43.20200
Mg 6.88300 54.20400 40.83600
C  6.00500 50.67000 40.37800
C  10.07400 53.32400 39.68900
C  7.46400 57.45400 40.64900
C  3.54400 54.75200 41.43200
N  7.84900 52.11300 40.07600
C  7.38900 50.88400 40.02800
C  8.46700 49.88200 39.55900
C  9.78100 50.68100 39.76100
C  9.24500 52.16200 39.89500
C  10.72500 50.25400 40.95100
C  8.31300 49.28600 38.13600
C  7.59800 50.14300 37.08200
H  7.05800 49.53000 35.83100
N  8.50900 55.25600 40.14100
C  9.78200 54.71000 39.83600
C  10.68900 55.85100 39.61200
C  9.91300 56.99100 39.62100
C  8.58400 56.66600 40.16800
C  12.18400 55.68400 39.26600
C  10.49100 58.40500 39.40400
O  11.64100 58.58000 39.10700
C  9.76300 59.64200 39.72500
N  5.71400 55.89700 41.04100
C  6.15800 57.11500 40.98800
C  5.05800 58.09800 41.36700
C  3.78200 57.28100 41.18600
C  4.37300 55.90800 41.27000
C  5.32700 58.75300 42.73500
C  2.91700 57.64600 39.98900
C  1.54600 58.32500 40.17200
N  5.17800 52.97300 40.97600
C  3.90200 53.37100 41.35500
C  2.95100 52.26800 41.34900
C  3.74600 51.20400 41.06400
C  5.09500 51.59200 40.76300
C  1.49300 52.30600 41.55700
C  3.73800 49.75600 40.78800
O  2.81000 48.99300 40.87100
C  5.31500 49.36300 40.57200
C  5.41700 48.49400 39.34000
O  4.96200 48.70700 38.22000
O  5.90500 47.25800 39.61700
C  5.58600 46.17300 38.61300
H  11.12600 53.08500 39.52000
H  7.65300 58.50600 40.87500
H  2.50200 54.98300 41.66700
H  8.56900 49.03900 40.24200
H  10.34600 50.69800 38.82900
H  11.73800 50.36200 40.56300
H  10.60600 49.21100 41.24700
H  10.81600 50.90800 41.81800
H  7.82600 48.31200 38.08300
H  9.30300 49.01600 37.76800
H  8.32500 50.80900 36.61900
H  6.78300 50.67500 37.57200
H  12.72600 56.28400 39.99600
H  12.23300 55.93100 38.20600
H  12.48800 54.63800 39.30500
H  10.22900 60.48100 39.20900
H  9.73600 59.62200 40.81500
H  8.82600 59.48000 39.19300
H  5.19000 58.90800 40.65000
H  3.17800 57.46900 42.07400
H  4.87300 58.21500 43.56700
H  4.86600 59.72400 42.55700
H  6.40200 58.73100 42.91600
H  2.89900 56.72600 39.40500
H  3.49900 58.25500 39.29700
H  1.50800 59.13000 39.43700
H  1.41500 58.78600 41.15100
H  0.73000 57.61900 40.02100
H  0.93300 52.34600 40.62300
H  1.42100 53.17700 42.20800
H  1.13200 51.44400 42.11700
H  5.61700 48.87900 41.50100
H  5.94800 45.19000 38.91400
H  6.10800 46.45400 37.69800
H  4.55700 45.87000 38.42000

