158

Mg -1.43900 17.51600 26.68300
C  -1.70600 15.35800 29.41800
C  -2.11300 20.18100 28.88400
C  -1.34700 19.55600 24.00900
C  -1.56900 14.75800 24.56600
N  -1.85400 17.73400 28.93200
C  -1.75000 16.69400 29.81600
C  -1.91900 17.27000 31.30200
C  -2.07500 18.87200 31.05900
C  -2.10300 18.95700 29.54500
C  -3.28300 19.49200 31.90500
C  -0.74800 16.86900 32.34200
C  -0.44200 17.65000 33.64900
H  -0.22800 16.90700 34.99800
N  -1.78200 19.56400 26.44600
C  -2.07400 20.52800 27.45400
C  -1.98300 21.83700 26.84800
C  -1.69100 21.62900 25.45000
C  -1.54300 20.20000 25.26900
C  -2.07100 23.11300 27.73900
C  -1.50100 22.68200 24.28600
O  -1.02800 22.44100 23.16200
C  -1.79500 24.09700 24.56400
N  -1.55900 17.19800 24.59500
C  -1.24000 18.20700 23.70800
C  -0.97700 17.74300 22.26100
C  -0.95200 16.20700 22.47100
C  -1.37200 15.98600 23.94100
C  -2.04000 18.21800 21.20600
C  0.42200 15.55300 22.20600
C  1.63000 16.05200 22.96600
N  -1.51600 15.51800 26.92500
C  -1.69300 14.48600 25.94100
C  -1.87500 13.24300 26.62500
C  -1.89100 13.53300 27.96700
C  -1.72300 14.92200 28.10200
C  -1.96400 11.96300 25.90600
C  -1.97200 12.86400 29.28000
O  -2.06000 11.65000 29.52900
C  -1.81400 14.09300 30.26800
C  -0.62600 13.92100 31.09400
O  0.43000 14.36200 30.82700
O  -0.89300 13.19100 32.21100
C  0.31800 13.01800 33.11700
H  -2.09100 21.03300 29.56600
H  -1.03700 20.19000 23.17500
H  -1.30100 13.95600 23.87500
H  -2.83100 16.82800 31.70300
H  -1.18400 19.41400 31.37500
H  -2.98100 20.31500 32.55300
H  -3.66600 18.77000 32.62700
H  -4.06800 19.93700 31.29400
H  0.17600 16.77500 31.77100
H  -0.92600 15.88100 32.76600
H  -1.19600 18.41400 33.83600
H  0.44500 18.25800 33.47600
H  -2.47500 22.96900 28.74100
H  -2.77700 23.79900 27.26900
H  -1.04500 23.48100 27.75900
H  -2.58400 24.15500 25.31300
H  -2.09000 24.54400 23.61500
H  -0.97800 24.74000 24.89200
H  -0.02000 18.11300 21.89300
H  -1.67400 15.69900 21.83100
H  -2.80100 18.87500 21.62600
H  -2.75300 17.43100 20.96100
H  -1.62400 18.73600 20.34200
H  0.63600 15.79800 21.16500
H  0.39000 14.46500 22.26200
H  1.60100 16.89000 23.66300
H  2.38300 16.35700 22.23900
H  2.11100 15.15100 23.34700
H  -1.04800 11.42400 26.14700
H  -1.81600 12.08500 24.83300
H  -2.89600 11.45100 26.14700
H  -2.66500 14.18900 30.94200
H  0.02800 13.29200 34.13100
H  1.24300 13.58000 32.98200
H  0.65300 11.98100 33.08900
Mg 42.92900 4.16000 47.64200
C  40.89700 6.98400 47.40900
C  40.07700 2.21600 47.60800
C  44.90800 1.44200 47.06800
C  45.71900 6.24500 47.33500
N  40.72300 4.55500 47.46500
C  40.11500 5.77300 47.49100
C  38.53300 5.63300 47.77900
C  38.39800 4.11500 47.85000
C  39.80500 3.58000 47.69500
C  37.77900 3.51100 49.13500
C  37.58600 6.33300 46.69900
C  38.04400 5.95500 45.26600
H  38.41400 7.03700 44.29600
N  42.52100 2.09500 47.48500
C  41.28400 1.50500 47.40400
C  41.38800 0.09100 47.11900
C  42.79600 -0.13300 46.91200
C  43.48700 1.14800 47.20500
C  40.32300 -0.93800 47.12500
C  43.37500 -1.55700 46.54700
O  42.69700 -2.51500 46.35600
C  44.91100 -1.75700 46.32200
N  45.01100 3.89300 47.19600
C  45.63600 2.63600 47.17700
C  47.16100 2.75600 47.25400
C  47.41400 4.25800 47.38900
C  45.97400 4.87400 47.38300
C  47.83400 1.87000 48.39400
C  48.47100 4.82900 46.37600
C  49.94300 4.97800 46.88000
N  43.26500 6.21600 47.31700
C  44.41000 6.86600 47.26100
C  44.14100 8.29800 47.21100
C  42.73700 8.39000 47.22500
C  42.27600 7.09000 47.31000
C  45.15600 9.41500 47.14200
C  41.60100 9.29500 47.22800
O  41.52500 10.54500 47.20900
C  40.32100 8.42000 47.31500
C  39.47400 8.99600 48.42400
O  39.45200 8.68400 49.64600
O  38.56600 9.88600 47.85600
C  37.66800 10.49300 48.76800
H  39.12200 1.68800 47.64600
H  45.60200 0.59900 47.06500
H  46.61600 6.86600 47.29300
H  38.33700 6.24600 48.65900
H  38.01600 3.68600 46.92400
H  37.40100 4.32300 49.75600
H  38.55400 3.11600 49.79200
H  36.91700 2.86700 48.96400
H  37.68800 7.41300 46.80400
H  36.56500 6.08200 46.98700
H  37.16400 5.40300 44.93600
H  38.82000 5.18900 45.24900
H  40.59700 -1.83700 47.67800
H  40.27900 -1.17300 46.06200
H  39.35500 -0.56400 47.45700
H  45.50200 -1.90100 47.22600
H  45.26900 -0.94500 45.68900
H  44.97700 -2.78400 45.96300
H  47.60200 2.38700 46.32800
H  47.63900 4.50100 48.42800
H  48.55900 2.46100 48.95500
H  48.41900 1.06900 47.94200
H  47.19900 1.43800 49.16700
H  48.00100 5.71700 45.95400
H  48.54400 4.14600 45.52900
H  50.01400 4.57900 47.89100
H  50.25900 6.01900 46.95700
H  50.62200 4.41800 46.23700
H  44.57200 10.30900 46.92300
H  45.93400 9.26300 46.39400
H  45.56500 9.58600 48.13700
H  39.79400 8.64200 46.38700
H  37.04500 9.81900 49.35700
H  36.93800 11.12400 48.26100
H  38.19600 11.10300 49.50100

