158

Mg 45.47800 2.92500 47.42500
C  43.73700 5.87800 46.89800
C  42.65200 1.05900 47.05900
C  47.37000 -0.02500 46.87700
C  48.41800 4.77200 46.94100
N  43.46800 3.43700 46.93000
C  42.93600 4.71500 46.84400
C  41.39300 4.68100 46.65000
C  41.11700 3.17100 46.92100
C  42.44400 2.50400 47.04000
C  40.21800 3.02800 48.29100
C  40.97900 5.23600 45.27000
C  41.45100 4.42300 44.09600
H  42.07500 5.22100 42.92400
N  45.08100 0.82100 47.18600
C  43.82600 0.29100 47.02300
C  43.86700 -1.16800 46.80800
C  45.24100 -1.49700 46.97500
C  45.99800 -0.20800 47.01600
C  42.71100 -2.07900 46.52400
C  45.87000 -2.91700 46.93800
O  45.15500 -3.94100 46.84100
C  47.28200 -3.15800 47.21200
N  47.49400 2.46600 46.83700
C  48.03700 1.18500 46.81600
C  49.55200 1.17100 46.78200
C  49.88500 2.70300 46.69700
C  48.56200 3.34400 46.89800
C  50.16500 0.35700 48.02500
C  50.61500 3.19500 45.41400
C  51.88000 3.91100 45.65500
N  46.01200 4.91900 47.19100
C  47.22600 5.52200 46.94600
C  47.06000 6.91600 46.85000
C  45.71700 7.07600 47.00000
C  45.08900 5.83500 47.01600
C  48.21300 7.96500 46.73800
C  44.69100 8.14100 47.13300
O  44.71600 9.37200 47.18400
C  43.35600 7.38100 46.95100
C  42.39400 7.71400 48.09600
O  42.33000 7.23900 49.27500
O  41.45000 8.64700 47.66800
C  40.41400 8.91800 48.64000
H  41.70700 0.51200 47.04700
H  48.04400 -0.86700 46.70700
H  49.38700 5.27400 46.89200
H  41.09900 5.28400 47.50900
H  40.55600 2.80500 46.06100
H  39.66300 3.95600 48.43000
H  40.77600 2.77600 49.19300
H  39.43200 2.28100 48.18400
H  41.19000 6.30400 45.22200
H  39.89500 5.20700 45.16100
H  40.61500 3.80800 43.76500
H  42.21700 3.70200 44.38400
H  41.98000 -1.55700 45.90700
H  42.29600 -2.13700 47.53000
H  43.02200 -3.06600 46.18200
H  47.50400 -2.45300 48.01300
H  47.83200 -2.89600 46.30800
H  47.48200 -4.20700 47.43200
H  49.83600 0.70400 45.83900
H  50.55500 2.96300 47.51700
H  50.32400 -0.68700 47.75900
H  49.34300 0.35600 48.74200
H  51.12900 0.73300 48.36900
H  50.00100 3.97600 44.96500
H  50.71800 2.41800 44.65600
H  52.74600 3.25200 45.58500
H  51.92000 4.41300 46.62200
H  51.99400 4.71700 44.93100
H  47.86800 8.99800 46.68700
H  48.80100 7.70400 45.85800
H  48.91200 7.91000 47.57300
H  42.94600 7.69300 45.99000
H  40.73800 9.41700 49.55300
H  39.76600 8.08000 48.89800
H  39.65400 9.64300 48.34900
Mg 6.50400 55.00700 41.67800
C  5.71300 51.53100 41.27200
C  9.70800 54.29600 40.80100
C  6.92600 58.18400 41.60500
C  3.04100 55.40800 42.21400
N  7.55400 53.10400 40.91100
C  7.03500 51.85600 40.80100
C  8.18900 50.85200 40.27200
C  9.47900 51.75600 40.42300
C  8.90600 53.14900 40.73100
C  10.49600 51.27900 41.57400
C  7.93100 50.24800 38.80900
C  7.47500 51.19600 37.69000
H  6.52700 50.68400 36.60000
N  8.13600 56.14100 41.26100
C  9.37200 55.68800 40.92800
C  10.16400 56.80500 40.54500
C  9.34900 57.96300 40.77800
C  8.08400 57.46800 41.23800
C  11.65700 56.76900 40.18200
C  9.84700 59.45200 40.71200
O  10.99300 59.67700 40.40200
C  9.02000 60.59100 40.84900
N  5.20600 56.53800 41.93100
C  5.59800 57.84000 41.88600
C  4.51800 58.83900 42.20600
C  3.30000 57.96700 42.17300
C  3.86800 56.52100 42.13400
C  4.85300 59.41300 43.57600
C  2.35900 58.19400 40.91400
C  0.79900 58.30100 41.01600
N  4.72400 53.77900 41.87600
C  3.41500 54.09100 42.10300
C  2.62600 52.91700 42.21100
C  3.50100 51.85500 42.02300
C  4.69500 52.47200 41.65000
C  1.13800 52.87200 42.58200
C  3.62900 50.46200 41.90700
O  2.71500 49.63200 42.04800
C  5.10500 50.20600 41.37600
C  4.76000 49.52400 40.11000
O  4.28900 50.01700 39.06700
O  4.99200 48.19800 40.25000
C  4.63600 47.26800 39.13200
H  10.79300 54.25300 40.91900
H  7.00700 59.25700 41.41600
H  1.98100 55.65000 42.30700
H  8.30600 50.04300 40.99300
H  9.99400 51.81500 39.46400
H  10.14500 50.42100 42.14700
H  10.70700 52.12000 42.23600
H  11.42300 51.14400 41.01900
H  7.23200 49.41300 38.85900
H  8.90200 49.93600 38.42200
H  8.47300 51.51800 37.39200
H  6.96900 52.02700 38.18200
H  11.87800 57.57100 39.47700
H  11.95400 55.83500 39.70600
H  12.23600 56.91700 41.09400
H  8.32100 60.47500 40.02100
H  9.49000 61.55900 40.67600
H  8.42800 60.67000 41.76200
H  4.39200 59.61200 41.44900
H  2.76700 58.06800 43.11800
H  5.12200 58.61000 44.26300
H  3.92000 59.85900 43.92000
H  5.70400 60.09400 43.58600
H  2.48500 57.37200 40.20900
H  2.60700 59.06900 40.31300
H  0.43100 58.73400 41.94600
H  0.50900 57.26900 40.82000
H  0.40200 58.97400 40.25600
H  0.42800 52.72600 41.76700
H  0.84500 53.77200 43.12100
H  1.06800 52.01900 43.25800
H  5.71700 49.66200 42.09500
H  3.61900 47.05200 38.80700
H  5.14900 46.37000 39.47600
H  5.26000 47.62800 38.31300

