158

Mg 46.82600 24.39700 28.53400
C  47.70300 26.81000 31.04500
C  45.95600 22.30900 31.07300
C  46.67400 22.01300 26.29900
C  48.40200 26.39900 26.21700
N  46.78700 24.61400 30.81600
C  47.09500 25.71000 31.67100
C  46.71700 25.41900 33.10000
C  46.37500 23.89200 33.06300
C  46.22400 23.59900 31.56200
C  47.39800 22.92600 33.81100
C  45.72400 26.42500 33.76400
C  46.15800 27.28400 34.93200
H  45.11300 27.56800 35.99900
N  46.17300 22.52900 28.63500
C  45.91600 21.87900 29.80400
C  45.57300 20.50300 29.44000
C  45.65300 20.40500 27.96500
C  46.23100 21.66400 27.56000
C  44.93500 19.51400 30.35900
C  45.35600 19.19900 27.00700
O  45.40700 19.22500 25.80300
C  44.92000 17.81700 27.52200
N  47.58600 24.18300 26.50100
C  47.23000 23.18600 25.81700
C  47.60000 23.28100 24.36200
C  48.02800 24.78200 24.20900
C  47.93500 25.18800 25.75300
C  48.64400 22.14700 23.89700
C  47.18600 25.61000 23.16600
C  45.76300 26.17100 23.52900
N  47.84900 26.22100 28.58400
C  48.35000 26.94200 27.52300
C  48.78300 28.24600 27.93300
C  48.57900 28.15700 29.30000
C  47.98800 26.97700 29.65100
C  49.47900 29.30400 27.18700
C  48.93000 28.90300 30.49600
O  49.67300 29.88100 30.59500
C  48.28700 28.06600 31.71000
C  49.32300 27.70900 32.81000
O  50.25900 26.99400 32.69300
O  49.03300 28.44200 33.94000
C  49.88400 28.22000 35.12800
H  45.86200 21.61300 31.90900
H  46.47800 21.31200 25.48500
H  48.74500 27.21700 25.58000
H  47.69000 25.64000 33.53800
H  45.36000 23.80200 33.45000
H  46.99300 22.47800 34.71800
H  48.24100 23.53300 34.14200
H  47.81600 22.16500 33.15200
H  44.96600 25.80300 34.23900
H  45.40200 26.96600 32.87400
H  46.48500 28.20400 34.44700
H  47.08200 26.81300 35.26800
H  45.34200 18.50400 30.30800
H  43.88400 19.51800 30.06900
H  45.09800 19.78600 31.40200
H  44.14300 18.04000 28.25300
H  45.75800 17.41000 28.08800
H  44.30800 17.25400 26.81800
H  46.63400 23.23600 23.86100
H  49.09600 24.83000 23.99700
H  49.54000 22.58600 23.45800
H  48.15800 21.67300 23.04400
H  48.99300 21.36000 24.56600
H  47.12400 24.99400 22.26900
H  47.75000 26.51200 22.93200
H  45.06200 25.90400 22.73900
H  45.94200 27.24300 23.60000
H  45.44400 25.57700 24.38600
H  49.45900 28.96900 26.15000
H  50.49900 29.50600 27.51400
H  48.99000 30.27400 27.27900
H  47.35900 28.51100 32.07000
H  49.69100 27.21400 35.50000
H  49.65500 28.99400 35.86100
H  50.92200 28.27400 34.79900
Mg 48.10700 34.08800 26.86500
C  46.06600 32.90500 29.41100
C  48.75100 36.89200 28.78000
C  49.59600 35.59600 24.17100
C  47.26100 31.34600 24.87300
N  47.54000 34.75200 28.85300
C  46.75200 34.08600 29.75300
C  47.01400 34.76900 31.19500
C  47.35700 36.20400 30.74400
C  47.96100 35.95300 29.39400
C  46.31400 37.42600 30.84600
C  48.13100 34.06400 32.13000
C  47.99200 33.98800 33.67600
H  47.08700 35.00700 34.48200
N  49.07600 35.95900 26.51800
C  49.23500 36.90700 27.47200
C  50.08000 37.94400 26.93400
C  50.32500 37.62600 25.56400
C  49.67500 36.33900 25.33600
C  50.55700 39.19600 27.71800
C  50.97200 38.56300 24.54500
O  51.02100 38.26100 23.37700
C  51.66300 39.84600 24.90000
N  48.28800 33.59300 24.85800
C  48.92300 34.40500 23.93100
C  48.88100 33.70500 22.57200
C  48.65000 32.16700 22.90600
C  48.07100 32.30600 24.31000
C  47.79700 34.36400 21.61000
C  49.97800 31.32900 22.89300
C  50.91500 31.54800 24.08800
N  46.90900 32.42300 27.02500
C  46.70800 31.38400 26.18700
C  45.85600 30.43100 26.81000
C  45.64700 30.94800 28.12800
C  46.31000 32.17000 28.17700
C  45.40300 29.14900 26.15900
C  44.95400 30.71900 29.42500
O  44.31200 29.75800 29.86600
C  45.13700 32.13100 30.23300
C  45.51200 31.82000 31.58000
O  46.39100 31.03700 31.88200
O  44.68400 32.49500 32.42000
C  44.77800 32.02100 33.81800
H  48.96900 37.81800 29.31600
H  50.12300 36.07900 23.34600
H  47.22800 30.39300 24.34200
H  46.14900 34.76700 31.85800
H  48.19300 36.64100 31.29000
H  46.49600 38.02800 31.73600
H  45.29700 37.03500 30.79600
H  46.44200 37.98900 29.92200
H  49.08400 34.56300 31.95000
H  48.16700 33.06500 31.69700
H  48.97800 33.97800 34.13900
H  47.68200 32.96500 33.89100
H  51.62500 38.98000 27.69700
H  50.24300 39.12800 28.75900
H  50.24600 40.16700 27.33300
H  52.25100 39.66900 25.80000
H  50.87600 40.60000 24.91200
H  52.38200 40.02300 24.10000
H  49.90800 33.89800 22.26400
H  47.95600 31.63600 22.25400
H  47.27200 35.21000 22.05400
H  47.13300 33.60000 21.20600
H  48.30500 34.75400 20.72800
H  50.44700 31.58300 21.94200
H  49.71200 30.27300 22.91100
H  50.61600 31.10000 25.03600
H  51.15000 32.59900 24.25700
H  51.91600 31.16900 23.87900
H  46.02500 28.88600 25.30300
H  44.37200 29.14400 25.80600
H  45.58600 28.35700 26.88600
H  44.10500 32.47600 30.28100
H  45.76200 32.13900 34.27200
H  44.43900 30.99500 33.96200
H  44.15800 32.70000 34.40300

