158

Mg 0.78700 7.24400 25.59400
C  1.92500 9.27900 28.26800
C  0.80600 4.56500 27.82500
C  0.08300 5.08500 23.02800
C  1.49300 9.71400 23.37700
N  1.46600 6.99800 27.82700
C  1.72900 7.92500 28.73200
C  1.62300 7.39500 30.12700
C  1.51000 5.84000 29.88900
C  1.28800 5.76100 28.39500
C  2.57900 5.04400 30.43400
C  0.40300 7.99300 30.93800
C  0.66500 8.21100 32.45400
H  1.76700 7.42000 33.16400
N  0.46500 5.17700 25.45200
C  0.43400 4.31200 26.48700
C  0.06300 2.98900 26.03400
C  -0.13000 3.06000 24.58800
C  0.12300 4.45200 24.32200
C  -0.11800 1.87300 26.93600
C  -0.57000 1.97000 23.65300
O  -0.89400 2.14200 22.48700
C  -0.61500 0.53900 24.19600
N  0.80400 7.38600 23.56600
C  0.38200 6.39600 22.67300
C  0.16900 6.92500 21.27100
C  0.61800 8.41600 21.33400
C  0.95300 8.53400 22.81200
C  0.75900 6.06700 20.10600
C  -0.40800 9.46300 20.78000
C  0.34100 10.62700 20.10200
N  1.53900 9.06300 25.74100
C  1.85400 9.93800 24.72600
C  2.40900 11.17900 25.30800
C  2.30900 10.94300 26.70700
C  1.89000 9.65800 26.89900
C  2.66500 12.45300 24.54600
C  2.52400 11.62500 28.03500
O  2.97700 12.73400 28.27800
C  2.18300 10.52300 29.08400
C  3.32600 10.52000 30.14200
O  4.53900 10.62800 29.91000
O  2.77800 10.61800 31.37100
C  3.53800 10.93000 32.60100
H  0.89600 3.79700 28.59600
H  -0.28000 4.41300 22.24800
H  1.54300 10.57400 22.70600
H  2.49900 7.68500 30.70800
H  0.70000 5.47500 30.52000
H  3.02200 4.58000 29.55300
H  2.29400 4.25900 31.13500
H  3.33400 5.65600 30.92900
H  -0.47200 7.37400 30.73700
H  0.29400 9.02000 30.59100
H  -0.30500 8.07600 32.93200
H  0.76000 9.26400 32.71700
H  0.72600 1.19200 26.81600
H  -1.05000 1.38200 26.65600
H  -0.12200 2.05300 28.01100
H  -1.58400 0.30600 24.63800
H  0.24300 0.35200 24.84200
H  -0.57600 -0.19800 23.39400
H  -0.90500 7.02200 21.11700
H  1.59700 8.59800 20.88900
H  1.27900 5.20300 20.51800
H  1.49400 6.53600 19.45300
H  0.00100 5.60800 19.47100
H  -1.00800 9.81200 21.62000
H  -1.00800 8.93000 20.04300
H  -0.01500 10.87800 19.10300
H  1.42800 10.59400 20.18300
H  0.02700 11.48800 20.69200
H  1.86700 12.61900 23.82200
H  3.59500 12.14300 24.07100
H  2.72200 13.40200 25.08100
H  1.28400 10.93600 29.54100
H  4.62500 10.87000 32.54600
H  3.21500 10.27300 33.40800
H  3.39800 11.94200 32.98200
Mg -4.83900 25.22600 25.30800
C  -3.28900 26.73200 28.01000
C  -6.44000 23.07000 27.44400
C  -5.99300 23.64400 22.59600
C  -2.93200 27.34700 23.19600
N  -4.84700 24.86700 27.41800
C  -4.16700 25.68600 28.37200
C  -4.57800 25.34300 29.75900
C  -5.40900 24.02500 29.57600
C  -5.58300 23.97300 28.07900
C  -4.78000 22.76700 30.18300
C  -5.23300 26.52600 30.51700
C  -4.89100 26.75900 32.01200
H  -4.80700 25.36800 32.75800
N  -6.08300 23.61400 25.05600
C  -6.67500 22.89800 26.03800
C  -7.55300 21.93100 25.46600
C  -7.41300 21.97400 24.03400
C  -6.50700 23.15700 23.83300
C  -8.42700 21.04400 26.29000
C  -8.08500 21.19600 22.89600
O  -7.90000 21.43500 21.70200
C  -8.95800 20.05800 23.22900
N  -4.54500 25.53200 23.13600
C  -5.11000 24.68200 22.26500
C  -4.53300 24.91900 20.83500
C  -3.79000 26.33200 20.95700
C  -3.71800 26.42400 22.50900
C  -3.65600 23.74700 20.32800
C  -4.63100 27.50100 20.33400
C  -4.15500 28.03400 18.98700
N  -3.53700 26.88900 25.51400
C  -2.77200 27.51100 24.58300
C  -1.90000 28.45100 25.24400
C  -2.04400 28.19000 26.62500
C  -3.02500 27.19100 26.71600
C  -1.02200 29.46300 24.52700
C  -1.54800 28.53100 27.93300
O  -0.67100 29.30800 28.36000
C  -2.36300 27.61600 28.86700
C  -1.49400 26.87900 29.94100
O  -1.05400 25.75800 29.81800
O  -1.51000 27.61700 31.08800
C  -0.88700 26.95600 32.23300
H  -7.02900 22.38200 28.05300
H  -6.18600 23.11900 21.65800
H  -2.41400 28.13700 22.65000
H  -3.68100 25.16100 30.35000
H  -6.41700 24.08900 29.98600
H  -5.53200 22.13400 30.65400
H  -4.12800 23.02000 31.01900
H  -4.32100 22.15700 29.40400
H  -6.31700 26.41400 30.54300
H  -5.11100 27.46300 29.97400
H  -5.61400 27.34900 32.57600
H  -3.94200 27.28700 32.10100
H  -8.12300 19.99700 26.30300
H  -9.34600 21.10400 25.70700
H  -8.59700 21.38600 27.31100
H  -8.40600 19.39200 23.89200
H  -9.28300 19.60400 22.29300
H  -9.90600 20.33200 23.69300
H  -5.41700 24.94100 20.19700
H  -2.80300 26.31800 20.49400
H  -4.27600 22.85400 20.40600
H  -2.75100 23.67600 20.93100
H  -3.39400 23.82700 19.27300
H  -4.60700 28.39500 20.95700
H  -5.64300 27.10500 20.24000
H  -4.02600 29.11600 19.03000
H  -5.03400 27.87400 18.36300
H  -3.28500 27.50600 18.59600
H  -1.41600 30.47600 24.61500
H  -0.96300 29.34000 23.44500
H  -0.08100 29.46300 25.07700
H  -3.12400 28.17200 29.41500
H  -0.79800 25.87300 32.14700
H  -1.41000 27.08800 33.18000
H  0.07900 27.45400 32.31200

