158

Mg -11.23100 37.91900 41.88800
C  -9.67400 35.03800 40.85100
C  -8.64700 39.88600 40.63500
C  -13.08600 40.86900 42.36500
C  -14.02800 36.07300 43.02300
N  -9.35800 37.47400 40.91300
C  -8.93900 36.26400 40.48700
C  -7.53600 36.39100 39.80300
C  -7.10900 37.82400 40.20200
C  -8.44600 38.44900 40.61900
C  -5.96700 37.90500 41.35700
C  -7.53600 35.94400 38.26900
C  -6.45100 34.89100 37.91500
H  -5.47500 35.29400 36.80100
N  -10.90500 40.07000 41.53400
C  -9.79300 40.66200 41.03500
C  -9.95300 42.09200 40.87600
C  -11.19300 42.41800 41.48300
C  -11.80300 41.09700 41.84800
C  -8.83900 42.98300 40.35900
C  -11.67600 43.83300 41.76400
O  -11.06500 44.83600 41.39400
C  -12.95000 44.20400 42.40600
N  -13.36400 38.35700 42.46600
C  -13.75700 39.66500 42.65600
C  -15.00600 39.74200 43.45300
C  -15.42600 38.19900 43.71600
C  -14.29100 37.47500 42.97500
C  -14.91400 40.56000 44.81700
C  -16.83600 37.83900 43.17000
C  -17.62400 37.06200 44.21500
N  -11.78700 35.94700 42.06100
C  -12.95000 35.31000 42.45500
C  -12.65700 33.87600 42.34700
C  -11.40500 33.70600 41.77800
C  -10.95900 35.04000 41.61000
C  -13.64100 32.81200 42.70300
C  -10.46900 32.76600 41.26900
O  -10.45500 31.56800 41.36300
C  -9.36700 33.56900 40.58300
C  -8.04000 33.11100 41.08000
O  -7.12500 32.82500 40.32600
O  -7.98100 33.09800 42.45800
C  -6.67100 32.83200 43.02500
H  -7.73800 40.36300 40.26300
H  -13.73400 41.74400 42.45300
H  -14.71700 35.52200 43.66600
H  -6.91800 35.64600 40.30500
H  -6.73600 38.25000 39.27100
H  -6.38500 38.50400 42.16500
H  -5.05400 38.43600 41.08900
H  -5.76700 36.86900 41.63300
H  -7.46400 36.77400 37.56600
H  -8.53700 35.54000 38.11800
H  -6.97800 33.95800 37.71600
H  -5.84700 34.73600 38.80900
H  -8.67200 43.85600 40.99100
H  -8.95000 43.26000 39.31100
H  -7.86300 42.50400 40.44300
H  -12.97500 45.26800 42.64600
H  -13.06100 43.86700 43.43700
H  -13.81600 43.95700 41.79200
H  -15.67800 40.25700 42.76700
H  -15.37900 37.87800 44.75700
H  -15.38400 41.53300 44.67600
H  -13.88500 40.88000 44.97500
H  -15.41600 40.01700 45.61900
H  -16.62200 37.32200 42.23400
H  -17.36500 38.70600 42.77600
H  -17.30000 37.23500 45.24100
H  -17.27500 36.04400 44.04500
H  -18.69400 37.16900 44.03200
H  -13.25200 31.82000 42.47200
H  -14.58100 32.98800 42.17900
H  -13.72900 32.89300 43.78600
H  -9.44200 33.31800 39.52500
H  -5.99500 33.68700 42.99600
H  -6.24100 32.05200 42.39600
H  -6.77100 32.53600 44.06900
Mg -2.24400 33.72400 26.58900
C  -3.85300 31.94500 29.07700
C  -0.78800 35.78300 28.94500
C  -0.97300 35.59100 24.06100
C  -4.17000 31.94900 24.18900
N  -2.53500 33.91300 28.82000
C  -3.09600 32.97800 29.68400
C  -2.78300 33.31600 31.09800
C  -1.83000 34.54900 30.99200
C  -1.71700 34.82000 29.50900
C  -2.34200 35.80700 31.80500
C  -2.13100 32.09800 31.89100
C  -2.81600 31.75600 33.19100
H  -1.94600 31.46900 34.39100
N  -1.00100 35.41000 26.47000
C  -0.48600 36.11800 27.53300
C  0.51400 37.10700 27.03600
C  0.37400 37.05400 25.56300
C  -0.57200 35.95100 25.31700
C  1.33100 37.97400 27.98500
C  1.07400 37.89200 24.47300
O  0.73800 37.98000 23.27600
C  2.17700 38.69900 24.87400
N  -2.70800 33.89700 24.35900
C  -1.98500 34.70600 23.55700
C  -2.30200 34.47300 21.96200
C  -3.06200 33.13100 22.17400
C  -3.40200 32.96600 23.64900
C  -3.16400 35.69700 21.54400
C  -2.40100 31.90500 21.44900
C  -1.42700 31.12200 22.29000
N  -3.66500 32.20600 26.59000
C  -4.38500 31.58500 25.57300
C  -5.23800 30.57400 26.14400
C  -5.05500 30.71600 27.51300
C  -4.08000 31.67400 27.72100
C  -6.19100 29.74000 25.37100
C  -5.50400 30.22000 28.75000
O  -6.29800 29.36300 29.00800
C  -4.72500 31.00500 29.91500
C  -5.70900 31.65700 30.76400
O  -6.30500 32.68400 30.47300
O  -5.99500 30.85000 31.86000
C  -7.01900 31.36300 32.79700
H  -0.34200 36.45800 29.67900
H  -0.47300 36.16000 23.27500
H  -4.77400 31.40600 23.45900
H  -3.67100 33.59100 31.66700
H  -0.83500 34.31000 31.36900
H  -1.82200 35.84200 32.76200
H  -3.40900 35.69400 31.99500
H  -2.29800 36.68600 31.16300
H  -1.12000 32.37000 32.19500
H  -1.94500 31.28600 31.18800
H  -3.45800 30.91900 32.91500
H  -3.43500 32.56700 33.57400
H  2.31200 37.68200 27.61100
H  1.24900 37.67800 29.03100
H  1.22900 39.04100 27.78500
H  1.85100 39.50300 25.53400
H  2.62200 39.19600 24.01200
H  3.04000 38.13000 25.22100
H  -1.36600 34.40300 21.40700
H  -4.07100 33.32200 21.81100
H  -3.47600 36.43800 22.28000
H  -4.05200 35.26400 21.08400
H  -2.63600 36.17100 20.71700
H  -1.86500 32.11100 20.52300
H  -3.28000 31.29900 21.23000
H  -1.00300 31.83200 23.00000
H  -0.75900 30.62900 21.58400
H  -1.97200 30.35000 22.83200
H  -6.38100 30.28100 24.44400
H  -7.04900 29.67300 26.04000
H  -5.81800 28.73300 25.18300
H  -4.13700 30.31600 30.52100
H  -7.89300 31.70700 32.24500
H  -6.62400 32.20300 33.36900
H  -7.35400 30.63800 33.53900

