158

Mg 35.03800 2.86900 29.11700
C  33.08400 3.93700 31.82700
C  37.86400 3.20100 31.09100
C  36.91400 1.90400 26.52600
C  32.19500 2.84100 27.18700
N  35.41800 3.28200 31.25700
C  34.45800 3.69400 32.17700
C  35.06800 3.63900 33.53500
C  36.57700 3.77300 33.26800
C  36.66000 3.43600 31.74800
C  37.27500 5.16700 33.65900
C  34.55500 2.52600 34.47900
C  34.35100 2.92400 35.93800
H  35.22700 3.98100 36.65900
N  37.14400 2.53500 28.84500
C  38.10500 2.80700 29.79200
C  39.39700 2.59100 29.15800
C  39.18500 2.13400 27.78300
C  37.68900 2.16900 27.64000
C  40.67100 2.97000 29.90500
C  40.11100 1.65000 26.68400
O  39.70200 1.33400 25.58800
C  41.53400 1.42300 26.93200
N  34.59200 2.40900 27.14800
C  35.52500 1.98500 26.29300
C  34.89500 1.49600 24.95400
C  33.37500 1.82200 25.18300
C  33.36500 2.49100 26.59100
C  35.61800 1.90400 23.67100
C  32.54400 0.50800 24.87000
C  32.37600 -0.56100 25.96000
N  33.07200 3.32900 29.32700
C  32.05100 3.27200 28.48000
C  30.85800 3.75800 29.01600
C  31.24100 4.02300 30.37400
C  32.57800 3.75100 30.50400
C  29.52600 3.68500 28.40300
C  30.69600 4.54900 31.66900
O  29.64000 5.02700 31.95600
C  31.87300 4.23300 32.69200
C  32.04700 5.40600 33.52900
O  32.38700 6.54500 33.11400
O  31.67800 5.13800 34.85700
C  31.50900 6.30600 35.75000
H  38.76300 3.27200 31.70700
H  37.47100 1.41600 25.72400
H  31.30600 2.90400 26.55500
H  34.78500 4.56300 34.03900
H  37.04100 2.92900 33.78000
H  37.86200 4.98000 34.55900
H  36.48300 5.83100 34.00600
H  37.84900 5.52200 32.80300
H  35.30100 1.73200 34.45000
H  33.60600 2.15000 34.09500
H  34.35400 2.03900 36.57500
H  33.33400 3.31600 35.95800
H  41.00500 2.18100 30.58000
H  40.65600 3.89100 30.48700
H  41.44400 2.97600 29.13600
H  42.08100 2.36500 26.90300
H  41.89600 0.76600 26.14100
H  41.54700 0.87800 27.87600
H  35.03400 0.43800 25.17900
H  33.14700 2.53900 24.39400
H  36.18000 2.82100 23.84300
H  34.78900 1.97800 22.96800
H  36.25300 1.16300 23.18500
H  32.97600 -0.00600 24.01200
H  31.53100 0.82300 24.62000
H  32.92000 -1.48500 25.76500
H  31.30600 -0.71200 26.10900
H  32.83900 -0.26600 26.90100
H  28.81500 4.21600 29.03600
H  29.17400 2.66500 28.25000
H  29.49000 4.22900 27.46000
H  31.58000 3.45600 33.39900
H  30.48700 6.64600 35.92100
H  31.99700 7.24900 35.50100
H  31.89200 6.02000 36.72900
Mg -12.32800 15.53300 41.53600
C  -9.33200 13.71900 41.10200
C  -11.03400 18.00300 39.55000
C  -15.31900 17.08900 41.52300
C  -13.76900 12.72000 43.04200
N  -10.39900 15.72600 40.27900
C  -9.29000 14.98000 40.46700
C  -8.04500 15.62700 39.83100
C  -8.64900 17.02700 39.38800
C  -10.11100 16.90300 39.75400
C  -7.92100 18.25300 40.01000
C  -7.43100 14.93000 38.59200
C  -6.12400 15.48100 38.17000
H  -6.20200 16.50000 37.02500
N  -13.02100 17.39600 40.76900
C  -12.31300 18.29500 39.98400
C  -13.15300 19.42000 39.62400
C  -14.42200 19.22200 40.22600
C  -14.34000 17.79700 40.84000
C  -12.69200 20.55500 38.81400
C  -15.62300 20.20600 40.12300
O  -15.53400 21.31600 39.57700
C  -17.01500 19.95400 40.66600
N  -14.27600 14.85100 42.12000
C  -15.32100 15.82600 42.13200
C  -16.58600 15.19000 42.76100
C  -16.10300 13.78200 43.28800
C  -14.67500 13.73800 42.73800
C  -17.25000 16.09200 43.89100
C  -16.89300 12.51200 42.75200
C  -17.28300 11.46500 43.82500
N  -11.66800 13.62700 42.08000
C  -12.38400 12.56700 42.68000
C  -11.45300 11.57900 42.98000
C  -10.21800 11.93200 42.36600
C  -10.42700 13.21000 41.82900
C  -11.72000 10.35600 43.84400
C  -8.84000 11.49400 42.12500
O  -8.23500 10.41600 42.39400
C  -8.21900 12.68100 41.24800
C  -6.84700 13.11700 41.80200
O  -6.69800 13.55500 42.91000
O  -5.86900 13.07700 40.83600
C  -4.73400 13.99100 41.13700
H  -10.55000 18.77600 38.95000
H  -16.34500 17.45800 41.57400
H  -14.20100 12.00900 43.74900
H  -7.37300 15.88400 40.64900
H  -8.65100 17.11300 38.30100
H  -8.62400 18.77200 40.66200
H  -7.64200 18.89500 39.17500
H  -6.97200 18.12400 40.53200
H  -8.16800 15.05500 37.79900
H  -7.32200 13.84700 38.65100
H  -5.48300 14.63200 37.93100
H  -5.73200 16.05100 39.01300
H  -13.26400 20.54300 37.88600
H  -11.60600 20.55700 38.71500
H  -12.95700 21.43600 39.39800
H  -17.76800 20.59700 40.20900
H  -17.07400 20.05100 41.75000
H  -17.23400 18.95700 40.28700
H  -17.30200 15.07400 41.94800
H  -16.02500 13.71600 44.37300
H  -18.20200 16.59500 43.72600
H  -16.47400 16.82000 44.13100
H  -17.33500 15.37800 44.71000
H  -16.38700 12.05400 41.90100
H  -17.83600 12.84500 42.31800
H  -17.10700 10.47100 43.41500
H  -18.36400 11.59100 43.89000
H  -16.73100 11.66600 44.74400
H  -12.47400 10.58900 44.59500
H  -10.75500 10.20300 44.32600
H  -11.97200 9.47600 43.25100
H  -7.85800 12.17500 40.35200
H  -3.95600 13.73200 40.41800
H  -4.27900 13.79100 42.10800
H  -5.08600 15.00100 40.92800

