158

Mg 24.37000 -4.79500 45.40900
C  26.35100 -2.70700 43.60300
C  21.73400 -4.12600 43.35600
C  22.89400 -7.65000 46.52700
C  27.30900 -5.84400 47.17600
N  24.16200 -3.64800 43.55000
C  25.05800 -2.78100 43.03900
C  24.42800 -1.96200 41.86400
C  22.93400 -2.31500 42.01600
C  22.91300 -3.39100 43.10800
C  22.04200 -1.14100 42.43400
C  25.10100 -2.29100 40.47900
C  25.72400 -1.12100 39.65300
H  25.34400 -0.82700 38.18400
N  22.65000 -5.72100 45.02200
C  21.65100 -5.26700 44.14400
C  20.54300 -6.16200 44.15000
C  20.78100 -7.10300 45.16500
C  22.17200 -6.83000 45.60800
C  19.43800 -6.03900 43.11800
C  19.76300 -8.13200 45.56200
O  18.59200 -8.19600 45.11700
C  20.11000 -9.08000 46.62700
N  24.96200 -6.52100 46.78600
C  24.19200 -7.57600 47.00900
C  24.99200 -8.72000 47.81400
C  26.36400 -8.02300 48.12500
C  26.27700 -6.75500 47.24500
C  24.17400 -9.16500 49.11400
C  27.68200 -8.83400 47.93800
C  28.69800 -8.69200 49.06600
N  26.42800 -4.32700 45.54900
C  27.46900 -4.72700 46.35700
C  28.64700 -3.89200 46.15900
C  28.19700 -3.08600 45.01300
C  26.87600 -3.41500 44.68900
C  29.91200 -3.88800 47.03300
C  28.69400 -2.06600 44.10100
O  29.72300 -1.44300 44.07700
C  27.45100 -1.72000 43.14900
C  27.02200 -0.34700 43.36600
O  26.37400 0.12000 44.29100
O  27.50200 0.49500 42.37200
C  27.32100 1.96800 42.54200
H  20.78800 -3.94500 42.84000
H  22.54700 -8.64500 46.81200
H  28.19000 -6.11000 47.76500
H  24.67500 -0.97400 42.25300
H  22.52700 -2.76800 41.11200
H  22.49400 -0.20500 42.10400
H  21.85300 -1.22100 43.50400
H  21.09300 -1.29400 41.91900
H  24.35800 -2.78300 39.85100
H  25.84400 -3.06700 40.65800
H  26.76400 -1.41600 39.51400
H  25.56800 -0.19400 40.20400
H  19.81400 -5.69600 42.15400
H  18.66000 -5.35200 43.44900
H  18.91400 -6.98200 42.96000
H  19.22300 -9.59400 46.99800
H  20.62400 -8.56700 47.44000
H  20.75100 -9.84700 46.19100
H  25.18100 -9.64300 47.26600
H  26.28000 -7.70600 49.16500
H  23.13300 -8.92400 48.89600
H  24.43800 -8.53200 49.96100
H  24.32500 -10.21600 49.36100
H  28.17000 -8.45200 47.04200
H  27.49900 -9.89900 47.79600
H  29.45200 -8.00900 48.67500
H  29.19900 -9.63900 49.26500
H  28.26900 -8.43800 50.03500
H  30.49900 -4.71700 46.63900
H  29.69300 -4.28500 48.02500
H  30.38200 -2.90500 47.03000
H  27.55800 -1.91100 42.08100
H  27.42500 2.29100 43.57800
H  26.35700 2.27000 42.13100
H  28.16500 2.37300 41.98300
Mg -13.31700 15.91000 43.43300
C  -10.00600 14.84900 42.61000
C  -12.52000 18.92800 41.99600
C  -16.57200 16.62200 43.45900
C  -13.90400 12.67500 44.62500
N  -11.35400 16.87500 42.49100
C  -10.20400 16.16400 42.17300
C  -9.24100 17.10200 41.42100
C  -10.11700 18.40300 41.22100
C  -11.41500 18.10600 41.94800
C  -9.49200 19.74500 41.70300
C  -8.79500 16.42100 40.05300
C  -7.24300 16.36900 39.92700
H  -6.66000 15.19800 39.20400
N  -14.37700 17.59300 42.84000
C  -13.81300 18.80600 42.52900
C  -14.86600 19.77400 42.35100
C  -16.11300 19.14100 42.62800
C  -15.77000 17.70100 43.02500
C  -14.63300 21.13500 41.77700
C  -17.41000 19.74000 42.48700
O  -17.61600 20.87100 42.02400
C  -18.65600 18.99300 42.84300
N  -15.01900 14.80700 43.86400
C  -16.26500 15.40000 43.96900
C  -17.28400 14.50900 44.79500
C  -16.33300 13.27500 45.12300
C  -14.94900 13.57600 44.45900
C  -17.85100 15.10700 46.10000
C  -16.82000 11.94500 44.49300
C  -17.73800 11.13700 45.39400
N  -12.23800 14.12000 43.61700
C  -12.56200 12.90600 44.16600
C  -11.40900 12.01000 44.13300
C  -10.39200 12.73600 43.53400
C  -10.90000 13.96800 43.31800
C  -11.39000 10.63400 44.61200
C  -9.00400 12.67800 43.19400
O  -8.24700 11.72300 43.34200
C  -8.70500 14.09800 42.64000
C  -7.76100 14.66400 43.60700
O  -7.91400 15.48400 44.50100
O  -6.47200 14.28100 43.18200
C  -5.43400 15.18900 43.72600
H  -12.25700 19.82900 41.43800
H  -17.65000 16.78500 43.52400
H  -14.20100 11.72700 45.07900
H  -8.42400 17.26700 42.12400
H  -10.30100 18.55400 40.15700
H  -10.06700 20.08100 42.56600
H  -9.34000 20.58300 41.02300
H  -8.43800 19.60600 41.94200
H  -9.17700 17.01600 39.22400
H  -9.15900 15.43000 39.77900
H  -6.84100 16.34600 40.94000
H  -6.90700 17.30500 39.48000
H  -15.10100 21.18700 40.79400
H  -13.58200 21.42600 41.77300
H  -15.25500 21.89900 42.24400
H  -18.90900 18.12000 42.24200
H  -19.49000 19.69500 42.84900
H  -18.54500 18.66400 43.87600
H  -18.01200 14.21700 44.03800
H  -16.17100 13.31900 46.20000
H  -17.28800 15.96900 46.45700
H  -17.95000 14.31200 46.84000
H  -18.86100 15.48000 45.93200
H  -16.00000 11.30000 44.17500
H  -17.27700 12.22300 43.54400
H  -18.61400 10.83400 44.82100
H  -18.16800 11.68900 46.22900
H  -17.37500 10.17600 45.75700
H  -10.53500 10.19500 44.09800
H  -12.33100 10.21100 44.25900
H  -11.39900 10.60800 45.70200
H  -8.24600 14.09500 41.65100
H  -4.46000 14.82100 43.40500
H  -5.39500 15.08000 44.81000
H  -5.53800 16.23500 43.43800

