158

Mg 15.77600 52.08200 25.40200
C  17.41000 50.69800 28.22000
C  13.20100 52.90800 27.42100
C  14.25400 53.22200 22.73700
C  18.25300 50.46100 23.37600
N  15.27500 51.74600 27.60200
C  16.22500 51.39100 28.54500
C  15.65700 51.73300 29.88000
C  14.15600 51.89200 29.63600
C  14.16000 52.23400 28.12500
C  13.39700 50.53700 29.89600
C  16.28100 53.03000 30.62900
C  16.58500 52.99000 32.15800
H  15.44800 52.47100 33.08500
N  13.93500 52.94500 25.15100
C  13.06900 53.20000 26.08700
C  11.87700 53.79900 25.46200
C  12.22000 54.11300 24.11200
C  13.51400 53.39600 23.93000
C  10.48000 54.11300 26.11100
C  11.50000 54.93700 23.04500
O  11.87100 55.02600 21.85900
C  10.19300 55.49000 23.36500
N  16.14700 51.69600 23.28800
C  15.39400 52.41700 22.36500
C  16.06600 52.28500 20.94400
C  17.38400 51.52800 21.24300
C  17.29200 51.23400 22.74200
C  15.13200 51.68100 19.89500
C  18.69000 52.21600 20.77200
C  19.80100 51.32100 20.17500
N  17.47400 50.82500 25.67600
C  18.34200 50.20900 24.78000
C  19.41200 49.59700 25.52600
C  19.05500 49.71600 26.87000
C  17.86300 50.48800 26.94600
C  20.58200 49.01900 25.00900
C  19.46500 49.44600 28.25600
O  20.44600 48.90400 28.74000
C  18.40300 50.10900 29.19300
C  17.85700 49.01900 30.09800
O  16.99100 48.18400 29.96600
O  18.53900 49.25300 31.25700
C  18.03900 48.60700 32.49400
H  12.40000 53.26000 28.07500
H  13.81800 53.79200 21.91400
H  19.12700 50.15700 22.79700
H  15.77300 50.97700 30.65700
H  13.74100 52.77300 30.12500
H  12.38500 50.66400 30.27900
H  13.84800 49.93600 30.68600
H  13.32800 50.06400 28.91700
H  15.69100 53.91000 30.37500
H  17.23100 53.29600 30.16400
H  16.68900 54.04900 32.39700
H  17.49400 52.38900 32.18400
H  10.24800 55.17100 26.23100
H  10.47100 53.63100 27.08900
H  9.61500 53.80800 25.52200
H  10.23700 56.09500 24.27100
H  9.45700 54.69600 23.49200
H  9.96700 56.22700 22.59500
H  16.38500 53.29100 20.67100
H  17.33800 50.51100 20.85400
H  15.24100 50.59600 19.90400
H  15.36700 51.95500 18.86700
H  14.10200 51.79300 20.23200
H  19.14000 52.87200 21.51700
H  18.48100 52.96500 20.00700
H  20.48500 51.15800 21.00800
H  20.30400 51.95600 19.44500
H  19.37300 50.39500 19.79200
H  21.13200 48.28300 25.59500
H  21.23200 49.84300 24.71300
H  20.26200 48.46700 24.12600
H  18.86400 50.90900 29.77200
H  18.09100 49.38900 33.25100
H  18.61600 47.75900 32.86200
H  16.99700 48.31500 32.36600
Mg -5.36100 24.76000 27.02500
C  -3.64200 26.63800 29.43600
C  -6.40000 22.65900 29.54700
C  -6.94500 22.99100 24.73300
C  -4.07500 26.91800 24.56900
N  -5.09300 24.76200 29.22400
C  -4.33400 25.60400 30.03700
C  -4.64200 25.43000 31.57600
C  -5.37000 24.10100 31.51700
C  -5.66000 23.80300 29.98800
C  -4.43700 22.92100 32.05400
C  -5.65800 26.61300 31.90200
C  -5.45100 27.38800 33.27700
H  -4.92400 26.43700 34.32100
N  -6.35800 23.02700 27.11800
C  -6.68000 22.31300 28.19300
C  -7.48400 21.16300 27.87400
C  -7.81800 21.31800 26.51400
C  -6.97100 22.47200 26.02900
C  -7.92400 20.11100 28.82500
C  -8.85200 20.60400 25.66800
O  -9.21200 21.01500 24.55900
C  -9.41800 19.25800 26.12900
N  -5.43800 24.92500 24.91100
C  -6.26300 24.05500 24.23800
C  -6.35200 24.50400 22.78100
C  -5.50900 25.87000 22.72900
C  -5.01000 25.97700 24.14600
C  -5.90500 23.33400 21.83500
C  -6.23300 27.10700 22.22100
C  -5.47900 27.85000 21.07400
N  -4.10000 26.41500 26.99800
C  -3.63700 27.19900 25.89500
C  -2.75500 28.21500 26.34700
C  -2.74300 28.01700 27.73800
C  -3.53100 26.89000 28.05100
C  -2.03600 29.28900 25.59600
C  -2.22900 28.50400 28.97800
O  -1.46700 29.40000 29.25600
C  -2.89200 27.68300 30.12000
C  -1.83900 27.24500 31.07200
O  -0.96900 26.39800 30.89000
O  -2.04600 27.91300 32.21100
C  -1.18400 27.58800 33.32800
H  -6.90800 22.00000 30.25400
H  -7.48200 22.35700 24.02300
H  -3.70300 27.64900 23.84800
H  -3.68500 25.58900 32.07200
H  -6.31300 24.16400 32.05900
H  -3.44500 23.27200 32.33900
H  -4.33700 22.17800 31.26300
H  -4.99100 22.51200 32.89900
H  -6.69800 26.29000 31.93800
H  -5.59700 27.30300 31.06000
H  -6.41300 27.65600 33.71400
H  -4.98200 28.36000 33.12200
H  -9.00400 20.22200 28.93100
H  -7.47900 20.25200 29.80900
H  -7.70000 19.10000 28.48600
H  -9.79600 18.88600 25.17700
H  -10.18200 19.34000 26.90300
H  -8.70400 18.49400 26.43600
H  -7.35300 24.74000 22.42000
H  -4.63900 25.71000 22.09200
H  -6.65200 23.29700 21.04200
H  -5.78500 22.37600 22.34100
H  -5.04100 23.62000 21.23400
H  -6.46800 27.83800 22.99400
H  -7.10900 26.70500 21.71000
H  -4.60800 27.27900 20.75200
H  -5.00600 28.76500 21.43000
H  -6.13000 28.01900 20.21600
H  -2.85300 29.97800 25.38000
H  -1.55300 28.80400 24.74800
H  -1.32200 29.82700 26.21800
H  -3.47700 28.43300 30.65400
H  -0.13900 27.68100 33.03100
H  -1.23800 26.56800 33.71000
H  -1.41700 28.31200 34.10900

