158

Mg 25.11500 1.69800 29.68700
C  27.21600 1.55200 32.49500
C  22.43600 1.68600 31.89800
C  23.15900 1.39400 27.04200
C  27.93400 0.95600 27.65000
N  24.83000 1.79200 31.88900
C  25.89400 1.82500 32.83200
C  25.39400 2.07100 34.20500
C  23.81700 1.91600 34.03400
C  23.63000 1.77200 32.50100
C  23.14500 0.81600 34.93800
C  25.83000 3.41700 34.80800
C  26.66000 3.35900 36.08600
H  26.23500 4.34100 37.29100
N  23.08900 1.66300 29.47800
C  22.20000 1.65700 30.47600
C  20.89800 1.69400 29.86800
C  21.01200 1.53100 28.50100
C  22.44700 1.55600 28.30300
C  19.68900 1.72100 30.76400
C  19.97500 1.19400 27.48800
O  20.25600 0.96400 26.32600
C  18.55400 1.05700 27.76000
N  25.53100 1.09600 27.71800
C  24.50700 1.16300 26.76500
C  25.06500 1.09600 25.32600
C  26.58500 0.87600 25.44900
C  26.71400 1.03600 27.00800
C  24.49700 0.09900 24.26100
C  27.45200 2.01400 24.78600
C  27.29300 3.44400 25.30600
N  27.10600 1.36700 29.94100
C  28.07700 1.12500 29.02100
C  29.35300 1.03500 29.67800
C  29.06100 1.27100 31.06300
C  27.65300 1.35100 31.16200
C  30.66000 0.73900 29.04400
C  29.65900 1.22900 32.41700
O  30.83700 1.00300 32.77700
C  28.45900 1.54100 33.43800
C  28.37700 0.52900 34.52700
O  28.10300 -0.63000 34.31600
O  28.81100 1.06200 35.68500
C  28.77100 0.12400 36.80700
H  21.69200 1.73400 32.69600
H  22.51900 1.43800 26.15900
H  28.77000 0.75000 26.97900
H  25.84300 1.31900 34.85500
H  23.32300 2.82900 34.36700
H  22.82700 0.11600 34.16500
H  22.23000 1.21000 35.38000
H  23.75500 0.33500 35.70300
H  24.94000 3.98100 35.08600
H  26.46600 3.97700 34.12300
H  27.65700 3.68600 35.78800
H  26.72700 2.37700 36.55300
H  19.10700 0.80700 30.64400
H  19.03500 2.55200 30.50200
H  19.89700 1.95500 31.80800
H  18.38600 0.22800 28.44900
H  18.08800 0.75800 26.82100
H  18.11700 1.94000 28.22600
H  24.90400 2.11800 24.98400
H  26.88900 -0.12900 25.15900
H  24.44900 0.65400 23.32400
H  23.49500 -0.27200 24.47700
H  25.11700 -0.79600 24.21000
H  27.01100 2.05800 23.79000
H  28.49100 1.69100 24.71700
H  28.29200 3.81200 25.54000
H  26.63100 3.37900 26.16900
H  26.80100 4.03400 24.53300
H  30.80500 -0.30900 28.78200
H  31.33700 1.07200 29.83100
H  30.91000 1.37300 28.19400
H  28.61200 2.54400 33.83600
H  29.72400 -0.39000 36.93400
H  28.04300 -0.68500 36.75800
H  28.60900 0.69300 37.72200
Mg 26.85400 50.18200 26.32200
C  24.83800 51.37400 28.94400
C  29.38300 49.95500 28.71500
C  28.99100 49.41400 23.97100
C  24.38000 51.09100 24.08100
N  27.05100 50.53300 28.55800
C  26.07600 50.97900 29.41700
C  26.51200 50.87200 30.86500
C  28.07900 50.89000 30.66400
C  28.22700 50.50000 29.18200
C  28.63000 52.27800 30.95100
C  25.78400 49.66000 31.61700
C  24.92500 50.12600 32.81200
H  24.99300 49.18500 34.01900
N  28.87700 49.67600 26.37800
C  29.68800 49.55700 27.45400
C  30.97500 49.08200 26.93600
C  31.01500 49.00600 25.60500
C  29.60300 49.34200 25.23700
C  32.12100 48.86400 27.83900
C  32.18500 48.77300 24.70000
O  32.06900 48.73500 23.45900
C  33.58200 48.47500 25.15900
N  26.68400 50.30500 24.28000
C  27.69000 49.82300 23.53300
C  27.32200 49.80100 22.05400
C  25.85100 50.20300 22.11000
C  25.58900 50.53600 23.55800
C  28.25900 50.66100 21.10600
C  24.87600 49.09000 21.58800
C  23.56400 49.55000 20.91100
N  25.01200 51.15500 26.39800
C  24.12300 51.44800 25.42200
C  22.89300 51.94800 26.02800
C  23.14300 52.05200 27.41700
C  24.48200 51.49600 27.58100
C  21.62800 52.32200 25.31900
C  22.55100 52.32000 28.71600
O  21.39100 52.57300 29.07700
C  23.62700 51.89500 29.75500
C  23.89800 52.98400 30.67500
O  24.61900 53.96200 30.39900
O  23.17000 52.81600 31.80000
C  23.19100 54.00200 32.67400
H  30.05900 49.76600 29.55200
H  29.61200 48.95700 23.19800
H  23.63200 51.49100 23.39400
H  26.17000 51.79000 31.34200
H  28.57100 50.15700 31.30300
H  29.33400 52.37100 31.77800
H  27.83600 53.01300 31.08600
H  29.33700 52.45800 30.14100
H  26.58200 48.96700 31.88400
H  25.12500 49.12700 30.93200
H  23.91900 50.15400 32.39200
H  25.18100 51.16200 33.03500
H  31.72100 48.80400 28.85200
H  32.80000 49.71700 27.83800
H  32.54000 47.88100 27.62500
H  33.90300 49.37700 25.68000
H  34.26700 48.22300 24.35000
H  33.62500 47.53500 25.70800
H  27.29700 48.75600 21.74400
H  25.78600 51.07900 21.46500
H  28.46300 51.57600 21.66200
H  27.66700 50.86500 20.21300
H  29.11700 50.05300 20.81700
H  24.61700 48.40800 22.39800
H  25.33400 48.50600 20.78900
H  23.46600 49.01500 19.96600
H  23.54200 50.63000 20.77000
H  22.75900 49.42500 21.63600
H  20.74300 52.19200 25.94200
H  21.59300 51.94500 24.29700
H  21.62700 53.40000 25.16200
H  23.20100 51.03300 30.26900
H  23.40500 54.94800 32.17600
H  24.04100 53.94000 33.35300
H  22.46600 54.05500 33.48600

