158

Mg 2.15700 -2.49600 44.60300
C  5.14600 -0.95900 43.74500
C  0.44600 -0.11100 42.86800
C  -0.57900 -4.43500 45.02700
C  4.05100 -5.32200 45.71600
N  2.72100 -0.94800 43.17600
C  4.01600 -0.42400 43.09400
C  4.05900 0.80000 42.23700
C  2.50200 1.07500 41.98000
C  1.83600 -0.09100 42.68000
C  2.09400 2.40100 42.44700
C  4.81700 0.81900 40.85600
C  6.01200 1.84500 40.67400
H  6.76600 1.34400 39.50500
N  0.22000 -2.24600 44.11500
C  -0.34800 -1.18300 43.38300
C  -1.78600 -1.35400 43.23000
C  -2.08900 -2.63100 43.84000
C  -0.81700 -3.16700 44.40100
C  -2.60600 -0.45100 42.27600
C  -3.48200 -3.40100 43.79700
O  -4.48700 -2.84700 43.35000
C  -3.62700 -4.75100 44.32900
N  1.73700 -4.55800 45.47100
C  0.50400 -5.09600 45.42800
C  0.50100 -6.50000 46.03800
C  1.99400 -6.81400 46.02600
C  2.65200 -5.50700 45.81000
C  -0.27200 -6.78300 47.35000
C  2.52900 -7.91500 45.00600
C  3.49800 -8.94400 45.64300
N  4.22100 -3.03200 44.89300
C  4.79300 -4.18500 45.33500
C  6.26100 -4.05200 45.19800
C  6.48300 -2.74100 44.62500
C  5.20600 -2.19400 44.46200
C  7.21900 -5.21200 45.53800
C  7.45700 -1.81400 44.20500
O  8.66900 -1.87500 44.26300
C  6.61500 -0.56600 43.71700
C  7.10200 0.37700 44.77300
O  7.02800 0.15000 45.97400
O  7.25300 1.60600 44.18700
C  7.59400 2.62300 45.23400
H  -0.06900 0.76800 42.47600
H  -1.44500 -5.07400 45.21300
H  4.59400 -6.24100 45.95000
H  4.43100 1.56600 42.91700
H  2.30600 0.91800 40.91900
H  2.89800 3.13700 42.44800
H  1.72600 2.38600 43.47300
H  1.23100 2.81000 41.92300
H  4.10300 1.13800 40.09700
H  5.16100 -0.17900 40.58400
H  6.65400 1.82800 41.55500
H  5.66100 2.85300 40.45400
H  -2.80400 -1.04900 41.38600
H  -2.13600 0.51100 42.07200
H  -3.61100 -0.28200 42.66200
H  -4.63100 -5.09200 44.07700
H  -3.57300 -4.70600 45.41600
H  -2.92200 -5.47200 43.91400
H  0.06500 -7.10900 45.24500
H  2.22100 -7.05500 47.06400
H  0.41300 -7.02700 48.16200
H  -1.02800 -7.56600 47.29200
H  -0.70600 -5.82500 47.63500
H  3.02400 -7.41100 44.17600
H  1.70700 -8.41900 44.49900
H  3.39200 -9.99600 45.37500
H  3.51200 -8.96800 46.73300
H  4.48200 -8.63900 45.28800
H  8.21600 -5.02700 45.13800
H  6.92200 -6.14100 45.05200
H  7.15600 -5.22100 46.62600
H  6.99300 -0.23600 42.74900
H  6.96200 3.50400 45.35100
H  8.53300 3.08400 44.93000
H  7.85500 2.21100 46.20900
Mg 26.93600 50.64800 26.76100
C  24.94300 51.72600 29.36900
C  29.40700 49.73300 29.18100
C  29.06500 49.83000 24.23700
C  24.67000 51.86800 24.46100
N  27.17600 50.83600 28.98000
C  26.16600 51.21800 29.82200
C  26.56600 50.88300 31.30200
C  28.06600 50.31800 31.24700
C  28.23800 50.31000 29.69000
C  29.11200 51.21600 31.92000
C  25.64200 49.84800 31.78800
C  25.04400 50.10500 33.15700
H  25.87300 50.57900 34.40900
N  28.93900 49.84700 26.69100
C  29.72700 49.54900 27.76100
C  31.04300 48.95700 27.29600
C  31.05100 49.18500 25.84800
C  29.65500 49.64300 25.51800
C  32.10900 48.36000 28.24300
C  32.13700 48.88600 24.87500
O  32.08700 49.21900 23.73000
C  33.35800 48.21600 25.40500
N  26.86400 50.63200 24.67300
C  27.81400 50.25800 23.84000
C  27.43100 50.41000 22.32500
C  26.04400 51.02900 22.44300
C  25.86300 51.23700 23.95800
C  28.46200 51.22100 21.48100
C  24.90700 50.16900 21.76000
C  24.08900 49.11900 22.64400
N  25.15800 51.52500 26.86200
C  24.33600 51.98000 25.81900
C  23.19000 52.56900 26.38200
C  23.32200 52.42600 27.79600
C  24.59100 51.82000 28.03900
C  21.93600 53.14100 25.64300
C  22.73600 52.76500 29.08300
O  21.69900 53.37700 29.30000
C  23.71300 52.22800 30.11500
C  24.03000 53.36700 31.11800
O  24.91400 54.20000 30.92400
O  23.25300 53.18200 32.20900
C  23.41900 54.18200 33.23900
H  30.03200 49.21200 29.90900
H  29.70300 49.45600 23.43400
H  23.96300 52.23100 23.71200
H  26.46200 51.81300 31.86100
H  28.17700 49.30200 31.62800
H  28.62600 52.12300 32.28000
H  29.67100 51.55900 31.05000
H  29.76400 50.84200 32.71100
H  26.05600 48.86500 32.01400
H  24.85800 49.71200 31.04200
H  24.57200 49.18000 33.48500
H  24.24900 50.82400 32.95600
H  32.18700 47.27600 28.16200
H  31.90100 48.55500 29.29600
H  33.14500 48.68900 28.16100
H  33.06900 47.36600 26.02200
H  33.97300 48.96700 25.90000
H  33.90400 47.98000 24.49200
H  27.36600 49.37300 21.99500
H  25.99400 52.01800 21.98700
H  28.75100 50.65800 20.59400
H  29.26800 51.69700 22.04100
H  27.97400 52.04800 20.96500
H  25.29700 49.57400 20.93500
H  24.26100 50.94500 21.34900
H  23.03800 49.40900 22.64300
H  24.42900 49.03900 23.67700
H  24.25200 48.14200 22.19100
H  21.69500 52.57700 24.74200
H  22.20500 54.16100 25.36900
H  21.16200 53.03200 26.40300
H  23.20300 51.43200 30.65700
H  23.72700 53.70500 34.17000
H  22.43300 54.58900 33.46000
H  24.23700 54.88700 33.08800

