158

Mg -2.23200 17.87400 27.34500
C  -2.61500 15.56900 30.17200
C  -2.33300 20.25300 29.61300
C  -2.24600 19.78800 24.80200
C  -2.96100 15.01300 25.26700
N  -2.62000 17.88500 29.62600
C  -2.52900 16.90700 30.59100
C  -2.52500 17.48900 32.03300
C  -2.83800 18.96500 31.71100
C  -2.63600 19.04600 30.17000
C  -4.19800 19.53300 32.03700
C  -1.20800 17.19900 32.83100
C  -0.87300 18.11300 34.02600
H  -0.60300 17.43700 35.35200
N  -2.09500 19.78100 27.26200
C  -2.07500 20.64300 28.27300
C  -1.84000 21.93200 27.68700
C  -1.62300 21.78500 26.26200
C  -2.01700 20.39100 26.08000
C  -1.95300 23.21000 28.51500
C  -1.31900 22.80100 25.20700
O  -1.22200 22.55900 24.01900
C  -0.99800 24.23300 25.66600
N  -2.46900 17.40100 25.36500
C  -2.50600 18.46100 24.48300
C  -2.83100 17.94800 23.02800
C  -2.98900 16.48200 23.24600
C  -2.78000 16.29900 24.71700
C  -3.92400 18.69800 22.41100
C  -2.12300 15.59100 22.32700
C  -0.65000 15.43200 22.67200
N  -2.67300 15.68900 27.56600
C  -2.94100 14.70900 26.65700
C  -2.90700 13.43200 27.28600
C  -2.91600 13.72300 28.64400
C  -2.77000 15.12000 28.83600
C  -2.80800 12.11400 26.65400
C  -2.90000 13.15800 29.98800
O  -2.89700 11.92200 30.25900
C  -2.81100 14.38900 30.99500
C  -1.70000 14.07100 31.91800
O  -0.51400 14.18400 31.72700
O  -2.29800 13.45700 33.07800
C  -1.34600 13.32600 34.19000
H  -2.11100 21.11500 30.24600
H  -2.24800 20.56300 24.03300
H  -3.21900 14.14400 24.65800
H  -3.32900 16.94700 32.53000
H  -2.30100 19.75500 32.23600
H  -4.91800 19.61100 31.22200
H  -4.24600 20.40600 32.68800
H  -4.63900 18.74100 32.64200
H  -0.37700 17.21600 32.12600
H  -1.47400 16.23900 33.27400
H  -1.74600 18.75600 34.14200
H  -0.01000 18.73700 33.79300
H  -2.29300 23.05000 29.53800
H  -2.57100 23.93400 27.98400
H  -1.02200 23.77500 28.46800
H  -0.34100 24.19500 26.53500
H  -1.95200 24.74600 25.78900
H  -0.57200 24.74500 24.80300
H  -1.94900 18.12600 22.41300
H  -4.03100 16.16600 23.19200
H  -3.71000 19.76700 22.41200
H  -4.97000 18.56000 22.68400
H  -3.92500 18.59600 21.32600
H  -2.13300 15.99200 21.31300
H  -2.69000 14.66200 22.27400
H  -0.42000 15.83300 23.65900
H  -0.06800 15.95000 21.91000
H  -0.27000 14.41200 22.71900
H  -2.20500 11.50300 27.32600
H  -2.37600 12.15500 25.65400
H  -3.82000 11.73800 26.50200
H  -3.81700 14.51900 31.39500
H  -1.89800 13.37300 35.12800
H  -0.63900 14.15600 34.18000
H  -0.89100 12.34700 34.03900
Mg 0.07500 8.43700 26.82000
C  0.79600 10.51200 29.61100
C  0.64400 5.70300 28.83300
C  -0.13900 6.54600 24.08500
C  0.08300 11.40600 24.93500
N  0.48500 8.21900 28.95100
C  0.56200 9.10500 29.97100
C  0.65900 8.51600 31.32500
C  0.95200 6.98500 31.03700
C  0.72500 6.95100 29.50300
C  2.36300 6.49900 31.27600
C  -0.72200 8.78000 31.93200
C  -0.90900 8.59400 33.47400
H  0.16700 8.25500 34.44300
N  0.12200 6.36600 26.54500
C  0.36400 5.41800 27.45000
C  0.32700 4.09700 26.83500
C  0.07300 4.34100 25.46000
C  0.11500 5.82600 25.26100
C  0.49100 2.87200 27.64200
C  -0.11700 3.32100 24.38700
O  -0.23300 3.79800 23.23700
C  -0.21400 1.78200 24.60400
N  0.20800 8.89100 24.87800
C  -0.14300 7.94900 23.92800
C  -0.28900 8.61600 22.54700
C  -0.56400 10.09400 22.88800
C  0.02300 10.14000 24.27800
C  0.87500 8.46800 21.57100
C  -2.04400 10.59300 22.92500
C  -2.45800 11.37900 21.65100
N  0.38400 10.50600 27.17000
C  0.40800 11.60300 26.27500
C  0.72900 12.85800 26.88600
C  0.90300 12.42300 28.22400
C  0.62500 11.07400 28.34100
C  0.94300 14.28800 26.25100
C  1.31800 12.87700 29.54000
O  1.73200 14.00100 29.83100
C  1.10600 11.67500 30.52100
C  2.37900 11.52800 31.27600
O  3.45500 11.00600 30.94100
O  2.13500 12.17000 32.45300
C  3.21100 12.06400 33.53500
H  0.97200 4.91900 29.51800
H  -0.35500 5.97700 23.17800
H  -0.04300 12.23700 24.23700
H  1.46200 9.00200 31.88000
H  0.14800 6.42200 31.51100
H  2.25300 5.63300 31.93000
H  2.94400 7.32400 31.68700
H  2.85800 6.11900 30.38300
H  -1.51900 8.30200 31.36300
H  -0.85400 9.85800 31.84100
H  -1.69400 7.85600 33.63500
H  -1.27100 9.55800 33.83300
H  0.98500 3.02000 28.60200
H  1.13800 2.19600 27.08100
H  -0.48700 2.42200 27.80900
H  0.81900 1.48400 24.78500
H  -0.44600 1.38500 23.61700
H  -1.05300 1.58200 25.27100
H  -1.22200 8.27700 22.09700
H  0.06400 10.72700 22.26000
H  1.22900 7.43700 21.55000
H  1.74200 9.03300 21.91100
H  0.55100 8.70600 20.55800
H  -2.34300 11.16200 23.80600
H  -2.58800 9.65700 23.05600
H  -1.66100 11.50700 20.91900
H  -2.74200 12.35400 22.04800
H  -3.26900 10.88200 21.11800
H  1.37700 14.95200 26.99900
H  0.06000 14.76100 25.82100
H  1.74600 14.24000 25.51600
H  0.31700 12.00700 31.19500
H  3.60800 13.04900 33.78100
H  4.00600 11.38200 33.23200
H  2.69300 11.68500 34.41600

