158

Mg 47.42600 16.34100 28.70000
C  45.19800 16.18200 31.59600
C  49.55500 18.25300 30.63400
C  49.06900 17.02700 25.98100
C  44.74400 15.01400 26.82900
N  47.43500 16.98100 30.99400
C  46.39900 16.94500 31.88100
C  46.80600 17.55400 33.27000
C  48.14900 18.35800 32.88400
C  48.44600 17.84600 31.44900
C  47.98400 19.94000 32.99600
C  47.11400 16.45700 34.28500
C  46.65000 16.64800 35.70300
H  46.51300 18.12900 36.22800
N  49.26000 17.26500 28.42000
C  49.94300 18.02600 29.29200
C  51.16000 18.47100 28.67000
C  51.00800 18.09800 27.28500
C  49.75800 17.38500 27.18700
C  52.30400 19.16300 29.41200
C  51.95200 18.28400 26.04200
O  51.73700 17.81800 24.94800
C  53.24900 19.04400 26.30900
N  46.99900 15.95500 26.74200
C  47.82000 16.45300 25.77100
C  47.10700 16.41600 24.39500
C  45.94900 15.37800 24.67000
C  45.86800 15.44800 26.17800
C  46.49300 17.79500 23.92400
C  46.22600 13.86900 24.12100
C  45.00400 13.15400 23.55400
N  45.38600 15.57400 29.07900
C  44.44900 15.06600 28.23000
C  43.37900 14.48200 28.97800
C  43.61400 14.88100 30.29900
C  44.81800 15.65500 30.28300
C  42.37900 13.52500 28.40800
C  43.10100 14.76600 31.61800
O  42.10900 14.18100 32.09700
C  44.12100 15.65700 32.52800
C  43.32800 16.67600 33.38800
O  42.86100 17.71900 32.96500
O  43.34200 16.29000 34.67100
C  42.77700 17.37500 35.60400
H  50.24200 18.89400 31.19100
H  49.59100 17.32200 25.06900
H  44.04000 14.46300 26.20100
H  46.03000 18.21100 33.66400
H  48.99600 18.00700 33.47300
H  48.36700 20.28500 32.03600
H  48.53200 20.31500 33.86100
H  46.97100 20.27600 33.21900
H  48.15400 16.14200 34.18800
H  46.56500 15.64600 33.80600
H  47.12400 15.88400 36.31900
H  45.62000 16.29100 35.71000
H  52.22800 19.08200 30.49600
H  52.19100 20.22500 29.19200
H  53.23400 18.76600 29.00400
H  53.08200 19.89700 26.96700
H  53.51200 19.46800 25.34000
H  54.08400 18.39400 26.57000
H  47.82200 16.06100 23.65300
H  45.01000 15.72500 24.24100
H  46.85700 18.48800 24.68300
H  45.41100 17.77500 23.78800
H  47.03500 18.00700 23.00300
H  46.51700 13.23800 24.96100
H  47.00400 13.99400 23.36800
H  45.19100 12.10800 23.79800
H  45.04900 13.25800 22.47000
H  44.05800 13.47200 23.99100
H  42.72400 12.49300 28.33800
H  42.12100 13.94500 27.43600
H  41.46300 13.58800 28.99700
H  44.53100 14.91800 33.21600
H  41.70800 17.18200 35.69300
H  42.88400 18.36200 35.15300
H  43.31700 17.21900 36.53800
Mg 26.70200 50.85300 25.86900
C  24.94200 52.09000 28.69900
C  29.27400 50.24400 28.00900
C  28.34500 49.73600 23.23000
C  24.21500 52.21300 23.91700
N  27.03400 51.18600 28.08600
C  26.17900 51.50800 29.03900
C  26.71000 51.33500 30.49400
C  28.19200 51.06800 30.24200
C  28.18600 50.74500 28.65300
C  29.16000 52.20600 30.72200
C  25.89700 50.26900 31.24900
C  25.36100 50.61200 32.61600
H  26.43200 51.05700 33.63900
N  28.58700 50.17900 25.68400
C  29.51900 50.01100 26.64100
C  30.64600 49.41300 26.03500
C  30.39700 48.97800 24.70900
C  29.12500 49.66200 24.49200
C  31.84500 49.12800 26.88500
C  31.21200 48.14500 23.74300
O  30.88900 47.91200 22.58400
C  32.48700 47.48100 24.18100
N  26.36400 50.97300 23.81600
C  27.15700 50.32300 22.93300
C  26.44700 50.30100 21.52300
C  25.15600 51.18500 21.79800
C  25.21700 51.47700 23.23400
C  27.39800 50.72800 20.37500
C  23.74300 50.45400 21.44400
C  22.56900 51.34100 20.97900
N  25.00000 51.91300 26.18200
C  24.04300 52.36700 25.28500
C  23.00600 53.08100 25.92700
C  23.29200 52.99100 27.28400
C  24.51200 52.29300 27.37600
C  21.91300 53.80600 25.28500
C  22.84700 53.31700 28.55200
O  21.81300 53.93400 28.86700
C  23.92400 52.78800 29.55800
C  24.43400 53.82500 30.54300
O  25.23600 54.72000 30.30100
O  23.93500 53.59400 31.80400
C  24.32300 54.57900 32.85700
H  30.03800 50.08200 28.77200
H  28.96100 49.25200 22.46900
H  23.47100 52.67400 23.26500
H  26.52600 52.25600 31.04700
H  28.38500 50.11700 30.73700
H  28.77500 53.21800 30.59500
H  30.04500 52.14400 30.08800
H  29.49700 52.12900 31.75500
H  26.53100 49.38900 31.36200
H  25.08500 49.91400 30.61400
H  24.91200 49.67400 32.94400
H  24.52300 51.30700 32.67400
H  31.89500 49.75100 27.77700
H  32.78000 49.40700 26.39900
H  31.88600 48.10000 27.24600
H  33.02900 48.31800 24.62200
H  32.98400 47.06800 23.30400
H  32.30200 46.64000 24.84800
H  26.10400 49.31700 21.20300
H  25.22100 52.12600 21.25000
H  28.32200 51.06400 20.84500
H  26.90600 51.48200 19.76000
H  27.62300 49.89800 19.70600
H  23.36400 49.93700 22.32600
H  23.88800 49.74300 20.63100
H  22.15600 50.93200 20.05700
H  22.77200 52.41200 20.98900
H  21.64400 51.30900 21.55400
H  21.39700 53.24500 24.50700
H  22.30800 54.74000 24.88500
H  21.15100 53.96600 26.04900
H  23.34900 52.12900 30.20900
H  24.24700 55.60800 32.50600
H  25.31500 54.33200 33.23400
H  23.63500 54.52600 33.70000

