158

Mg 40.79300 8.98700 28.11100
C  42.36200 10.41000 30.80200
C  38.28300 7.92900 30.21600
C  39.46400 7.32700 25.51800
C  43.39500 10.04100 26.01700
N  40.48100 9.04600 30.26800
C  41.20700 9.81000 31.19400
C  40.57600 9.72200 32.60300
C  39.29200 8.93100 32.34000
C  39.30000 8.66600 30.83500
C  39.08700 7.63100 33.14900
C  40.26100 11.10400 33.25300
C  39.78500 11.02000 34.69900
H  40.65000 11.56700 35.85200
N  39.05000 7.76300 27.87500
C  38.25600 7.38400 28.91300
C  37.16500 6.59600 28.34400
C  37.45700 6.43000 26.93300
C  38.73300 7.13900 26.68200
C  36.08500 6.00000 29.17600
C  36.62900 5.78100 25.80500
O  37.09900 5.67700 24.65600
C  35.29200 5.32300 26.04800
N  41.48000 8.58400 26.17200
C  40.60800 8.00000 25.25700
C  41.16500 7.96600 23.80400
C  42.30800 9.00200 24.00600
C  42.44200 9.23300 25.45500
C  41.57900 6.57400 23.24900
C  42.09600 10.27200 23.10000
C  41.26800 11.36000 23.78300
N  42.56300 9.90700 28.27900
C  43.59300 10.32100 27.36200
C  44.64100 11.05200 28.04600
C  44.17600 10.95900 29.34400
C  42.88300 10.35400 29.49100
C  45.84300 11.64100 27.38800
C  44.52000 11.49500 30.65000
O  45.52000 12.09800 31.03000
C  43.38200 11.12600 31.64800
C  44.00000 10.32300 32.74100
O  44.10100 9.09500 32.89600
O  44.41500 11.11800 33.70100
C  44.90500 10.57800 35.03400
H  37.51400 7.62600 30.93000
H  39.23200 6.67700 24.67100
H  44.23900 10.39200 25.41800
H  41.29100 9.18400 33.22500
H  38.36300 9.47800 32.50100
H  38.90600 6.75100 32.53100
H  38.32300 7.67500 33.92500
H  40.04600 7.31400 33.55900
H  39.56700 11.62700 32.59500
H  41.23500 11.59300 33.28400
H  39.65500 9.94700 34.83600
H  38.89900 11.64400 34.80900
H  35.99500 4.91600 29.12000
H  35.15300 6.49200 28.89800
H  36.14500 6.23800 30.23800
H  35.58800 4.67500 26.87300
H  34.83000 4.80200 25.21000
H  34.74400 6.24400 26.24600
H  40.43100 8.42900 23.14400
H  43.24400 8.52700 23.71400
H  40.91800 6.26000 22.44100
H  41.54100 5.86300 24.07400
H  42.62200 6.50900 22.93700
H  41.72100 9.92000 22.13900
H  43.10600 10.67800 23.04500
H  41.94000 12.09100 24.23000
H  40.58100 10.87000 24.47300
H  40.69500 11.75900 22.94500
H  46.53100 11.99500 28.15500
H  45.52400 12.57200 26.91700
H  46.32500 10.89500 26.75600
H  42.94800 12.03500 32.06500
H  44.75300 9.50000 35.08700
H  44.30200 11.03300 35.82000
H  45.95300 10.85700 35.14000
Mg 47.95800 45.53600 43.52600
C  44.34600 45.37400 43.03300
C  47.89500 42.14300 42.78600
C  51.11900 45.81400 43.10900
C  47.43200 49.06200 43.89100
N  46.24700 44.00300 42.85400
C  44.94000 44.15700 42.62000
C  44.31500 42.96200 41.95200
C  45.39400 41.85200 42.23600
C  46.63200 42.68700 42.67900
C  44.95600 40.77500 43.21900
C  43.87500 43.21700 40.48500
C  42.64800 42.56100 39.95500
H  42.64400 41.69100 38.68800
N  49.34700 44.14700 43.07900
C  49.15100 42.80900 42.91200
C  50.51800 42.22100 42.82400
C  51.48200 43.26900 42.65500
C  50.70400 44.47200 42.96400
C  50.70900 40.69900 42.88600
C  52.92600 43.07700 42.22500
O  53.33400 41.91100 42.06300
C  53.84100 44.20200 42.01300
N  49.01600 47.28000 43.14400
C  50.34300 47.06300 43.29800
C  51.06200 48.39600 43.58300
C  49.87700 49.33600 44.00100
C  48.66700 48.53300 43.68100
C  52.28400 48.27200 44.53700
C  49.82200 50.64600 43.23300
C  49.22800 51.84900 43.92300
N  46.24100 46.94600 43.64000
C  46.23700 48.29300 43.83100
C  44.89700 48.77500 43.97500
C  44.15400 47.65900 43.67500
C  44.98600 46.59100 43.41300
C  44.41900 50.21200 44.33100
C  42.78700 47.21200 43.41300
O  41.74200 47.81900 43.45100
C  42.88800 45.77100 42.99900
C  42.08800 45.06500 44.14800
O  41.20100 44.27000 43.92900
O  42.54900 45.32000 45.40000
C  41.97500 44.55200 46.52100
H  48.08400 41.08500 42.59300
H  52.18400 45.98500 42.94000
H  47.45800 50.13200 44.10900
H  43.39100 42.62700 42.42300
H  45.72100 41.36100 41.31900
H  45.62100 40.66400 44.07600
H  44.90100 39.80300 42.72900
H  43.95400 41.01200 43.57700
H  44.69800 42.90100 39.84400
H  43.89000 44.29400 40.32100
H  41.92300 43.37500 39.96300
H  42.30700 41.83200 40.69100
H  51.05800 40.51900 41.86900
H  49.80400 40.11800 43.06200
H  51.42400 40.42300 43.66200
H  53.41300 45.00900 41.41900
H  54.77500 43.88300 41.55000
H  54.07900 44.61300 42.99400
H  51.52400 48.82500 42.69400
H  49.81600 49.60300 45.05600
H  52.36200 47.31400 45.05000
H  52.21700 48.97400 45.36900
H  53.25600 48.54000 44.12400
H  49.31900 50.59400 42.26700
H  50.82300 51.00500 42.99800
H  49.92700 52.68300 43.98300
H  48.86800 51.63200 44.92900
H  48.36200 52.19700 43.36000
H  43.76600 50.65900 43.58200
H  45.30800 50.84200 44.31400
H  43.93900 50.15100 45.30800
H  42.41100 45.55300 42.04400
H  40.88600 44.57900 46.56100
H  42.37300 44.95700 47.45100
H  42.18300 43.48700 46.42200

