158

Mg -1.63400 17.24800 27.33700
C  -2.27900 14.83300 29.80600
C  -2.44300 19.71200 29.60200
C  -1.55900 19.47600 24.86800
C  -1.70900 14.65000 25.00400
N  -2.31900 17.21000 29.49000
C  -2.36500 16.15700 30.33600
C  -2.58700 16.67400 31.71400
C  -2.79300 18.20200 31.59200
C  -2.50000 18.44300 30.12100
C  -4.21700 18.77500 32.04600
C  -1.45800 16.36700 32.77900
C  -1.39100 17.15600 34.16300
H  -0.66500 16.55800 35.30700
N  -1.85500 19.39000 27.30400
C  -2.10200 20.19800 28.30100
C  -2.04700 21.55700 27.90100
C  -1.89800 21.56200 26.49800
C  -1.77200 20.11800 26.16200
C  -2.19800 22.71800 28.84100
C  -1.82600 22.68900 25.52200
O  -1.72800 22.53800 24.30900
C  -2.01700 24.07600 25.91600
N  -1.57600 17.06700 25.27100
C  -1.45600 18.13800 24.44900
C  -1.13100 17.78700 23.03000
C  -1.11400 16.20800 23.05800
C  -1.48200 15.93100 24.54100
C  -2.17700 18.34600 22.07400
C  0.18100 15.54000 22.54600
C  1.41000 15.92400 23.42600
N  -1.93200 15.19400 27.33800
C  -1.91200 14.22500 26.29900
C  -2.06700 12.93500 26.86200
C  -2.24600 13.14800 28.21800
C  -2.17700 14.54100 28.46300
C  -2.16700 11.66400 26.08700
C  -2.48500 12.44600 29.46300
O  -2.61700 11.23700 29.76800
C  -2.44200 13.53200 30.57100
C  -1.23600 13.26800 31.48900
O  -0.08200 13.53300 31.21700
O  -1.61900 12.70000 32.62800
C  -0.59400 12.52300 33.65500
H  -2.69600 20.42900 30.38600
H  -1.33200 20.08400 23.99000
H  -1.67800 13.84200 24.27100
H  -3.54400 16.39400 32.15600
H  -1.95100 18.70900 32.06300
H  -4.99300 18.08400 32.37400
H  -4.60400 19.28900 31.16600
H  -4.04700 19.48500 32.85500
H  -0.46800 16.26800 32.33400
H  -1.78000 15.40100 33.16800
H  -2.36600 17.44300 34.55600
H  -0.70500 17.96000 33.89500
H  -2.81800 23.48800 28.38200
H  -1.23300 23.13500 29.13000
H  -2.59800 22.38000 29.79700
H  -1.66000 24.26000 26.92900
H  -3.10000 24.17200 25.99200
H  -1.65700 24.82700 25.21300
H  -0.13400 18.14500 22.77600
H  -2.01100 15.82300 22.57400
H  -1.91000 19.35000 21.74600
H  -3.14300 18.42300 22.57300
H  -2.23500 17.58800 21.29300
H  0.39200 15.86300 21.52600
H  -0.00600 14.46600 22.55800
H  2.06100 16.67200 22.97300
H  1.98900 15.01800 23.60700
H  1.06100 16.34200 24.37000
H  -1.73300 10.90600 26.73800
H  -1.60800 11.70400 25.15200
H  -3.23500 11.47300 25.98000
H  -3.39500 13.65000 31.08700
H  0.12100 11.79000 33.28400
H  -0.90600 12.12900 34.62200
H  0.01700 13.42500 33.70800
Mg 47.12600 16.31900 28.26800
C  44.95300 15.80400 30.89600
C  49.21500 18.02800 30.25000
C  48.98300 17.08200 25.56900
C  44.75200 14.74100 26.13400
N  47.02300 16.81300 30.41500
C  46.14600 16.44900 31.33800
C  46.55400 16.83800 32.68500
C  47.79500 17.79500 32.40100
C  48.07400 17.52900 30.89900
C  47.68700 19.24700 32.81700
C  46.71900 15.52900 33.51700
C  47.76500 15.73200 34.59700
H  47.86400 17.00600 35.47900
N  48.96900 17.28100 27.96500
C  49.63300 17.93300 28.94100
C  50.93500 18.39900 28.41200
C  50.86900 18.18200 26.99400
C  49.54600 17.54500 26.77800
C  52.02700 19.09800 29.34300
C  51.79000 18.62500 25.93100
O  51.52000 18.49500 24.73100
C  53.09300 19.17700 26.36100
N  46.77200 16.07900 26.18200
C  47.78800 16.40700 25.31700
C  47.41200 15.98400 23.86200
C  46.13200 15.13100 24.12100
C  45.92000 15.30700 25.53700
C  47.24800 17.17500 22.86100
C  46.04300 13.69900 23.56000
C  44.82800 13.34800 22.55100
N  45.17300 15.51300 28.40900
C  44.35300 14.89700 27.43100
C  43.25100 14.25000 28.17100
C  43.42900 14.67000 29.45200
C  44.64600 15.35700 29.56400
C  42.13600 13.41900 27.54300
C  42.83200 14.66000 30.74400
O  41.84700 14.08800 31.20300
C  43.84600 15.25200 31.72000
C  43.13000 16.29100 32.57300
O  42.71700 17.33000 32.14100
O  43.01500 15.86300 33.87800
C  42.42100 16.74800 34.90400
H  49.83800 18.41400 31.05900
H  49.64900 17.24200 24.71800
H  43.98600 14.26500 25.51700
H  45.71600 17.41800 33.07200
H  48.67300 17.48300 32.96700
H  47.61400 19.93300 31.97300
H  48.65500 19.50000 33.24900
H  46.80200 19.46000 33.41800
H  47.08100 14.79700 32.79600
H  45.83700 15.11300 34.00500
H  48.77800 15.59900 34.21800
H  47.59200 14.91600 35.29800
H  53.05700 18.77200 29.20700
H  51.74600 18.68900 30.31300
H  52.02100 20.18500 29.25600
H  53.05700 20.16800 26.81300
H  53.61200 19.44700 25.44100
H  53.66200 18.36700 26.81800
H  48.09300 15.25300 23.42600
H  45.29500 15.68400 23.69400
H  47.58800 18.05700 23.40400
H  46.26500 17.22800 22.39300
H  47.94100 16.94000 22.05300
H  46.10700 12.93000 24.33100
H  46.91600 13.51400 22.93400
H  44.25600 14.25700 22.36400
H  44.29300 12.49900 22.97400
H  45.33100 13.08600 21.62000
H  42.16900 13.32800 26.45700
H  41.24800 13.97500 27.84500
H  41.90800 12.48000 28.04700
H  44.29000 14.43800 32.29200
H  41.48400 17.08700 34.46300
H  43.19200 17.50300 35.05900
H  42.40900 16.13400 35.80500

