158

Mg -1.99300 17.21300 26.46400
C  -2.20200 14.92700 29.08600
C  -2.87100 19.69100 28.63400
C  -2.10000 19.35800 23.88800
C  -1.67800 14.54200 24.19900
N  -2.63000 17.27200 28.62900
C  -2.51500 16.27000 29.53300
C  -2.54600 16.81100 30.96600
C  -3.02300 18.34600 30.70100
C  -2.89400 18.49000 29.23100
C  -4.43000 18.66900 31.23400
C  -1.14900 16.63400 31.64600
C  -1.02200 17.50600 32.95900
H  -1.09100 16.70800 34.29700
N  -2.30600 19.28700 26.37800
C  -2.63500 20.11500 27.30100
C  -2.56700 21.46200 26.88600
C  -2.45100 21.41300 25.45000
C  -2.29200 19.94900 25.19200
C  -2.65200 22.68500 27.68700
C  -2.38100 22.47200 24.39700
O  -2.34500 22.22200 23.19800
C  -2.34000 23.96200 24.82900
N  -1.99800 16.90600 24.34400
C  -2.00500 18.04000 23.51100
C  -1.95600 17.59600 21.99200
C  -1.49600 16.02900 22.20500
C  -1.64300 15.81600 23.72400
C  -3.37000 17.77700 21.36000
C  -0.07700 15.87300 21.66500
C  1.10900 16.45800 22.45500
N  -2.01700 15.18800 26.61700
C  -1.84800 14.21700 25.57400
C  -1.96100 12.87500 26.09300
C  -2.04500 13.11600 27.51100
C  -2.07200 14.55600 27.72700
C  -1.82900 11.68200 25.27000
C  -2.13900 12.44000 28.82800
O  -2.06500 11.21900 29.16900
C  -2.30200 13.64300 29.95700
C  -1.31200 13.35300 30.94400
O  -0.09100 13.42800 30.83600
O  -1.91800 12.84500 32.06200
C  -1.04800 12.54700 33.19600
H  -3.05900 20.47500 29.37000
H  -2.07300 19.91200 22.94800
H  -1.41800 13.78500 23.45600
H  -3.28100 16.29500 31.58300
H  -2.25300 19.05200 31.01200
H  -4.41700 19.16200 32.20700
H  -4.99700 17.80100 31.56900
H  -4.99600 19.36300 30.61200
H  -0.42600 16.95600 30.89500
H  -0.90700 15.60800 31.92200
H  -1.93500 18.07200 33.14600
H  -0.18700 18.20500 33.00700
H  -2.50000 22.51800 28.75400
H  -3.63000 23.16000 27.62400
H  -1.83600 23.35100 27.40600
H  -1.44800 24.13300 25.43200
H  -3.28100 24.15900 25.34300
H  -2.07900 24.58600 23.97500
H  -1.17600 18.08400 21.40800
H  -2.16500 15.46800 21.55200
H  -3.28900 18.43900 20.49800
H  -4.01100 18.27100 22.09000
H  -3.79600 16.81700 21.06800
H  0.08300 16.22200 20.64500
H  0.00300 14.79000 21.57200
H  1.76000 17.02000 21.78600
H  1.78300 15.72200 22.89400
H  0.78300 17.15000 23.23200
H  -1.30100 11.85600 24.33200
H  -2.89000 11.49100 25.10600
H  -1.31600 10.92400 25.86200
H  -3.30700 13.41900 30.31400
H  -1.65900 12.04700 33.94800
H  -0.83100 13.54700 33.57200
H  -0.10200 12.03100 33.02800
Mg 16.24400 51.50700 26.02800
C  18.34600 50.48400 28.62800
C  13.72200 52.06800 28.45300
C  14.18300 52.38300 23.47900
C  18.63000 50.61600 23.67700
N  16.03400 51.33900 28.25700
C  17.12500 51.10300 29.09100
C  16.72300 51.33200 30.59200
C  15.19000 51.47100 30.47100
C  14.96300 51.63000 28.97100
C  14.39300 50.23000 30.94100
C  17.47000 52.54300 31.15900
C  17.34400 52.82000 32.72000
H  16.37600 51.90400 33.54400
N  14.22900 52.02800 25.94100
C  13.40100 52.30100 27.04100
C  12.05900 52.52500 26.50000
C  12.10800 52.47900 25.03300
C  13.54700 52.23500 24.73800
C  10.79400 52.73300 27.26400
C  11.01100 52.56000 23.93900
O  11.32500 52.52800 22.75500
C  9.59600 52.71300 24.29400
N  16.37300 51.70400 23.97700
C  15.44700 52.19400 23.11600
C  16.00500 52.26600 21.69700
C  17.44900 51.84700 21.88800
C  17.48400 51.31700 23.33700
C  15.10300 51.60500 20.62100
C  18.58400 52.89900 21.56900
C  19.00300 53.00900 20.10500
N  18.10800 50.70300 26.10300
C  18.95100 50.27800 25.02100
C  20.11800 49.56600 25.61800
C  19.94100 49.57300 27.00600
C  18.68000 50.28200 27.23700
C  21.23600 49.02300 24.81000
C  20.44000 49.28300 28.33500
O  21.47000 48.63200 28.66200
C  19.40700 49.81700 29.46400
C  19.02700 48.62200 30.30600
O  18.71300 47.49900 29.92100
O  19.26200 48.96500 31.63500
C  18.96900 47.95400 32.67500
H  12.93400 52.20000 29.19600
H  13.58600 52.73300 22.63400
H  19.41400 50.44900 22.93600
H  17.17200 50.47800 31.09900
H  14.81100 52.30500 31.06100
H  14.00000 49.68100 30.08500
H  13.48100 50.48900 31.47900
H  14.92100 49.57800 31.63700
H  17.02100 53.36600 30.60300
H  18.48800 52.51800 30.76900
H  17.14400 53.88400 32.84400
H  18.35300 52.65800 33.10100
H  10.09200 51.97200 26.92300
H  10.35400 53.68000 26.95100
H  10.98800 52.57900 28.32600
H  9.01200 52.68600 23.37300
H  9.50100 53.71500 24.71200
H  9.19700 51.94900 24.96100
H  15.95700 53.31100 21.39000
H  17.50900 51.02900 21.17000
H  14.39800 50.88000 21.02800
H  15.76200 51.14800 19.88200
H  14.56000 52.45700 20.21200
H  19.37700 52.77900 22.30700
H  18.09100 53.86100 21.71000
H  18.31300 52.39800 19.52300
H  20.04100 52.67600 20.12700
H  18.94400 54.03900 19.75300
H  22.15900 49.59800 24.88100
H  21.06400 49.12000 23.73800
H  21.50500 48.02300 25.15100
H  19.80200 50.54200 30.17500
H  18.25500 47.18700 32.37200
H  18.44100 48.45600 33.48600
H  19.89000 47.45900 32.98100

