158

Mg 48.96700 35.21600 28.48400
C  46.68000 33.87800 30.95000
C  49.12700 38.01600 30.61800
C  50.15500 37.03700 25.96200
C  48.20800 32.58100 26.44300
N  48.01400 35.78800 30.63000
C  47.24300 35.04200 31.47000
C  47.27900 35.56900 32.89600
C  47.71100 37.08400 32.61200
C  48.37200 36.98700 31.18400
C  46.51100 37.98700 32.61600
C  48.11400 34.66800 33.84600
C  49.09500 35.44700 34.96400
H  48.55500 36.54500 35.85300
N  49.73000 37.13400 28.34800
C  49.70100 38.08700 29.30700
C  50.46500 39.18100 28.88200
C  50.75700 39.01100 27.50900
C  50.16700 37.70800 27.19100
C  50.87300 40.18100 29.86200
C  51.36400 39.80700 26.46400
O  51.45500 39.45800 25.29600
C  52.16400 41.03800 26.85900
N  49.12500 34.90000 26.47400
C  49.70500 35.77100 25.62700
C  49.67200 35.22400 24.14800
C  49.16500 33.72900 24.32900
C  48.80800 33.69000 25.83800
C  48.85700 36.03500 23.06400
C  50.27800 32.64300 24.15800
C  49.98000 31.44300 23.25500
N  47.81800 33.57000 28.62500
C  47.68000 32.54600 27.74700
C  46.90700 31.46000 28.24300
C  46.44900 32.03400 29.41100
C  47.05900 33.29100 29.66600
C  46.52700 30.23000 27.57500
C  45.52400 31.69300 30.53000
O  44.89400 30.71000 30.78200
C  45.53800 32.96600 31.46900
C  45.71700 32.61700 32.91300
O  46.63400 31.95800 33.33500
O  44.65100 33.03100 33.68500
C  44.48600 32.64000 35.07400
H  49.01400 38.93300 31.19900
H  50.58900 37.54500 25.09800
H  48.06400 31.66600 25.86500
H  46.23500 35.69700 33.18400
H  48.42200 37.51200 33.31900
H  45.92200 37.60300 31.78300
H  46.80800 39.03000 32.50300
H  46.09200 37.90800 33.62000
H  48.81500 34.08500 33.24800
H  47.49600 34.12400 34.56100
H  49.95300 35.91800 34.48400
H  49.46400 34.71600 35.68400
H  51.15600 39.64800 30.76900
H  50.08400 40.86900 30.16800
H  51.63200 40.89700 29.54800
H  52.43500 41.78600 26.11400
H  53.02300 40.79000 27.48300
H  51.43300 41.64400 27.39400
H  50.73700 35.26200 23.92000
H  48.21500 33.45200 23.87400
H  49.57200 36.22300 22.26300
H  48.32600 36.93600 23.36900
H  48.20400 35.23700 22.71100
H  50.48700 32.24300 25.15000
H  51.17500 33.05400 23.69500
H  49.08400 31.66400 22.67500
H  49.51300 30.57900 23.72700
H  50.76300 31.26200 22.51900
H  46.67600 29.41400 28.28300
H  47.13900 30.05400 26.69000
H  45.47300 30.42200 27.37200
H  44.60600 33.52900 31.43700
H  44.78100 33.49000 35.68800
H  45.17400 31.82500 35.29800
H  43.45500 32.40400 35.33800
Mg 27.42000 50.22100 26.93300
C  25.17100 51.12600 29.43400
C  29.77700 49.37800 29.39600
C  29.51400 49.20600 24.42300
C  25.10000 51.17200 24.51400
N  27.42400 50.24100 29.16300
C  26.34800 50.56400 29.97500
C  26.69200 50.44700 31.41100
C  28.24100 50.07400 31.41100
C  28.54400 49.85200 29.90700
C  29.10600 51.12800 32.09900
C  25.73200 49.38600 32.16400
C  24.87200 49.81700 33.38700
H  24.92300 48.83600 34.54200
N  29.35600 49.47000 26.93700
C  30.19100 49.21200 28.04100
C  31.42900 48.64600 27.58000
C  31.36500 48.62500 26.11800
C  30.04300 49.13600 25.76400
C  32.47800 48.14900 28.49100
C  32.44800 48.27000 25.14500
O  32.32000 48.27700 23.89600
C  33.75900 47.82300 25.76700
N  27.38000 50.34700 24.79500
C  28.22000 49.63700 23.99200
C  27.81000 49.57300 22.56900
C  26.42500 50.18200 22.64400
C  26.27500 50.64800 24.08400
C  28.82800 50.13200 21.49400
C  25.25500 49.17100 22.20000
C  24.05100 49.82500 21.49800
N  25.53700 51.14700 26.91700
C  24.67700 51.33800 25.91500
C  23.44600 51.93800 26.39600
C  23.54100 51.79300 27.83100
C  24.87700 51.38400 28.04000
C  22.35500 52.50900 25.54900
C  22.80500 52.02900 29.09300
O  21.69100 52.50200 29.26800
C  23.84600 51.57300 30.16900
C  23.97800 52.72100 31.05300
O  24.41300 53.80500 30.76100
O  23.28500 52.42300 32.15900
C  23.15200 53.40400 33.19000
H  30.62000 49.28400 30.08500
H  30.15000 48.82900 23.61900
H  24.29300 51.23100 23.78200
H  26.46300 51.40100 31.88500
H  28.31400 49.23400 32.10300
H  29.60900 51.67000 31.29900
H  29.81900 50.69900 32.80300
H  28.49600 51.89500 32.57500
H  26.14200 48.41700 32.45100
H  25.05300 49.02000 31.39300
H  23.82200 49.91700 33.11300
H  25.14500 50.84700 33.61700
H  32.91900 47.19300 28.20800
H  32.12700 48.15800 29.52300
H  33.23700 48.93000 28.44800
H  33.77900 46.81300 26.17800
H  34.13600 48.61100 26.41900
H  34.36900 47.76600 24.86600
H  27.75000 48.52800 22.26700
H  26.40300 51.11300 22.07800
H  29.47600 50.59800 22.23700
H  28.37000 50.89600 20.86600
H  29.44600 49.50900 20.84800
H  25.02800 48.68900 23.15100
H  25.67200 48.36700 21.59400
H  23.91700 49.39600 20.50400
H  24.09700 50.88600 21.25400
H  23.12100 49.55900 22.00100
H  21.61500 51.70900 25.52900
H  22.69400 52.72400 24.53600
H  21.95600 53.33600 26.13500
H  23.58900 50.66100 30.70700
H  22.11900 53.48300 33.52700
H  23.38700 54.41500 32.85800
H  23.72800 53.14200 34.07700

