158

Mg 0.96200 7.31700 27.06800
C  1.31000 9.78800 29.49600
C  1.29300 5.02100 29.49900
C  0.79400 4.95500 24.55200
C  1.18400 9.74700 24.56700
N  1.31600 7.39000 29.29000
C  1.24700 8.50400 30.05400
C  1.11400 8.10300 31.61200
C  1.43600 6.61000 31.56300
C  1.33800 6.30300 30.03400
C  2.67900 6.00800 32.27200
C  -0.38000 8.44900 32.03500
C  -0.68800 8.58900 33.54000
H  0.39600 8.57600 34.59100
N  1.10700 5.30300 26.97700
C  1.17600 4.56900 28.13100
C  1.14300 3.23100 27.72600
C  1.16600 3.07700 26.33900
C  1.02800 4.47400 25.90700
C  1.30800 2.18200 28.73000
C  1.22100 1.90200 25.37000
O  1.31400 2.06600 24.16500
C  1.26500 0.46700 25.85600
N  1.08300 7.36300 24.83000
C  0.84300 6.25100 24.03700
C  0.41500 6.66700 22.63800
C  0.63100 8.21800 22.56900
C  0.97300 8.47000 24.03100
C  1.09800 5.82300 21.56000
C  -0.56300 9.02200 22.00200
C  -0.26000 10.46300 21.53100
N  1.18900 9.31100 27.00200
C  1.34800 10.13400 25.90700
C  1.55100 11.46500 26.38000
C  1.61100 11.36400 27.80800
C  1.38800 10.04300 28.09100
C  1.83000 12.64800 25.48700
C  1.85200 12.14900 28.97300
O  2.03100 13.34500 29.13100
C  1.57200 11.12700 30.13900
C  2.76700 11.14000 31.02100
O  3.92900 10.88400 30.69400
O  2.30700 11.38500 32.31800
C  3.31300 11.62600 33.43000
H  1.28500 4.26400 30.28600
H  0.70400 4.30500 23.68000
H  1.21500 10.52100 23.79600
H  1.84400 8.61000 32.24300
H  0.67000 6.04900 32.09800
H  2.48100 5.25200 33.03200
H  3.31900 6.76500 32.72600
H  3.28800 5.62500 31.45300
H  -0.92700 7.60300 31.62000
H  -0.67300 9.31900 31.44800
H  -1.40600 7.79400 33.74300
H  -1.22200 9.54000 33.56100
H  1.82700 1.31200 28.32700
H  0.40000 1.95400 29.28800
H  2.01800 2.48400 29.49900
H  2.29900 0.39700 26.19400
H  1.04200 -0.21700 25.03800
H  0.53200 0.46300 26.66300
H  -0.64700 6.42100 22.64000
H  1.35200 8.54000 21.81700
H  0.39400 5.12600 21.10600
H  1.88900 5.19500 21.97100
H  1.45900 6.56000 20.84300
H  -1.19100 9.19300 22.87600
H  -1.18000 8.40400 21.35000
H  -0.77700 10.64200 20.58800
H  0.80300 10.62200 21.34900
H  -0.65300 11.22200 22.20800
H  0.87300 12.87400 25.01800
H  2.50800 12.35900 24.68400
H  2.19200 13.54400 25.99100
H  0.70400 11.49900 30.68300
H  3.21200 10.74900 34.06900
H  3.14200 12.48500 34.07900
H  4.32500 11.65900 33.02500
Mg 41.32000 8.94900 29.96800
C  43.19300 10.12400 32.64800
C  38.88100 8.00800 32.32700
C  39.39500 7.77400 27.41900
C  43.90900 9.37500 27.81400
N  41.05100 9.07300 32.23600
C  41.93800 9.65600 33.07800
C  41.35100 9.64500 34.49300
C  40.20400 8.68400 34.38700
C  39.95700 8.69000 32.85500
C  40.42300 7.25800 35.05000
C  40.92300 11.06900 35.01100
C  40.41800 11.19800 36.48700
H  41.33600 11.76600 37.62100
N  39.39900 8.07500 29.94200
C  38.58200 7.74800 30.99200
C  37.36800 7.16400 30.50600
C  37.51900 7.05500 29.08200
C  38.76400 7.76100 28.74900
C  36.30500 6.64400 31.51400
C  36.53800 6.62900 28.16100
O  36.58600 6.85500 26.96000
C  35.28500 5.90100 28.68000
N  41.56000 8.51000 27.87100
C  40.65800 8.10200 27.01800
C  41.35800 7.81000 25.61700
C  42.73300 8.53400 25.81600
C  42.76200 8.74400 27.29000
C  41.52600 6.28100 25.15900
C  42.96300 9.75200 24.88700
C  42.31700 11.15900 25.23400
N  43.16700 9.68200 30.09100
C  44.10800 9.88500 29.11200
C  45.28200 10.62600 29.72100
C  44.97400 10.72600 31.09000
C  43.67900 10.11000 31.27600
C  46.47200 11.01200 28.97000
C  45.40800 11.18700 32.36300
O  46.42500 11.85500 32.59000
C  44.36600 10.91800 33.41900
C  44.95400 10.20900 34.57200
O  45.29700 9.04400 34.63300
O  44.96700 11.08200 35.65800
C  45.31600 10.60700 36.98200
H  38.27000 7.65100 33.15900
H  38.82400 7.39700 26.56700
H  44.69600 9.63600 27.10400
H  42.22700 9.36200 35.07700
H  39.33700 9.19500 34.80700
H  39.72200 7.26000 35.88500
H  41.41600 7.12900 35.48100
H  40.19600 6.46600 34.33600
H  40.19900 11.54200 34.34900
H  41.85000 11.63400 35.10400
H  40.04100 10.25300 36.88000
H  39.64400 11.94500 36.31000
H  35.32100 7.05100 31.28100
H  36.42600 6.83900 32.58000
H  36.31700 5.56300 31.37200
H  35.58700 5.07000 29.31800
H  34.63000 5.59100 27.86500
H  34.76600 6.64900 29.27800
H  40.80600 8.34300 24.84200
H  43.53900 7.81100 25.68600
H  40.99600 5.64200 25.86600
H  42.53700 5.87400 25.14400
H  41.11700 6.24700 24.15000
H  42.60800 9.39400 23.92100
H  44.05100 9.68700 24.85900
H  41.99600 11.22700 26.27300
H  41.59000 11.57600 24.53700
H  43.09700 11.92000 25.27200
H  46.89000 11.98700 29.22100
H  46.13000 11.02300 27.93500
H  47.27600 10.31200 29.19600
H  43.95200 11.86100 33.77500
H  44.79300 11.17400 37.75200
H  46.40600 10.63600 36.99800
H  45.02400 9.55900 37.05900

