158

Mg 9.37200 48.17900 26.72000
C  7.39400 48.13400 29.57700
C  11.99200 49.27900 28.63200
C  11.21300 48.29500 23.90600
C  6.60300 47.68600 24.78900
N  9.62000 48.69500 28.97100
C  8.65600 48.56000 29.91500
C  9.29400 48.84100 31.32900
C  10.84100 49.16800 30.96100
C  10.86700 49.07000 29.39400
C  11.49900 50.44800 31.57800
C  8.97000 47.71200 32.27700
C  10.02000 47.45200 33.23400
H  9.50900 46.94100 34.63400
N  11.36000 48.62400 26.35900
C  12.24800 49.07300 27.23800
C  13.56100 49.29600 26.61100
C  13.38600 48.92900 25.24100
C  11.92200 48.62100 25.09900
C  14.80100 49.80400 27.31100
C  14.36500 48.73500 24.09400
O  14.05400 48.42800 22.93300
C  15.79500 48.79800 24.39800
N  8.99900 47.88500 24.65800
C  9.90200 48.06300 23.70900
C  9.29400 47.90800 22.27400
C  7.80900 47.54000 22.56200
C  7.77300 47.63300 24.09800
C  9.47300 49.20700 21.41600
C  7.28800 46.18500 21.87600
C  6.76400 46.33000 20.51200
N  7.45300 47.85500 27.08700
C  6.43300 47.73100 26.14400
C  5.20200 47.50900 26.86600
C  5.56800 47.54400 28.22600
C  6.94200 47.79200 28.29800
C  3.88900 47.20000 26.23500
C  5.07400 47.58700 29.58600
O  3.89600 47.52900 29.99600
C  6.20300 47.85200 30.53500
C  6.29300 46.62400 31.26400
O  6.70100 45.57400 30.87400
O  5.58800 46.81200 32.48400
C  5.28600 45.55500 33.17100
H  12.87400 49.55600 29.21400
H  11.70100 48.31600 22.93000
H  5.77400 47.64000 24.08000
H  8.80800 49.77600 31.60900
H  11.39400 48.26900 31.23500
H  11.01800 50.78800 32.49500
H  11.46000 51.25500 30.84600
H  12.53900 50.21600 31.80700
H  8.86000 46.88100 31.58100
H  8.02900 47.96600 32.76500
H  10.58600 48.35900 33.44600
H  10.69800 46.68800 32.85100
H  15.16200 50.57500 26.63000
H  15.49900 49.04600 27.66500
H  14.54800 50.34800 28.22100
H  16.41000 48.57900 23.52500
H  15.98100 48.23200 25.31000
H  16.03700 49.84800 24.56000
H  9.83000 47.11600 21.75200
H  7.18600 48.34300 22.16800
H  9.80900 48.79400 20.46500
H  10.29700 49.79300 21.82400
H  8.58900 49.83800 21.33200
H  6.50900 45.73800 22.49400
H  8.22300 45.62800 21.80200
H  6.26000 47.29500 20.44900
H  6.09200 45.51400 20.24800
H  7.62200 46.28200 19.84100
H  3.74900 46.17900 25.87900
H  3.60800 47.85400 25.40900
H  3.15200 47.41700 27.00700
H  5.90900 48.64900 31.21800
H  4.97200 45.70600 34.20400
H  6.18700 44.94600 33.24700
H  4.45200 44.97600 32.77500
Mg -11.31200 38.89500 42.04700
C  -9.78500 36.04600 40.56800
C  -8.92200 40.75700 40.42200
C  -13.18700 41.68100 42.62200
C  -13.94300 36.88200 42.91600
N  -9.69300 38.42900 40.40400
C  -9.12100 37.20400 40.16800
C  -7.80500 37.36300 39.44200
C  -7.50700 38.86900 39.46200
C  -8.79000 39.42000 40.06700
C  -6.21800 39.19800 40.29500
C  -7.91700 36.85000 37.95500
C  -6.73600 36.05800 37.35600
H  -6.07900 36.70500 36.17300
N  -11.10500 40.89700 41.56600
C  -10.01900 41.48500 40.95500
C  -10.28100 42.91400 40.80100
C  -11.42600 43.22300 41.53000
C  -12.02400 41.93600 41.83800
C  -9.27000 43.78700 40.09900
C  -11.90000 44.62400 41.74800
O  -11.18900 45.58100 41.44200
C  -13.17200 44.96300 42.53300
N  -13.24800 39.22400 42.62100
C  -13.71800 40.42100 42.97700
C  -15.11200 40.39200 43.68300
C  -15.38400 38.80600 43.69000
C  -14.11200 38.24800 43.09600
C  -15.22200 41.06700 45.08100
C  -16.57900 38.34000 42.74900
C  -17.83800 38.02300 43.55200
N  -11.73600 36.87100 42.03800
C  -12.90400 36.15200 42.33700
C  -12.76300 34.77100 42.10600
C  -11.55200 34.69000 41.42000
C  -10.96100 35.94500 41.36300
C  -13.79900 33.74500 42.35700
C  -10.67400 33.78500 40.70900
O  -10.78400 32.57100 40.55900
C  -9.41000 34.59100 40.25600
C  -8.27400 34.15700 41.09700
O  -8.17300 34.02500 42.29300
O  -7.15100 33.98800 40.33000
C  -5.81800 33.93500 40.88700
H  -8.12600 41.46700 40.18700
H  -13.76100 42.52800 43.00300
H  -14.64500 36.15800 43.33500
H  -7.06500 36.78200 39.99100
H  -7.53300 39.33200 38.47600
H  -5.65500 39.87500 39.65200
H  -5.68900 38.27400 40.53100
H  -6.44400 39.75300 41.20500
H  -8.04600 37.74600 37.34900
H  -8.83600 36.29800 37.76100
H  -7.11300 35.07900 37.05900
H  -6.03600 35.96700 38.18700
H  -8.56000 44.21200 40.80900
H  -9.78400 44.63200 39.64100
H  -8.73200 43.26400 39.30800
H  -12.98200 44.55200 43.52500
H  -13.99600 44.52400 41.97200
H  -13.33100 46.03900 42.60300
H  -15.77800 40.95600 43.03100
H  -15.33200 38.42800 44.71100
H  -16.12300 41.68000 45.10900
H  -14.32800 41.68700 45.15500
H  -15.34300 40.29100 45.83700
H  -16.30400 37.45500 42.17500
H  -16.75900 39.19400 42.09700
H  -18.64400 38.42300 42.93800
H  -17.77700 38.54300 44.50800
H  -18.04200 36.96900 43.74600
H  -14.79800 34.17200 42.27300
H  -13.64200 33.37800 43.37100
H  -13.65100 32.88300 41.70700
H  -9.17500 34.30600 39.23000
H  -5.22000 34.65300 40.32700
H  -5.38400 32.95100 40.70900
H  -5.67200 34.17600 41.94000

