158

Mg -1.95500 17.28500 26.89100
C  -2.29300 15.27000 29.84900
C  -2.39400 20.02100 28.83500
C  -1.96500 19.03500 24.13300
C  -1.97000 14.25200 25.04100
N  -2.60300 17.55400 29.05800
C  -2.52600 16.66200 30.07400
C  -2.94900 17.28400 31.39600
C  -3.07500 18.80200 31.00900
C  -2.62200 18.78800 29.54800
C  -4.43900 19.44500 31.21800
C  -2.00000 17.15200 32.67400
C  -2.72900 16.94900 34.01900
H  -2.04100 16.17100 35.17200
N  -2.05600 19.25600 26.55900
C  -2.29600 20.25400 27.40800
C  -2.32700 21.59400 26.65400
C  -2.14700 21.26400 25.33400
C  -2.08000 19.75500 25.32600
C  -2.65900 22.87800 27.37400
C  -2.08700 22.22000 24.09800
O  -2.25200 21.85400 22.95700
C  -1.73800 23.71500 24.34900
N  -2.17900 16.73600 24.84700
C  -1.92200 17.67500 23.93600
C  -1.84900 17.00600 22.54800
C  -1.31400 15.60200 22.90400
C  -1.90200 15.50700 24.33500
C  -3.17500 16.93900 21.67700
C  0.20100 15.48400 22.92800
C  0.93100 15.41000 21.60600
N  -2.17000 15.16500 27.29300
C  -2.17700 14.05800 26.40200
C  -2.34800 12.81000 27.17800
C  -2.35100 13.26400 28.54500
C  -2.34800 14.66700 28.53500
C  -2.42300 11.46300 26.58300
C  -2.34900 12.80400 29.95100
O  -2.31700 11.65800 30.34900
C  -2.38000 14.13900 30.79400
C  -1.12800 14.09300 31.57700
O  0.00500 14.24100 31.14400
O  -1.49500 13.78100 32.82500
C  -0.30300 13.68700 33.71200
H  -2.48100 20.92400 29.44300
H  -1.82600 19.56500 23.18800
H  -1.65200 13.38700 24.45600
H  -3.93200 16.83400 31.53700
H  -2.35700 19.42600 31.54100
H  -5.02300 18.95400 31.99700
H  -4.94300 19.45000 30.25200
H  -4.33900 20.50200 31.46700
H  -1.50400 18.11500 32.79700
H  -1.15100 16.49100 32.50200
H  -3.72600 16.63500 33.71000
H  -2.85100 17.95700 34.41500
H  -3.03700 22.63000 28.36600
H  -3.54300 23.34400 26.93700
H  -1.80600 23.55400 27.31700
H  -0.99900 23.74100 25.14900
H  -2.63000 24.23200 24.70200
H  -1.34200 24.28300 23.50700
H  -1.10800 17.49400 21.91600
H  -1.65000 14.80800 22.23700
H  -3.09400 16.04000 21.06500
H  -3.16100 17.72300 20.91900
H  -3.96700 17.10000 22.40800
H  0.39600 14.53400 23.42700
H  0.61500 16.25100 23.58300
H  0.21100 15.36200 20.78900
H  1.66700 14.61600 21.73300
H  1.59300 16.27400 21.54500
H  -1.44000 11.00200 26.48000
H  -2.99300 11.45400 25.65400
H  -3.02300 10.94600 27.33200
H  -3.27700 14.00600 31.40000
H  0.06700 14.70700 33.81500
H  0.48700 12.98700 33.43900
H  -0.61500 13.39900 34.71600
Mg 25.83800 -8.15200 47.36100
C  27.86400 -5.51400 46.23400
C  23.59800 -7.54900 44.89300
C  24.05200 -10.86900 48.52000
C  28.58200 -9.20300 49.33800
N  25.92400 -6.88100 45.56700
C  26.72700 -5.76700 45.40000
C  26.19500 -4.84200 44.28200
C  24.70900 -5.37100 44.07400
C  24.69200 -6.69400 44.85400
C  23.59700 -4.35200 44.43900
C  27.13800 -4.93200 43.03800
C  27.90300 -3.60900 42.60200
H  27.66000 -3.28100 41.13000
N  24.04400 -8.93100 46.89900
C  23.29900 -8.55200 45.83000
C  22.19500 -9.37300 45.74100
C  22.25500 -10.35400 46.81000
C  23.49200 -10.09100 47.47300
C  21.19100 -9.38200 44.64600
C  21.16600 -11.44400 47.05300
O  20.15700 -11.70400 46.39900
C  21.21300 -12.28900 48.21700
N  26.26400 -9.87400 48.64700
C  25.37600 -10.79800 49.05500
C  25.94200 -11.67400 50.25600
C  27.45500 -11.25800 50.27200
C  27.47800 -10.06500 49.35400
C  25.29900 -11.31700 51.67800
C  28.43300 -12.38600 49.83700
C  29.75300 -12.57300 50.73600
N  27.82800 -7.58100 47.73000
C  28.76100 -7.97800 48.63700
C  29.93600 -7.09100 48.57900
C  29.61500 -6.10800 47.70500
C  28.32200 -6.42700 47.17900
C  31.25100 -7.32900 49.29500
C  30.06200 -4.80100 47.26200
O  31.03300 -4.15700 47.63300
C  28.85700 -4.33400 46.27600
C  28.20600 -3.05700 46.54100
O  28.35200 -2.02700 45.98000
O  27.37100 -3.23000 47.64300
C  26.76100 -1.97700 48.11300
H  22.86600 -7.35600 44.10600
H  23.44300 -11.65900 48.96400
H  29.41500 -9.58600 49.93200
H  26.22600 -3.78500 44.54700
H  24.54400 -5.63200 43.02900
H  23.06600 -4.12300 43.51500
H  24.08700 -3.50500 44.92000
H  22.94600 -4.68100 45.24900
H  26.60500 -5.47600 42.25800
H  28.00200 -5.50800 43.36800
H  28.95100 -3.63300 42.90100
H  27.53300 -2.77000 43.19100
H  20.31500 -8.78500 44.90300
H  20.94700 -10.39900 44.34200
H  21.71400 -9.04800 43.75000
H  21.97500 -13.06700 48.17100
H  20.31400 -12.90000 48.29800
H  21.22200 -11.73700 49.15600
H  25.73800 -12.71600 50.01100
H  27.79000 -10.93900 51.26000
H  24.50600 -12.04100 51.86600
H  24.95200 -10.28400 51.71100
H  25.98200 -11.56700 52.49000
H  28.87800 -12.13200 48.87600
H  27.91700 -13.34700 49.85600
H  29.55000 -13.28400 51.53700
H  30.08600 -11.56300 50.97300
H  30.54000 -12.96600 50.09300
H  31.67200 -8.21200 48.81500
H  31.06900 -7.51500 50.35400
H  31.94700 -6.50400 49.14500
H  29.35900 -4.11600 45.33300
H  26.20000 -1.45500 47.33700
H  27.53400 -1.23600 48.31600
H  26.14600 -2.26100 48.96600

