158

Mg 29.97000 59.00800 39.88900
C  27.41600 56.95900 38.55600
C  32.20000 56.40300 38.78200
C  32.67200 61.22600 40.01400
C  27.74300 61.65400 40.22600
N  29.87600 56.85800 38.89400
C  28.69900 56.30400 38.37400
C  29.00900 54.97200 37.59600
C  30.52000 54.74700 38.00900
C  30.85800 56.08400 38.57200
C  30.81800 53.45300 38.86700
C  28.78400 55.16900 36.06200
C  28.12300 53.95600 35.35100
H  26.92400 54.24900 34.41400
N  32.14500 58.74300 39.69400
C  32.81600 57.58600 39.28300
C  34.23100 57.77800 39.39900
C  34.45700 59.19200 39.74200
C  33.06900 59.81400 39.81800
C  35.21700 56.65700 39.15700
C  35.71600 59.82800 39.96600
O  36.81800 59.25100 39.78000
C  35.78700 61.26400 40.36700
N  30.15900 61.14000 40.09400
C  31.39700 61.79900 40.21000
C  31.28900 63.30200 40.27400
C  29.70900 63.33700 40.62900
C  29.11900 61.98100 40.26900
C  32.22000 63.88300 41.37900
C  28.99700 64.59300 40.03600
C  28.42900 65.63000 41.00100
N  27.97000 59.21400 39.69200
C  27.18900 60.32800 39.84200
C  25.85300 59.99000 39.60500
C  25.84100 58.65400 39.11900
C  27.22600 58.26500 39.06500
C  24.68100 60.86300 39.64900
C  25.03700 57.49300 38.63100
O  23.81000 57.37700 38.53600
C  26.05200 56.33900 38.29700
C  25.65500 55.18400 39.21600
O  25.55200 55.18200 40.41200
O  25.42300 54.06400 38.46000
C  24.87700 52.93500 39.23900
H  32.86100 55.60300 38.44000
H  33.46700 61.96900 39.92900
H  27.08300 62.49600 40.44700
H  28.36800 54.15300 37.92100
H  31.22900 54.59700 37.19600
H  29.84700 52.96300 38.94800
H  31.20400 53.72500 39.84900
H  31.62900 52.81900 38.50900
H  29.70900 55.33600 35.51100
H  28.18300 56.05300 35.84700
H  27.83800 53.22700 36.11000
H  28.98400 53.57800 34.80000
H  34.99900 55.66000 39.53800
H  36.18900 56.90900 39.58100
H  35.34700 56.47000 38.09100
H  36.79900 61.55400 40.64800
H  35.04500 61.47600 41.13600
H  35.53000 61.94100 39.55200
H  31.57600 63.57700 39.25900
H  29.55600 63.47200 41.70000
H  32.71000 63.06100 41.90100
H  31.70900 64.48300 42.13200
H  32.97500 64.54100 40.94700
H  28.27500 64.22100 39.30900
H  29.62600 65.11700 39.31800
H  28.56100 66.57700 40.47700
H  29.05600 65.57500 41.89100
H  27.45000 65.23700 41.27500
H  24.90400 61.84900 40.05600
H  23.85300 60.41700 40.20000
H  24.37200 60.97000 38.60900
H  25.88000 56.11500 37.24400
H  24.56700 52.19200 38.50400
H  23.90200 53.22000 39.63400
H  25.61400 52.59600 39.96700
Mg -10.85500 17.27500 42.92900
C  -7.54100 18.22800 42.95900
C  -11.66200 20.65800 42.53100
C  -14.21300 16.42400 42.60200
C  -10.04500 13.93900 43.02500
N  -9.73100 19.13700 42.74800
C  -8.34000 19.31200 42.75100
C  -7.94100 20.80100 42.56700
C  -9.28800 21.55200 42.97000
C  -10.33300 20.42600 42.80400
C  -9.23200 22.16200 44.34300
C  -7.55700 21.17200 41.16600
C  -6.24800 21.87800 40.94100
H  -5.24100 21.25800 39.94000
N  -12.71900 18.38300 42.47600
C  -12.77500 19.75900 42.45600
C  -14.09800 20.15900 42.10700
C  -14.90600 18.93900 42.13300
C  -13.97800 17.83900 42.36000
C  -14.41200 21.58000 41.96100
C  -16.39500 18.91600 41.88900
O  -16.97600 19.89400 41.44200
C  -17.19000 17.64400 42.09800
N  -11.95600 15.49700 42.79200
C  -13.31600 15.38600 42.81700
C  -13.76500 14.02300 43.25100
C  -12.43100 13.16500 42.92200
C  -11.36500 14.26800 42.85500
C  -14.29200 13.87000 44.72900
C  -12.39100 12.42800 41.55200
C  -11.93400 10.93200 41.58800
N  -9.14800 16.23300 42.95500
C  -8.94300 14.86100 43.03400
C  -7.48300 14.67900 43.08500
C  -6.89800 15.94300 43.11400
C  -7.94000 16.84600 43.06300
C  -6.70500 13.39800 43.30700
C  -5.64500 16.65800 43.11400
O  -4.52900 16.32800 43.06800
C  -6.10300 18.16200 43.21200
C  -5.78300 18.56500 44.62300
O  -6.25900 18.22300 45.69700
O  -4.72800 19.39300 44.55500
C  -3.97700 19.78600 45.84100
H  -11.98300 21.69800 42.61700
H  -15.23300 16.04000 42.66900
H  -9.88100 12.86000 42.97100
H  -7.14300 21.00200 43.28200
H  -9.48400 22.31800 42.22000
H  -8.26900 21.95900 44.81100
H  -9.89200 21.61700 45.01800
H  -9.37100 23.24300 44.35800
H  -8.23900 21.91600 40.75400
H  -7.77800 20.33400 40.50500
H  -5.69400 22.01500 41.87000
H  -6.45900 22.90600 40.64500
H  -15.27000 21.82200 41.33300
H  -13.54800 22.15900 41.63500
H  -14.69200 21.94900 42.94700
H  -18.27900 17.63900 42.15400
H  -16.76600 17.19200 42.99400
H  -16.85500 16.98900 41.29400
H  -14.60100 13.73200 42.61600
H  -12.30000 12.47100 43.75200
H  -14.40300 14.88200 45.11900
H  -13.61200 13.34800 45.40300
H  -15.26500 13.38100 44.77000
H  -11.69600 12.98600 40.92500
H  -13.34800 12.52800 41.04100
H  -10.90900 10.95200 41.21600
H  -12.61000 10.45600 40.87700
H  -12.06500 10.53400 42.59500
H  -6.13800 13.38300 44.23800
H  -6.03100 13.26700 42.46100
H  -7.35400 12.52200 43.31500
H  -5.47500 18.73100 42.52600
H  -3.95300 20.86300 46.00700
H  -2.96400 19.38800 45.79600
H  -4.56100 19.36700 46.66000

