158

Mg -2.15600 17.04600 26.64000
C  -2.60000 14.83800 29.36300
C  -2.56500 19.63000 28.83800
C  -2.39100 19.14800 23.98600
C  -2.56500 14.42200 24.45500
N  -2.41300 17.12800 28.88400
C  -2.58800 16.17800 29.75200
C  -2.81700 16.68800 31.08900
C  -3.03700 18.21700 30.98200
C  -2.69100 18.35500 29.44300
C  -4.49100 18.80900 31.27100
C  -1.75700 16.24100 32.18300
C  -1.05600 17.17700 33.09400
H  -0.38300 16.59700 34.26500
N  -2.33700 19.12800 26.46800
C  -2.41600 20.02800 27.48100
C  -2.50000 21.40900 26.94600
C  -2.33000 21.33100 25.49200
C  -2.31600 19.85900 25.25300
C  -2.73700 22.57300 27.91200
C  -2.13500 22.45200 24.47100
O  -1.90100 22.12800 23.28000
C  -2.19800 23.88500 24.80300
N  -2.45000 16.83300 24.45900
C  -2.51000 17.84100 23.59500
C  -2.96700 17.35700 22.19600
C  -2.77200 15.83100 22.29200
C  -2.59700 15.64200 23.78000
C  -4.40900 17.87000 21.89700
C  -1.54300 15.28600 21.50900
C  -1.72500 13.99600 20.71700
N  -2.43700 15.02100 26.85200
C  -2.54500 14.06900 25.84900
C  -2.73600 12.78700 26.36400
C  -2.73500 13.08000 27.82300
C  -2.53800 14.43500 28.02000
C  -3.01300 11.44900 25.62100
C  -3.01400 12.41100 29.05200
O  -3.32900 11.25100 29.34700
C  -2.86000 13.54200 30.14000
C  -1.97600 13.28800 31.27200
O  -0.77900 13.25000 31.14400
O  -2.72800 12.99700 32.43900
C  -1.98500 12.62900 33.63700
H  -2.86200 20.47100 29.46700
H  -2.45600 19.79900 23.11200
H  -2.77700 13.52200 23.87500
H  -3.75300 16.27500 31.46500
H  -2.41800 18.78000 31.68100
H  -5.14000 18.15300 31.85000
H  -5.07000 18.97200 30.36200
H  -4.30100 19.73300 31.81800
H  -0.99900 15.70100 31.61600
H  -2.22900 15.55600 32.88800
H  -1.76000 17.97800 33.32000
H  -0.22900 17.58500 32.51300
H  -2.52900 23.52700 27.42700
H  -2.25000 22.53200 28.88700
H  -3.82100 22.46900 27.96300
H  -2.44800 24.37800 23.86300
H  -1.31700 24.23900 25.33900
H  -3.16000 23.97500 25.30800
H  -2.23400 17.77400 21.50500
H  -3.71000 15.41500 21.92400
H  -4.72400 18.63400 22.60700
H  -5.09700 17.02800 21.97500
H  -4.52800 18.32500 20.91300
H  -0.67100 15.19000 22.15700
H  -1.19300 15.99100 20.75600
H  -0.80800 13.43500 20.89800
H  -1.84700 14.22900 19.65900
H  -2.59200 13.39500 20.99300
H  -2.08300 10.89000 25.73200
H  -3.18500 11.66000 24.56500
H  -3.80600 10.90100 26.13000
H  -3.86200 13.48200 30.56500
H  -2.70500 12.86900 34.42000
H  -1.04500 13.16300 33.77800
H  -1.86600 11.55200 33.51900
Mg 36.46900 49.93500 25.38100
C  36.61700 48.13700 28.38400
C  35.06000 52.53200 27.28700
C  35.61300 51.50200 22.54600
C  37.41700 47.14600 23.68300
N  35.81200 50.24400 27.65400
C  36.13700 49.36400 28.63100
C  36.00800 50.02700 29.99000
C  35.08400 51.27800 29.60800
C  35.39000 51.41900 28.10300
C  33.53700 51.07200 29.98600
C  37.29800 50.33500 30.77500
C  37.17800 50.18700 32.33000
H  35.83800 50.37800 32.95700
N  35.63400 51.81400 24.94600
C  35.21600 52.70500 25.89800
C  34.75500 53.91600 25.19600
C  34.77900 53.56800 23.79500
C  35.35300 52.32100 23.68500
C  34.35900 55.23000 25.90300
C  34.21400 54.36800 22.67600
O  34.25800 53.99900 21.49900
C  33.53100 55.68700 22.82400
N  36.35600 49.32600 23.43300
C  36.00500 50.16200 22.38700
C  36.37900 49.53500 21.02300
C  37.22000 48.28600 21.41500
C  37.01000 48.21300 22.97100
C  35.20200 49.16400 20.06700
C  38.64900 48.44500 20.97900
C  38.93000 47.36300 19.90200
N  36.91900 47.97300 25.87300
C  37.36700 46.95200 25.07800
C  37.63100 45.74100 25.77700
C  37.41800 46.16800 27.15200
C  37.00300 47.54500 27.13300
C  38.06100 44.50900 25.14000
C  37.36200 45.75200 28.53500
O  37.55300 44.68900 29.05100
C  36.85200 47.00200 29.40000
C  35.69400 46.64000 30.24000
O  34.48800 46.69800 29.95900
O  36.13200 46.41000 31.52000
C  35.01700 46.35200 32.54300
H  34.43700 53.26300 27.80600
H  35.29900 51.97700 21.61500
H  37.79000 46.42600 22.95200
H  35.38900 49.38900 30.62100
H  35.30400 52.19500 30.15500
H  33.44300 50.02800 30.28600
H  32.91200 51.33900 29.13400
H  33.25600 51.83000 30.71700
H  37.60600 51.36000 30.56900
H  38.11800 49.75600 30.35000
H  37.77800 50.92300 32.86400
H  37.52200 49.19600 32.62600
H  33.27200 55.30800 25.92800
H  34.75600 56.09600 25.37300
H  34.83400 55.21300 26.88400
H  32.68600 55.63000 23.51000
H  33.15500 55.87000 21.81700
H  34.30900 56.39300 23.11100
H  37.01500 50.24900 20.50000
H  36.59700 47.44000 21.12800
H  34.24200 49.61400 20.31700
H  35.01400 48.09100 20.07000
H  35.48700 49.49400 19.06700
H  39.36300 48.26500 21.78300
H  38.91900 49.42800 20.59500
H  38.71600 47.73400 18.89900
H  38.43300 46.40400 20.05400
H  40.00900 47.21700 19.86000
H  37.47800 44.34600 24.23300
H  37.69900 43.69300 25.76600
H  39.11400 44.39500 24.88300
H  37.68700 47.16400 30.08100
H  34.30800 47.17200 32.43300
H  35.46700 46.51200 33.52300
H  34.39700 45.45800 32.47800

