158

Mg 42.21300 40.99100 27.06000
C  41.61600 43.41400 29.51200
C  43.03100 38.87100 29.56200
C  43.21100 38.73800 24.69200
C  41.71000 43.38300 24.63000
N  42.51900 41.17000 29.22900
C  41.92700 42.19400 30.00300
C  41.79300 41.66000 31.44400
C  42.60100 40.40100 31.54300
C  42.72500 40.10300 30.03300
C  43.99000 40.61400 32.31800
C  40.32200 41.59000 31.94800
C  39.98200 42.17600 33.39000
H  39.42600 41.23300 34.45000
N  42.95100 38.98300 27.11200
C  43.21400 38.27400 28.27200
C  43.77000 36.96300 27.96200
C  43.75400 36.86000 26.51800
C  43.25700 38.18700 26.05200
C  44.23400 35.87300 28.92800
C  44.21400 35.71300 25.64800
O  44.17800 35.72700 24.43700
C  44.59400 34.39200 26.23800
N  42.33900 40.95400 24.95800
C  42.83100 40.00800 24.24600
C  42.67100 40.30100 22.74900
C  42.14500 41.74300 22.71600
C  42.01400 42.06300 24.22000
C  44.03600 40.13100 21.99400
C  40.71300 41.97700 22.09800
C  40.43500 43.27300 21.39400
N  41.72700 42.98000 27.03400
C  41.56000 43.83900 25.98300
C  41.24800 45.16100 26.40600
C  41.12500 45.02100 27.80800
C  41.49500 43.66600 28.17800
C  40.91500 46.35800 25.47200
C  40.85200 45.72800 29.04000
O  40.58800 46.88700 29.30400
C  41.07900 44.70400 30.20000
C  42.19300 45.30000 30.96300
O  43.36900 45.15900 30.74100
O  41.69000 45.80100 32.09000
C  42.57800 46.23500 33.21700
H  43.31000 38.19000 30.36900
H  43.59000 37.98300 24.00000
H  41.60400 44.13100 23.84200
H  42.22900 42.43300 32.07600
H  42.12100 39.59500 32.09800
H  44.90500 40.27400 31.83200
H  43.76400 40.05300 33.22500
H  44.21200 41.64300 32.60300
H  39.93100 40.57300 31.90100
H  39.66600 42.17100 31.30100
H  39.25600 42.95800 33.16700
H  40.88800 42.64200 33.77800
H  45.27200 35.58500 28.76500
H  43.49300 35.07400 28.92000
H  44.16800 36.20700 29.96300
H  43.77300 33.93600 26.79100
H  45.41300 34.53200 26.94300
H  44.96100 33.79000 25.40600
H  42.05300 39.52800 22.29200
H  42.93700 42.38800 22.33500
H  44.14900 39.16200 21.50600
H  44.82500 40.00000 22.73400
H  44.28200 40.95000 21.31900
H  39.91400 41.99200 22.84000
H  40.63300 41.13400 21.41100
H  39.55100 43.71100 21.85800
H  40.38500 43.14000 20.31300
H  41.29300 43.94300 21.35300
H  40.81200 47.15500 26.20800
H  39.92000 46.11500 25.10000
H  41.61800 46.65300 24.69300
H  40.16500 44.68600 30.79500
H  42.87900 45.34100 33.76200
H  42.09400 46.80200 34.01300
H  43.48300 46.76100 32.91300
Mg -11.84900 15.65300 42.03300
C  -8.92400 13.81800 41.94400
C  -10.13900 18.29000 40.69100
C  -14.78700 17.23300 40.94800
C  -13.64500 12.76100 42.74100
N  -9.73600 15.97300 41.37900
C  -8.70600 15.09900 41.49000
C  -7.44900 15.63100 40.86600
C  -7.82600 17.12400 40.82000
C  -9.31100 17.16700 40.97000
C  -7.08100 17.97600 41.88600
C  -7.24300 14.93200 39.46200
C  -5.87400 14.38500 39.16400
H  -5.08800 14.80900 38.00700
N  -12.37400 17.50500 41.10500
C  -11.50100 18.44300 40.73100
C  -12.17100 19.63100 40.20600
C  -13.54500 19.26700 40.06000
C  -13.62600 17.92500 40.69500
C  -11.41000 20.89600 39.84600
C  -14.54100 19.94400 39.18000
O  -14.34500 21.02400 38.61600
C  -15.80800 19.13200 38.76800
N  -13.93300 15.11700 41.90000
C  -15.01800 15.94900 41.51700
C  -16.35200 15.17800 41.51100
C  -15.92100 13.76300 41.98300
C  -14.37500 13.86400 42.18400
C  -17.45900 15.84100 42.39100
C  -16.36600 12.60600 41.10700
C  -17.84200 12.14500 41.42700
N  -11.44500 13.67900 42.49000
C  -12.23600 12.60900 42.82900
C  -11.41800 11.49500 43.10500
C  -10.09700 11.87100 42.71000
C  -10.15700 13.25200 42.33400
C  -11.93900 10.07200 43.54100
C  -8.66300 11.46600 42.72900
O  -8.10300 10.53000 43.18400
C  -7.87600 12.71100 42.13600
C  -6.80100 13.12300 43.02600
O  -6.97000 13.40600 44.21000
O  -5.60400 13.28700 42.38200
C  -4.62000 14.15200 43.11400
H  -9.61000 19.21800 40.46300
H  -15.70300 17.78300 40.72100
H  -14.24300 11.86900 42.94200
H  -6.61700 15.48200 41.55500
H  -7.61900 17.56200 39.84300
H  -6.42600 17.38900 42.53000
H  -7.86000 18.54400 42.39500
H  -6.44200 18.70600 41.38900
H  -7.42600 15.57900 38.60400
H  -8.01400 14.16400 39.39100
H  -5.84600 13.30100 39.06200
H  -5.19100 14.60400 39.98500
H  -12.02600 21.76600 39.62000
H  -10.75300 20.77700 38.98500
H  -10.69000 21.21800 40.59900
H  -15.57800 18.08800 38.55000
H  -15.90700 19.44500 37.72800
H  -16.70300 19.42500 39.31700
H  -16.73500 15.12700 40.49200
H  -16.29600 13.53000 42.97900
H  -18.37200 15.82000 41.79600
H  -17.12600 16.82600 42.71700
H  -17.64200 15.27000 43.30100
H  -15.87100 11.67800 41.39300
H  -16.26300 12.79400 40.03800
H  -17.87300 11.51000 42.31300
H  -18.45000 11.67800 40.65200
H  -18.33600 13.06500 41.73800
H  -11.90500 9.32200 42.75200
H  -12.97800 10.16000 43.86000
H  -11.31000 9.79200 44.38600
H  -7.55800 12.31500 41.17200
H  -3.83200 13.55100 43.56800
H  -4.98600 14.88900 43.82800
H  -4.01700 14.64700 42.35200

