158

Mg 16.68300 -1.95700 28.79300
C  15.25700 0.25300 31.15500
C  18.57200 -3.31400 31.43100
C  18.16800 -3.90200 26.63000
C  15.22400 -0.03400 26.32200
N  16.83300 -1.53400 31.02100
C  16.23600 -0.62900 31.75900
C  16.63000 -0.73200 33.22000
C  17.86400 -1.69700 33.20600
C  17.72900 -2.19200 31.81700
C  19.23900 -1.11800 33.69100
C  15.36900 -1.18900 34.16100
C  15.28000 -0.87600 35.71400
H  16.51000 -0.36800 36.46600
N  18.10300 -3.40200 29.00400
C  18.69500 -3.90100 30.13900
C  19.45900 -5.11600 29.81800
C  19.29200 -5.32000 28.45600
C  18.41000 -4.23300 27.99300
C  20.31800 -5.77500 30.91600
C  19.85800 -6.50300 27.60300
O  19.48100 -6.73000 26.46300
C  20.83400 -7.55700 28.16500
N  16.82600 -1.81800 26.77600
C  17.43500 -2.79200 26.06300
C  17.19500 -2.60000 24.55000
C  16.34800 -1.41600 24.46700
C  16.06300 -1.05400 25.92500
C  18.52000 -2.47800 23.84000
C  15.01100 -1.70000 23.79400
C  14.27700 -0.50200 23.21900
N  15.41900 -0.32300 28.73000
C  14.91200 0.35000 27.58000
C  14.12600 1.48700 27.93800
C  14.11900 1.37600 29.41300
C  14.98800 0.29600 29.77400
C  13.49200 2.46700 27.10400
C  13.68400 1.98800 30.59600
O  12.90700 2.96800 30.73800
C  14.37600 1.25000 31.75500
C  15.10800 2.33700 32.52300
O  15.97400 3.06600 32.07200
O  14.76600 2.37600 33.84100
C  15.50500 3.33000 34.62700
H  19.05200 -3.65800 32.34900
H  18.52300 -4.67000 25.94000
H  14.84400 0.64700 25.55700
H  16.89900 0.26000 33.58200
H  17.63300 -2.60700 33.75900
H  19.12800 -0.31700 34.42200
H  19.84800 -0.73700 32.87200
H  19.75200 -1.96800 34.14300
H  15.30300 -2.27700 34.15300
H  14.39900 -0.85700 33.79200
H  14.97700 -1.85100 36.09700
H  14.52800 -0.11200 35.91200
H  19.73900 -6.56400 31.39600
H  20.79400 -5.10700 31.63400
H  21.15100 -6.32800 30.48200
H  21.78400 -7.05200 28.33800
H  20.96000 -8.36000 27.43900
H  20.55700 -8.02000 29.11200
H  16.76700 -3.57400 24.31200
H  16.80800 -0.49000 24.12300
H  18.63400 -3.40100 23.27200
H  19.31500 -2.35100 24.57500
H  18.46500 -1.62700 23.16000
H  14.25900 -2.17100 24.42700
H  15.20500 -2.38700 22.97100
H  13.41100 -0.32500 23.85700
H  13.97600 -0.87000 22.23900
H  14.95500 0.34500 23.10800
H  12.47500 2.57900 27.47800
H  13.35600 1.89300 26.18800
H  13.90100 3.45000 26.87000
H  13.71400 0.58200 32.30600
H  16.59100 3.30900 34.53900
H  15.19300 3.10300 35.64600
H  15.24100 4.37500 34.46400
Mg 29.93500 58.90500 39.26900
C  27.23800 56.72500 38.40200
C  32.14200 56.39900 38.42300
C  32.38500 61.09000 39.61900
C  27.54500 61.50500 39.59600
N  29.70500 56.81000 38.50800
C  28.55000 56.22400 38.14400
C  28.92200 54.88700 37.33300
C  30.35000 54.55200 37.84400
C  30.80500 56.01800 38.27600
C  30.29200 53.60100 39.00000
C  28.74300 55.04000 35.77200
C  27.72500 54.14800 35.20700
H  26.49800 54.61000 34.37100
N  31.89000 58.74000 39.17400
C  32.67100 57.63600 38.90500
C  34.09100 57.91600 39.12700
C  34.26100 59.32800 39.46700
C  32.78400 59.82800 39.41500
C  35.15700 56.79900 39.01400
C  35.56400 60.02600 39.77100
O  36.64300 59.42200 39.84300
C  35.63000 61.49800 39.95800
N  29.92800 60.96400 39.44000
C  31.12000 61.61600 39.52200
C  30.89100 63.11300 39.70500
C  29.32900 63.27400 39.58500
C  28.92100 61.82200 39.52300
C  31.38100 63.72800 41.06400
C  28.91600 64.27200 38.45800
C  28.67900 65.72000 38.73700
N  27.86600 59.08000 39.26100
C  27.02100 60.23000 39.33400
C  25.68000 59.76700 39.11200
C  25.66500 58.41600 38.81900
C  27.07600 58.05100 38.85400
C  24.50000 60.63900 39.28300
C  24.81100 57.26900 38.40100
O  23.62200 57.13500 38.33800
C  25.80200 56.11600 38.09200
C  25.36800 54.99700 38.93300
O  25.65600 54.75200 40.11000
O  24.43700 54.28300 38.17700
C  23.83800 53.08500 38.80900
H  32.78900 55.55900 38.16500
H  33.23400 61.75400 39.79200
H  26.93200 62.40200 39.70800
H  28.21900 54.15400 37.72800
H  31.00300 54.19700 37.04600
H  29.29000 53.29100 39.29800
H  30.72400 54.08900 39.87400
H  30.98600 52.77200 38.86400
H  29.73400 55.02800 35.31800
H  28.33400 56.04500 35.66400
H  27.21000 53.66700 36.03900
H  28.27000 53.35800 34.69100
H  36.16000 57.22100 38.96500
H  35.04300 56.17200 38.13000
H  34.95100 56.15700 39.87100
H  36.66800 61.78500 40.12400
H  35.08300 61.72800 40.87300
H  35.28400 61.99700 39.05300
H  31.40800 63.64700 38.90800
H  28.92400 63.84200 40.42300
H  31.59500 64.76400 40.80200
H  32.37800 63.36500 41.31300
H  30.62100 63.57300 41.83000
H  28.04300 63.82800 37.98000
H  29.69200 64.19700 37.69600
H  27.60400 65.87900 38.82700
H  29.09500 66.24600 37.87800
H  29.29000 66.09800 39.55700
H  24.05900 60.77400 38.29500
H  24.91300 61.54000 39.73800
H  23.71300 60.16900 39.87300
H  25.71900 55.78300 37.05800
H  22.87100 52.87600 38.35200
H  23.65600 53.20900 39.87700
H  24.40200 52.17800 38.59100

