158

Mg 46.18500 4.35300 47.02100
C  44.09500 7.09200 46.70000
C  43.49600 2.41400 46.07400
C  48.31700 1.72300 46.79200
C  49.03100 6.45900 47.02200
N  44.06700 4.74200 46.45100
C  43.46300 5.93800 46.33200
C  41.90800 5.75300 46.25600
C  41.74100 4.25200 46.03100
C  43.18100 3.75100 46.27500
C  40.72300 3.47300 46.91100
C  41.19100 6.59700 45.08900
C  42.02600 6.65100 43.74800
H  41.34900 6.11700 42.46300
N  45.95100 2.30600 46.64100
C  44.75900 1.69900 46.16300
C  44.93300 0.27500 45.97900
C  46.33000 0.04600 46.24300
C  46.98700 1.38000 46.64200
C  43.85000 -0.68000 45.54100
C  46.94800 -1.38200 46.14700
O  46.24100 -2.28700 45.80200
C  48.37600 -1.53800 46.44000
N  48.40300 4.12700 47.12000
C  48.97300 2.94200 46.93700
C  50.46400 2.93800 47.01100
C  50.75200 4.50300 46.85500
C  49.32400 5.11100 47.12300
C  50.96500 2.26800 48.31300
C  51.34500 5.01200 45.45200
C  51.67300 4.02700 44.35600
N  46.52400 6.31500 47.10300
C  47.70700 7.04400 47.05900
C  47.31700 8.44700 47.08300
C  45.90100 8.52400 47.04700
C  45.51900 7.23000 46.96400
C  48.26600 9.63000 46.91200
C  44.75800 9.38200 46.96300
O  44.67000 10.62100 46.92600
C  43.48100 8.47400 46.75500
C  42.55800 8.56500 47.85300
O  42.46400 7.80400 48.83600
O  41.75500 9.70300 47.73000
C  40.91300 10.07400 48.83100
H  42.69400 1.80700 45.65000
H  49.01900 0.89600 46.66500
H  49.88500 7.13800 46.99100
H  41.36700 6.05600 47.15300
H  41.67500 4.01400 44.96900
H  39.84900 4.03800 47.23400
H  41.21600 3.12800 47.82000
H  40.28200 2.59900 46.43000
H  40.98600 7.60200 45.45800
H  40.25800 6.04500 44.97500
H  42.89800 6.00800 43.86100
H  42.44500 7.63800 43.55100
H  44.03100 -1.23300 44.61900
H  42.88500 -0.19500 45.39700
H  43.78800 -1.43600 46.32400
H  48.53500 -1.19200 47.46100
H  48.95500 -0.99900 45.69000
H  48.60800 -2.59300 46.29100
H  50.95500 2.30600 46.27200
H  51.40200 4.82200 47.66900
H  51.69000 2.85900 48.87100
H  51.46000 1.33500 48.04300
H  50.12000 2.10500 48.98200
H  52.24400 5.51700 45.80700
H  50.71800 5.81300 45.06100
H  52.66400 3.66700 44.63200
H  51.63800 4.41800 43.33900
H  50.91500 3.24900 44.45100
H  49.24100 9.53500 47.38900
H  47.85500 10.59400 47.21100
H  48.47500 9.62900 45.84200
H  42.84100 8.82100 45.94400
H  41.07200 9.58300 49.79100
H  39.86100 9.95000 48.57200
H  40.99700 11.15100 48.97500
Mg 16.69800 51.98700 26.17300
C  18.46300 50.60600 28.94700
C  14.20100 52.92300 28.26500
C  15.12400 53.32500 23.47700
C  18.93500 50.37500 24.06500
N  16.35100 51.70700 28.29200
C  17.25100 51.27000 29.27900
C  16.86500 51.64500 30.67100
C  15.38600 52.14400 30.44700
C  15.33200 52.35500 28.90800
C  14.29900 51.12900 30.90300
C  17.90300 52.55700 31.33500
C  17.93500 52.70400 32.86700
H  16.85200 52.08100 33.65700
N  14.87200 53.00500 25.90000
C  13.94900 53.17600 26.85900
C  12.80500 53.84700 26.27900
C  13.04200 54.09600 24.87700
C  14.38600 53.49200 24.68200
C  11.54700 54.21600 27.07500
C  12.17500 54.69300 23.83900
O  12.54900 54.77000 22.66700
C  10.76500 55.13000 24.22600
N  17.05100 51.92900 24.05500
C  16.27400 52.56800 23.18100
C  16.74000 52.31800 21.79200
C  18.12600 51.58200 21.98200
C  18.08800 51.25600 23.46000
C  15.81300 51.61300 20.85400
C  19.27600 52.42200 21.63800
C  20.56100 51.67500 21.28200
N  18.41800 50.83100 26.40100
C  19.17000 50.18400 25.45000
C  20.18400 49.33300 26.12100
C  19.91600 49.48200 27.45800
C  18.89600 50.42300 27.60400
C  21.21200 48.49600 25.37900
C  20.34200 49.03500 28.79200
O  21.26000 48.31400 29.23300
C  19.41200 49.74500 29.81100
C  18.74400 48.89300 30.82500
O  17.92900 48.02000 30.64600
O  19.24200 49.20400 32.05500
C  18.77800 48.31900 33.17300
H  13.38900 53.21800 28.93300
H  14.70900 53.75800 22.56400
H  19.63800 49.84700 23.41700
H  16.86700 50.74100 31.28100
H  15.22700 53.03600 31.05300
H  13.91200 50.51500 30.09000
H  13.41100 51.52100 31.39800
H  14.64400 50.53000 31.74600
H  17.74400 53.58000 30.99500
H  18.86500 52.13900 31.03800
H  17.88500 53.77600 33.05800
H  18.91700 52.31700 33.14100
H  11.79200 54.29700 28.13400
H  10.76500 53.46000 26.99800
H  11.23100 55.24700 26.91300
H  10.21300 55.27400 23.29700
H  10.79100 56.00900 24.86900
H  10.12800 54.35800 24.65800
H  16.96600 53.31900 21.42400
H  18.17700 50.62100 21.47000
H  14.89700 51.34200 21.37800
H  16.33300 50.73600 20.47100
H  15.59200 52.26500 20.00800
H  19.63900 53.16000 22.35400
H  19.06100 53.00200 20.74100
H  21.16000 52.15300 20.50700
H  20.61800 50.60700 21.07000
H  21.17000 51.84100 22.17100
H  21.63000 47.95000 26.22500
H  21.93600 49.09000 24.82200
H  20.73000 47.82800 24.66600
H  20.02200 50.48300 30.33200
H  19.61800 48.29400 33.86600
H  18.65500 47.27000 32.90500
H  17.92900 48.69800 33.74200

