158

Mg 35.75600 49.24600 25.96100
C  36.05700 47.65300 29.03800
C  34.57600 52.15700 27.67200
C  35.54200 50.95100 23.02700
C  37.17400 46.52500 24.41100
N  35.29300 49.85800 28.07600
C  35.71400 49.02000 29.15300
C  35.70000 49.80000 30.42400
C  35.06600 51.21900 30.02800
C  35.04000 51.14900 28.57100
C  33.67300 51.42300 30.65400
C  37.08500 49.92100 31.00700
C  37.25000 49.62200 32.48800
H  36.02700 49.60200 33.45600
N  35.10100 51.21700 25.42800
C  34.70100 52.24200 26.30500
C  34.51100 53.42900 25.60200
C  34.94500 53.14300 24.30600
C  35.19000 51.71800 24.20700
C  33.88800 54.70000 26.19300
C  34.97900 54.04200 23.04700
O  35.21600 53.78000 21.86400
C  34.99300 55.60400 23.32100
N  35.98200 48.64500 23.94100
C  35.92600 49.58500 22.95900
C  36.38500 48.89600 21.61100
C  37.02200 47.60200 22.12500
C  36.65100 47.52900 23.57400
C  35.02000 48.69500 20.75200
C  38.63100 47.59800 21.94600
C  39.15800 46.68200 20.85200
N  36.32500 47.37700 26.46500
C  36.97300 46.39700 25.79700
C  37.21500 45.27900 26.69800
C  36.82700 45.74700 27.98700
C  36.35100 47.01500 27.80700
C  37.76500 43.94200 26.26600
C  36.82100 45.35100 29.35700
O  37.12000 44.30700 29.89900
C  36.30300 46.50300 30.07600
C  35.12100 46.15100 30.94700
O  33.97600 45.89600 30.60000
O  35.54800 46.05000 32.24400
C  34.61300 45.51600 33.20800
H  34.26600 53.07000 28.18500
H  35.55000 51.50900 22.08800
H  37.75700 45.77400 23.87400
H  35.11100 49.25700 31.16300
H  35.67300 52.06600 30.34800
H  33.04300 51.70900 29.81100
H  33.78700 52.31800 31.26600
H  33.22600 50.57400 31.17000
H  37.27400 50.93900 30.66600
H  37.85800 49.29900 30.55600
H  37.91600 50.40300 32.85600
H  37.69800 48.64800 32.68700
H  34.66300 55.23100 26.74500
H  33.16800 54.38700 26.95000
H  33.31700 55.33700 25.51800
H  35.71900 55.67300 24.13200
H  34.00700 55.99000 23.58100
H  35.30800 56.16000 22.43800
H  36.98900 49.59500 21.03300
H  36.66100 46.70300 21.62500
H  34.05600 48.75100 21.25800
H  35.09400 47.81700 20.11000
H  34.97500 49.51200 20.03200
H  39.14500 47.44300 22.89500
H  38.91400 48.61500 21.67500
H  38.37400 46.36700 20.16300
H  39.45600 45.79700 21.41400
H  39.86100 47.19200 20.19300
H  36.92500 43.26900 26.09300
H  38.44000 43.60600 27.05400
H  38.38300 44.20500 25.40800
H  37.09700 46.86800 30.72800
H  34.94100 45.94000 34.15700
H  34.64300 44.44800 33.42400
H  33.59000 45.84700 33.03000
Mg 10.03800 49.05900 25.79300
C  8.08000 48.85500 28.76900
C  12.77200 50.15700 27.54200
C  11.89000 48.88900 22.98600
C  7.06600 48.11200 24.05200
N  10.29900 49.37600 27.89200
C  9.42200 49.25900 28.95600
C  10.21200 49.43500 30.20500
C  11.41700 50.31600 29.79700
C  11.53700 49.87300 28.34900
C  11.20400 51.86600 29.87700
C  10.60800 48.00500 30.81500
C  10.38400 47.71100 32.26700
H  11.08400 48.58400 33.30700
N  12.14700 49.43200 25.28800
C  13.07200 49.87600 26.14800
C  14.41000 49.93100 25.55400
C  14.15500 49.53100 24.20200
C  12.65900 49.27300 24.08000
C  15.65900 50.35700 26.28400
C  15.06700 49.41200 23.00400
O  14.81000 49.06000 21.84200
C  16.55400 49.87200 23.29400
N  9.52500 48.76000 23.68300
C  10.53200 48.59200 22.78400
C  9.90700 47.89800 21.47400
C  8.36200 47.65900 21.81800
C  8.30700 48.21700 23.28300
C  10.20000 48.77700 20.17200
C  7.93300 46.15400 21.70600
C  8.72400 45.11300 22.48700
N  7.95600 48.68500 26.21700
C  6.89600 48.28000 25.45100
C  5.64300 48.13700 26.24700
C  6.09300 48.43400 27.49800
C  7.47300 48.68800 27.42000
C  4.29600 47.62000 25.79700
C  5.63600 48.59400 28.82900
O  4.54800 48.51600 29.33900
C  6.96100 48.64000 29.70900
C  6.94900 47.42700 30.54500
O  7.23400 46.29200 30.15100
O  6.57100 47.73900 31.84500
C  6.65100 46.50400 32.69700
H  13.52900 50.64800 28.15700
H  12.45000 48.85000 22.05000
H  6.13400 47.80300 23.57500
H  9.60500 50.01600 30.89800
H  12.37600 50.02100 30.22300
H  11.39300 52.25600 28.87700
H  11.87600 52.43000 30.52500
H  10.16100 51.94800 30.18300
H  11.65000 47.87200 30.52600
H  10.23800 47.15800 30.23700
H  10.70100 46.68200 32.43400
H  9.30800 47.79300 32.42200
H  15.59800 50.14300 27.35100
H  15.81300 51.43100 26.18500
H  16.51700 49.77100 25.95500
H  16.82100 49.06400 23.97500
H  16.65800 50.86000 23.74400
H  17.20700 49.67900 22.44300
H  10.40500 46.92900 21.43900
H  7.67400 48.25300 21.21600
H  11.06300 49.41000 20.37800
H  9.38800 49.47000 19.95000
H  10.41400 48.17000 19.29300
H  8.12800 45.91500 20.66100
H  6.87800 46.00700 21.93700
H  7.88600 44.65100 23.00900
H  9.33700 45.65200 23.20900
H  9.26000 44.33800 21.93900
H  3.77100 48.51600 25.46500
H  3.81700 47.22900 26.69500
H  4.37400 46.92800 24.95900
H  6.87700 49.45400 30.42900
H  5.81000 45.85400 32.45900
H  6.56000 46.78500 33.74600
H  7.56800 45.97400 32.43800

