158

Mg 53.78800 24.92800 44.81800
C  51.08900 26.99300 44.05100
C  52.04900 22.29900 43.39900
C  56.64800 23.21600 44.39700
C  55.57500 27.83000 45.51400
N  51.79600 24.69900 43.91000
C  50.80500 25.71600 43.75300
C  49.55100 25.13800 43.08700
C  49.83200 23.65800 43.27800
C  51.32100 23.50000 43.49800
C  49.00300 22.90900 44.36900
C  49.46600 25.55700 41.62200
C  48.02500 25.78700 41.07700
H  47.81100 25.42500 39.62500
N  54.32200 23.03100 44.05800
C  53.46100 22.07500 43.57400
C  54.14600 20.78000 43.42200
C  55.46400 20.96400 43.81000
C  55.53800 22.43300 44.08900
C  53.42400 19.52000 42.98900
C  56.58300 19.97400 43.81000
O  56.35700 18.83500 43.40700
C  57.92300 20.28600 44.27900
N  55.74400 25.50200 44.80700
C  56.80000 24.56000 44.69800
C  58.10000 25.16300 44.97700
C  57.83300 26.66700 45.12200
C  56.31500 26.74500 45.03100
C  58.89700 24.47800 46.18700
C  58.54400 27.61700 44.10000
C  59.49900 28.63400 44.70600
N  53.44800 27.03700 44.90700
C  54.20900 28.04300 45.36600
C  53.44300 29.25800 45.55800
C  52.22500 28.89900 44.89100
C  52.26800 27.53600 44.58400
C  53.82400 30.44300 46.27600
C  50.91500 29.42100 44.56900
O  50.47300 30.54400 44.81100
C  50.26800 28.30700 43.76000
C  50.44600 28.69300 42.31500
O  51.50700 28.76200 41.78700
O  49.25900 28.99300 41.79100
C  49.21700 29.54200 40.42900
H  51.41100 21.44600 43.16000
H  57.61500 22.77500 44.14900
H  56.13400 28.70700 45.84600
H  48.65800 25.35800 43.67300
H  49.47700 23.12900 42.39300
H  48.32500 22.23300 43.84800
H  48.38200 23.55600 44.98900
H  49.73200 22.37600 44.98000
H  49.85100 24.71500 41.04600
H  50.13500 26.37800 41.36500
H  47.72700 26.83200 41.16600
H  47.28200 25.22100 41.63800
H  53.52100 19.43900 41.90700
H  52.43100 19.45000 43.43200
H  53.96400 18.65400 43.37300
H  58.33200 20.93800 43.50600
H  58.57600 19.42600 44.13400
H  57.90600 20.63500 45.31200
H  58.70600 24.92300 44.10300
H  58.18200 26.89800 46.12800
H  58.76600 25.13600 47.04600
H  59.95600 24.43000 45.93600
H  58.55400 23.50500 46.54000
H  57.90800 28.19100 43.42700
H  59.04400 26.92800 43.42000
H  60.51800 28.47800 44.35300
H  59.35500 28.71400 45.78400
H  59.13500 29.57000 44.28300
H  54.73100 30.22000 46.83800
H  52.99200 30.83500 46.86000
H  53.97700 31.27900 45.59300
H  49.24000 28.25100 44.12000
H  50.24700 29.75400 40.14400
H  48.78700 30.53800 40.31600
H  48.68100 28.93800 39.69700
Mg 0.32700 41.78700 25.16500
C  1.35200 41.98900 28.51300
C  -2.49800 40.17500 26.26300
C  -0.59900 41.46600 21.96100
C  3.56500 42.72300 24.13800
N  -0.48800 41.29600 27.16700
C  0.07500 41.47200 28.35300
C  -0.80800 41.03600 29.50700
C  -1.99200 40.28800 28.82000
C  -1.64400 40.57700 27.29300
C  -2.13700 38.82700 29.21900
C  -1.31600 42.22600 30.45500
C  -1.00000 41.96400 31.92900
H  -1.64800 40.66300 32.64100
N  -1.36900 41.04100 24.25600
C  -2.35800 40.37200 24.88100
C  -3.46400 40.17900 23.90300
C  -2.88500 40.49500 22.65500
C  -1.57800 41.08400 22.92400
C  -4.84900 39.76300 24.25400
C  -3.57000 40.39300 21.28700
O  -3.11200 40.86800 20.29100
C  -4.92000 39.59000 21.21500
N  1.38100 41.96900 23.35500
C  0.72100 41.67400 22.15100
C  1.72000 41.79400 20.96500
C  3.03800 42.21000 21.58400
C  2.63300 42.37700 23.07700
C  1.69900 40.37200 20.24000
C  3.55600 43.49000 21.06600
C  2.73700 44.76100 21.21500
N  2.13000 42.27700 26.10900
C  3.31000 42.76500 25.52300
C  4.19100 43.04200 26.65900
C  3.46300 42.73200 27.87100
C  2.21300 42.32400 27.45400
C  5.60100 43.68800 26.60000
C  3.47900 42.68400 29.31800
O  4.35900 42.96900 30.11500
C  2.17500 42.10700 29.76700
C  2.53300 40.75300 30.24700
O  3.08900 39.90800 29.58900
O  2.37800 40.76300 31.55900
C  2.48700 39.52600 32.32900
H  -3.34000 39.54300 26.55400
H  -0.78800 41.35500 20.89100
H  4.58600 42.94500 23.82100
H  -0.26300 40.32600 30.12900
H  -2.90200 40.81100 29.11300
H  -1.48500 38.55600 30.04900
H  -1.75900 38.19000 28.41900
H  -3.19800 38.67300 29.41100
H  -2.37900 42.45600 30.38600
H  -0.85200 43.17500 30.18800
H  -1.33600 42.80000 32.54200
H  0.07900 41.86200 32.05000
H  -5.45000 40.65900 24.10400
H  -4.91500 39.58100 25.32600
H  -5.22200 38.92200 23.66900
H  -5.61600 40.10700 21.87600
H  -4.56100 38.57600 21.39100
H  -5.25900 39.70000 20.18500
H  1.31600 42.51100 20.25000
H  3.77900 41.41200 21.53300
H  1.38100 40.65700 19.23700
H  0.93600 39.68900 20.61400
H  2.71300 39.97300 20.22700
H  3.71100 43.29900 20.00400
H  4.57100 43.49000 21.46500
H  2.71600 45.29100 20.26300
H  3.34600 45.40800 21.84700
H  1.76900 44.61900 21.69400
H  5.67400 44.12600 25.60400
H  6.34400 42.89200 26.66000
H  5.56600 44.45500 27.37300
H  1.73000 42.76900 30.51100
H  3.46400 39.32700 32.77000
H  2.33400 38.63100 31.72600
H  1.76500 39.57000 33.14400

