158

Mg 2.15500 -2.40400 44.50700
C  5.29100 -1.22400 43.57700
C  0.79600 -0.01000 42.14100
C  -0.88900 -3.77400 44.69000
C  3.68300 -5.06100 46.26500
N  2.99100 -0.90000 42.95600
C  4.26900 -0.61700 42.78900
C  4.53900 0.52900 41.77200
C  3.11700 1.11900 41.63000
C  2.18600 0.00500 42.22900
C  2.84100 2.44900 42.33700
C  5.10700 -0.09500 40.48500
C  6.65600 0.19300 40.36000
H  7.23200 0.53300 39.01400
N  0.24400 -1.79100 43.81500
C  -0.06500 -0.81100 42.85000
C  -1.52600 -0.74600 42.68400
C  -2.08300 -1.80300 43.47400
C  -0.91700 -2.53100 44.01100
C  -2.18400 0.34500 41.82900
C  -3.54700 -1.93200 43.82800
O  -4.37200 -1.21600 43.29400
C  -4.05800 -2.88200 44.87800
N  1.56200 -4.24600 45.17500
C  0.20300 -4.57800 45.15400
C  0.04400 -5.83500 46.04800
C  1.47800 -6.18500 46.61500
C  2.28100 -5.05800 46.08800
C  -1.04000 -5.65100 47.13300
C  2.02200 -7.61400 46.22300
C  2.39500 -8.51000 47.47600
N  4.02100 -3.03900 44.84800
C  4.47900 -4.05700 45.67200
C  5.94600 -3.87700 45.90400
C  6.21000 -2.75700 45.05500
C  5.05800 -2.31700 44.40900
C  6.74600 -4.60100 46.89800
C  7.33600 -1.81600 44.76800
O  8.52800 -1.82300 45.17300
C  6.76600 -0.78600 43.69600
C  6.82800 0.52500 44.33900
O  6.24900 0.86500 45.36900
O  7.73800 1.35000 43.69500
C  8.02700 2.60600 44.41200
H  0.33300 0.76700 41.52900
H  -1.85100 -4.28800 44.64100
H  4.13200 -5.80500 46.92600
H  5.12000 1.32000 42.24600
H  2.88200 1.35300 40.59100
H  3.79900 2.78800 42.73100
H  2.26400 2.29700 43.24900
H  2.42000 3.24400 41.72100
H  4.68600 0.36800 39.59300
H  4.92400 -1.16900 40.48000
H  7.01400 -0.78800 40.67000
H  7.12700 0.86200 41.08000
H  -2.04700 0.05600 40.78700
H  -1.70700 1.30000 42.05100
H  -3.25500 0.49400 41.96600
H  -4.25300 -3.78300 44.29800
H  -5.00500 -2.55100 45.30500
H  -3.28300 -3.04300 45.62700
H  -0.30600 -6.71200 45.50400
H  1.42800 -6.08500 47.69900
H  -0.62200 -5.74800 48.13500
H  -1.87900 -6.33900 47.02600
H  -1.45300 -4.64300 47.13900
H  2.83100 -7.51400 45.49800
H  1.23500 -8.17500 45.72000
H  3.32900 -9.07100 47.44200
H  1.65600 -9.31200 47.48700
H  2.34600 -7.85600 48.34700
H  6.53500 -5.67000 46.86700
H  6.42800 -4.24900 47.87900
H  7.82600 -4.69500 46.78100
H  7.38500 -0.89600 42.80500
H  8.81800 3.15600 43.90200
H  8.30000 2.39100 45.44500
H  7.20800 3.32300 44.36600
Mg 17.60100 51.46300 26.70400
C  19.62500 49.91800 29.20400
C  15.26100 52.29900 28.93000
C  15.89900 52.54500 24.04600
C  20.22300 50.25900 24.37900
N  17.40500 50.97700 28.83100
C  18.39400 50.50400 29.69500
C  18.02300 50.82400 31.21100
C  16.49800 51.34600 31.03400
C  16.34800 51.58700 29.45700
C  15.32000 50.38100 31.59400
C  18.96400 51.89600 31.80300
C  19.35500 51.71000 33.26600
H  18.55200 50.79300 34.22000
N  15.82200 52.18300 26.53700
C  14.96000 52.52500 27.58600
C  13.74500 53.02900 26.98900
C  13.91600 53.24300 25.57800
C  15.24500 52.67000 25.32600
C  12.45300 53.23400 27.80300
C  12.94700 53.86800 24.50800
O  13.30500 54.03300 23.32800
C  11.59200 54.25700 24.86400
N  17.99000 51.32500 24.51700
C  17.14800 51.96400 23.68600
C  17.58000 51.93700 22.24700
C  19.07100 51.37900 22.39400
C  19.09300 50.95500 23.85600
C  16.66400 51.06500 21.30600
C  20.14000 52.51800 22.16700
C  21.50500 52.06300 21.62200
N  19.51700 50.29700 26.69300
C  20.38800 49.89000 25.75200
C  21.48400 49.12100 26.29900
C  21.24000 49.13900 27.65600
C  20.04500 49.84600 27.86600
C  22.73100 48.69500 25.48500
C  21.69100 48.75200 28.99100
O  22.65100 48.02800 29.31200
C  20.70200 49.31700 30.01300
C  20.20200 48.25900 30.84700
O  19.68100 47.26700 30.37400
O  20.51900 48.45700 32.19500
C  20.33400 47.24600 33.11300
H  14.52800 52.63100 29.66900
H  15.29200 52.80800 23.17800
H  20.99900 49.92700 23.68600
H  17.97100 49.86300 31.72400
H  16.37200 52.31200 31.52200
H  14.63000 50.98300 32.18600
H  15.73200 49.57300 32.20000
H  14.81100 49.97500 30.72000
H  18.45500 52.85900 31.76500
H  19.90200 52.12800 31.29900
H  19.40000 52.64600 33.82200
H  20.37300 51.32300 33.24700
H  11.66600 52.68500 27.28600
H  12.26100 54.30200 27.90900
H  12.59500 52.78700 28.78700
H  11.14800 54.98600 24.18600
H  11.36800 54.76600 25.80100
H  10.93700 53.38800 24.92800
H  17.53800 52.94100 21.82300
H  19.27500 50.46300 21.83900
H  15.73700 50.86300 21.84200
H  17.16300 50.12900 21.05300
H  16.33700 51.53100 20.37700
H  20.48400 52.73200 23.17900
H  19.83400 53.42900 21.65200
H  21.67200 52.76100 20.80100
H  21.44900 50.99700 21.40400
H  22.33400 52.24200 22.30800
H  23.01400 49.46400 24.76600
H  22.56400 47.71800 25.03300
H  23.51400 48.67500 26.24300
H  21.21100 50.02900 30.66200
H  20.89700 47.33900 34.04200
H  20.48200 46.24800 32.69900
H  19.29100 47.35000 33.41300

