158

Mg 26.18000 -0.13400 29.35000
C  27.85300 -0.60000 32.44100
C  23.29900 0.28300 30.98100
C  24.54500 -0.45100 26.28200
C  29.17700 -1.20300 27.68000
N  25.67000 -0.17400 31.52600
C  26.51500 -0.34500 32.60100
C  25.72600 0.02800 33.92100
C  24.29300 -0.06600 33.39700
C  24.42900 0.04400 31.84200
C  23.45400 -1.25100 33.86600
C  26.13900 1.43000 34.49900
C  25.80200 1.64900 35.93100
H  26.88100 1.82300 37.02700
N  24.26300 -0.02500 28.72200
C  23.23400 0.22300 29.57500
C  22.07900 0.44000 28.78400
C  22.37900 0.20700 27.39600
C  23.82100 -0.14800 27.47400
C  20.73300 0.66600 29.38000
C  21.52300 0.19600 26.07800
O  21.87800 -0.02200 24.90200
C  20.04200 0.50100 26.28900
N  26.77800 -0.69900 27.27600
C  25.89800 -0.72900 26.22700
C  26.62800 -1.19000 24.97000
C  28.18500 -1.20700 25.34800
C  28.04100 -1.09200 26.86900
C  26.05000 -2.44900 24.25800
C  29.03700 -0.11300 24.75800
C  30.45800 -0.55700 24.66400
N  28.11200 -0.62100 29.85800
C  29.24800 -0.98600 29.07800
C  30.36600 -1.11400 29.94500
C  29.87400 -0.96500 31.25100
C  28.50200 -0.76000 31.13500
C  31.71100 -1.38900 29.53300
C  30.32800 -0.93400 32.67800
O  31.37100 -1.16500 33.23100
C  29.03700 -0.57900 33.49300
C  28.80400 -1.57300 34.58400
O  28.39700 -2.69700 34.28900
O  29.08300 -0.99600 35.84600
C  28.73100 -1.87700 36.99200
H  22.38300 0.39600 31.56500
H  24.12700 -0.43300 25.27400
H  30.05000 -1.56500 27.13300
H  25.87700 -0.71500 34.70400
H  23.83600 0.85400 33.76200
H  23.18800 -1.93700 33.06100
H  22.54700 -0.83600 34.30600
H  24.00200 -1.86600 34.57900
H  25.65200 2.14100 33.83100
H  27.21800 1.54500 34.39600
H  25.20100 0.79900 36.25300
H  25.21500 2.56200 35.84100
H  19.91700 0.14400 28.88000
H  20.52900 1.71400 29.15900
H  20.54600 0.54100 30.44700
H  19.53200 -0.29600 26.83000
H  19.62000 0.69800 25.30300
H  20.03000 1.50100 26.72200
H  26.57900 -0.44500 24.17600
H  28.59500 -2.19200 25.12800
H  25.03400 -2.68400 24.57500
H  26.68300 -3.32200 24.41800
H  25.99800 -2.32600 23.17600
H  29.12900 0.73500 25.43600
H  28.70400 0.19800 23.76800
H  30.77200 -0.49100 23.62200
H  30.51700 -1.60200 24.96800
H  31.16000 -0.00600 25.29100
H  31.92500 -0.85100 28.60900
H  31.90100 -2.42200 29.24200
H  32.39000 -1.07300 30.32500
H  29.17000 0.37200 34.01100
H  27.64400 -1.91600 37.06600
H  29.10200 -1.37100 37.88400
H  28.98200 -2.93600 36.93400
Mg -8.51200 40.58900 43.03600
C  -7.59400 37.38200 41.82800
C  -5.96700 41.92700 41.19000
C  -9.92100 43.69100 43.36200
C  -11.33600 39.20700 44.30600
N  -6.87500 39.69500 41.66800
C  -6.75800 38.37900 41.31300
C  -5.45500 38.14500 40.44300
C  -4.82700 39.55100 40.53400
C  -5.97200 40.47700 41.10400
C  -3.46900 39.66500 41.28600
C  -5.82500 37.64300 39.02600
C  -5.33400 36.25000 38.65200
H  -4.19600 36.12100 37.60200
N  -7.91100 42.57400 42.44100
C  -6.86100 42.85500 41.69800
C  -6.71800 44.20400 41.57800
C  -7.83400 44.86200 42.21400
C  -8.68000 43.69900 42.74500
C  -5.50200 44.83800 40.90800
C  -8.11600 46.25000 42.30700
O  -7.35800 47.03700 41.76600
C  -9.15500 46.82300 43.22200
N  -10.25700 41.37000 43.77000
C  -10.65100 42.67000 43.87400
C  -12.09100 42.80700 44.35600
C  -12.50900 41.37600 44.69600
C  -11.27600 40.58300 44.21700
C  -12.35500 43.84700 45.39500
C  -13.98800 40.92900 44.33500
C  -15.16400 41.83300 44.84100
N  -9.38800 38.64000 43.03100
C  -10.52100 38.22800 43.66000
C  -10.67400 36.77600 43.56100
C  -9.50900 36.40500 42.86800
C  -8.76000 37.59000 42.53500
C  -11.85100 35.98300 44.16400
C  -8.77000 35.27900 42.33500
O  -8.97200 34.06700 42.52000
C  -7.57500 35.90400 41.51800
C  -6.27300 35.32600 41.93800
O  -5.61800 35.70800 42.88200
O  -6.11200 34.21500 41.20900
C  -5.02300 33.38600 41.56800
H  -5.08300 42.35200 40.70900
H  -10.44100 44.64900 43.42900
H  -12.22200 38.81800 44.81100
H  -4.75500 37.43800 40.88700
H  -4.78700 40.09000 39.58800
H  -2.74700 40.19100 40.66200
H  -3.07300 38.67400 41.50400
H  -3.46700 40.05300 42.30500
H  -5.63900 38.44200 38.30800
H  -6.90500 37.49800 39.04400
H  -6.19200 35.67800 38.30100
H  -4.99400 35.74100 39.55400
H  -5.25600 44.37500 39.95200
H  -4.66800 44.73900 41.60300
H  -5.60700 45.92100 40.83700
H  -8.96200 47.88000 43.40200
H  -9.15100 46.35200 44.20500
H  -10.16400 46.83400 42.81100
H  -12.64200 43.04600 43.44600
H  -12.39800 41.30600 45.77800
H  -11.46800 44.15800 45.94700
H  -13.18700 43.68000 46.08000
H  -12.70800 44.74200 44.88300
H  -14.18800 40.02400 44.90800
H  -14.10200 40.72700 43.27000
H  -15.55000 41.39100 45.76000
H  -15.97400 42.09400 44.16000
H  -14.82100 42.86500 44.91700
H  -12.67500 35.90800 43.45500
H  -12.31400 36.60000 44.93500
H  -11.38100 35.05000 44.47600
H  -7.74000 35.76000 40.45000
H  -4.76600 32.76200 40.71300
H  -5.09900 32.80400 42.48700
H  -4.11200 33.94800 41.77300

