158

Mg 35.46800 1.42000 29.67400
C  33.12900 2.79500 31.96300
C  37.80000 1.55900 32.31000
C  37.80400 0.90000 27.48000
C  33.14500 2.03300 27.09000
N  35.48300 2.23100 31.83800
C  34.37000 2.55700 32.59000
C  34.64200 2.55100 34.08300
C  36.17000 2.37500 34.07800
C  36.49300 2.02400 32.68600
C  37.07600 3.60500 34.39800
C  33.79900 1.29900 34.69400
C  33.33400 1.41200 36.11600
H  34.05200 2.45400 37.05000
N  37.53600 1.23000 29.85700
C  38.32200 1.17300 30.93900
C  39.70700 0.83400 30.59800
C  39.68900 0.56600 29.23200
C  38.32500 0.92900 28.78100
C  40.76300 0.60700 31.63800
C  40.75700 -0.01900 28.34800
O  40.63900 -0.04100 27.11900
C  41.94700 -0.66000 28.89900
N  35.43500 1.34700 27.60000
C  36.51700 1.06100 26.94100
C  36.22200 1.00300 25.39000
C  34.64900 0.97300 25.35400
C  34.33900 1.49400 26.76800
C  36.94200 1.94400 24.41300
C  33.86900 -0.36500 24.95900
C  33.58900 -0.52300 23.44300
N  33.52600 2.02200 29.52300
C  32.71500 2.36400 28.40000
C  31.38400 2.76000 28.79700
C  31.55000 2.86100 30.22300
C  32.82900 2.54600 30.57100
C  30.23200 3.13000 27.89400
C  30.79700 3.32400 31.32300
O  29.66300 3.74900 31.40900
C  31.75600 3.22700 32.52800
C  31.61600 4.45500 33.33600
O  31.97000 5.60200 33.06900
O  31.03000 4.04900 34.49700
C  30.97800 5.06800 35.62400
H  38.51200 1.77000 33.11200
H  38.53000 0.71700 26.68400
H  32.44800 2.13500 26.25500
H  34.24900 3.47300 34.51100
H  36.41600 1.59200 34.79600
H  38.07900 3.24400 34.62400
H  36.59200 4.11900 35.22800
H  37.09900 4.29100 33.55100
H  34.53200 0.49300 34.65000
H  32.90100 1.15700 34.09400
H  33.35300 0.42800 36.58300
H  32.33100 1.83100 36.04100
H  40.86900 -0.47600 31.69800
H  40.45700 1.11900 32.55000
H  41.74300 0.99000 31.35300
H  42.51900 -1.15800 28.11600
H  41.65100 -1.42200 29.62000
H  42.61400 0.05300 29.38300
H  36.43200 -0.01400 25.05900
H  34.26800 1.73700 24.67700
H  37.93900 1.51900 24.29600
H  37.03400 2.96500 24.78400
H  36.40800 1.91700 23.46300
H  32.91800 -0.27000 25.48100
H  34.35200 -1.26700 25.33600
H  32.74700 0.10400 23.15300
H  33.13700 -1.49700 23.25400
H  34.52100 -0.28900 22.92800
H  30.63500 3.21800 26.88500
H  29.76800 4.01900 28.32200
H  29.43800 2.38400 27.90300
H  31.41300 2.32800 33.04000
H  31.18200 6.11700 35.40800
H  31.74400 4.78300 36.34600
H  30.01800 4.81000 36.07000
Mg 30.53600 57.92600 40.44500
C  27.66000 55.99400 39.64200
C  32.47700 55.24300 39.53700
C  33.04500 60.04800 40.22300
C  28.31700 60.64700 40.90700
N  30.04900 55.85500 39.87900
C  28.89500 55.29100 39.55100
C  29.19200 53.88900 38.93300
C  30.60000 53.51900 39.50300
C  31.12000 54.93800 39.72500
C  30.61400 52.76500 40.82900
C  29.12000 53.99300 37.40500
C  27.80400 53.35800 36.82700
H  26.90600 54.13900 35.88600
N  32.59400 57.61700 40.05500
C  33.16900 56.49900 39.61100
C  34.58900 56.75200 39.35700
C  34.80000 58.16800 39.60100
C  33.47500 58.70900 39.94900
C  35.64400 55.73300 38.95000
C  36.09300 59.03800 39.31900
O  37.07000 58.47000 38.99900
C  36.16400 60.50100 39.53600
N  30.62200 60.08500 40.39800
C  31.81600 60.69500 40.51200
C  31.74900 62.10400 40.97800
C  30.22000 62.29000 41.26300
C  29.63200 60.94500 40.81500
C  32.61300 62.43000 42.23800
C  29.54900 63.61300 40.54900
C  28.95600 64.73500 41.50300
N  28.39000 58.30000 40.40100
C  27.62100 59.45200 40.60500
C  26.23100 59.12300 40.49500
C  26.21400 57.78000 40.15000
C  27.52800 57.32700 40.07600
C  25.04300 60.04000 40.72900
C  25.31700 56.65900 39.85300
O  24.09900 56.55300 39.89400
C  26.27400 55.47000 39.58700
C  26.00100 54.43400 40.63900
O  26.73200 54.23500 41.59500
O  24.85300 53.67400 40.42100
C  24.85600 52.40100 41.13000
H  33.05000 54.39100 39.16400
H  33.93200 60.64700 40.44300
H  27.77800 61.55900 41.17100
H  28.38100 53.34100 39.41200
H  31.19600 53.02500 38.73600
H  31.38900 53.09900 41.51900
H  30.78500 51.75700 40.45300
H  29.66300 52.80300 41.35900
H  29.95800 53.55600 36.86200
H  29.10600 55.05400 37.15400
H  27.09200 53.10400 37.61200
H  28.08000 52.46800 36.26300
H  35.76500 55.57300 37.87800
H  35.35900 54.79700 39.43000
H  36.59300 56.01800 39.40500
H  36.02200 60.67800 40.60200
H  35.42800 61.10200 39.00200
H  37.15400 60.87100 39.26900
H  32.05800 62.67400 40.10200
H  30.11500 62.43700 42.33800
H  32.71100 63.51200 42.32200
H  33.60000 61.97500 42.31900
H  32.01100 62.14800 43.10200
H  28.75600 63.17000 39.94700
H  30.33300 64.10100 39.97000
H  28.73800 64.18700 42.42000
H  28.00900 65.20600 41.23800
H  29.71300 65.50700 41.64400
H  25.15900 60.65600 41.62100
H  24.05200 59.58600 40.74300
H  25.25200 60.86100 40.04300
H  26.07800 55.10300 38.58000
H  24.30200 51.66000 40.55400
H  24.47100 52.53100 42.14100
H  25.84500 51.99200 41.33400

