158

Mg 41.39300 7.60300 29.16400
C  43.08600 9.08800 31.79700
C  39.22300 6.10900 31.39500
C  39.98700 5.94200 26.52300
C  44.06100 8.52700 27.06100
N  41.23700 7.59200 31.30100
C  41.86400 8.46900 32.19100
C  41.21600 8.53200 33.55200
C  40.18200 7.30300 33.40300
C  40.25200 6.90100 31.95800
C  40.60600 6.03400 34.30600
C  40.60100 9.93800 33.86300
C  40.18900 10.16300 35.32200
H  40.92400 11.04800 36.23500
N  39.67200 6.36600 28.98900
C  38.96000 5.90300 30.00900
C  37.84900 5.13000 29.48000
C  37.94900 5.14800 28.01100
C  39.24800 5.76100 27.74600
C  36.78900 4.53300 30.38400
C  37.00900 4.64900 26.91000
O  37.24200 4.70800 25.69400
C  35.68200 4.26300 27.29800
N  41.89400 7.29600 27.06300
C  41.16700 6.58200 26.19600
C  41.74700 6.71600 24.71600
C  42.93400 7.70500 24.92100
C  42.94100 7.91800 26.46000
C  42.08300 5.27100 24.24300
C  42.71500 9.03800 24.11900
C  41.68600 10.04300 24.60500
N  43.16700 8.57500 29.26500
C  44.19400 8.81000 28.34500
C  45.27700 9.61300 28.96200
C  44.90700 9.74700 30.30300
C  43.67900 9.04900 30.44700
C  46.51200 10.10800 28.33900
C  45.22700 10.34200 31.59300
O  46.14000 11.08000 31.86400
C  44.03400 9.87300 32.61200
C  44.64900 9.11800 33.71900
O  44.67000 7.89600 33.84500
O  45.04100 10.01900 34.71200
C  45.33800 9.39200 36.03400
H  38.69600 5.59800 32.20300
H  39.59700 5.51300 25.59700
H  44.75400 8.99500 26.35900
H  41.90600 8.24800 34.34700
H  39.16800 7.68900 33.50900
H  41.06900 6.26900 35.26500
H  41.27800 5.37700 33.75300
H  39.72800 5.46600 34.61300
H  39.70500 10.02800 33.24800
H  41.32200 10.74800 33.75000
H  40.22800 9.19000 35.81100
H  39.14300 10.46800 35.34600
H  37.03300 4.53900 31.44600
H  36.60000 3.47000 30.23500
H  35.91500 5.16300 30.22100
H  35.16300 5.12400 27.71900
H  35.58600 3.43000 27.99400
H  35.20900 3.96200 26.36300
H  40.90000 7.14400 24.18000
H  43.92900 7.27100 24.82200
H  41.60300 4.53300 24.88600
H  43.15600 5.14400 24.38700
H  41.96700 5.07100 23.17700
H  42.48000 8.78200 23.08600
H  43.69300 9.51200 24.03800
H  40.80300 9.94200 23.97400
H  42.09700 11.04400 24.47900
H  41.33400 10.00500 25.63700
H  46.17100 10.23000 27.31100
H  47.31900 9.37800 28.40600
H  46.64600 11.06900 28.83400
H  43.53700 10.74800 33.03200
H  46.15700 8.68800 35.89400
H  44.56300 8.80400 36.52700
H  45.70800 10.19300 36.67500
Mg 0.01300 43.08800 25.84900
C  2.49700 42.98900 28.42700
C  -2.32500 42.39500 28.34500
C  -2.15100 42.92000 23.40100
C  2.66500 43.22600 23.51100
N  0.13800 42.60700 28.06600
C  1.23300 42.73000 28.93000
C  0.74000 42.61200 30.41000
C  -0.79400 42.19300 30.28700
C  -0.98500 42.36500 28.75500
C  -1.12000 40.78900 30.95400
C  1.08600 43.94000 31.20800
C  1.35000 43.75900 32.76300
H  0.88600 42.42800 33.42700
N  -2.04900 42.82300 25.85500
C  -2.82200 42.55100 26.95000
C  -4.17000 42.49600 26.49400
C  -4.19300 42.67200 25.05700
C  -2.78500 42.85100 24.69200
C  -5.28700 42.36600 27.47000
C  -5.39700 42.60000 24.09400
O  -5.23700 42.73400 22.89300
C  -6.79200 42.14400 24.50400
N  0.19500 43.24500 23.75300
C  -0.86300 43.05100 22.91600
C  -0.58100 43.11900 21.41700
C  1.00500 43.19500 21.42600
C  1.35300 43.24800 22.95100
C  -1.09700 41.94600 20.62700
C  1.78000 44.37900 20.62700
C  1.24100 45.84100 20.80300
N  2.13700 43.15000 25.88900
C  3.02200 43.23900 24.87800
C  4.32600 43.16800 25.39900
C  4.17300 43.12400 26.76500
C  2.84400 43.11900 27.05900
C  5.71300 43.24200 24.63100
C  4.88500 43.00800 28.04100
O  6.04200 42.80500 28.31600
C  3.77400 43.09200 29.19500
C  4.05800 41.91100 30.09100
O  3.85200 40.73000 29.88000
O  4.57700 42.42800 31.20600
C  4.61300 41.43000 32.35400
H  -3.05400 42.34300 29.15600
H  -2.93900 42.83100 22.65100
H  3.51300 43.07700 22.83800
H  1.36800 41.96100 31.01900
H  -1.41600 42.92700 30.79900
H  -0.30500 40.54400 31.63600
H  -1.29500 40.02100 30.20000
H  -2.07000 40.93800 31.46800
H  0.35600 44.73000 31.03200
H  2.02400 44.41700 30.92300
H  0.92800 44.61500 33.28800
H  2.43500 43.78600 32.85900
H  -6.23900 42.75900 27.11400
H  -5.10900 42.98100 28.35200
H  -5.52400 41.33600 27.74000
H  -7.07100 42.91000 25.22800
H  -6.74800 41.13300 24.90900
H  -7.48400 42.12900 23.66200
H  -0.91800 44.04200 20.94600
H  1.45400 42.21900 21.24500
H  -1.74600 41.41800 21.32600
H  -0.28600 41.33900 20.22400
H  -1.67300 42.29600 19.77000
H  1.77700 44.08700 19.57700
H  2.78000 44.54600 21.02800
H  0.58000 46.07900 19.97000
H  2.03500 46.56700 20.98000
H  0.74200 46.00000 21.75900
H  6.49100 43.53300 25.33700
H  5.72100 43.92300 23.78000
H  5.99200 42.27000 24.22400
H  3.93200 44.03200 29.72200
H  5.67800 41.31600 32.55700
H  4.21600 40.43100 32.17200
H  4.16000 41.90500 33.22400

