158

Mg 25.69900 -8.56200 47.77800
C  27.94300 -6.15800 46.51800
C  23.44800 -7.59100 45.24700
C  23.94400 -11.43400 48.28500
C  28.38500 -9.77400 49.73000
N  25.71600 -6.99600 46.09500
C  26.70000 -6.13900 45.82000
C  26.25600 -5.10900 44.84000
C  24.74900 -5.52000 44.55900
C  24.56800 -6.73800 45.42200
C  23.71300 -4.41700 44.92200
C  27.10600 -4.93900 43.50300
C  27.41700 -3.54300 43.15200
H  27.46200 -3.17300 41.65200
N  23.87700 -9.36200 46.98000
C  23.15400 -8.80300 45.95000
C  21.94800 -9.63300 45.82400
C  21.97400 -10.64500 46.74400
C  23.30600 -10.54400 47.42100
C  20.82500 -9.32000 44.78200
C  20.98300 -11.79100 46.86700
O  20.06000 -11.93100 46.09200
C  21.24300 -12.85000 47.91600
N  26.18300 -10.34100 48.69900
C  25.18600 -11.27700 48.91800
C  25.69200 -12.46800 49.81300
C  27.14700 -11.89500 50.28800
C  27.25300 -10.58800 49.57600
C  24.74700 -12.89000 50.95400
C  28.27000 -12.85900 49.94700
C  29.01400 -12.55000 48.64600
N  27.66800 -7.98300 48.17100
C  28.61900 -8.55700 49.02800
C  29.82000 -7.76900 48.97500
C  29.59000 -6.72600 48.05800
C  28.29600 -6.94800 47.54500
C  31.05900 -8.04200 49.74700
C  30.11500 -5.59500 47.42700
O  31.18300 -4.99200 47.53300
C  29.02800 -5.15800 46.39900
C  28.51100 -3.84300 46.86300
O  27.57200 -3.69700 47.62400
O  29.04300 -2.87000 46.06800
C  28.34000 -1.56200 46.05300
H  22.68500 -7.19000 44.57700
H  23.55800 -12.45100 48.38500
H  29.12800 -10.23400 50.38500
H  26.26700 -4.16900 45.39000
H  24.66300 -5.87800 43.53300
H  24.14000 -3.47000 44.59100
H  23.62400 -4.48900 46.00600
H  22.74100 -4.65700 44.49100
H  26.54800 -5.38500 42.67900
H  28.02700 -5.51500 43.59300
H  28.32300 -3.27200 43.69500
H  26.68900 -2.90700 43.65600
H  20.92000 -8.41300 44.18400
H  19.95700 -9.17700 45.42600
H  20.59600 -10.14100 44.10300
H  21.62900 -12.41000 48.83600
H  21.98100 -13.42400 47.35500
H  20.40100 -13.48800 48.18000
H  25.97200 -13.29700 49.16400
H  27.14000 -11.71200 51.36200
H  25.16400 -12.58300 51.91300
H  24.68800 -13.97800 50.98700
H  23.77400 -12.45600 50.72200
H  27.94700 -13.88300 49.75800
H  28.93400 -12.75500 50.80500
H  29.42400 -13.50300 48.31300
H  29.85900 -11.89800 48.86800
H  28.37000 -12.08500 47.90000
H  30.90200 -8.83700 50.47600
H  31.47800 -7.17400 50.25500
H  31.66700 -8.65600 49.08200
H  29.34800 -5.05800 45.36200
H  28.82300 -0.80900 45.43000
H  28.16800 -1.18100 47.06000
H  27.29900 -1.65000 45.74100
Mg 29.43800 58.52400 41.14800
C  26.25200 57.02100 40.42100
C  30.93300 55.83800 39.74500
C  32.25800 60.28300 41.08900
C  27.60600 61.53200 41.88500
N  28.72000 56.73600 40.06500
C  27.36700 56.24900 39.97000
C  27.34300 55.03000 39.11000
C  28.76200 54.49300 39.25500
C  29.54400 55.74100 39.69800
C  28.92100 53.35400 40.27900
C  26.88400 55.45700 37.63300
C  25.85500 54.47300 36.95900
H  26.09200 54.00500 35.49300
N  31.34200 58.04500 40.69900
C  31.79500 56.86400 40.12600
C  33.22400 56.93400 40.07200
C  33.71700 58.16800 40.58200
C  32.43600 58.87900 40.81600
C  34.00800 55.72000 39.56200
C  35.18700 58.72400 40.72700
O  36.17800 58.00900 40.56300
C  35.42500 60.21700 41.16400
N  29.86300 60.61400 41.45500
C  31.14700 61.04900 41.42700
C  31.20300 62.47000 41.81400
C  29.73600 62.91100 42.18500
C  28.98400 61.65100 41.73700
C  32.37100 63.00300 42.65400
C  29.17700 64.29800 41.65000
C  28.50600 65.28800 42.68900
N  27.40000 59.12900 41.22300
C  26.83800 60.36500 41.51100
C  25.39300 60.25100 41.51500
C  25.14600 58.94700 41.04700
C  26.39700 58.32700 40.85300
C  24.36700 61.38800 41.84100
C  24.09100 58.00800 40.73700
O  22.88300 58.14800 40.71100
C  24.78500 56.72400 40.31500
C  24.49800 55.66900 41.27700
O  24.94600 55.70600 42.39500
O  23.89900 54.61000 40.66200
C  23.58100 53.49000 41.53300
H  31.35000 54.89600 39.38000
H  33.20400 60.82900 41.10900
H  26.91000 62.35300 42.06900
H  26.65100 54.32700 39.57400
H  29.02500 54.03400 38.30200
H  28.00700 53.11100 40.82100
H  29.58400 53.54900 41.12200
H  29.25700 52.44600 39.77900
H  27.77800 55.44500 37.01000
H  26.42900 56.44700 37.59400
H  24.82200 54.82100 36.93400
H  25.92200 53.53300 37.50800
H  34.28200 55.95700 38.53400
H  33.43400 54.79400 39.56300
H  34.86800 55.57800 40.21600
H  35.22700 60.85600 40.30300
H  36.49000 60.30800 41.38100
H  35.04600 60.46100 42.15600
H  31.36000 62.99200 40.87100
H  29.68800 62.96600 43.27200
H  32.88700 62.12300 43.03800
H  32.20600 63.56000 43.57600
H  33.01500 63.59000 42.00000
H  28.41900 64.11200 40.88800
H  29.92400 64.85900 41.08900
H  27.54300 65.72000 42.41700
H  29.19700 66.08700 42.95600
H  28.20400 64.83000 43.63100
H  24.80900 61.98900 42.63600
H  23.35900 61.15300 42.18300
H  24.05600 62.01500 41.00500
H  24.37300 56.36100 39.37400
H  22.60700 53.58100 42.01400
H  24.47700 53.23700 42.10000
H  23.39500 52.64200 40.87400

