158

Mg 25.87600 2.02000 28.81100
C  27.57100 1.79900 31.93500
C  22.94200 2.37200 30.66100
C  24.22500 1.88200 26.00700
C  28.85700 1.02900 27.13700
N  25.30500 2.02600 31.13300
C  26.21800 2.08700 32.12700
C  25.49800 2.37300 33.48900
C  23.97400 2.50300 33.05400
C  24.01700 2.34300 31.55100
C  22.97200 1.57300 33.74900
C  26.04500 3.60600 34.16600
C  25.36000 4.01500 35.51700
H  26.32600 4.12300 36.67700
N  23.82100 2.16400 28.43100
C  22.76300 2.30300 29.28000
C  21.53000 2.43900 28.51900
C  21.95700 2.22600 27.14200
C  23.37500 2.15500 27.15000
C  20.15500 2.62900 29.19500
C  21.03500 2.21700 25.87500
O  21.40300 2.01000 24.72900
C  19.63400 2.43800 26.09500
N  26.49600 1.38800 26.89900
C  25.59100 1.56400 25.90200
C  26.16500 1.29600 24.52000
C  27.68800 1.30500 24.80800
C  27.72800 1.28900 26.37000
C  25.59600 -0.03100 24.01700
C  28.37300 2.58500 24.17700
C  29.74100 2.46400 23.47000
N  27.91300 1.56900 29.36200
C  28.94300 1.10200 28.59000
C  30.14800 0.94900 29.48500
C  29.70700 1.19400 30.79200
C  28.35100 1.57400 30.64300
C  31.50600 0.65600 29.08200
C  30.04000 1.13800 32.19800
O  31.14000 0.82400 32.69200
C  28.81100 1.63100 32.92000
C  28.44500 0.78500 34.10000
O  27.76800 -0.17400 34.03000
O  28.87700 1.31000 35.32400
C  28.41300 0.67800 36.52800
H  22.10300 2.70800 31.27300
H  23.68400 1.90200 25.05800
H  29.84900 0.92300 26.69300
H  25.60200 1.46800 34.08700
H  23.69700 3.54100 33.24000
H  22.12400 2.09800 34.18800
H  23.47300 1.01700 34.54100
H  22.55600 0.82500 33.07500
H  25.99500 4.37900 33.39900
H  27.10300 3.41500 34.34600
H  24.64000 3.25900 35.83000
H  24.83800 4.96700 35.42500
H  20.25000 2.68100 30.27900
H  19.52600 1.74200 29.11500
H  19.61100 3.47900 28.78100
H  19.10300 1.54400 26.42400
H  19.14000 2.90900 25.24500
H  19.65400 3.29300 26.77100
H  25.74900 1.99800 23.79600
H  28.14200 0.39300 24.42100
H  25.05300 0.15400 23.09100
H  24.95200 -0.34800 24.83800
H  26.44200 -0.71500 23.94900
H  28.56600 3.32600 24.95300
H  27.69400 3.13500 23.52500
H  30.20400 1.47800 23.52100
H  30.46000 3.15100 23.91500
H  29.70900 2.78800 22.42900
H  32.18200 1.28100 29.66700
H  31.59700 0.76200 28.00100
H  31.71600 -0.38600 29.32200
H  29.11800 2.59700 33.32200
H  27.98200 1.49700 37.10300
H  29.33700 0.27500 36.94400
H  27.76600 -0.19700 36.46200
Mg 1.09300 42.06500 26.10600
C  2.84800 41.92800 29.18500
C  -1.86700 41.10600 27.85100
C  -0.52900 41.80800 23.21000
C  4.04500 42.61600 24.49700
N  0.59500 41.57400 28.24200
C  1.45000 41.76500 29.32800
C  0.68800 41.62100 30.71300
C  -0.78300 41.32300 30.27800
C  -0.70900 41.32200 28.72100
C  -1.45200 40.06500 30.98300
C  0.81100 42.89000 31.61900
C  1.24000 42.74300 33.15200
H  0.85100 41.47700 33.83500
N  -0.84600 41.47700 25.56700
C  -1.88600 41.19200 26.42700
C  -3.07600 40.88900 25.66700
C  -2.69100 40.98800 24.26000
C  -1.30700 41.37800 24.26500
C  -4.53800 40.77600 26.21200
C  -3.51300 40.69500 23.00900
O  -3.11200 40.72900 21.89800
C  -4.94900 40.23600 23.14600
N  1.60100 42.29200 24.19600
C  0.81500 42.09400 23.08900
C  1.54500 42.25400 21.76600
C  2.95200 42.73400 22.22100
C  2.88600 42.51600 23.77000
C  1.54800 40.91400 21.01500
C  3.39000 44.13500 21.91900
C  3.59200 44.40200 20.40300
N  3.08800 42.20100 26.63700
C  4.19400 42.47600 25.87000
C  5.42000 42.51300 26.70200
C  4.91000 42.28100 27.95200
C  3.49300 42.06100 27.89000
C  6.72800 42.99200 26.24800
C  5.29800 42.30100 29.29600
O  6.40400 42.40400 29.74100
C  4.01500 42.12700 30.18400
C  4.24800 41.03000 31.27100
O  4.03400 39.87300 31.06200
O  4.65200 41.62700 32.41800
C  5.07300 40.74000 33.48900
H  -2.84900 41.02900 28.32200
H  -0.96100 41.81800 22.20700
H  4.99500 42.75000 23.97500
H  1.15800 40.76100 31.19000
H  -1.51500 42.11300 30.44300
H  -1.88500 39.37700 30.25600
H  -2.26200 40.39700 31.63200
H  -0.94300 39.38300 31.66400
H  -0.14000 43.42300 31.61400
H  1.49900 43.58600 31.13900
H  0.82800 43.60100 33.68300
H  2.31700 42.89800 33.21900
H  -5.21700 41.48200 25.73300
H  -4.53000 41.04100 27.27000
H  -4.96500 39.78000 26.09400
H  -5.37100 40.04100 22.16000
H  -5.65700 40.93000 23.59900
H  -4.96200 39.26500 23.64100
H  1.06200 43.05500 21.20600
H  3.80500 42.13200 21.90700
H  2.50900 40.43100 21.19600
H  1.39800 41.07000 19.94600
H  0.79100 40.24400 21.42100
H  4.40500 44.26500 22.29500
H  2.61500 44.84600 22.20500
H  2.82600 45.12400 20.11900
H  3.55300 43.45300 19.86800
H  4.59600 44.80100 20.25600
H  6.71000 43.22400 25.18300
H  7.57100 42.32700 26.43700
H  6.81500 43.98800 26.68400
H  3.87200 43.04900 30.74700
H  4.37000 39.95100 33.75900
H  5.25600 41.37100 34.35800
H  6.02400 40.25300 33.27400

