158

Mg 24.87600 1.49700 29.44100
C  26.72800 1.70400 32.31000
C  22.00100 1.63200 31.13700
C  23.22000 1.46600 26.43800
C  27.84200 1.18100 27.62700
N  24.46500 1.59300 31.52600
C  25.33700 1.79700 32.58800
C  24.59500 1.99200 33.87300
C  23.05300 1.97800 33.46000
C  23.13500 1.64600 31.90700
C  22.18600 0.91800 34.21900
C  25.10700 3.10700 34.85300
C  25.08400 2.83600 36.38300
H  25.25200 4.09200 37.29400
N  22.81900 1.57600 28.91000
C  21.78400 1.54200 29.74400
C  20.55300 1.40900 29.09100
C  20.86500 1.43000 27.66000
C  22.32700 1.43900 27.59300
C  19.23500 1.26200 29.81300
C  19.92900 1.31800 26.46500
O  20.38800 1.33700 25.33500
C  18.48500 1.16500 26.60300
N  25.52800 1.37100 27.31000
C  24.62400 1.43800 26.27400
C  25.34000 1.29200 24.86100
C  26.82100 1.22600 25.31900
C  26.72200 1.32900 26.82100
C  24.80900 -0.08000 24.23100
C  27.80300 2.33300 24.73800
C  27.17400 3.76800 24.98300
N  26.86100 1.21100 29.82100
C  27.95700 1.13400 29.02400
C  29.15100 0.95000 29.80200
C  28.69300 1.18000 31.10700
C  27.32800 1.41100 31.07700
C  30.56700 0.52800 29.29000
C  29.13900 1.31600 32.50600
O  30.27800 1.17400 32.99400
C  27.92500 1.68700 33.29800
C  27.74100 0.70600 34.38500
O  27.13200 -0.38500 34.30300
O  28.46900 1.16600 35.52500
C  28.52900 0.16400 36.59200
H  21.16700 1.69400 31.84000
H  22.74600 1.51700 25.45600
H  28.74800 1.04000 27.03500
H  24.82100 1.08200 34.42800
H  22.68400 3.00100 33.53200
H  22.70900 0.47500 35.06600
H  21.83600 0.13200 33.55000
H  21.34000 1.46900 34.63000
H  24.33600 3.87700 34.89400
H  26.09100 3.52400 34.64000
H  25.95400 2.22200 36.61700
H  24.19900 2.29000 36.70800
H  18.82600 2.25900 29.65100
H  19.33000 1.06000 30.88000
H  18.54200 0.51100 29.43500
H  18.37200 0.15600 26.99900
H  17.88200 1.24000 25.69800
H  18.09900 1.82300 27.38100
H  24.93300 2.03000 24.16900
H  27.29000 0.30400 24.97600
H  23.91800 0.12800 23.63800
H  24.59300 -0.66100 25.12700
H  25.54000 -0.55900 23.58000
H  27.90900 2.09000 23.68000
H  28.75500 2.34200 25.26900
H  27.89300 4.34100 25.56900
H  26.24100 3.69300 25.54000
H  27.06300 4.20700 23.99100
H  31.29800 1.32200 29.13800
H  30.45300 -0.07600 28.39000
H  31.02400 -0.14700 30.01400
H  28.02600 2.69800 33.69200
H  27.94700 0.54800 37.42900
H  29.58400 -0.03500 36.78000
H  28.14800 -0.83900 36.40100
Mg 10.23900 47.23400 26.30700
C  8.44300 47.36900 29.27900
C  12.92600 48.45200 27.96900
C  11.83900 47.02300 23.40100
C  7.14600 46.69100 24.59300
N  10.66400 47.81100 28.32500
C  9.82200 47.71200 29.43800
C  10.51900 48.21900 30.65500
C  11.74500 49.06300 30.07900
C  11.78200 48.45600 28.67100
C  11.62100 50.65800 30.08500
C  10.84300 47.12500 31.66400
C  10.19800 47.31700 33.07700
H  10.40900 46.17100 34.11400
N  12.17400 47.55500 25.82500
C  13.18000 47.99900 26.65600
C  14.48400 47.87500 25.99800
C  14.15700 47.36100 24.69100
C  12.67600 47.37900 24.51300
C  15.80000 47.99800 26.81300
C  15.17700 47.06500 23.56000
O  14.76700 46.84000 22.39800
C  16.61800 47.01800 23.85200
N  9.55700 46.93600 24.25300
C  10.45900 46.84800 23.24800
C  9.73100 46.38400 21.97000
C  8.31000 46.13600 22.52100
C  8.33500 46.69900 23.87400
C  9.95900 47.26200 20.69800
C  7.79100 44.73400 22.45100
C  8.62900 43.65600 23.10600
N  8.14900 47.10700 26.75500
C  7.07400 46.86200 25.98600
C  5.91300 46.72100 26.86000
C  6.35800 46.93900 28.16100
C  7.71300 47.14200 28.01500
C  4.51300 46.40000 26.47700
C  6.03100 46.99500 29.59700
O  4.98600 46.82800 30.18200
C  7.31400 47.35300 30.32400
C  7.57400 46.21900 31.37600
O  8.16800 45.17500 31.13700
O  6.94100 46.43300 32.55700
C  6.95900 45.36600 33.58500
H  13.79000 48.82800 28.52300
H  12.38100 46.91000 22.46000
H  6.11000 46.66300 24.24900
H  9.78100 48.89600 31.08700
H  12.67100 48.70000 30.52400
H  10.70400 50.83000 30.64900
H  11.55200 51.04900 29.07000
H  12.43500 51.14400 30.62200
H  11.90900 47.13200 31.89400
H  10.61600 46.12300 31.30200
H  9.16100 47.64100 32.98800
H  10.47800 48.19400 33.66000
H  15.50800 47.70000 27.82000
H  16.13900 49.02800 26.92300
H  16.56600 47.30700 26.46100
H  17.13900 46.71600 22.94400
H  16.73900 46.26400 24.63000
H  16.88100 47.99100 24.26700
H  10.16600 45.40500 21.77000
H  7.57700 46.75800 22.00600
H  10.68300 48.06400 20.84100
H  9.02600 47.78600 20.49300
H  10.22100 46.64800 19.83700
H  7.82100 44.56600 21.37500
H  6.78900 44.63000 22.86600
H  9.50500 44.21700 23.42900
H  9.00400 42.87100 22.45000
H  8.11300 43.18300 23.94200
H  4.59600 45.38600 26.08500
H  4.12700 46.95200 25.62000
H  3.92500 46.38200 27.39400
H  7.16800 48.22100 30.96700
H  7.96500 45.24500 33.98700
H  6.62000 44.38400 33.25300
H  6.35200 45.76500 34.39700

