158

Mg 48.19600 15.25500 27.97300
C  46.40300 15.09200 30.93300
C  50.55200 17.29800 29.56300
C  49.82000 15.64200 25.03300
C  45.53700 13.74100 26.27400
N  48.37100 16.05300 30.00300
C  47.55100 15.92200 31.08900
C  47.96000 16.65200 32.29900
C  49.07100 17.58300 31.65900
C  49.40100 16.91200 30.28200
C  48.76000 19.12000 31.60100
C  48.48500 15.77100 33.49400
C  47.95400 16.16500 34.88100
H  49.05800 16.25500 35.93800
N  50.07100 16.21200 27.40700
C  50.87800 16.90800 28.24000
C  52.04600 17.26100 27.51600
C  51.81000 16.99200 26.15500
C  50.53100 16.21600 26.14400
C  53.20700 17.84600 28.27000
C  52.62300 17.30900 24.99500
O  52.46700 16.73500 23.87900
C  53.93900 18.12600 25.20200
N  47.71300 14.71500 25.86300
C  48.61300 14.92800 24.83900
C  48.20500 14.25700 23.56300
C  46.84100 13.59300 24.01900
C  46.66000 13.96700 25.48500
C  48.09400 15.26700 22.28800
C  46.62700 12.11400 23.77800
C  47.25400 11.03400 24.72300
N  46.31300 14.57100 28.42200
C  45.37200 13.95600 27.64400
C  44.34400 13.44600 28.50800
C  44.70200 13.85100 29.80200
C  45.91200 14.52600 29.68600
C  43.17200 12.54100 27.98400
C  44.36300 13.72500 31.19000
O  43.45800 13.16600 31.80700
C  45.37800 14.66700 31.95800
C  44.41200 15.72700 32.50600
O  44.02200 16.66600 31.83900
O  44.06900 15.42600 33.80400
C  43.05300 16.19400 34.44300
H  51.27800 17.97300 30.02000
H  50.37400 15.72400 24.09500
H  44.70000 13.22400 25.80000
H  47.07700 17.25600 32.50800
H  49.94100 17.53900 32.31400
H  47.80500 19.35200 32.07200
H  48.75800 19.46900 30.56800
H  49.56700 19.72200 32.01900
H  49.57300 15.79300 33.43700
H  48.23300 14.73400 33.26800
H  47.18600 15.40500 35.02600
H  47.49400 17.15100 34.92800
H  53.24700 17.25600 29.18600
H  53.10500 18.87700 28.60700
H  54.16800 17.76700 27.76200
H  54.67800 17.39300 25.52600
H  53.67800 18.87700 25.94800
H  54.31000 18.63200 24.31100
H  48.88500 13.42400 23.38200
H  46.09300 14.11900 23.42600
H  48.86500 15.06900 21.54300
H  48.22200 16.32500 22.51500
H  47.14100 15.04400 21.80800
H  46.95800 11.99500 22.74700
H  45.55100 12.14100 23.94800
H  47.82100 11.60500 25.45700
H  47.91800 10.38900 24.14700
H  46.42500 10.50200 25.19000
H  43.53000 11.86800 27.20500
H  42.35400 13.18000 27.65000
H  42.80300 11.88200 28.76900
H  45.73600 14.09500 32.81300
H  42.22300 16.52800 33.82000
H  43.45700 17.11600 34.86100
H  42.74300 15.64900 35.33500
Mg 7.30900 53.94800 40.11600
C  7.09700 50.34800 40.03300
C  10.54900 53.77400 39.43500
C  7.22700 57.22500 39.66900
C  3.79200 54.01000 40.58300
N  8.67500 52.19200 39.68300
C  8.39100 50.85500 39.65300
C  9.70400 50.11300 39.46700
C  10.83200 51.13200 39.55700
C  10.00100 52.43600 39.59000
C  11.76700 51.11400 40.79200
C  9.90200 49.45000 38.15900
C  9.89400 50.15700 36.84200
H  8.41500 50.43100 36.27400
N  8.71500 55.28700 39.56500
C  10.02500 55.02700 39.31900
C  10.69100 56.27600 39.05700
C  9.74000 57.28900 39.14500
C  8.48000 56.61700 39.48300
C  12.04200 56.32100 38.68500
C  10.04700 58.76500 38.91300
O  11.17200 59.20800 38.67300
C  8.90600 59.83500 39.05800
N  5.68800 55.41100 40.11900
C  5.94800 56.72000 40.05000
C  4.77900 57.63300 40.18500
C  3.61700 56.55400 40.41000
C  4.34000 55.21400 40.34300
C  4.93900 58.72700 41.23500
C  2.47600 56.62700 39.35800
C  1.05900 56.97300 39.82400
N  5.81200 52.55100 40.46800
C  4.42200 52.71700 40.62700
C  3.80600 51.39900 40.85100
C  4.88800 50.52100 40.77600
C  6.02700 51.18100 40.39300
C  2.35300 51.09300 41.14900
C  5.25900 49.10900 40.80500
O  4.62100 48.11200 41.11000
C  6.67400 48.93100 40.21200
C  6.50200 48.25400 38.94900
O  5.84200 48.65600 38.03500
O  6.96800 46.96900 39.12200
C  6.73800 46.03300 37.97800
H  11.63000 53.68900 39.30700
H  7.15100 58.31400 39.71100
H  2.70600 53.96700 40.69200
H  9.80400 49.39700 40.28200
H  11.49200 51.00200 38.69800
H  11.49700 50.23100 41.37100
H  11.60300 52.05100 41.32600
H  12.82600 51.13100 40.53500
H  9.10400 48.70800 38.14800
H  10.74900 48.78100 38.30800
H  10.31600 49.59200 36.01000
H  10.50100 51.05100 36.98200
H  12.62000 56.35900 39.60800
H  12.22500 57.14000 37.99000
H  12.26300 55.41500 38.12100
H  8.08400 59.68400 38.35800
H  9.22300 60.82700 38.73700
H  8.68500 59.91200 40.12200
H  4.68800 58.13500 39.22100
H  3.21300 56.57700 41.42200
H  5.96600 58.68300 41.59700
H  4.16100 58.68100 41.99700
H  4.84900 59.60500 40.59600
H  2.32900 55.59900 39.02700
H  2.79500 57.31200 38.57300
H  1.18100 57.77700 40.55000
H  0.65800 56.09500 40.33100
H  0.48800 57.24900 38.93800
H  1.78600 51.99400 41.38000
H  2.35800 50.52700 42.08100
H  2.00400 50.58100 40.25200
H  7.43900 48.49000 40.85000
H  5.72100 46.16200 37.60800
H  6.69700 44.98800 38.28400
H  7.51900 46.06600 37.21800

