158

Mg -1.82200 33.90000 27.24100
C  -3.46700 32.23000 29.96600
C  -0.04300 35.68000 29.56900
C  -0.81100 36.06600 24.73300
C  -3.85700 32.30000 25.11700
N  -1.94900 34.08200 29.46900
C  -2.56100 33.21900 30.35300
C  -2.27200 33.60000 31.84800
C  -1.23300 34.74400 31.67500
C  -0.99400 34.77600 30.13500
C  -1.71000 36.05200 32.30200
C  -1.74600 32.38800 32.72600
C  -2.34700 32.21100 34.12600
H  -1.42500 32.19600 35.36700
N  -0.54200 35.57500 27.14100
C  0.18700 36.00200 28.19300
C  1.17300 36.98500 27.69400
C  0.79100 37.30500 26.32600
C  -0.22000 36.25000 25.97600
C  2.32200 37.53900 28.51400
C  1.24900 38.37000 25.34100
O  0.99900 38.47300 24.20400
C  2.24500 39.36600 25.97200
N  -2.34400 34.31100 25.34800
C  -1.80200 35.12400 24.43700
C  -2.02000 34.72100 22.96200
C  -2.67100 33.31000 23.17200
C  -2.96300 33.27400 24.66600
C  -2.91200 35.68000 22.17700
C  -1.72300 32.19300 22.71300
C  -2.39300 31.22600 21.75500
N  -3.36200 32.50500 27.47100
C  -4.12100 31.95700 26.45000
C  -5.05100 31.03000 27.04800
C  -4.88200 31.14200 28.44000
C  -3.81600 32.01000 28.65500
C  -6.13900 30.26300 26.30100
C  -5.34300 30.73400 29.67000
O  -6.27600 29.97000 29.90300
C  -4.44600 31.37600 30.82300
C  -5.37500 32.15500 31.56800
O  -5.76100 33.32600 31.28300
O  -5.98600 31.52200 32.66300
C  -7.02500 32.11800 33.49300
H  0.61600 36.23500 30.24000
H  -0.33800 36.57500 23.89000
H  -4.42000 31.72800 24.37700
H  -3.17600 33.97700 32.32500
H  -0.30400 34.49700 32.18900
H  -2.15600 36.79500 31.64000
H  -0.90300 36.50800 32.87500
H  -2.45900 35.84300 33.06600
H  -0.68500 32.53400 32.92700
H  -1.96800 31.42300 32.27100
H  -2.88200 31.26100 34.14300
H  -3.18400 32.88600 34.30300
H  2.34800 36.93900 29.42400
H  2.04100 38.54500 28.82300
H  3.26300 37.43700 27.97300
H  3.18700 38.86900 26.20300
H  1.78800 39.71700 26.89700
H  2.41900 40.21600 25.31300
H  -1.03900 34.67300 22.48900
H  -3.61400 33.27200 22.62800
H  -3.42800 36.32200 22.89000
H  -3.69900 35.15200 21.63800
H  -2.38400 36.37800 21.52800
H  -1.44600 31.51300 23.51900
H  -0.78600 32.52100 22.26300
H  -3.48100 31.16700 21.77000
H  -2.05700 30.21400 21.97900
H  -2.11900 31.41800 20.71700
H  -7.04400 30.02500 26.86100
H  -5.82400 29.33800 25.81800
H  -6.50700 30.99300 25.58000
H  -4.08200 30.53100 31.40700
H  -7.44800 32.98200 32.98000
H  -6.51400 32.51600 34.37000
H  -7.71900 31.33100 33.78700
Mg -12.85100 16.28500 40.72100
C  -9.99000 14.23900 40.28700
C  -11.07000 18.97600 39.54800
C  -15.76600 17.86200 40.64800
C  -14.63400 13.19200 41.35800
N  -10.78700 16.51300 40.06900
C  -9.78800 15.54800 39.99500
C  -8.42200 16.20100 39.49100
C  -8.71800 17.72500 39.42700
C  -10.27800 17.82000 39.73500
C  -7.81300 18.70300 40.29500
C  -8.02100 15.49600 38.07300
C  -6.55600 15.11600 38.08900
H  -5.60800 16.00800 37.23700
N  -13.32100 18.13200 40.23100
C  -12.49600 19.16100 39.82200
C  -13.24500 20.36000 39.76500
C  -14.61200 20.08700 40.04500
C  -14.61800 18.65900 40.33400
C  -12.65400 21.67700 39.36900
C  -15.81700 21.03200 39.93600
O  -15.64300 22.17700 39.58700
C  -17.17100 20.79000 40.54400
N  -14.92200 15.60100 40.67500
C  -15.89700 16.52400 40.86800
C  -17.27200 15.89600 40.93400
C  -16.78000 14.45500 41.44100
C  -15.33300 14.39900 41.18300
C  -18.40500 16.49000 41.78100
C  -17.56900 13.17000 40.87700
C  -18.26900 12.42600 42.06600
N  -12.42700 14.15700 40.90100
C  -13.26400 13.00100 41.19600
C  -12.44300 11.82500 41.21700
C  -11.10000 12.26800 40.85700
C  -11.22600 13.69100 40.69400
C  -13.00300 10.49900 41.51400
C  -9.71000 11.81600 40.74400
O  -9.17800 10.68700 40.79600
C  -8.90700 13.12400 40.40400
C  -7.96200 13.48000 41.53700
O  -8.15200 14.33500 42.38400
O  -6.69400 13.01700 41.20200
C  -5.52100 13.59400 41.84200
H  -10.54900 19.83300 39.11500
H  -16.64100 18.47800 40.43100
H  -15.07900 12.26700 41.73000
H  -7.70700 16.00700 40.29100
H  -8.51400 18.06800 38.41300
H  -7.19700 19.23400 39.56800
H  -7.02400 18.29800 40.92900
H  -8.43300 19.48400 40.73500
H  -8.18600 16.24800 37.30100
H  -8.57600 14.56700 37.93900
H  -6.60400 14.10100 37.69300
H  -6.20100 15.15100 39.11900
H  -12.68400 21.68300 38.27900
H  -11.58900 21.73900 39.59000
H  -13.15400 22.55200 39.78300
H  -17.88800 20.30200 39.88300
H  -17.75400 21.69400 40.72400
H  -17.11600 20.22500 41.47500
H  -17.52700 15.75300 39.88400
H  -16.80200 14.41900 42.53000
H  -19.37300 16.63300 41.30000
H  -18.11800 17.52200 41.97900
H  -18.57700 15.98300 42.73000
H  -17.05800 12.54300 40.14700
H  -18.33500 13.63500 40.25700
H  -18.32600 12.81500 43.08300
H  -17.66600 11.52500 42.17900
H  -19.29800 12.08000 41.97100
H  -14.07900 10.35500 41.61400
H  -12.47300 10.04200 42.35000
H  -12.71700 9.90600 40.64500
H  -8.40500 13.05000 39.43900
H  -5.16300 12.87100 42.57400
H  -5.62000 14.57900 42.29800
H  -4.72400 13.65200 41.10100

