158

Mg 23.80900 -6.76000 46.45100
C  26.12600 -4.58500 45.13300
C  21.55700 -5.47300 43.94600
C  21.60700 -9.34500 47.02700
C  26.29000 -8.54400 48.12700
N  23.85300 -5.30500 44.74100
C  24.90300 -4.46600 44.45200
C  24.61600 -3.40700 43.43900
C  22.99100 -3.41400 43.39900
C  22.74100 -4.78800 44.05300
C  22.32400 -2.31200 44.20000
C  25.34300 -3.58100 41.99800
C  26.27000 -2.46000 41.50300
H  26.11000 -1.95600 40.04700
N  21.83800 -7.24200 45.73500
C  21.12100 -6.59000 44.71700
C  19.76500 -7.06000 44.69300
C  19.70300 -8.17500 45.67100
C  21.05200 -8.30900 46.25600
C  18.67500 -6.64700 43.80500
C  18.41100 -9.00700 46.11400
O  17.29100 -8.65200 45.69500
C  18.46500 -10.09600 47.12800
N  23.88600 -8.67200 47.49500
C  22.86700 -9.50800 47.63800
C  23.31400 -10.76500 48.42300
C  24.83200 -10.49600 48.76200
C  25.00700 -9.10300 48.15800
C  22.43400 -11.07800 49.68500
C  25.81800 -11.48200 48.17700
C  26.56900 -12.20600 49.30300
N  25.71800 -6.51500 46.74800
C  26.64900 -7.33500 47.44300
C  27.94200 -6.73300 47.24500
C  27.76800 -5.62700 46.40500
C  26.41100 -5.62200 46.11400
C  29.29200 -7.33500 47.49600
C  28.41500 -4.53700 45.74100
O  29.64200 -4.18400 45.81200
C  27.39500 -3.87200 44.78600
C  27.40700 -2.44800 45.16900
O  26.89200 -1.91200 46.14300
O  28.21100 -1.82200 44.29700
C  28.41000 -0.37800 44.47100
H  20.80000 -5.01200 43.30800
H  20.88900 -10.12600 47.28400
H  27.14800 -9.03200 48.59400
H  24.95800 -2.48200 43.90300
H  22.56000 -3.41300 42.39800
H  21.99400 -1.56100 43.48300
H  23.12400 -1.84200 44.77200
H  21.45400 -2.57800 44.80100
H  24.52400 -3.70400 41.29000
H  25.87300 -4.52500 42.12300
H  27.32700 -2.56000 41.74900
H  25.87900 -1.56600 41.98800
H  18.27300 -5.68800 44.13300
H  17.93200 -7.41000 43.57300
H  19.04900 -6.48700 42.79400
H  17.45800 -10.45700 47.33500
H  18.74900 -9.52900 48.01400
H  19.06400 -10.91200 46.72300
H  23.20800 -11.55700 47.68200
H  25.09800 -10.18800 49.77300
H  22.95300 -10.89000 50.62400
H  22.13500 -12.12300 49.59600
H  21.57100 -10.42200 49.79400
H  26.57400 -11.10000 47.49100
H  25.32700 -12.25900 47.59200
H  26.37500 -13.27000 49.44100
H  26.38300 -11.75500 50.27700
H  27.63500 -12.16500 49.08200
H  29.11400 -8.09400 48.25800
H  29.98900 -6.57900 47.85700
H  29.51500 -7.89500 46.58800
H  27.86000 -3.95300 43.80300
H  27.48500 0.04900 44.86000
H  28.50200 0.10600 43.49800
H  29.13000 -0.12100 45.24800
Mg 16.74700 52.30500 26.70500
C  18.73100 50.80600 29.18600
C  14.50600 53.39800 29.12600
C  14.80100 53.37800 24.26800
C  18.66700 50.61300 24.31400
N  16.60900 51.98100 28.94900
C  17.57900 51.42700 29.70500
C  17.28200 51.68700 31.18200
C  15.80100 52.35900 31.12500
C  15.52500 52.52500 29.66000
C  14.70000 51.62600 31.86000
C  18.35600 52.76200 31.79000
C  18.83600 52.62100 33.22800
H  17.78900 52.20100 34.20300
N  14.95300 53.40100 26.71700
C  14.20400 53.79900 27.80700
C  13.17900 54.64100 27.36100
C  13.14900 54.55900 25.96600
C  14.31600 53.76000 25.57400
C  12.21200 55.27100 28.41700
C  12.06500 55.18800 24.98700
O  12.21000 54.91900 23.77800
C  10.97600 56.11300 25.44300
N  16.77900 52.08000 24.50000
C  15.89700 52.70000 23.77000
C  16.38300 52.59900 22.26500
C  17.69400 51.78800 22.31600
C  17.79500 51.51200 23.82800
C  15.40000 52.07200 21.30600
C  18.86500 52.64600 21.80000
C  19.03700 52.61700 20.24000
N  18.35900 50.97300 26.65000
C  19.01800 50.36000 25.57800
C  20.05300 49.55300 26.10300
C  19.98900 49.70000 27.51500
C  18.92900 50.56500 27.76800
C  21.20300 48.81000 25.53400
C  20.66300 49.27700 28.73000
O  21.63700 48.60100 28.97200
C  19.84800 49.96500 29.87000
C  19.41700 49.00400 30.91100
O  18.79600 48.00200 30.59200
O  19.86400 49.35900 32.17600
C  19.73800 48.48000 33.30800
H  13.85100 53.85600 29.87100
H  14.20300 53.71800 23.42100
H  19.40300 50.17700 23.63500
H  17.31800 50.73100 31.70600
H  15.91700 53.34100 31.58200
H  13.85300 51.38400 31.21900
H  14.23800 52.16400 32.68800
H  15.08200 50.66600 32.20700
H  18.05300 53.77400 31.52200
H  19.24600 52.47300 31.23100
H  19.27300 53.60400 33.40200
H  19.72000 51.98400 33.23000
H  11.49000 55.88300 27.87700
H  12.71400 55.88300 29.16700
H  11.72000 54.51600 29.03100
H  11.40200 57.02400 25.86300
H  10.27900 55.56200 26.07500
H  10.42400 56.37100 24.53900
H  16.56100 53.60900 21.89500
H  17.75200 50.82800 21.80200
H  15.72000 51.18400 20.76100
H  15.21300 52.89000 20.61000
H  14.39200 51.87100 21.66900
H  19.83700 52.29600 22.15000
H  18.74900 53.64400 22.22300
H  19.92600 52.07300 19.92100
H  19.17400 53.64000 19.88700
H  18.22000 52.07900 19.75900
H  22.07400 49.44800 25.39000
H  20.92100 48.49100 24.53000
H  21.48100 47.99600 26.20400
H  20.56900 50.66900 30.28600
H  20.73000 48.60700 33.74100
H  19.67100 47.41200 33.09800
H  19.07300 48.84800 34.08900

