158

Mg 48.46200 45.15600 42.75400
C  45.13100 45.68200 41.73300
C  48.30400 42.01700 41.44900
C  51.76400 45.18000 42.65900
C  48.54700 48.44500 43.79600
N  46.93600 44.03400 41.76100
C  45.63700 44.41400 41.38500
C  44.87000 43.27500 40.86600
C  45.77700 42.06300 41.16300
C  47.09500 42.70000 41.55200
C  45.26000 41.02100 42.22300
C  44.49200 43.53800 39.42900
C  43.29700 42.87400 38.80700
H  43.36800 42.08500 37.49300
N  49.88100 43.65300 42.33700
C  49.64800 42.42200 41.77000
C  50.88900 41.83800 41.50900
C  51.86600 42.61800 42.09400
C  51.20000 43.86500 42.43900
C  51.08800 40.46900 40.94400
C  53.29700 42.19900 42.29100
O  53.74900 41.20900 41.69100
C  54.26500 43.12400 43.01300
N  49.90200 46.63200 43.23600
C  51.23900 46.39100 43.08600
C  52.07400 47.63100 43.55500
C  51.04600 48.55300 44.18200
C  49.72700 47.83600 43.79700
C  53.42500 47.40500 44.31100
C  51.13100 50.11100 43.73200
C  50.79700 51.12800 44.82500
N  47.12400 46.76100 42.82300
C  47.30900 48.04900 43.34200
C  46.05700 48.75000 43.25600
C  45.15200 47.79900 42.72500
C  45.87300 46.65900 42.42900
C  45.86700 50.16700 43.71000
C  43.80000 47.60400 42.27600
O  42.84500 48.33800 42.31400
C  43.73700 46.16200 41.67500
C  42.76700 45.33000 42.35900
O  41.70200 45.01500 41.85400
O  43.25900 44.89100 43.58700
C  42.41000 43.93300 44.31100
H  48.21600 40.99900 41.06300
H  52.83800 45.22400 42.46900
H  48.49200 49.40800 44.30800
H  43.94600 43.19900 41.44000
H  45.99600 41.60300 40.19900
H  45.79400 41.18400 43.15900
H  45.40900 40.01500 41.82900
H  44.19900 41.17400 42.42100
H  45.30300 43.12600 38.82900
H  44.49000 44.60600 39.21300
H  42.50600 43.62400 38.79200
H  43.08300 42.08700 39.53000
H  51.49700 40.78300 39.98400
H  50.15800 39.92500 40.77600
H  51.78700 39.77400 41.40900
H  53.71700 43.58500 43.83500
H  54.85700 43.75900 42.35300
H  54.87400 42.43500 43.59700
H  52.45400 48.05200 42.62500
H  51.06700 48.59000 45.27100
H  53.58800 46.35700 44.56200
H  53.41800 48.07500 45.17000
H  54.20100 47.79300 43.65100
H  50.31400 50.21800 43.01800
H  52.00200 50.52800 43.22800
H  51.32900 52.05700 44.61900
H  51.26800 50.81400 45.75600
H  49.76400 51.46100 44.92100
H  46.35400 50.85400 43.01800
H  46.47200 50.16800 44.61800
H  44.81900 50.46400 43.75200
H  43.50500 46.30000 40.61900
H  41.57400 44.46900 44.76100
H  43.00400 43.38000 45.03900
H  41.81400 43.27400 43.68000
Mg 48.96500 36.04200 26.39900
C  47.30800 34.47600 28.93100
C  49.26200 38.85500 28.09400
C  51.04900 37.35300 23.90200
C  48.46300 33.22900 24.43400
N  48.35600 36.57300 28.33000
C  47.79700 35.75500 29.26200
C  47.46900 36.55200 30.60200
C  47.76200 37.98800 30.18300
C  48.58500 37.85100 28.81400
C  46.57400 38.85900 30.13900
C  48.29000 36.07100 31.86800
C  47.34500 35.59600 33.11700
H  46.18400 36.58500 33.52000
N  50.04200 37.79400 26.12600
C  49.98600 38.89200 26.88300
C  50.86200 39.95600 26.47300
C  51.28600 39.60800 25.14100
C  50.72700 38.18000 24.97300
C  50.87700 41.29900 27.19000
C  52.06800 40.47700 24.13100
O  52.37900 40.09700 23.01100
C  52.46300 41.90400 24.63300
N  49.49600 35.46000 24.47400
C  50.47200 36.08500 23.69500
C  50.98800 35.17200 22.59600
C  50.17200 33.91500 22.74100
C  49.31800 34.19600 23.94700
C  50.93000 35.79200 21.20000
C  51.00300 32.63000 22.93500
C  50.81400 31.57100 21.78500
N  47.89900 34.27900 26.55500
C  47.76800 33.19600 25.67900
C  46.85400 32.21400 26.19900
C  46.59600 32.65200 27.49700
C  47.40400 33.87200 27.68000
C  46.55100 30.90000 25.54800
C  45.87800 32.42400 28.74200
O  45.05100 31.57400 29.01200
C  46.37900 33.55400 29.75600
C  47.19900 32.84200 30.81700
O  48.41200 32.78000 30.85600
O  46.32500 32.15100 31.55300
C  46.75500 31.53600 32.83200
H  49.34100 39.74900 28.71700
H  51.88000 37.51900 23.21200
H  48.28700 32.35700 23.80100
H  46.41000 36.34900 30.76400
H  48.44500 38.57300 30.79900
H  46.25000 38.87300 29.09900
H  46.85800 39.83200 30.54100
H  45.79700 38.31400 30.67600
H  48.89300 36.88600 32.26900
H  48.90400 35.20600 31.61700
H  48.02400 35.36300 33.93700
H  46.92600 34.59300 33.03900
H  51.83900 41.61800 27.59100
H  50.26800 41.33700 28.09400
H  50.39900 41.99700 26.50300
H  51.52800 42.46500 24.61400
H  53.07100 42.28700 23.81400
H  52.96900 41.96100 25.59700
H  52.02900 34.87100 22.71000
H  49.46600 33.78800 21.92000
H  50.24800 36.64000 21.26200
H  50.65400 35.08500 20.41700
H  51.90800 36.15400 20.88100
H  50.83600 32.04000 23.83700
H  52.08500 32.74000 23.00400
H  50.32800 32.00600 20.91200
H  50.01300 30.98100 22.23100
H  51.70800 30.99100 21.55800
H  45.46100 30.89200 25.53000
H  46.92600 30.04500 26.11000
H  46.85900 30.94800 24.50400
H  45.60800 34.05800 30.33900
H  47.82100 31.31300 32.78600
H  46.18700 30.61500 32.96500
H  46.50900 32.10400 33.72900

