158

Mg -2.38000 17.15800 26.24700
C  -2.75400 15.12900 29.15900
C  -2.72500 19.88300 28.15100
C  -2.70500 19.16300 23.39500
C  -2.51600 14.28000 24.24600
N  -2.65700 17.41300 28.37900
C  -2.70400 16.52200 29.42000
C  -2.89400 17.18600 30.80800
C  -2.85800 18.68600 30.35600
C  -2.69100 18.67700 28.87100
C  -4.05600 19.46600 31.02200
C  -1.87700 16.77700 31.89600
C  -1.74800 17.85900 32.97100
H  -1.26200 17.27000 34.31100
N  -2.55900 19.29500 25.90100
C  -2.71700 20.21700 26.84100
C  -2.79900 21.55700 26.27000
C  -2.75800 21.37200 24.88800
C  -2.64700 19.89500 24.67400
C  -2.83300 22.77200 27.09200
C  -2.80500 22.39500 23.74600
O  -2.67800 21.96300 22.55300
C  -2.90100 23.88300 23.96600
N  -2.67700 16.75200 24.14400
C  -2.65300 17.77400 23.17400
C  -2.59200 17.12800 21.70100
C  -2.43700 15.61000 22.05000
C  -2.54000 15.51000 23.58800
C  -3.71800 17.48200 20.73500
C  -1.11200 14.92500 21.45100
C  -1.26000 14.01800 20.22100
N  -2.48100 15.06500 26.57200
C  -2.58600 14.03700 25.67000
C  -2.68200 12.81000 26.43300
C  -2.85600 13.18300 27.76500
C  -2.65800 14.58400 27.82900
C  -2.73400 11.38300 25.83500
C  -3.03700 12.74200 29.17700
O  -3.02800 11.62100 29.64000
C  -2.99300 13.99600 30.08400
C  -1.89800 13.75700 31.03600
O  -0.75700 14.12000 30.83100
O  -2.32000 13.16100 32.17300
C  -1.37500 13.01000 33.26000
H  -2.79600 20.75600 28.80200
H  -2.95600 19.72700 22.49400
H  -2.48200 13.37600 23.63500
H  -3.94900 16.99400 31.00700
H  -1.94800 19.17400 30.70600
H  -4.56800 20.18600 30.38300
H  -3.68200 20.04400 31.86700
H  -4.82600 18.84100 31.47400
H  -0.94900 16.49500 31.39800
H  -2.30200 15.92700 32.42900
H  -2.65100 18.45800 33.08900
H  -0.95400 18.46000 32.52700
H  -2.14900 22.58700 27.92100
H  -3.82400 22.85800 27.53900
H  -2.49400 23.63600 26.52100
H  -3.66700 23.98900 24.73400
H  -3.05600 24.42400 23.03300
H  -1.99900 24.33700 24.37700
H  -1.68600 17.46000 21.19300
H  -3.37400 15.09500 21.83800
H  -4.10200 16.61100 20.20500
H  -3.47300 18.24100 19.99200
H  -4.55900 17.90400 21.28600
H  -0.94100 14.15800 22.20700
H  -0.34100 15.66700 21.24400
H  -1.10000 14.64800 19.34600
H  -2.25600 13.57600 20.19800
H  -0.43700 13.30400 20.20900
H  -1.77300 10.91600 26.04900
H  -2.91900 11.36200 24.76100
H  -3.63100 11.01000 26.32900
H  -3.91800 14.13400 30.64400
H  -1.55300 12.00500 33.64400
H  -1.53100 13.71300 34.07900
H  -0.35800 13.01800 32.87000
Mg 49.56300 45.01800 42.39400
C  45.94900 45.10300 42.17200
C  49.47400 41.65700 41.62800
C  52.87100 45.02700 42.20700
C  49.59400 48.45700 42.61300
N  47.79900 43.55000 41.82600
C  46.49600 43.80700 41.86600
C  45.68400 42.55700 41.66700
C  46.80900 41.48400 41.35700
C  48.13600 42.25200 41.58800
C  46.76500 40.08700 41.97400
C  44.50300 42.58100 40.59000
C  44.72500 43.40600 39.29000
H  44.83100 42.67400 37.96100
N  50.92000 43.54400 41.99000
C  50.68700 42.19700 41.75000
C  51.94600 41.56100 41.50000
C  52.99400 42.53400 41.67300
C  52.24600 43.79300 42.03400
C  52.06300 40.12000 41.21400
C  54.46100 42.26800 41.40500
O  54.83700 41.13600 41.12200
C  55.44200 43.41100 41.22600
N  51.03600 46.58900 42.17100
C  52.35200 46.33300 42.28700
C  53.21400 47.59500 42.67800
C  52.10600 48.70500 42.40800
C  50.82400 47.92600 42.44700
C  53.76200 47.60600 44.17100
C  52.24800 49.47900 41.02700
C  52.21500 50.99300 41.09600
N  48.07100 46.53200 42.44300
C  48.27300 47.89500 42.48000
C  46.97400 48.56300 42.52100
C  46.03900 47.46300 42.49300
C  46.74800 46.26300 42.40300
C  46.84200 49.99700 42.64600
C  44.61500 47.19800 42.55300
O  43.64100 48.00500 42.58200
C  44.54200 45.58800 42.45400
C  43.86100 44.78300 43.51800
O  42.76600 44.24900 43.45800
O  44.66400 44.79100 44.59000
C  44.41200 43.99000 45.80300
H  49.31900 40.59700 41.41600
H  53.90400 44.85500 42.51800
H  49.52400 49.52500 42.83000
H  45.27600 42.35700 42.65800
H  46.66000 41.34700 40.28600
H  47.18900 39.34200 41.30200
H  45.76200 39.79000 42.28100
H  47.43300 40.18200 42.83000
H  43.66500 42.94100 41.18700
H  44.31500 41.55500 40.27400
H  45.65500 43.96800 39.37800
H  43.94400 44.16500 39.24100
H  52.38000 40.01100 40.17700
H  51.11600 39.59000 41.31500
H  52.76100 39.62800 41.89100
H  55.77500 43.76800 42.20100
H  55.03700 44.26700 40.68500
H  56.38200 43.09200 40.77800
H  54.12400 47.67800 42.08300
H  52.12800 49.45000 43.20400
H  54.83000 47.80000 44.26900
H  53.69200 46.61900 44.62800
H  53.28300 48.37000 44.78300
H  51.36700 49.25200 40.42700
H  53.18100 49.22500 40.52400
H  52.46300 51.38900 40.11200
H  52.90900 51.33100 41.86600
H  51.23900 51.30400 41.46800
H  45.94800 50.33100 42.12100
H  47.69900 50.34700 42.07100
H  46.98200 50.29700 43.68500
H  44.02700 45.33300 41.52800
H  45.24700 43.30700 45.95700
H  43.53300 43.35400 45.69100
H  44.16400 44.66400 46.62400

