158

Mg 42.66400 42.00700 26.13800
C  42.02800 44.29200 28.83100
C  44.25500 40.07400 28.38100
C  43.54900 40.16100 23.51400
C  41.44000 44.54000 23.95000
N  43.14700 42.28900 28.33700
C  42.72100 43.13600 29.22800
C  43.01800 42.74100 30.67800
C  43.85200 41.41500 30.51400
C  43.78400 41.25700 29.00700
C  45.40700 41.42700 31.07400
C  41.66900 42.54800 31.52400
C  41.55300 43.47000 32.76200
H  40.98800 42.79400 34.00000
N  43.64500 40.23600 26.00900
C  44.11700 39.53500 27.05700
C  44.61900 38.23300 26.55700
C  44.36000 38.25100 25.17900
C  43.76700 39.54800 24.80900
C  45.18900 37.14800 27.46300
C  44.58700 37.12000 24.18100
O  44.16900 37.18800 23.03400
C  45.27500 35.83100 24.65200
N  42.64200 42.35800 24.03400
C  42.94800 41.39300 23.17500
C  42.71200 41.71900 21.69600
C  41.84500 43.02500 21.86000
C  41.96100 43.31900 23.37700
C  44.02600 41.83000 20.86700
C  40.32600 42.77500 21.54400
C  39.64800 41.61300 22.27100
N  41.84900 43.98300 26.30400
C  41.42900 44.88000 25.30000
C  41.03000 46.15400 25.91800
C  41.14900 45.91300 27.31300
C  41.69000 44.62900 27.48900
C  40.68000 47.49500 25.22700
C  40.97100 46.50800 28.61600
O  40.58400 47.61500 28.95400
C  41.55000 45.49000 29.69200
C  42.59300 46.15600 30.45200
O  43.75200 46.14300 30.18300
O  42.08000 46.74200 31.55700
C  42.95800 47.27100 32.53800
H  44.85900 39.39200 28.98300
H  43.98800 39.51800 22.74800
H  40.98200 45.23700 23.24400
H  43.63700 43.50400 31.15000
H  43.44500 40.51000 30.96400
H  46.12600 41.19700 30.28800
H  45.56700 40.71200 31.88100
H  45.62400 42.40100 31.51300
H  41.63100 41.55200 31.96600
H  40.81000 42.72000 30.87500
H  40.89100 44.30100 32.52100
H  42.54500 43.90800 32.86500
H  46.27200 37.04100 27.52000
H  44.80500 36.14100 27.30100
H  44.66900 37.37700 28.39300
H  45.76600 35.46900 23.74900
H  44.59600 35.16700 25.18800
H  46.12900 35.88800 25.32600
H  42.15500 40.92400 21.20100
H  42.28000 43.79300 21.22100
H  44.18100 42.84600 20.50300
H  43.93000 41.16200 20.01100
H  44.91400 41.47200 21.38700
H  40.35200 42.38500 20.52700
H  39.81900 43.73500 21.64100
H  40.31600 41.21300 23.03400
H  39.33600 40.86400 21.54400
H  38.74700 42.04100 22.71000
H  40.04200 47.46600 24.34300
H  41.54400 48.12800 25.02200
H  40.14200 48.12800 25.93300
H  40.69900 45.07900 30.23700
H  43.32400 46.54900 33.26800
H  42.43600 48.07200 33.06100
H  43.74200 47.89400 32.10800
Mg 10.02800 48.35700 26.31100
C  8.05400 47.89100 29.25700
C  12.69000 49.20100 28.44300
C  11.84900 48.75800 23.61800
C  7.14700 47.93000 24.49600
N  10.34000 48.35600 28.56500
C  9.40700 48.20500 29.62900
C  9.99300 48.52700 30.99800
C  11.46600 48.91300 30.68400
C  11.50100 48.87200 29.10700
C  11.92900 50.20300 31.30800
C  9.85800 47.39000 32.03800
C  11.02000 47.17000 33.04900
H  10.62200 46.67000 34.49300
N  11.98000 48.91600 26.08600
C  12.92800 49.06200 27.04000
C  14.23300 49.36600 26.39100
C  14.03100 49.33500 25.01400
C  12.56800 48.96400 24.83800
C  15.55400 49.73200 27.04200
C  14.95100 49.68600 23.85600
O  14.62700 49.67200 22.66200
C  16.40700 49.98900 24.12300
N  9.51900 48.49500 24.29400
C  10.49000 48.44900 23.34200
C  10.00200 48.15400 21.90400
C  8.48100 47.75000 22.32200
C  8.32300 48.23100 23.79100
C  10.09400 49.37800 20.87800
C  8.14600 46.22300 22.05200
C  8.71100 45.20600 23.03600
N  8.01700 47.96400 26.78400
C  6.95000 47.81400 25.86700
C  5.73600 47.51500 26.57600
C  6.09300 47.42400 27.96400
C  7.44800 47.81500 28.00400
C  4.37000 47.40400 25.90300
C  5.62400 47.20400 29.33100
O  4.57200 46.87800 29.73500
C  6.90000 47.42700 30.20200
C  7.28800 46.06800 30.74700
O  7.85100 45.16100 30.11900
O  6.85800 46.09400 32.02000
C  7.27700 44.93400 32.81900
H  13.57400 49.38200 29.05700
H  12.48400 48.87400 22.73700
H  6.23000 47.70700 23.94700
H  9.47100 49.36100 31.46800
H  12.14500 48.10700 30.96200
H  11.14400 50.65500 31.91400
H  12.26200 50.97400 30.61200
H  12.78700 50.01000 31.95200
H  9.79700 46.43300 31.52000
H  8.94300 47.55300 32.60700
H  11.64300 48.05900 33.14700
H  11.69100 46.39400 32.68100
H  16.39300 49.06500 26.84300
H  15.40000 49.74800 28.12000
H  15.72000 50.76700 26.74300
H  16.84900 49.14400 24.65100
H  16.47600 50.86900 24.76300
H  17.00300 50.11900 23.22000
H  10.55400 47.32400 21.46400
H  7.87900 48.36500 21.65400
H  10.48400 49.08200 19.90400
H  10.86600 50.05200 21.25000
H  9.16400 49.90100 20.65600
H  8.58600 45.89400 21.11100
H  7.07300 46.04600 21.98200
H  9.20800 45.54700 23.94400
H  9.43600 44.51500 22.60700
H  7.87700 44.54400 23.27200
H  4.27000 48.22300 25.19100
H  3.74000 47.51700 26.78500
H  4.21800 46.42300 25.45100
H  6.67300 48.18600 30.95100
H  7.72700 45.32200 33.73300
H  7.99300 44.19200 32.46600
H  6.43300 44.31600 33.12600

