158

Mg 44.94000 5.50300 48.03000
C  43.05100 8.47900 47.57800
C  42.29900 3.68000 47.12800
C  47.02600 2.92000 47.96200
C  47.79200 7.59600 48.55500
N  42.98700 6.04000 47.31000
C  42.44200 7.28000 47.12300
C  41.14900 7.18200 46.52000
C  40.69300 5.71700 46.75700
C  41.96300 5.05200 47.20300
C  39.49300 5.46700 47.76300
C  41.13300 7.69300 45.03100
C  40.00100 8.63000 44.73200
H  39.19000 8.24300 43.49300
N  44.67700 3.51000 47.74500
C  43.45800 2.94100 47.32600
C  43.66300 1.51400 47.41000
C  45.06500 1.25100 47.62700
C  45.67300 2.57600 47.79600
C  42.45700 0.63900 47.16900
C  45.60500 -0.13300 47.67900
O  44.92300 -1.08500 47.39500
C  47.01100 -0.31200 48.21100
N  47.11100 5.35000 48.22800
C  47.71700 4.07400 48.19200
C  49.28800 4.21100 48.16700
C  49.48100 5.65600 48.64800
C  48.09100 6.28500 48.36700
C  50.07700 3.14000 49.01300
C  50.65100 6.46100 47.97400
C  51.46800 7.29600 48.93900
N  45.41300 7.62500 48.01900
C  46.58800 8.28500 48.32800
C  46.32600 9.70000 48.34700
C  44.93000 9.88000 48.03700
C  44.47400 8.55500 47.93900
C  47.30200 10.75400 48.64900
C  43.79400 10.77600 47.89100
O  43.66100 11.97400 48.13300
C  42.59900 9.93200 47.45100
C  41.44400 10.12200 48.43800
O  41.19000 9.49400 49.44000
O  40.57400 11.03800 47.87900
C  39.40700 11.33000 48.68700
H  41.33400 3.22500 46.89700
H  47.78400 2.15900 47.76600
H  48.57900 8.26200 48.91600
H  40.44000 7.85100 47.00900
H  40.50600 5.28800 45.77200
H  39.15900 6.44700 48.10400
H  39.83100 4.87000 48.61000
H  38.70700 4.92400 47.23900
H  41.15600 6.90600 44.27800
H  42.02700 8.30300 44.89900
H  40.42700 9.59900 44.47100
H  39.29100 8.75800 45.55000
H  42.40900 -0.21400 47.84600
H  42.51600 0.37900 46.11200
H  41.52800 1.18200 47.34300
H  46.95500 -1.16200 48.89100
H  47.24600 0.50300 48.89500
H  47.79100 -0.32100 47.45000
H  49.62900 4.17200 47.13200
H  49.66200 5.61400 49.72300
H  49.34400 2.53100 49.54100
H  50.76600 3.58500 49.73200
H  50.71300 2.55600 48.34700
H  50.16900 7.20200 47.33700
H  51.34800 5.81700 47.43800
H  51.09100 7.32800 49.96100
H  51.55900 8.32300 48.58500
H  52.46100 6.87200 49.08600
H  46.91300 11.77100 48.60000
H  48.15200 10.63800 47.97600
H  47.54000 10.70600 49.71100
H  42.18900 10.29500 46.50900
H  39.19900 12.35000 49.01000
H  39.34000 10.77700 49.62400
H  38.58300 11.00500 48.05200
Mg 48.16200 34.84500 26.71700
C  46.52100 33.28500 29.37400
C  48.71000 37.52100 28.84800
C  49.71400 36.20300 24.17200
C  47.54100 31.94700 24.70900
N  47.87700 35.21300 28.93900
C  47.21700 34.44600 29.80400
C  47.38300 35.07800 31.16400
C  47.62200 36.58500 30.88500
C  48.12200 36.42000 29.49100
C  46.44100 37.52500 31.10400
C  48.62800 34.40600 31.86000
C  48.69000 34.47800 33.42000
H  47.65300 35.30200 34.18000
N  48.90600 36.64900 26.47200
C  49.04500 37.62600 27.45800
C  49.80200 38.75700 26.94700
C  50.25100 38.35800 25.59000
C  49.54300 37.07100 25.31300
C  50.25400 40.02200 27.85000
C  51.25100 39.07300 24.60400
O  51.62000 38.53800 23.56500
C  51.76200 40.39300 25.01000
N  48.47100 34.26500 24.57000
C  49.35100 34.93800 23.86900
C  49.81300 34.10900 22.65900
C  49.09800 32.72400 22.86100
C  48.30200 32.97800 24.09600
C  49.32100 34.78300 21.37000
C  50.09600 31.51000 23.09300
C  50.44900 30.70500 21.77000
N  47.12700 33.08500 26.92500
C  47.04200 31.98700 26.00900
C  46.28700 30.90300 26.74600
C  46.05100 31.47000 27.97800
C  46.64100 32.74200 28.08200
C  45.84500 29.64800 26.16200
C  45.34000 31.17600 29.23400
O  44.66100 30.19200 29.52500
C  45.50400 32.43400 30.11300
C  45.63400 32.13200 31.56800
O  46.64800 31.84300 32.16500
O  44.42800 32.35500 32.11900
C  44.38500 32.31800 33.63200
H  48.83200 38.36900 29.52500
H  50.33800 36.63100 23.38500
H  47.34000 31.04500 24.12600
H  46.52400 34.84900 31.79500
H  48.40300 36.93700 31.55900
H  46.60500 38.22600 31.92200
H  45.54100 36.93900 31.29200
H  46.26400 38.17800 30.24900
H  49.48800 34.94400 31.46200
H  48.71400 33.37100 31.52800
H  49.62500 34.94200 33.73600
H  48.67200 33.51400 33.92800
H  49.86100 40.98700 27.52800
H  51.34200 39.99900 27.91700
H  49.92800 39.92100 28.88500
H  52.36800 40.82400 24.21300
H  52.46000 40.39300 25.84700
H  50.91500 41.07500 25.08500
H  50.90200 34.09100 22.61900
H  48.42200 32.61000 22.01400
H  48.67900 35.66300 21.41500
H  48.92300 34.06200 20.65600
H  50.24800 35.04400 20.86100
H  49.74400 30.76500 23.80600
H  51.05000 31.87400 23.47400
H  49.83700 31.01300 20.92200
H  50.22900 29.65700 21.97200
H  51.51100 30.78300 21.53600
H  45.39400 29.85300 25.19100
H  45.13600 29.26800 26.89700
H  46.70300 28.99200 26.01700
H  44.51400 32.82800 29.88100
H  43.71600 33.10600 33.97900
H  45.35500 32.48600 34.10000
H  44.06700 31.32800 33.96000

