158

Mg -1.75600 17.82300 26.36400
C  -2.16800 15.74800 29.06900
C  -2.63900 20.56100 28.28300
C  -2.00700 19.71900 23.56900
C  -1.59200 14.97600 24.28500
N  -2.19000 18.04300 28.44100
C  -2.36400 17.07700 29.41700
C  -2.82100 17.65800 30.74700
C  -3.18000 19.09900 30.39800
C  -2.63300 19.31000 28.97500
C  -4.72100 19.31500 30.38600
C  -1.75300 17.51900 31.76100
C  -2.13800 16.93200 33.04900
H  -1.07300 16.37900 33.88700
N  -1.96700 19.84900 26.02100
C  -2.25500 20.81900 26.93800
C  -2.00800 22.14000 26.36500
C  -1.84800 21.93400 24.97400
C  -1.92000 20.41200 24.79500
C  -2.20000 23.36700 27.18100
C  -1.61300 22.98900 23.84700
O  -1.52800 22.69900 22.64300
C  -1.28100 24.48900 24.27600
N  -2.00800 17.43500 24.20300
C  -2.13100 18.41100 23.28500
C  -2.09200 17.90100 21.84100
C  -1.68700 16.36400 22.12800
C  -1.72700 16.23500 23.61700
C  -3.40700 17.97600 21.03400
C  -0.32900 15.99200 21.48800
C  0.86400 16.56700 22.15900
N  -1.74800 15.73600 26.59600
C  -1.66600 14.68200 25.62300
C  -1.73300 13.43400 26.34700
C  -1.99200 13.79500 27.68600
C  -1.87800 15.22200 27.79700
C  -1.85700 12.08000 25.68900
C  -2.39700 13.27600 28.95400
O  -2.55600 12.12400 29.33500
C  -2.35900 14.48000 29.98900
C  -1.51700 14.12800 31.14900
O  -0.32300 14.11000 31.06500
O  -2.20200 13.72900 32.29500
C  -1.44700 12.95400 33.28300
H  -3.02900 21.33700 28.94500
H  -2.00200 20.27000 22.62600
H  -1.51800 14.16600 23.55600
H  -3.63000 16.98500 31.03300
H  -2.70600 19.74100 31.14100
H  -5.13100 19.73700 29.46900
H  -4.99400 19.97100 31.21300
H  -5.26900 18.43400 30.72400
H  -1.30700 18.49100 31.97400
H  -0.97700 16.89800 31.31400
H  -2.95500 16.22300 32.91600
H  -2.51200 17.82100 33.55700
H  -2.54300 23.07500 28.17300
H  -3.03700 23.96600 26.82300
H  -1.35400 24.01400 27.41100
H  -2.09800 24.88600 24.87800
H  -1.13000 25.13700 23.41300
H  -0.33900 24.50800 24.82500
H  -1.26800 18.46100 21.39800
H  -2.43900 15.70400 21.69500
H  -4.15500 18.54900 21.58400
H  -3.74600 16.96100 20.82800
H  -3.35000 18.56300 20.11800
H  -0.33900 16.32100 20.44900
H  -0.26500 14.90700 21.57800
H  1.55800 15.90200 22.67200
H  0.49600 17.34000 22.83400
H  1.47400 17.05400 21.39900
H  -1.00000 11.90400 25.03900
H  -2.74600 11.98600 25.06400
H  -1.88100 11.31100 26.46100
H  -3.37100 14.64000 30.36200
H  -1.57200 13.51700 34.20800
H  -0.36200 12.90800 33.19400
H  -1.82300 11.93600 33.38600
Mg 46.70000 16.32600 28.46300
C  44.64700 15.51400 31.22500
C  48.47400 18.18500 30.40100
C  48.69100 16.63400 25.84000
C  44.45300 14.36100 26.47900
N  46.63700 16.74700 30.55300
C  45.69600 16.37500 31.53300
C  46.13100 16.94000 32.89800
C  47.18000 17.95900 32.50000
C  47.51000 17.56300 31.13600
C  46.72400 19.47600 32.41600
C  46.67100 15.77700 33.77600
C  46.58500 16.02000 35.27400
H  47.96300 16.01600 36.04000
N  48.40900 17.35100 28.20700
C  49.01600 18.10300 29.13200
C  50.26600 18.65600 28.63300
C  50.37900 18.18400 27.27900
C  49.18600 17.29800 27.07300
C  51.18300 19.58700 29.42800
C  51.47300 18.48400 26.25600
O  51.49600 17.91500 25.19100
C  52.62600 19.44000 26.59200
N  46.54800 15.50700 26.48400
C  47.57100 15.86100 25.62100
C  47.24800 15.44400 24.23100
C  45.86400 14.75300 24.40600
C  45.56800 14.86400 25.87600
C  47.26400 16.60400 23.24100
C  45.77500 13.34400 23.83300
C  46.39000 12.15500 24.70200
N  44.85600 15.20000 28.76900
C  44.11900 14.46300 27.84100
C  43.03200 13.87800 28.52300
C  43.22600 14.16800 29.86700
C  44.34200 14.98900 29.93700
C  41.85700 13.28300 27.81900
C  42.66600 14.09400 31.23200
O  41.65600 13.53900 31.64500
C  43.62400 14.85500 32.15500
C  42.86700 15.90300 32.96200
O  42.65100 17.07200 32.63200
O  42.38100 15.41100 34.18900
C  41.49600 16.27900 35.04400
H  49.10200 18.75500 31.08900
H  49.38200 16.72300 25.00000
H  43.78600 13.80500 25.81700
H  45.29100 17.40500 33.41500
H  48.08500 17.99100 33.10700
H  47.34000 20.10800 33.05600
H  45.75700 19.48200 32.91700
H  46.68400 19.95500 31.43700
H  47.67500 15.55800 33.41300
H  46.19000 14.81800 33.58400
H  45.95400 15.23100 35.68400
H  46.12300 17.00200 35.37100
H  52.18600 19.17400 29.53400
H  50.65700 19.77900 30.36300
H  51.28600 20.54900 28.92500
H  52.24400 20.36800 27.01500
H  53.11500 19.63600 25.63800
H  53.18500 18.98600 27.41000
H  48.04700 14.72000 24.07200
H  45.07900 15.30300 23.88700
H  46.65400 17.41700 23.63300
H  46.83400 16.30000 22.28700
H  48.30300 16.89800 23.08900
H  46.45300 13.34300 22.97900
H  44.75500 13.17600 23.48500
H  47.24800 11.70400 24.20200
H  45.67000 11.33900 24.76300
H  46.79800 12.41600 25.67900
H  42.29400 12.43000 27.30100
H  41.29100 13.97300 27.19200
H  41.23200 13.01200 28.67000
H  44.05000 14.11400 32.83200
H  42.23400 16.91000 35.53800
H  40.73900 15.85100 35.70100
H  40.94600 16.85000 34.29600

