158

Mg 40.91400 7.93000 28.80400
C  42.86500 9.29400 31.24900
C  38.84100 6.57000 31.22200
C  39.17900 6.41800 26.35200
C  43.22800 8.85800 26.48300
N  40.99500 7.90100 30.95800
C  41.77900 8.65500 31.78200
C  41.23100 8.54500 33.32300
C  40.01400 7.60000 33.18400
C  39.90200 7.33000 31.67400
C  40.09300 6.19000 33.99300
C  40.90700 10.00900 33.80600
C  39.84100 10.14400 34.90800
H  40.29400 10.97400 36.21200
N  39.20100 6.65300 28.80400
C  38.47500 6.22000 29.86900
C  37.39600 5.45900 29.41800
C  37.35300 5.59200 27.96900
C  38.64700 6.28700 27.59400
C  36.47000 4.67700 30.36400
C  36.22600 5.10400 26.94700
O  36.27200 5.30200 25.75000
C  34.96400 4.59100 27.46800
N  41.11600 7.70400 26.68200
C  40.30500 7.06300 25.84200
C  40.81200 7.06500 24.45600
C  42.05600 8.08100 24.44000
C  42.15900 8.24100 25.96500
C  41.13200 5.60500 24.05600
C  41.69200 9.46800 23.79000
C  40.59900 10.34600 24.48400
N  42.70700 8.81000 28.80600
C  43.61000 9.08900 27.82300
C  44.85700 9.60800 28.39100
C  44.57000 9.79100 29.76800
C  43.28700 9.28100 29.93000
C  46.15500 9.94900 27.57900
C  45.03100 10.33300 30.99600
O  46.05400 10.93200 31.31500
C  43.98600 9.98200 32.08300
C  44.55600 9.29300 33.32600
O  44.67500 8.09000 33.52900
O  44.56500 10.26400 34.32100
C  44.93000 9.83700 35.61500
H  38.06800 6.28500 31.93700
H  38.50700 6.07800 25.56200
H  43.91600 9.21500 25.71400
H  42.10400 8.18400 33.86700
H  39.07400 8.01100 33.55300
H  40.55600 5.48300 33.30600
H  39.09900 5.83900 34.27100
H  40.73100 6.28200 34.87200
H  40.55100 10.71000 33.05000
H  41.80200 10.41200 34.28000
H  39.55800 9.20700 35.38900
H  38.96200 10.67300 34.54100
H  36.71900 4.65600 31.42500
H  36.41700 3.63200 30.05800
H  35.52500 5.19800 30.20900
H  34.35400 4.40500 26.58400
H  34.62800 5.44100 28.06300
H  35.09000 3.70700 28.09300
H  40.03800 7.45900 23.79900
H  43.03300 7.73900 24.09800
H  40.90400 4.94900 24.89700
H  42.14000 5.26500 23.82000
H  40.58300 5.45400 23.12600
H  41.33100 9.28600 22.77700
H  42.62300 10.03400 23.76600
H  39.83000 10.49700 23.72600
H  41.08100 11.21500 24.93000
H  40.01600 9.87700 25.27600
H  45.84000 10.50700 26.69800
H  46.44300 8.93700 27.29500
H  46.93500 10.50300 28.10100
H  43.50600 10.93800 32.28800
H  44.11000 10.00200 36.31400
H  45.75600 10.45300 35.97100
H  45.15500 8.77400 35.70700
Mg 15.75100 52.56900 25.11400
C  17.43100 51.39500 27.93000
C  13.21000 53.50800 27.10900
C  14.19800 53.41700 22.32500
C  18.60200 51.40500 23.13700
N  15.47300 52.56200 27.18000
C  16.31300 52.11000 28.15000
C  15.74200 52.46800 29.55100
C  14.30700 52.81500 29.29100
C  14.30100 52.94300 27.73100
C  13.28000 51.75500 29.70500
C  16.66500 53.52700 30.38100
C  17.06900 53.07900 31.77500
H  16.07100 52.46700 32.82700
N  13.90200 53.36400 24.71000
C  13.03500 53.76800 25.68400
C  11.86300 54.38600 25.10400
C  12.18300 54.39200 23.69100
C  13.47500 53.72700 23.49900
C  10.62200 54.79100 25.86600
C  11.43600 54.99800 22.64500
O  11.88000 55.01200 21.49200
C  10.07900 55.67800 22.92800
N  16.44300 52.59900 23.05000
C  15.51400 52.94000 22.08800
C  16.05800 52.66800 20.70400
C  17.51700 52.19400 20.97000
C  17.53200 52.03500 22.48300
C  15.29200 51.50900 19.88200
C  18.68500 53.13300 20.54000
C  19.88600 52.53100 19.77500
N  17.66800 51.59400 25.38300
C  18.61700 51.14200 24.55700
C  19.60400 50.35400 25.29900
C  19.20600 50.48700 26.60900
C  17.99400 51.14700 26.61700
C  20.73700 49.61500 24.64400
C  19.52000 50.12200 28.00400
O  20.50600 49.55300 28.43700
C  18.36700 50.69100 28.92200
C  17.71000 49.71800 29.78500
O  16.73600 49.02000 29.51100
O  18.33300 49.70200 31.03000
C  17.69800 48.86600 32.06000
H  12.40400 53.93100 27.71200
H  13.65700 53.64900 21.40500
H  19.43400 51.01000 22.55100
H  15.87200 51.64200 30.25000
H  14.02600 53.81900 29.61200
H  12.69100 52.13700 30.53800
H  13.73200 50.83900 30.08400
H  12.66800 51.55000 28.82700
H  16.13900 54.47900 30.45400
H  17.58600 53.75100 29.84300
H  17.32300 54.01100 32.28100
H  17.98700 52.51300 31.62000
H  10.36900 55.84900 25.79400
H  10.65300 54.66900 26.94900
H  9.68900 54.30800 25.57400
H  10.41900 56.39100 23.67800
H  9.21600 55.03700 23.10900
H  9.89700 56.21200 21.99600
H  16.01400 53.66500 20.26600
H  17.68700 51.25600 20.44000
H  15.64100 50.52500 20.19400
H  15.28300 51.68600 18.80600
H  14.28100 51.59400 20.28100
H  19.09900 53.72400 21.35700
H  18.19800 53.81100 19.84000
H  19.77500 51.46900 19.55800
H  20.78800 52.71900 20.35800
H  20.01300 53.02900 18.81300
H  21.63500 50.15900 24.93500
H  20.67900 49.47000 23.56600
H  20.82200 48.65200 25.14800
H  18.85800 51.44900 29.53300
H  18.38400 48.02600 32.16800
H  16.71000 48.45700 31.85100
H  17.74300 49.45300 32.97700

