158

Mg 9.22100 3.75900 28.00400
C  10.68000 2.21300 30.76100
C  7.25500 5.54700 29.98800
C  7.85000 5.02800 25.14900
C  11.08900 1.39500 25.93500
N  8.99100 3.73000 30.16600
C  9.78800 3.23900 31.11500
C  9.34600 3.72700 32.50000
C  8.04100 4.59200 32.20800
C  8.05800 4.65100 30.65500
C  6.67000 4.07000 32.74900
C  10.49600 4.37800 33.33400
C  10.19000 5.43400 34.39900
H  10.82600 5.23000 35.77800
N  7.98300 5.21200 27.64900
C  7.15600 5.88500 28.58000
C  6.30200 6.84700 27.96300
C  6.58200 6.79600 26.56300
C  7.53700 5.57900 26.39900
C  5.52900 7.87700 28.72800
C  6.10600 7.80400 25.52300
O  6.51700 7.71500 24.36400
C  5.15300 8.86200 25.94500
N  9.54200 3.25500 25.86500
C  8.81400 3.93300 24.92000
C  9.11100 3.42700 23.50000
C  9.96700 2.11600 23.84300
C  10.32800 2.34700 25.27400
C  7.95800 3.01000 22.51700
C  11.15000 1.98400 22.79200
C  12.40000 2.89900 22.98900
N  10.42000 2.01200 28.21400
C  11.16000 1.27800 27.34200
C  11.96300 0.31900 28.06400
C  11.85300 0.67700 29.44200
C  10.90900 1.68900 29.46400
C  12.79700 -0.83900 27.57600
C  12.27400 0.34600 30.77500
O  13.00500 -0.52400 31.15300
C  11.58100 1.38100 31.69700
C  10.77100 0.69400 32.61500
O  9.72400 0.12400 32.31700
O  11.34000 0.72300 33.87000
C  10.61300 -0.18400 34.87800
H  6.58600 6.19300 30.56000
H  7.30000 5.40100 24.28300
H  11.78300 0.85300 25.28900
H  9.10900 2.78500 32.99600
H  8.09800 5.61600 32.58000
H  6.36000 4.72600 33.56300
H  6.70200 3.09900 33.24300
H  5.95800 3.96100 31.93100
H  11.08700 4.92800 32.60200
H  11.06200 3.54200 33.74600
H  9.13200 5.64600 34.54900
H  10.54900 6.43700 34.16600
H  5.95900 8.87500 28.81100
H  5.47000 7.70800 29.80300
H  4.49800 7.91900 28.37800
H  4.30400 8.28400 26.31000
H  4.83900 9.40700 25.05400
H  5.54500 9.59400 26.65100
H  9.73500 4.16700 22.99700
H  9.40900 1.18000 23.87900
H  8.10800 2.00900 22.11300
H  7.78100 3.82500 21.81500
H  7.04200 3.00500 23.10800
H  10.71800 2.01000 21.79200
H  11.57200 0.98500 22.90600
H  13.03600 2.23500 23.57300
H  12.08000 3.79200 23.52600
H  12.68100 3.15300 21.96600
H  13.76900 -0.62200 27.13200
H  12.17300 -1.35100 26.84400
H  12.93600 -1.44300 28.47300
H  12.41900 1.94800 32.10300
H  9.86200 -0.83800 34.43500
H  10.23900 0.43100 35.69600
H  11.35200 -0.86100 35.30800
Mg 0.54700 44.00100 24.97500
C  2.51800 43.62600 27.94200
C  -2.30300 43.29800 26.92200
C  -1.24100 43.55100 22.22800
C  3.53600 44.01500 23.04400
N  0.26100 43.43000 27.19500
C  1.13400 43.50700 28.21600
C  0.45200 43.43100 29.63200
C  -1.02400 43.12300 29.12200
C  -1.04500 43.22700 27.64500
C  -1.62900 41.84600 29.73300
C  0.55500 44.73100 30.49800
C  1.09200 44.55600 31.96600
H  0.89900 43.19500 32.73000
N  -1.49100 43.84600 24.66000
C  -2.47400 43.53500 25.53800
C  -3.70000 43.55800 24.89100
C  -3.46800 43.72100 23.49900
C  -1.99600 43.64100 23.41400
C  -4.98800 43.44800 25.60300
C  -4.46200 43.77800 22.31800
O  -4.13500 43.92600 21.13100
C  -5.86300 44.02800 22.69500
N  1.09700 43.83500 22.91300
C  0.16300 43.70500 21.93400
C  0.75700 43.36800 20.58300
C  2.20800 43.99600 20.79600
C  2.31300 43.94700 22.38400
C  0.86900 41.87700 20.16500
C  2.51600 45.39200 20.22300
C  3.30000 45.41100 18.88000
N  2.64900 43.83800 25.32600
C  3.73200 43.95600 24.44300
C  4.94700 43.99900 25.25400
C  4.51100 43.91000 26.57600
C  3.11900 43.77100 26.63800
C  6.32000 44.15600 24.63100
C  5.03300 43.78300 27.95200
O  6.17900 43.78500 28.41400
C  3.71300 43.73200 28.90600
C  3.83700 42.48100 29.67400
O  3.62300 41.38200 29.26400
O  4.24700 42.80400 30.97200
C  4.80900 41.66700 31.79800
H  -3.14300 43.42700 27.60800
H  -1.76900 43.28100 21.31200
H  4.48400 44.16700 22.52400
H  0.81600 42.63300 30.27900
H  -1.72300 43.87600 29.48700
H  -1.86900 41.28200 28.83300
H  -2.52600 42.11000 30.29300
H  -0.92100 41.28500 30.34300
H  -0.40300 45.25100 30.48400
H  1.28500 45.35000 29.97600
H  0.81700 45.42000 32.57200
H  2.16000 44.63700 31.76300
H  -4.96200 43.05500 26.62000
H  -5.76700 42.86900 25.10700
H  -5.29000 44.49500 25.58500
H  -6.45300 44.54900 21.94100
H  -5.91900 44.57600 23.63600
H  -6.25200 43.01500 22.79700
H  0.14800 43.87200 19.83200
H  2.97600 43.32300 20.41300
H  1.87400 41.56500 19.88100
H  0.21200 41.83400 19.29600
H  0.58200 41.20000 20.97000
H  3.05400 46.04900 20.90600
H  1.52200 45.76400 19.97300
H  4.00700 44.58200 18.91800
H  3.88900 46.32400 18.79700
H  2.61100 45.40200 18.03500
H  6.63900 45.19300 24.73500
H  6.35000 43.75700 23.61700
H  7.10000 43.66700 25.21400
H  3.63500 44.59800 29.56300
H  4.37000 40.71700 31.49500
H  4.44300 41.88300 32.80200
H  5.89100 41.53000 31.80000

