158

Mg 43.41000 3.84900 47.23000
C  41.35400 6.62900 46.73300
C  40.82100 1.79900 46.62200
C  45.48400 1.23100 47.26700
C  46.06300 5.95200 47.65000
N  41.28100 4.21500 46.68700
C  40.64800 5.40800 46.57500
C  39.18800 5.19300 46.29500
C  39.07600 3.62100 46.42000
C  40.44700 3.17100 46.60900
C  38.17400 3.04700 47.57300
C  38.72900 5.84500 44.93600
C  37.35900 5.28300 44.52100
H  37.52200 4.62300 43.19900
N  43.17900 1.77000 46.82200
C  41.98700 1.08900 46.61100
C  42.21900 -0.33600 46.41900
C  43.63800 -0.52000 46.61100
C  44.17500 0.83800 46.93900
C  41.09600 -1.32000 45.99400
C  44.27900 -1.84100 46.56900
O  43.62800 -2.84800 46.35400
C  45.77500 -2.06200 46.75500
N  45.50800 3.59900 47.20700
C  46.05300 2.43000 47.41500
C  47.59300 2.58100 47.54100
C  47.79400 4.09900 47.56100
C  46.34300 4.57700 47.49600
C  48.28800 1.72800 48.65900
C  48.69600 4.60900 46.40300
C  50.17900 4.44500 46.61900
N  43.64100 5.87600 47.30000
C  44.82000 6.61300 47.38100
C  44.58000 8.03100 47.40200
C  43.21300 8.07600 47.21000
C  42.69900 6.73200 47.02700
C  45.53100 9.14900 47.66500
C  42.07000 9.01200 46.98400
O  42.08000 10.23800 47.06100
C  40.75300 8.07500 46.86700
C  39.98300 8.34900 48.09500
O  39.83100 7.60000 49.06900
O  39.24700 9.45700 47.76500
C  38.05900 9.60000 48.58000
H  39.97900 1.10700 46.55600
H  46.17700 0.40500 47.44200
H  46.98700 6.50400 47.83400
H  38.65800 5.68100 47.11300
H  38.71600 3.13000 45.51700
H  38.70200 2.78700 48.49000
H  37.79100 2.05000 47.36000
H  37.34600 3.73200 47.75900
H  39.53700 5.64500 44.23200
H  38.50900 6.90700 45.04100
H  36.63600 6.09700 44.45700
H  36.97200 4.55000 45.22900
H  40.86900 -2.11800 46.70100
H  41.34400 -1.93700 45.13000
H  40.09600 -0.91200 45.84400
H  46.19900 -1.31800 46.07900
H  46.10800 -3.08600 46.58600
H  45.99400 -1.70500 47.76100
H  47.92800 2.15900 46.59400
H  48.22300 4.31200 48.54100
H  47.62100 1.23300 49.36400
H  49.07500 2.32000 49.12600
H  48.85600 0.93800 48.16600
H  48.54800 5.68800 46.44500
H  48.51500 4.25800 45.38700
H  50.67300 5.38800 46.38600
H  50.66700 3.62500 46.09200
H  50.37700 4.17300 47.65500
H  46.44400 8.90500 47.12200
H  45.60900 9.22400 48.74900
H  45.04100 10.00100 47.19200
H  40.12600 8.38100 46.02900
H  38.17300 10.45100 49.25100
H  37.78500 8.71500 49.15300
H  37.21600 9.82900 47.92800
Mg 52.75000 23.71100 44.70100
C  49.93400 25.83700 44.02200
C  50.74200 21.11100 43.65000
C  55.44800 21.85400 44.67300
C  54.49900 26.58100 45.69000
N  50.64200 23.53700 43.80000
C  49.76100 24.52600 43.59300
C  48.51400 24.05000 42.86000
C  48.52500 22.53000 43.35600
C  50.07900 22.32900 43.49500
C  47.86300 22.12100 44.66200
C  48.67200 24.29600 41.33700
C  47.41700 24.82900 40.58400
H  46.94100 24.07100 39.36000
N  52.98400 21.71400 44.23000
C  52.06700 20.75900 43.91900
C  52.64500 19.45400 43.94600
C  54.07700 19.60400 44.19100
C  54.28500 21.07400 44.36300
C  51.70800 18.22700 43.98900
C  55.04100 18.48700 44.26000
O  54.64700 17.30600 44.14000
C  56.40500 18.63700 44.69100
N  54.75200 24.14800 45.00700
C  55.71200 23.20500 44.99900
C  57.01600 23.74700 45.57400
C  56.72900 25.31700 45.80000
C  55.23700 25.39000 45.40300
C  57.72500 22.96300 46.69500
C  57.58100 26.25600 44.88600
C  58.85700 26.82300 45.55800
N  52.34300 25.79700 44.87200
C  53.12500 26.81900 45.36600
C  52.36900 28.05800 45.43700
C  51.11000 27.71400 44.93400
C  51.15200 26.36300 44.57400
C  52.80400 29.36100 45.99200
C  49.73500 28.21000 44.64900
O  49.21700 29.30300 44.81400
C  48.98500 27.05800 43.92600
C  48.49900 27.43200 42.63100
O  49.22200 27.87000 41.70600
O  47.16800 27.43900 42.68000
C  46.46600 28.22900 41.73000
H  50.01200 20.30300 43.57500
H  56.39600 21.33400 44.51200
H  55.03000 27.43600 46.11400
H  47.65900 24.54300 43.32200
H  48.19200 21.87100 42.55400
H  48.62300 21.57500 45.22000
H  46.92900 21.62100 44.40300
H  47.62200 23.04800 45.18200
H  49.02800 23.41300 40.80500
H  49.34300 25.14400 41.20300
H  47.63800 25.83700 40.23500
H  46.57500 24.95600 41.26500
H  52.13100 17.23300 43.84500
H  50.89300 18.35900 43.27800
H  51.13400 18.28100 44.91500
H  56.84700 19.20700 43.87400
H  56.95100 17.70200 44.81400
H  56.36000 19.21400 45.61500
H  57.67000 23.54600 44.72500
H  56.91400 25.48300 46.86200
H  57.60300 23.49200 47.64000
H  58.73200 22.63000 46.44500
H  57.07200 22.10800 46.87000
H  56.89400 27.00600 44.49600
H  57.99700 25.66400 44.07000
H  58.88100 26.32900 46.53000
H  58.87600 27.87200 45.85400
H  59.74900 26.63500 44.96200
H  52.11900 30.09100 45.56000
H  53.82500 29.53900 45.65400
H  52.85400 29.52500 47.06900
H  48.10400 26.69200 44.45500
H  46.95800 29.18500 41.54800
H  45.45300 28.31600 42.12200
H  46.43800 27.63000 40.82000

