158

Mg 23.34600 -6.39200 46.89800
C  25.73000 -3.95900 45.86100
C  21.07000 -4.84100 44.80200
C  21.51800 -9.20700 47.11800
C  25.94200 -7.97400 48.60700
N  23.45500 -4.55200 45.50400
C  24.49100 -3.67500 45.35000
C  24.07400 -2.60000 44.41500
C  22.48800 -2.73500 44.45600
C  22.32800 -4.14900 44.94100
C  21.72900 -1.73000 45.42200
C  24.69700 -2.73300 43.05900
C  25.01400 -1.45900 42.31400
H  24.23400 -1.28300 40.99700
N  21.48700 -6.88800 46.08300
C  20.68900 -6.11100 45.28100
C  19.48300 -6.86400 45.02800
C  19.53600 -8.09700 45.69300
C  20.91900 -8.09800 46.34900
C  18.35100 -6.30400 44.11300
C  18.47300 -9.13400 45.80900
O  17.43000 -8.91900 45.23700
C  18.66400 -10.38800 46.44200
N  23.72300 -8.25200 47.73800
C  22.73700 -9.28500 47.76400
C  23.15600 -10.50300 48.65000
C  24.57400 -10.07000 49.07900
C  24.81100 -8.67100 48.43300
C  22.21600 -10.64000 49.85700
C  25.60700 -11.19200 48.75200
C  26.14900 -11.25100 47.22900
N  25.44200 -5.97200 47.26200
C  26.29100 -6.73400 47.95600
C  27.56700 -6.02600 48.05600
C  27.40300 -4.89500 47.21300
C  26.09000 -5.01100 46.69500
C  28.77200 -6.55900 48.72000
C  28.07400 -3.74300 46.65900
O  29.19100 -3.29200 46.84400
C  26.96500 -3.09400 45.71500
C  26.66200 -1.66700 46.07700
O  26.43800 -1.20900 47.20700
O  26.71500 -0.86300 44.95100
C  26.44500 0.51600 45.26600
H  20.19500 -4.30000 44.43700
H  21.03300 -10.18300 47.05300
H  26.73500 -8.46100 49.17800
H  24.30700 -1.67000 44.93400
H  22.02800 -2.68700 43.46900
H  22.45200 -1.13400 45.97800
H  21.16700 -2.28700 46.17100
H  20.94200 -1.24000 44.84800
H  24.05000 -3.31800 42.40500
H  25.67600 -3.16900 43.25600
H  26.06600 -1.30000 42.07800
H  24.76400 -0.67500 43.02900
H  17.88700 -7.15400 43.61300
H  18.70700 -5.59700 43.36500
H  17.58700 -5.84300 44.73900
H  19.38000 -11.00100 45.89400
H  17.66600 -10.82700 46.45600
H  18.92300 -10.09500 47.45900
H  23.12600 -11.44600 48.10400
H  24.66100 -9.97600 50.16100
H  21.94100 -11.69200 49.93900
H  21.29100 -10.07900 49.72300
H  22.54900 -10.32100 50.84400
H  25.24300 -12.21300 48.86900
H  26.47800 -11.05400 49.39400
H  27.20900 -11.49600 47.16800
H  26.05500 -10.27800 46.74600
H  25.57900 -11.99100 46.66800
H  28.78100 -6.82700 49.77600
H  29.38800 -5.67400 48.55700
H  29.21400 -7.38300 48.16000
H  27.48400 -3.25000 44.76900
H  25.35900 0.60100 45.21200
H  26.97200 1.15200 44.55600
H  26.77000 1.07500 46.14300
Mg 15.66500 51.93800 24.67100
C  17.40300 50.70600 27.48300
C  12.95000 52.37500 26.78400
C  14.04300 52.51800 21.98800
C  18.53600 51.00200 22.72300
N  15.21200 51.65900 26.88200
C  16.11600 51.17000 27.78900
C  15.66700 51.44400 29.22300
C  14.16000 51.88200 29.03100
C  14.05400 51.97900 27.51100
C  13.10800 50.92000 29.74900
C  16.48900 52.40200 30.08000
C  16.97700 51.97800 31.50600
H  16.09700 51.08700 32.31500
N  13.69400 52.51900 24.42000
C  12.70400 52.56200 25.35800
C  11.53800 52.98800 24.71500
C  11.83400 53.01900 23.27900
C  13.21500 52.67400 23.17600
C  10.26300 53.34000 25.44600
C  10.98300 53.47400 22.13800
O  11.39800 53.63600 21.01400
C  9.63200 53.78900 22.40800
N  16.27800 51.75400 22.58000
C  15.39400 52.22400 21.69400
C  16.05200 52.32200 20.26100
C  17.57500 52.03800 20.53200
C  17.54500 51.70000 22.05000
C  15.45100 51.39300 19.19600
C  18.58500 53.21400 20.19700
C  19.80700 52.75700 19.32200
N  17.54900 51.08100 24.96100
C  18.50800 50.74100 24.06800
C  19.58000 50.17200 24.81100
C  19.19300 50.12800 26.17900
C  17.92700 50.70600 26.19700
C  20.85000 49.71200 24.23600
C  19.59800 49.82200 27.52300
O  20.65200 49.26600 27.85600
C  18.42500 50.23900 28.52000
C  18.02600 48.97400 29.25100
O  17.53800 47.96200 28.82200
O  18.39600 49.15400 30.52500
C  18.54700 47.91400 31.32600
H  12.07600 52.57300 27.40900
H  13.50100 52.61500 21.04500
H  19.46600 50.75500 22.20700
H  15.80200 50.48100 29.71400
H  13.92300 52.87100 29.42300
H  13.67100 50.20900 30.35500
H  12.47800 50.38500 29.03800
H  12.42500 51.41600 30.43900
H  15.79700 53.23600 30.19700
H  17.36000 52.76000 29.53000
H  17.24700 52.84200 32.11400
H  17.91800 51.42800 31.48700
H  9.75300 54.22300 25.05800
H  10.59500 53.53300 26.46600
H  9.54100 52.52300 25.43900
H  9.08000 53.85500 21.47100
H  9.76100 54.83500 22.68500
H  8.99000 53.30100 23.14300
H  15.88700 53.36000 19.96900
H  17.93000 51.10800 20.08600
H  14.79100 50.56800 19.46400
H  16.21500 50.92300 18.57600
H  14.82300 52.05100 18.59700
H  18.90300 53.56000 21.18000
H  18.03400 53.96900 19.63500
H  19.88300 53.49900 18.52700
H  19.53900 51.79200 18.89100
H  20.74400 52.73800 19.87900
H  20.53700 48.73500 23.86700
H  21.70500 49.79700 24.90800
H  21.05100 50.34000 23.36800
H  18.81000 51.04000 29.15200
H  19.16800 47.23400 30.74300
H  17.60200 47.40900 31.52700
H  19.12600 48.13900 32.22200

