158

Mg -2.12000 16.92700 26.33800
C  -2.64200 15.01700 29.07900
C  -2.66900 19.74600 28.38500
C  -2.20000 18.94700 23.54600
C  -2.34800 14.19400 24.25900
N  -2.67700 17.39200 28.45500
C  -2.60200 16.38700 29.41000
C  -2.82600 16.96000 30.75200
C  -3.12000 18.45700 30.58200
C  -2.78000 18.61000 29.08000
C  -4.51500 19.05400 30.92800
C  -1.61500 16.81300 31.71600
C  -2.07800 16.47000 33.23900
H  -0.98800 16.41900 34.30600
N  -2.33500 19.02400 26.02800
C  -2.51600 19.99000 26.98900
C  -2.37700 21.30000 26.45500
C  -2.20800 21.08600 25.04200
C  -2.27300 19.61600 24.80700
C  -2.54600 22.62100 27.10700
C  -1.99500 22.09300 23.90600
O  -1.85100 21.80500 22.72400
C  -1.77000 23.51700 24.21500
N  -2.26500 16.61200 24.26400
C  -2.23100 17.53400 23.33900
C  -2.32100 17.02000 21.88300
C  -2.11600 15.49900 22.16800
C  -2.29200 15.39100 23.65100
C  -3.69700 17.37900 21.14600
C  -0.75600 14.91500 21.58700
C  -0.76800 14.14200 20.24900
N  -2.36100 14.97300 26.59900
C  -2.40200 13.96800 25.67700
C  -2.70800 12.66300 26.29700
C  -2.71400 12.99600 27.68600
C  -2.55800 14.41200 27.77600
C  -2.93600 11.29000 25.77500
C  -2.83900 12.54100 29.03400
O  -2.97500 11.38000 29.40100
C  -2.86500 13.85000 29.99300
C  -1.73800 13.58800 30.90500
O  -0.59000 13.63000 30.61800
O  -2.18100 13.05200 32.06600
C  -1.12800 12.33600 32.85500
H  -2.67400 20.68400 28.94300
H  -2.17200 19.50700 22.60800
H  -2.36300 13.30600 23.62400
H  -3.65900 16.45000 31.23500
H  -2.37900 19.06300 31.10300
H  -5.21600 18.27200 31.22000
H  -4.91000 19.66900 30.12000
H  -4.41700 19.68800 31.81000
H  -1.13200 17.77000 31.91200
H  -0.89900 16.20200 31.16500
H  -2.64400 15.53900 33.26100
H  -2.81800 17.22900 33.49400
H  -1.67600 23.27400 27.04800
H  -2.85200 22.52500 28.14900
H  -3.32400 23.17100 26.57700
H  -2.73200 24.02600 24.27200
H  -1.23000 23.81000 23.31500
H  -1.10400 23.73600 25.05000
H  -1.45400 17.40600 21.34600
H  -2.93700 14.87200 21.82100
H  -3.56500 16.92900 20.16300
H  -3.84800 18.45800 21.17700
H  -4.48400 16.90400 21.73200
H  -0.39300 14.21700 22.34200
H  -0.03700 15.71400 21.40900
H  0.07100 14.52700 19.66800
H  -1.71100 14.28300 19.72100
H  -0.78600 13.05300 20.30000
H  -3.53900 11.27400 24.86700
H  -3.61800 10.78200 26.45700
H  -2.01100 10.72000 25.68400
H  -3.78000 13.89100 30.58300
H  -1.25800 12.66900 33.88500
H  -0.08300 12.49400 32.58700
H  -1.36800 11.27400 32.90500
Mg 1.71400 -2.82700 45.40700
C  5.10900 -2.92700 44.66800
C  1.41700 -0.15500 43.04700
C  -1.62300 -3.24400 45.33300
C  2.14200 -5.90800 47.14300
N  3.09300 -1.63600 44.08400
C  4.45500 -1.90300 43.92700
C  5.09900 -0.90000 42.88000
C  4.00100 0.13700 42.69400
C  2.75600 -0.60900 43.22600
C  4.16100 1.53900 43.28400
C  5.62200 -1.67100 41.56900
C  7.09400 -1.41300 41.10700
H  7.34900 -0.87700 39.70500
N  0.17800 -1.70200 44.54500
C  0.24800 -0.67900 43.61200
C  -1.08900 -0.18400 43.31900
C  -1.96200 -1.08400 43.85700
C  -1.14900 -2.06300 44.66100
C  -1.32200 0.97100 42.38500
C  -3.44900 -1.11200 43.63500
O  -3.85400 -0.20500 42.93800
C  -4.34200 -2.13300 44.24000
N  0.51200 -4.33000 46.08300
C  -0.85500 -4.20800 46.05100
C  -1.54600 -5.44100 46.72900
C  -0.33000 -6.17100 47.31500
C  0.85300 -5.49600 46.78000
C  -2.60400 -5.07500 47.83900
C  -0.33500 -7.67600 47.23800
C  0.40300 -8.40600 46.11500
N  3.28200 -4.15000 45.92600
C  3.33900 -5.28700 46.70100
C  4.68800 -5.74000 46.83000
C  5.41800 -4.79300 46.08900
C  4.48800 -3.84600 45.53600
C  5.24300 -6.91600 47.59600
C  6.74300 -4.49500 45.59700
O  7.86000 -5.04800 45.78800
C  6.60700 -3.22800 44.69500
C  7.37700 -2.14100 45.20600
O  7.36100 -1.71900 46.35000
O  7.96100 -1.40800 44.18300
C  8.58800 -0.09000 44.34400
H  1.30200 0.73900 42.43100
H  -2.69000 -3.46900 45.38800
H  2.05800 -6.72200 47.86600
H  5.94100 -0.43500 43.39400
H  3.79800 0.42700 41.66400
H  4.86700 1.41900 44.10600
H  3.19900 1.89700 43.65200
H  4.61200 2.22700 42.57000
H  4.91400 -1.42000 40.78000
H  5.41900 -2.72600 41.75200
H  7.70000 -2.31300 41.20600
H  7.43500 -0.67000 41.82800
H  -1.66200 0.65700 41.39800
H  -0.42000 1.58200 42.35400
H  -2.12300 1.56000 42.83200
H  -4.14800 -3.09000 43.75600
H  -5.34200 -1.80900 43.95000
H  -4.41500 -2.21300 45.32400
H  -1.97200 -6.09100 45.96500
H  -0.28200 -5.99400 48.39000
H  -2.82800 -4.01100 47.90500
H  -2.18600 -5.43600 48.77900
H  -3.58700 -5.50600 47.65100
H  -1.34100 -8.06800 47.38900
H  0.17700 -7.98800 48.14900
H  -0.30400 -9.08200 45.63400
H  1.22800 -8.99800 46.51000
H  0.85500 -7.74900 45.37100
H  4.77700 -7.84400 47.26300
H  4.84900 -6.83900 48.60900
H  6.31200 -6.70800 47.55900
H  7.00200 -3.43500 43.70100
H  9.26000 -0.07800 45.20200
H  7.80000 0.63200 44.56000
H  9.25700 0.23400 43.54700

