158

Mg 40.78800 8.20000 29.80700
C  42.38400 9.82200 32.39800
C  38.53000 6.85200 32.04200
C  39.31500 6.64700 27.16000
C  43.44500 9.15300 27.64400
N  40.55300 8.29700 32.00500
C  41.17200 9.17500 32.80800
C  40.67900 9.05600 34.31900
C  39.43300 8.10900 34.19700
C  39.48100 7.71200 32.65500
C  39.41400 6.81000 35.11000
C  40.42500 10.41500 35.00500
C  39.72200 10.32400 36.33100
H  40.49600 10.32200 37.67400
N  39.16700 6.91200 29.60800
C  38.36800 6.54900 30.64700
C  37.22700 5.83500 30.08200
C  37.43800 5.74100 28.71100
C  38.71400 6.46200 28.40100
C  36.09600 5.31100 31.06100
C  36.47600 5.22200 27.63900
O  36.76900 5.08100 26.46800
C  35.18600 4.77200 28.09800
N  41.35000 7.78500 27.78300
C  40.51200 7.26500 26.86000
C  41.08500 7.35400 25.44300
C  42.15400 8.46000 25.63000
C  42.33500 8.44600 27.13200
C  41.69900 6.02700 24.92000
C  41.84200 9.95000 25.18500
C  40.42500 10.38500 25.52700
N  42.62600 9.25400 29.93300
C  43.65600 9.49900 28.98600
C  44.73700 10.27900 29.70000
C  44.30600 10.42700 31.02900
C  43.03400 9.77900 31.08400
C  45.96500 10.77500 28.98700
C  44.56900 11.07900 32.26000
O  45.44700 11.82500 32.60500
C  43.37800 10.74900 33.19000
C  43.94000 10.13200 34.45100
O  44.35400 8.96500 34.52700
O  43.98400 11.12300 35.41800
C  44.63600 10.76600 36.71600
H  37.83200 6.40700 32.75500
H  38.87800 6.16200 26.28500
H  44.12800 9.51200 26.87100
H  41.55700 8.59300 34.77000
H  38.46200 8.60200 34.23600
H  38.52600 6.65000 35.72200
H  40.19100 6.95900 35.86000
H  39.57000 5.93100 34.48500
H  39.85300 11.05100 34.32900
H  41.41300 10.83600 35.19300
H  39.16000 9.39000 36.29700
H  38.94600 11.08600 36.25800
H  35.10100 5.42500 30.63000
H  36.14000 5.79800 32.03500
H  36.31300 4.25800 31.24000
H  34.61600 5.61400 28.48900
H  35.43000 4.02800 28.85600
H  34.66800 4.25600 27.28900
H  40.17200 7.62600 24.91400
H  43.02600 8.14000 25.05900
H  41.30400 5.11800 25.37400
H  42.74600 5.98200 25.21800
H  41.48800 5.92900 23.85500
H  41.89600 10.07400 24.10300
H  42.59000 10.63700 25.58000
H  40.48900 11.43900 25.79800
H  39.84600 9.83200 26.26600
H  39.98000 10.30100 24.53600
H  45.68100 10.73300 27.93600
H  46.67500 9.95200 29.07300
H  46.38200 11.71500 29.34900
H  43.08100 11.76300 33.45700
H  45.27100 9.88000 36.69600
H  43.83800 10.42300 37.37600
H  45.11100 11.67200 37.09200
Mg 0.00600 44.18700 26.43900
C  2.13900 43.91100 29.12500
C  -2.53700 42.72000 28.44000
C  -1.93900 44.00000 23.76800
C  2.63400 45.19700 24.47800
N  -0.17700 43.55200 28.60100
C  0.81600 43.59400 29.49900
C  0.32700 43.27000 30.98700
C  -1.10100 42.68200 30.69500
C  -1.33100 42.99600 29.14900
C  -1.32800 41.18500 30.99500
C  0.30300 44.61900 31.72100
C  1.05700 44.70400 33.03600
H  0.73500 43.49600 34.05500
N  -1.91800 43.47700 26.14300
C  -2.80000 42.88200 27.09800
C  -4.06000 42.60900 26.46200
C  -3.93200 43.10600 25.10900
C  -2.58900 43.56900 24.92000
C  -5.24700 42.13800 27.24100
C  -4.86400 42.88500 23.91400
O  -4.68300 43.40400 22.79900
C  -6.14300 42.07500 24.17100
N  0.30400 44.55200 24.38500
C  -0.67000 44.43900 23.49300
C  -0.19600 44.88600 22.10500
C  1.21400 45.43600 22.35000
C  1.42700 45.04100 23.81700
C  -0.35800 43.83100 20.98100
C  1.55600 46.89500 22.00700
C  1.45500 47.93900 23.08200
N  1.95600 44.42200 26.66900
C  2.93400 44.73000 25.74100
C  4.25900 44.77400 26.39800
C  3.94700 44.48600 27.75700
C  2.59600 44.23300 27.84400
C  5.61900 44.89500 25.72100
C  4.51400 44.27900 29.07100
O  5.68500 44.32500 29.35800
C  3.30900 43.83900 30.03500
C  3.59400 42.58700 30.79400
O  3.30600 41.44800 30.45600
O  4.08300 42.95400 31.98900
C  4.08900 41.85000 32.92500
H  -3.33300 42.23700 29.00900
H  -2.52300 43.83900 22.85900
H  3.55400 45.51300 23.98100
H  0.90700 42.50500 31.50400
H  -1.89200 43.23200 31.20400
H  -0.48900 40.74600 31.53600
H  -1.52800 40.56100 30.12400
H  -2.21700 41.12100 31.62300
H  -0.72500 44.93300 31.90300
H  0.74300 45.32400 31.01500
H  0.88000 45.66400 33.52000
H  2.13400 44.82400 32.91500
H  -5.27100 42.44000 28.28800
H  -5.34600 41.05300 27.23600
H  -6.12900 42.62700 26.82500
H  -6.47800 41.72000 23.19700
H  -6.82600 42.79600 24.62000
H  -6.02100 41.25300 24.87600
H  -0.83900 45.72500 21.83900
H  1.96300 44.87800 21.78800
H  0.55000 43.87600 20.38000
H  -1.14900 44.19800 20.32700
H  -0.63200 42.84700 21.36200
H  0.86600 47.36700 21.30800
H  2.52100 46.82800 21.50500
H  2.47400 48.27100 23.28200
H  0.98400 47.64400 24.02000
H  0.94000 48.83000 22.72500
H  5.76900 45.97200 25.64500
H  5.58300 44.47600 24.71500
H  6.39300 44.39500 26.30400
H  3.22900 44.68400 30.71800
H  3.14100 41.31400 32.94600
H  4.45000 42.18300 33.89800
H  4.89100 41.15000 32.68900

