158

Mg 47.75600 25.08100 28.20300
C  48.96700 27.28600 30.74600
C  46.79800 22.96100 30.62600
C  47.27000 22.86300 25.71600
C  49.17800 27.30200 25.80300
N  47.93400 25.07800 30.45800
C  48.25600 26.19800 31.27600
C  47.97600 25.91200 32.69400
C  47.43800 24.48200 32.73600
C  47.30200 24.18000 31.23800
C  48.28200 23.36800 33.41400
C  47.00300 27.06300 33.26500
C  46.15100 26.76900 34.48400
H  45.95400 27.80800 35.59000
N  47.19800 23.22200 28.17500
C  46.85300 22.47200 29.29500
C  46.39800 21.15700 28.92200
C  46.60200 21.08300 27.49700
C  47.08000 22.44300 27.04600
C  45.73600 20.15100 29.88300
C  46.18300 19.96600 26.54100
O  46.57000 19.92900 25.40200
C  45.28400 18.87200 27.01400
N  48.16900 25.08700 26.06900
C  47.88800 24.05000 25.28900
C  48.26200 24.26600 23.80000
C  48.67900 25.79600 23.80200
C  48.72200 26.10100 25.30300
C  49.32100 23.29200 23.17000
C  47.78200 26.76600 23.04700
C  48.33200 28.00900 22.41400
N  48.81800 26.90600 28.19100
C  49.35300 27.64000 27.17900
C  49.98200 28.76200 27.73900
C  49.90800 28.70600 29.13700
C  49.18000 27.50600 29.35000
C  50.58800 29.84700 26.94400
C  50.23300 29.36100 30.38700
O  50.83300 30.44700 30.52400
C  49.60900 28.45100 31.47600
C  50.63600 28.16100 32.48300
O  51.29900 27.17300 32.39100
O  50.72000 29.11600 33.38700
C  51.84100 28.83000 34.31000
H  46.37600 22.42000 31.47500
H  47.10400 22.18300 24.87800
H  49.72100 28.05000 25.22100
H  48.94700 25.95400 33.18800
H  46.43400 24.37500 33.14800
H  47.69900 22.70100 34.04900
H  48.99000 23.84700 34.09000
H  48.68900 22.72600 32.63300
H  46.29600 27.39100 32.50300
H  47.78500 27.77800 33.52200
H  46.44900 25.86200 35.01000
H  45.17500 26.57600 34.04000
H  46.41500 19.31300 30.03800
H  44.80600 19.72800 29.50300
H  45.58100 20.60900 30.86000
H  45.73500 18.24300 27.78100
H  45.05300 18.22200 26.17000
H  44.30600 19.20900 27.35600
H  47.34500 24.31400 23.21300
H  49.68800 25.89400 23.40200
H  49.82600 22.68900 23.92400
H  50.08600 23.76800 22.55600
H  48.73500 22.63400 22.52900
H  47.04000 27.12200 23.76300
H  47.32000 26.14400 22.28000
H  47.76700 28.15900 21.49400
H  49.40100 27.95800 22.20900
H  48.19200 28.86100 23.07900
H  49.86700 30.13700 26.17900
H  51.45400 29.38800 26.46800
H  50.83900 30.64900 27.63700
H  49.00700 29.12600 32.08400
H  52.78400 28.84600 33.76300
H  51.77100 27.97900 34.98700
H  51.88800 29.74700 34.89700
Mg 30.03900 58.26600 40.15600
C  27.35800 56.08500 39.07000
C  32.21900 56.09900 38.69600
C  32.23900 60.60200 40.36100
C  27.35800 60.63000 40.78600
N  29.79900 56.39600 38.87400
C  28.68600 55.64700 38.71900
C  29.04100 54.20100 38.14200
C  30.57300 54.20700 38.10500
C  30.91500 55.65200 38.70200
C  31.37500 52.98400 38.71500
C  28.32800 53.80600 36.80500
C  27.96300 55.03800 35.90900
H  28.21600 54.76400 34.44400
N  32.07100 58.27200 39.74600
C  32.77100 57.27400 39.22000
C  34.15000 57.63300 39.19500
C  34.23200 59.03100 39.52500
C  32.82900 59.38100 39.90600
C  35.15600 56.67500 38.73800
C  35.47600 59.96700 39.51800
O  36.50300 59.51000 39.10000
C  35.45300 61.33000 40.09600
N  29.75300 60.38500 40.33500
C  30.91700 61.03900 40.55200
C  30.60900 62.45600 41.26000
C  29.10400 62.41400 41.38400
C  28.66300 61.09000 40.77900
C  31.28100 62.68900 42.60400
C  28.42000 63.59500 40.65700
C  27.68400 64.64000 41.48500
N  27.82100 58.35800 40.15800
C  27.00900 59.34100 40.45300
C  25.58300 58.87100 40.28300
C  25.70800 57.54900 39.80300
C  27.08500 57.36500 39.64900
C  24.31300 59.71600 40.50600
C  24.89100 56.39600 39.33000
O  23.64700 56.30500 39.26100
C  26.03500 55.40200 38.89800
C  25.80100 54.17000 39.72000
O  25.41600 54.16200 40.88000
O  25.72200 53.08400 38.86900
C  24.96100 51.92100 39.43100
H  32.88200 55.31200 38.33000
H  32.87900 61.40100 40.74200
H  26.68100 61.43300 41.08300
H  28.74600 53.48200 38.90500
H  30.92100 54.25400 37.07400
H  31.80800 53.37200 39.63600
H  32.15200 52.60400 38.05100
H  30.86500 52.07900 39.04400
H  27.60300 52.99500 36.87800
H  29.17000 53.32300 36.30900
H  28.54400 55.91800 36.18800
H  26.89900 55.25100 36.00900
H  35.09200 56.83000 37.66100
H  34.89500 55.68200 39.10300
H  36.11000 56.93000 39.19900
H  36.42000 61.78100 39.87300
H  35.38800 61.13200 41.16600
H  34.66900 61.91400 39.61400
H  30.88100 63.27600 40.59500
H  28.69800 62.48000 42.39300
H  32.00400 61.89300 42.77900
H  30.61600 62.55500 43.45700
H  31.94300 63.55000 42.70000
H  27.75200 63.20900 39.88700
H  29.12700 64.19500 40.08400
H  27.92400 65.59800 41.02200
H  27.64900 64.54800 42.57000
H  26.63900 64.48600 41.21500
H  24.52800 60.26200 41.42500
H  23.36200 59.21400 40.68600
H  24.12000 60.43800 39.71300
H  26.00100 55.05000 37.86700
H  25.56500 51.39600 40.17100
H  24.80400 51.15900 38.66700
H  23.97400 52.08700 39.86300

