158

Mg 43.91000 4.69800 46.66700
C  42.09800 7.63500 46.24300
C  41.09300 2.87400 45.85200
C  45.93500 2.20000 46.01300
C  46.79000 6.80400 47.20600
N  41.83800 5.23600 46.10500
C  41.36000 6.50000 46.13200
C  39.81600 6.51700 46.02600
C  39.44400 4.97400 45.90600
C  40.81700 4.29100 46.02100
C  38.44200 4.55700 46.97200
C  39.20500 7.35800 44.77900
C  40.06200 7.72900 43.59900
H  39.61600 7.23100 42.27800
N  43.57400 2.80500 46.26800
C  42.34700 2.21300 46.02100
C  42.68100 0.82400 45.73200
C  44.01300 0.55800 45.84200
C  44.58600 1.89200 46.03000
C  41.50000 -0.05600 45.37200
C  44.68600 -0.76200 45.81900
O  43.99300 -1.80500 45.67900
C  46.15600 -0.98700 46.23200
N  46.17600 4.57400 46.41300
C  46.67200 3.35200 46.28100
C  48.18400 3.35000 46.49800
C  48.55200 4.85600 46.89900
C  47.14100 5.44200 46.83800
C  48.69500 2.25400 47.58500
C  49.63500 5.58300 46.02000
C  50.88600 6.12600 46.74800
N  44.40800 6.82300 46.70200
C  45.53800 7.50400 46.91800
C  45.30000 8.98300 46.90400
C  43.92200 9.03100 46.68300
C  43.43600 7.72300 46.59400
C  46.25700 10.10100 47.00400
C  42.79900 9.94000 46.56800
O  42.67800 11.16400 46.55200
C  41.57100 9.04400 46.36400
C  40.76900 9.31600 47.56500
O  40.83800 8.64100 48.51100
O  39.98000 10.41300 47.33300
C  39.19000 10.86600 48.51400
H  40.17100 2.37000 45.55700
H  46.68000 1.42400 45.82600
H  47.53900 7.50200 47.58600
H  39.46200 6.98100 46.94700
H  39.08300 4.76600 44.89900
H  37.58800 4.11500 46.45900
H  38.03900 5.42600 47.49300
H  38.98500 4.04100 47.76400
H  38.99100 8.31200 45.25900
H  38.28000 6.86700 44.47900
H  41.04600 7.26800 43.67400
H  40.22700 8.80500 43.65800
H  41.52100 -1.08200 45.73900
H  41.33300 -0.05200 44.29500
H  40.64600 0.34800 45.91500
H  46.30400 -2.06700 46.23700
H  46.34500 -0.62500 47.24300
H  46.75800 -0.58400 45.41700
H  48.65200 3.12600 45.54000
H  48.81900 5.04800 47.93800
H  48.98400 2.72800 48.52300
H  49.53400 1.64100 47.25700
H  47.91300 1.54800 47.86600
H  49.23500 6.45700 45.50600
H  49.96400 4.88600 45.24900
H  50.85200 5.89800 47.81400
H  50.99600 7.19900 46.59500
H  51.81100 5.67600 46.38600
H  45.82500 11.09600 46.90200
H  46.95000 10.05600 46.16300
H  46.72000 10.12200 47.99000
H  41.03500 9.48600 45.52400
H  39.56100 11.80600 48.92300
H  38.97200 10.12700 49.28500
H  38.18200 11.04900 48.14100
Mg 10.11300 47.78900 26.36000
C  8.23800 47.93500 29.46300
C  12.62600 49.32500 27.98400
C  11.69600 47.56900 23.59300
C  7.05300 46.80100 24.76700
N  10.28300 48.67000 28.34900
C  9.48500 48.52700 29.49500
C  10.11400 49.06600 30.77900
C  11.33800 49.83000 30.16000
C  11.46800 49.21200 28.76100
C  11.07900 51.32100 30.09000
C  10.46600 47.93900 31.86200
C  10.13900 48.12400 33.32900
H  10.05700 46.86100 34.17500
N  11.96000 48.14700 25.90200
C  12.90400 48.81300 26.69400
C  14.16000 48.75900 26.02300
C  13.98800 48.25100 24.70300
C  12.53100 47.95600 24.66200
C  15.49100 49.26200 26.61500
C  14.96400 48.14600 23.50500
O  14.61000 47.76500 22.37600
C  16.39400 48.46500 23.61900
N  9.49900 47.26300 24.51400
C  10.34800 47.34200 23.43200
C  9.64300 47.01200 22.07800
C  8.25900 46.55400 22.53800
C  8.26800 46.92700 23.99900
C  9.68300 48.25100 21.18400
C  8.01400 45.01500 22.35900
C  8.84500 44.09800 23.26200
N  8.08600 47.43700 26.94200
C  6.97200 47.05500 26.16300
C  5.76400 47.12800 27.02100
C  6.23000 47.31600 28.31900
C  7.64500 47.53400 28.21000
C  4.44900 46.82200 26.52700
C  5.84400 47.36500 29.75200
O  4.78100 47.17100 30.32700
C  7.22900 47.59900 30.55900
C  7.55200 46.30200 31.16500
O  8.16800 45.39500 30.64000
O  7.00900 46.24500 32.49000
C  7.07100 44.93500 33.15100
H  13.42700 49.74700 28.59400
H  12.26700 47.36000 22.68600
H  6.16600 46.38500 24.28500
H  9.43100 49.80400 31.19900
H  12.23900 49.56300 30.71200
H  10.47200 51.49900 29.20200
H  11.97000 51.94700 30.03300
H  10.58600 51.74300 30.96600
H  11.53500 47.72600 31.84300
H  10.04300 46.98700 31.53900
H  9.26800 48.77300 33.42500
H  10.90300 48.78500 33.74000
H  15.61900 48.93500 27.64700
H  15.47400 50.35200 26.59500
H  16.36700 48.90500 26.07300
H  16.96800 48.36300 22.69900
H  16.87000 47.73300 24.27200
H  16.60500 49.44600 24.04500
H  10.21300 46.24500 21.55300
H  7.50700 47.07200 21.94400
H  8.69500 48.58900 20.87100
H  10.14300 47.90700 20.25700
H  10.26700 49.04000 21.65600
H  8.20300 44.83900 21.30000
H  6.97000 44.86500 22.63300
H  9.58200 44.58900 23.89800
H  9.32500 43.39700 22.57900
H  8.10200 43.65300 23.92300
H  4.45300 46.10400 25.70700
H  4.01300 47.69100 26.03500
H  3.90500 46.37900 27.36100
H  7.12400 48.39000 31.30300
H  8.15900 44.87400 33.14300
H  6.47500 44.16400 32.66200
H  6.77700 45.02200 34.19700

