158

Mg 41.88400 41.38100 26.75700
C  41.34300 43.87100 28.94300
C  42.75500 39.31900 29.33500
C  42.31100 38.82400 24.53600
C  41.46100 43.53500 24.00700
N  42.18100 41.63400 28.91700
C  41.74500 42.69100 29.62500
C  41.69200 42.38300 31.22100
C  42.13500 40.89000 31.23900
C  42.46700 40.63100 29.70500
C  43.30500 40.60600 32.27500
C  40.29200 42.69400 31.74900
C  40.04300 42.14000 33.13700
H  40.39300 43.06100 34.33400
N  42.50400 39.37500 26.92000
C  42.87500 38.72200 28.05100
C  43.08000 37.30200 27.85900
C  42.95600 37.11500 26.50400
C  42.58900 38.41500 25.89900
C  43.50000 36.29800 28.96500
C  43.04100 35.85300 25.74500
O  42.68500 35.74200 24.57500
C  43.29300 34.57100 26.47400
N  42.02600 41.23400 24.51900
C  42.13400 40.02800 23.91600
C  41.88500 40.16800 22.38200
C  41.41100 41.60400 22.28300
C  41.62400 42.19200 23.68400
C  43.14500 39.81000 21.53400
C  39.97800 41.78100 21.72900
C  38.93800 40.97600 22.51700
N  41.57400 43.28400 26.49000
C  41.46800 44.08200 25.33700
C  41.20700 45.43000 25.70300
C  41.20300 45.39900 27.16900
C  41.42500 44.08800 27.57000
C  40.96300 46.55600 24.78600
C  40.91200 46.19000 28.34600
O  40.58000 47.36600 28.50600
C  41.12400 45.20900 29.48200
C  42.23500 45.72600 30.25800
O  43.45300 45.68400 29.96800
O  41.76900 46.34400 31.39500
C  42.75700 46.65300 32.40200
H  42.89800 38.60700 30.15100
H  42.37700 37.95400 23.88000
H  41.41900 44.25200 23.18400
H  42.33400 43.12300 31.69900
H  41.35000 40.18600 31.51600
H  43.09400 39.74200 32.90400
H  43.48400 41.33900 33.06200
H  44.12500 40.28000 31.63500
H  39.56100 42.44400 30.98000
H  40.22600 43.77600 31.86000
H  40.67400 41.26800 33.31300
H  39.01800 41.82200 33.33100
H  42.67800 35.61500 29.17700
H  43.77200 36.69800 29.94200
H  44.38300 35.73400 28.66500
H  42.43100 34.47200 27.13300
H  44.25700 34.47600 26.97300
H  43.35100 33.73300 25.78000
H  41.15000 39.39100 22.17400
H  42.10600 42.05600 21.57600
H  43.02200 39.16800 20.66200
H  43.79400 39.22900 22.18800
H  43.84500 40.58500 21.22000
H  39.94200 41.38500 20.71400
H  39.61900 42.80700 21.64900
H  38.50200 40.19700 21.89100
H  38.18200 41.62400 22.96100
H  39.37000 40.31500 23.26800
H  41.95500 46.86900 24.46100
H  40.44200 47.33300 25.34500
H  40.32100 46.10600 24.02800
H  40.22200 45.10400 30.08600
H  42.71900 45.69900 32.92900
H  42.31300 47.44100 33.01200
H  43.83400 46.74800 32.26700
Mg -9.56600 40.35700 42.46000
C  -8.29300 37.17900 41.48900
C  -6.79900 41.71700 41.01600
C  -11.03000 43.37900 42.73400
C  -12.59600 38.72500 43.39800
N  -7.77700 39.49900 41.24600
C  -7.47700 38.21100 41.01400
C  -5.98500 38.05100 40.54700
C  -5.47000 39.55000 40.42100
C  -6.69900 40.26400 40.83800
C  -4.23400 39.98200 41.25900
C  -5.53700 37.08400 39.33200
C  -4.03200 36.90500 39.15500
H  -3.48900 37.67800 37.99500
N  -8.94700 42.36600 42.07100
C  -7.80600 42.63900 41.46000
C  -7.66300 44.07500 41.47200
C  -8.84700 44.67000 42.02500
C  -9.73900 43.50300 42.29300
C  -6.39500 44.77200 40.93300
C  -9.10100 46.17200 42.19500
O  -8.25400 46.96700 41.87200
C  -10.38000 46.64900 42.80000
N  -11.53900 40.95100 43.00700
C  -11.88000 42.28800 43.05600
C  -13.36500 42.34100 43.30900
C  -13.79900 40.88000 43.59900
C  -12.52900 40.11200 43.35800
C  -13.79800 43.35200 44.41800
C  -15.01100 40.41100 42.67400
C  -15.95700 39.34600 43.17600
N  -10.32100 38.35000 42.59400
C  -11.54900 37.86600 42.98700
C  -11.50800 36.38200 42.94100
C  -10.26100 36.08400 42.39600
C  -9.56700 37.29400 42.19500
C  -12.59600 35.53200 43.32100
C  -9.36700 35.04900 41.89000
O  -9.60000 33.84900 41.82500
C  -8.10300 35.70600 41.35600
C  -6.94200 35.22600 42.18600
O  -6.77300 35.51600 43.34700
O  -6.10700 34.34100 41.51300
C  -4.93000 33.86000 42.22400
H  -5.86900 42.21200 40.73100
H  -11.61000 44.29800 42.62400
H  -13.52300 38.28200 43.76800
H  -5.38200 37.64400 41.35800
H  -5.26200 39.95900 39.43300
H  -4.29600 40.94900 41.75800
H  -3.38900 40.08100 40.57800
H  -4.01400 39.25200 42.03800
H  -5.80700 37.73900 38.50400
H  -6.09100 36.14700 39.27800
H  -3.93800 35.83500 38.97000
H  -3.42700 37.20800 40.00900
H  -6.32600 45.85600 41.02600
H  -6.04400 44.28500 40.02300
H  -5.67900 44.54100 41.72200
H  -10.35200 47.73700 42.84800
H  -10.60300 46.08100 43.70300
H  -11.17800 46.40100 42.09900
H  -13.76700 42.67700 42.35300
H  -14.01400 40.64000 44.64100
H  -12.92800 43.98500 44.59500
H  -14.20100 42.84700 45.29600
H  -14.63400 43.93200 44.02700
H  -14.64700 40.00200 41.73200
H  -15.69000 41.24500 42.50400
H  -15.58400 39.17200 44.18500
H  -15.83800 38.44600 42.57200
H  -17.00300 39.60500 43.01600
H  -12.75100 35.72300 44.38300
H  -12.41500 34.46800 43.16600
H  -13.44900 35.98900 42.81800
H  -7.98400 35.31900 40.34400
H  -4.37200 34.75600 42.49500
H  -4.33100 33.27400 41.52600
H  -5.30700 33.12800 42.93800

