158

Mg 16.88000 -1.76000 27.19800
C  16.26800 0.39500 29.94100
C  18.88500 -3.67000 29.22800
C  17.66400 -3.55200 24.60400
C  15.10000 0.52900 25.14500
N  17.55000 -1.63800 29.29100
C  17.06500 -0.75400 30.21300
C  17.60600 -1.03300 31.63200
C  18.54300 -2.28100 31.33600
C  18.35800 -2.57600 29.87700
C  19.98300 -1.95200 31.75400
C  16.50200 -1.34700 32.71900
C  16.64700 -0.61600 34.00200
H  18.07000 -0.04200 34.47400
N  18.01100 -3.40600 26.94400
C  18.73500 -4.12500 27.93100
C  19.28700 -5.43000 27.34500
C  18.90300 -5.32400 25.96200
C  18.10900 -4.07600 25.77800
C  20.08500 -6.52900 28.03900
C  19.09800 -6.40100 24.87000
O  18.68500 -6.24200 23.73700
C  19.88600 -7.52200 25.05700
N  16.29300 -1.63700 25.17900
C  16.98100 -2.36500 24.31100
C  16.80900 -1.85100 22.86300
C  15.77100 -0.73500 23.04200
C  15.67200 -0.62300 24.49600
C  18.16900 -1.44600 22.10600
C  14.27500 -1.07300 22.49000
C  13.82400 -0.12500 21.41700
N  15.89100 0.10500 27.44300
C  15.16300 0.87800 26.51400
C  14.52400 1.93900 27.19600
C  14.93300 1.82600 28.61400
C  15.79900 0.71000 28.59900
C  13.56200 2.79100 26.54100
C  14.81200 2.38700 29.90600
O  14.13100 3.31100 30.35200
C  15.68200 1.47200 30.81000
C  16.71700 2.33400 31.55800
O  17.84900 2.50900 31.19300
O  16.04700 2.94600 32.60400
C  16.84400 3.99500 33.35300
H  19.37800 -4.43300 29.83300
H  17.98200 -4.09600 23.71200
H  14.74100 1.28600 24.44400
H  18.17500 -0.17400 31.98700
H  18.34500 -3.11900 32.00500
H  20.04900 -1.37400 32.67600
H  20.48500 -1.42600 30.94100
H  20.43500 -2.91900 31.97600
H  16.43700 -2.41200 32.94300
H  15.58600 -1.00500 32.23900
H  16.29800 -1.27600 34.79600
H  15.90600 0.18200 33.95900
H  20.56200 -6.05300 28.89600
H  20.85500 -6.88300 27.35400
H  19.41400 -7.34300 28.31400
H  19.51200 -8.18500 25.83700
H  20.90700 -7.15200 25.15900
H  19.70200 -8.10800 24.15700
H  16.45900 -2.69000 22.26100
H  16.20000 0.18000 22.63200
H  18.16100 -0.43200 21.70600
H  18.41100 -1.95400 21.17300
H  18.97700 -1.59300 22.82300
H  13.54800 -0.98400 23.29700
H  14.31200 -2.05200 22.01100
H  13.25700 0.69000 21.86700
H  13.25200 -0.68200 20.67500
H  14.62800 0.37900 20.88000
H  12.70900 2.20500 26.19900
H  14.07200 3.37600 25.77600
H  13.11900 3.51200 27.22800
H  15.07100 1.10000 31.63300
H  17.61000 4.48900 32.75500
H  17.34400 3.67200 34.26700
H  16.20000 4.81400 33.67000
Mg -2.18200 34.86700 26.86800
C  -3.82800 33.12100 29.49600
C  -0.95700 36.98800 29.33100
C  -0.89500 36.70000 24.42500
C  -3.79700 32.87900 24.61900
N  -2.29300 34.95900 29.14900
C  -2.89100 34.07500 29.93800
C  -2.74900 34.37100 31.46600
C  -1.98900 35.72700 31.41100
C  -1.80600 35.98200 29.83800
C  -2.66300 36.98100 32.14800
C  -2.01200 33.17300 32.23500
C  -2.66200 32.56700 33.45600
H  -1.79200 32.41000 34.74900
N  -0.94200 36.52100 26.83800
C  -0.57100 37.27200 27.94000
C  0.38300 38.30600 27.46000
C  0.18700 38.33900 26.04300
C  -0.51300 37.14500 25.73500
C  1.26000 39.18200 28.32200
C  0.65500 39.42100 25.07000
O  0.51200 39.41900 23.85300
C  1.36900 40.57000 25.53900
N  -2.34200 34.77800 24.90100
C  -1.62400 35.57400 24.05200
C  -1.72200 35.22400 22.63700
C  -2.44800 33.88300 22.75700
C  -2.88000 33.77500 24.14800
C  -2.44100 36.21500 21.75300
C  -1.55100 32.60200 22.45400
C  -0.26400 32.26200 23.26700
N  -3.66000 33.34500 26.97100
C  -4.20200 32.60700 25.97000
C  -5.20700 31.80400 26.51300
C  -5.07100 31.89400 27.87300
C  -4.03000 32.79200 28.10400
C  -6.27100 31.09300 25.63400
C  -5.46000 31.33400 29.10100
O  -6.21700 30.41700 29.40800
C  -4.70900 32.11600 30.23900
C  -5.74700 32.71700 31.18900
O  -6.67600 33.41800 30.81100
O  -5.61700 32.18900 32.44000
C  -6.61000 32.42300 33.46000
H  -0.75200 37.66700 30.16100
H  -0.34400 37.18700 23.61800
H  -4.12600 32.11700 23.90900
H  -3.72800 34.50400 31.92500
H  -0.99700 35.64900 31.85700
H  -1.80100 37.51900 32.54400
H  -3.25200 36.74500 33.03400
H  -3.28300 37.65000 31.55200
H  -0.97200 33.45000 32.40800
H  -1.97200 32.31400 31.56500
H  -3.12100 31.62000 33.17000
H  -3.41500 33.28900 33.77200
H  0.96700 40.22600 28.20600
H  2.19500 38.84800 27.87200
H  1.22400 38.96400 29.38900
H  0.78700 41.00700 26.34900
H  1.37400 41.26900 24.70200
H  2.35900 40.33200 25.93000
H  -0.76700 35.09900 22.12800
H  -3.34700 33.93200 22.14200
H  -2.08200 37.21400 22.00100
H  -3.52500 36.15000 21.85100
H  -2.22500 35.96700 20.71400
H  -1.26000 32.72600 21.41200
H  -2.24800 31.76600 22.51200
H  -0.51400 31.86000 24.24900
H  0.27100 33.20500 23.38300
H  0.30400 31.48100 22.76200
H  -6.20300 31.26500 24.56000
H  -7.26900 31.10400 26.07200
H  -5.96500 30.05300 25.74000
H  -4.00600 31.53700 30.83800
H  -7.62100 32.51900 33.06300
H  -6.47500 33.32300 34.06100
H  -6.60800 31.53900 34.09700

