158

Mg 25.45900 1.55300 29.49700
C  27.64700 1.02400 32.29700
C  22.85100 1.67600 31.63200
C  23.46900 1.50200 26.82400
C  28.15800 0.73400 27.38900
N  25.26200 1.30700 31.73700
C  26.34800 1.20200 32.70800
C  25.79500 1.47100 34.14400
C  24.24900 1.48500 33.90800
C  24.07600 1.41900 32.33100
C  23.42500 0.43200 34.67000
C  26.45900 2.62600 34.82700
C  27.06900 2.27000 36.23300
H  26.95800 3.45000 37.23900
N  23.41000 1.53600 29.26100
C  22.50400 1.59200 30.31000
C  21.19100 1.60600 29.70900
C  21.33700 1.46800 28.30000
C  22.80700 1.43500 28.03400
C  19.91700 1.74300 30.61100
C  20.23800 1.38600 27.21800
O  20.47100 1.10000 26.04100
C  18.77900 1.61200 27.57400
N  25.80700 1.28500 27.37400
C  24.83900 1.38100 26.48400
C  25.35900 1.14000 25.07300
C  26.90500 1.07500 25.22700
C  26.94300 0.97400 26.76400
C  24.75500 -0.25500 24.51900
C  27.76100 2.31700 24.75500
C  29.04200 2.00300 24.04200
N  27.54700 1.10300 29.68400
C  28.45200 0.84200 28.74900
C  29.75000 0.62100 29.40100
C  29.48000 0.73800 30.76700
C  28.12900 0.96600 30.88300
C  31.03200 0.27400 28.76300
C  30.01600 0.77000 32.09500
O  31.15400 0.48400 32.51400
C  28.85300 1.00000 33.10400
C  28.84900 -0.18300 34.04000
O  28.16300 -1.17100 33.93600
O  29.61100 0.17200 35.13900
C  29.30300 -0.62600 36.29600
H  22.10800 2.03200 32.34800
H  22.81200 1.39200 25.95900
H  28.99500 0.40700 26.76900
H  26.03800 0.56800 34.70500
H  23.74300 2.40700 34.19500
H  22.63400 0.71400 35.36500
H  23.97900 -0.19500 35.37000
H  23.04100 -0.21300 33.87900
H  25.75500 3.45900 34.85100
H  27.26900 3.01400 34.20900
H  28.11900 2.03900 36.04900
H  26.59400 1.44100 36.75900
H  20.18400 1.54300 31.64900
H  19.21900 1.03500 30.16400
H  19.48800 2.73500 30.47300
H  18.48700 0.80900 28.25100
H  18.13900 1.79400 26.71100
H  18.72400 2.57000 28.09000
H  25.03300 2.00600 24.49600
H  27.41900 0.22800 24.77100
H  24.28800 -0.04500 23.55700
H  24.08800 -0.65300 25.28400
H  25.60700 -0.89300 24.28200
H  28.06100 2.89100 25.63200
H  27.21600 2.98100 24.08400
H  29.01700 2.50700 23.07600
H  29.14400 0.94500 23.80100
H  29.85500 2.34500 24.68300
H  30.77900 0.08300 27.72000
H  31.39700 -0.70900 29.06100
H  31.81900 1.00500 28.94600
H  29.04700 1.79700 33.82200
H  28.40600 -0.22900 36.77000
H  29.96200 -0.47900 37.15100
H  29.31900 -1.69700 36.09400
Mg 0.62900 42.44300 25.39600
C  2.26800 42.80900 28.61200
C  -2.23400 41.54000 26.98400
C  -0.58400 41.79700 22.34500
C  3.82100 42.86800 24.03600
N  0.12600 42.34000 27.48900
C  0.81700 42.62600 28.66700
C  -0.05700 42.52000 29.92000
C  -1.43500 42.00700 29.36800
C  -1.16200 41.99600 27.84700
C  -1.83500 40.59300 29.95800
C  0.01400 43.93600 30.68500
C  0.51100 43.82100 32.16700
H  0.41100 42.40100 32.90200
N  -1.22500 41.76100 24.69000
C  -2.24800 41.36800 25.51500
C  -3.33900 40.95900 24.66800
C  -2.88900 41.02000 23.31200
C  -1.48300 41.57000 23.37700
C  -4.69400 40.62100 25.35100
C  -3.59900 40.66000 21.95200
O  -3.07700 40.67100 20.80400
C  -4.98500 40.13500 22.16000
N  1.47800 42.38500 23.49100
C  0.73400 42.20500 22.37600
C  1.58300 42.21400 21.11000
C  2.95100 42.69800 21.65400
C  2.74000 42.67800 23.17200
C  1.68800 40.77200 20.45200
C  3.32900 44.11000 21.04700
C  3.37300 45.41000 21.86800
N  2.64300 42.77800 26.11300
C  3.81900 42.84400 25.42000
C  4.91500 42.97500 26.31500
C  4.32400 43.05000 27.58600
C  2.97800 42.80800 27.44200
C  6.34000 43.18100 25.91800
C  4.58100 43.27900 28.94100
O  5.61900 43.57400 29.51300
C  3.24500 43.02800 29.72600
C  3.41800 41.84200 30.62000
O  3.13600 40.68100 30.44200
O  3.99800 42.40700 31.70700
C  4.49000 41.43800 32.78200
H  -3.14500 41.34500 27.55300
H  -0.98800 41.63800 21.34300
H  4.77700 42.88400 23.50700
H  0.39200 41.76600 30.56600
H  -2.28900 42.65300 29.57300
H  -1.62700 40.48700 31.02300
H  -1.37900 39.74800 29.44200
H  -2.91900 40.52700 29.87100
H  -0.97800 44.38600 30.71900
H  0.75300 44.61200 30.25500
H  -0.13100 44.45500 32.77900
H  1.51000 44.25500 32.12200
H  -4.56600 40.62800 26.43300
H  -5.03200 39.59800 25.18600
H  -5.53400 41.24300 25.04000
H  -5.67000 40.72300 22.77100
H  -5.07700 39.23300 22.76500
H  -5.49000 39.90400 21.22100
H  1.10400 42.91900 20.43100
H  3.74800 41.95800 21.57900
H  1.43500 40.03800 21.21700
H  2.69700 40.70100 20.04600
H  0.87700 40.67500 19.73000
H  2.84800 44.25700 20.07900
H  4.38800 43.97200 20.83000
H  4.07600 45.35100 22.69900
H  2.37700 45.61300 22.26200
H  3.69000 46.24800 21.24700
H  6.50000 44.19200 25.54500
H  6.72500 42.47400 25.18300
H  6.96500 43.09100 26.80600
H  3.24000 43.96300 30.28500
H  5.53700 41.63200 33.01400
H  4.39700 40.35600 32.69200
H  3.97700 41.76200 33.68800

