158

Mg 0.28800 7.80100 26.46300
C  1.16300 9.56500 29.45100
C  0.07600 4.80900 28.31300
C  -0.18300 6.23200 23.58600
C  0.54600 10.90500 24.71900
N  0.53300 7.33600 28.57400
C  0.97700 8.16700 29.64400
C  0.71700 7.45500 31.00500
C  0.75600 5.99700 30.56100
C  0.35400 6.02600 29.06100
C  2.01500 5.12100 30.90900
C  -0.60300 8.00600 31.55800
C  -0.76200 8.00300 33.06500
H  0.53500 7.69100 33.88300
N  0.04100 5.82200 26.02400
C  -0.14700 4.79100 26.88600
C  -0.76800 3.69700 26.16200
C  -0.80100 4.03700 24.80300
C  -0.30600 5.41500 24.74600
C  -1.35500 2.43800 26.89600
C  -1.41500 3.26600 23.58900
O  -1.22100 3.56700 22.37800
C  -2.15800 2.04500 23.88800
N  0.29600 8.41900 24.49200
C  0.04700 7.54400 23.46300
C  -0.03300 8.26900 22.14500
C  -0.16400 9.77200 22.56800
C  0.22500 9.76300 23.99800
C  1.15100 7.96500 21.12400
C  -1.56800 10.47200 22.48000
C  -1.74000 11.46000 21.37800
N  0.85700 9.75300 26.89800
C  0.91500 10.93800 26.09800
C  1.34800 12.04200 26.89700
C  1.42800 11.52400 28.18500
C  1.12400 10.19100 28.16700
C  1.55000 13.41700 26.38700
C  1.77800 11.87500 29.52600
O  2.22700 12.92900 29.89700
C  1.60600 10.66400 30.41300
C  2.82800 10.43900 31.24400
O  3.75800 9.67400 30.96000
O  2.63500 11.12000 32.39400
C  3.61000 10.86700 33.46500
H  -0.01600 3.88100 28.88100
H  -0.30800 5.73300 22.62300
H  0.69400 11.86400 24.21900
H  1.57300 7.71300 31.62800
H  -0.06000 5.47700 31.06300
H  2.67400 5.59600 31.63600
H  2.64800 5.08400 30.02200
H  1.82800 4.10300 31.24800
H  -1.43000 7.47900 31.08200
H  -0.72400 9.06800 31.34300
H  -1.53100 7.25600 33.26400
H  -1.06300 8.96500 33.47900
H  -2.03300 2.83200 27.65200
H  -0.44900 2.00100 27.31600
H  -1.98900 1.74300 26.34600
H  -2.63300 1.50600 23.06800
H  -3.02600 2.37500 24.45900
H  -1.49200 1.32000 24.35600
H  -0.99600 8.00200 21.71000
H  0.57200 10.39600 22.06200
H  0.75400 7.32900 20.33300
H  1.88100 7.39400 21.69600
H  1.58500 8.91100 20.80100
H  -1.69100 11.03600 23.40400
H  -2.36900 9.75900 22.28400
H  -0.87600 11.37800 20.72000
H  -1.60100 12.47900 21.73800
H  -2.65600 11.43900 20.78800
H  1.86300 14.10800 27.16900
H  0.64300 13.79800 25.91700
H  2.33700 13.46300 25.63400
H  0.76700 10.98100 31.03300
H  4.34200 10.12300 33.15000
H  3.13000 10.52400 34.38200
H  4.18100 11.76100 33.71500
Mg 24.77000 1.45200 29.67600
C  26.92500 1.23300 32.50500
C  22.07400 1.24400 31.96400
C  22.84500 1.06200 27.10000
C  27.65900 0.93100 27.64900
N  24.53300 1.20300 31.96400
C  25.59200 1.33000 32.88400
C  25.05600 1.54600 34.25900
C  23.53600 1.25400 34.09200
C  23.35500 1.28600 32.59000
C  22.93400 -0.02800 34.72100
C  25.35600 2.92100 35.03600
C  25.99900 2.81900 36.41800
H  25.55000 3.84500 37.51900
N  22.77600 1.31500 29.59900
C  21.79500 1.24500 30.61700
C  20.50200 1.12100 30.05300
C  20.72700 1.09200 28.61000
C  22.18600 1.18800 28.37100
C  19.22700 1.14700 30.85700
C  19.65800 0.93900 27.46300
O  19.94100 0.90700 26.30300
C  18.22200 0.61800 27.78800
N  25.24200 0.97000 27.62500
C  24.23300 0.99200 26.72300
C  24.67400 1.27300 25.28300
C  26.26500 1.23000 25.43600
C  26.43500 1.03700 26.97800
C  24.02100 0.43600 24.10600
C  26.90300 2.50100 24.85000
C  26.66700 3.82500 25.56000
N  26.88500 1.08400 29.97500
C  27.92000 0.84600 29.09500
C  29.17700 0.62700 29.83000
C  28.83600 0.85500 31.13400
C  27.44300 1.03800 31.19700
C  30.45700 0.47100 29.23800
C  29.38200 0.90500 32.48900
O  30.54800 0.79600 32.88700
C  28.14000 1.16200 33.39700
C  28.03400 0.00600 34.31200
O  28.04700 -1.13500 34.01300
O  28.08800 0.47500 35.60700
C  28.65500 -0.43300 36.64500
H  21.21000 1.16700 32.62800
H  22.22000 0.86400 26.22700
H  28.51900 1.06500 26.99000
H  25.48300 0.68600 34.77600
H  23.02700 2.04000 34.65000
H  22.73100 -0.87500 34.06500
H  21.96300 0.10100 35.20000
H  23.65300 -0.37300 35.46300
H  24.44500 3.51900 35.00300
H  26.09900 3.47100 34.45700
H  27.00900 3.16200 36.19600
H  25.79400 1.80900 36.77300
H  18.82000 2.14900 30.71900
H  19.25900 0.88100 31.91400
H  18.50000 0.42100 30.49200
H  18.20500 -0.28100 28.40400
H  17.63500 0.46100 26.88300
H  17.85800 1.52800 28.26500
H  24.34700 2.28900 25.06400
H  26.68700 0.29400 25.07000
H  24.71700 -0.22100 23.58300
H  23.66000 1.13800 23.35400
H  23.19400 -0.11700 24.55100
H  26.50700 2.60800 23.84000
H  27.96800 2.28600 24.75600
H  26.25900 3.64700 26.55500
H  25.92700 4.47700 25.09400
H  27.64300 4.27800 25.73300
H  30.61000 -0.26700 28.45000
H  31.16800 0.37600 30.05900
H  30.51600 1.46100 28.78700
H  28.25300 2.04700 34.02300
H  28.00000 -0.31400 37.50800
H  29.64000 0.01300 36.77800
H  28.68600 -1.46400 36.29100

