158

Mg 2.97000 -1.51600 43.40300
C  6.53900 -0.68700 42.88200
C  2.24400 1.21800 41.44300
C  -0.26200 -2.53700 43.20700
C  3.90500 -4.50400 44.74000
N  4.33200 -0.04200 42.11000
C  5.71400 0.23100 42.26400
C  6.03700 1.62400 41.67100
C  4.65200 2.26900 41.53300
C  3.62600 1.09900 41.73700
C  4.31900 3.43000 42.61600
C  6.64600 1.47300 40.22500
C  6.05500 0.48600 39.19900
H  5.70900 1.17800 37.95500
N  1.29400 -0.74800 42.49500
C  1.18400 0.43400 41.81700
C  -0.19400 0.72500 41.56800
C  -0.98300 -0.25300 42.19900
C  -0.01800 -1.21600 42.76100
C  -0.73200 1.96500 40.84700
C  -2.56400 -0.22900 42.43000
O  -3.18800 0.62000 41.81000
C  -3.28500 -1.19100 43.35800
N  1.91600 -3.35400 43.73600
C  0.60100 -3.49000 43.67300
C  0.20200 -4.91000 44.20400
C  1.52500 -5.56300 44.67000
C  2.49900 -4.42200 44.34700
C  -0.96100 -4.81800 45.26100
C  1.89400 -6.89800 43.90000
C  1.52100 -8.15100 44.65400
N  4.83000 -2.45200 43.81900
C  5.05200 -3.68300 44.42700
C  6.44100 -3.83800 44.66600
C  7.07500 -2.70200 44.16000
C  6.08000 -1.89000 43.54700
C  7.13600 -5.00100 45.37500
C  8.39900 -2.13400 43.84100
O  9.53400 -2.56900 44.02600
C  8.02100 -0.77900 42.99000
C  8.58500 0.48000 43.60600
O  9.25100 1.30400 43.00700
O  8.22700 0.76600 44.91800
C  8.77900 2.01800 45.50400
H  2.03700 2.23500 41.10300
H  -1.25700 -2.98300 43.15400
H  4.09500 -5.52100 45.09100
H  6.68100 2.14900 42.37700
H  4.55000 2.68200 40.52900
H  4.99300 3.41200 43.47200
H  3.29200 3.43400 42.98100
H  4.44100 4.41500 42.16600
H  7.66500 1.14100 40.42000
H  6.73900 2.48300 39.82400
H  5.11900 0.12900 39.62800
H  6.72000 -0.35000 38.98200
H  -0.07900 2.39200 40.08600
H  -0.93500 2.63500 41.68200
H  -1.68400 1.72800 40.37100
H  -2.64200 -1.82400 43.96800
H  -3.93200 -1.77900 42.70700
H  -3.95200 -0.61500 44.00000
H  -0.14200 -5.41800 43.30300
H  1.54300 -5.73500 45.74700
H  -1.59700 -3.94300 45.13000
H  -0.49900 -4.68900 46.24000
H  -1.57100 -5.71800 45.34400
H  2.93700 -6.95800 43.59000
H  1.31800 -7.01700 42.98200
H  0.79400 -8.79400 44.15800
H  1.14800 -7.84800 45.63300
H  2.38600 -8.79100 44.82300
H  7.55900 -5.71300 44.66600
H  6.43600 -5.54300 46.01100
H  7.95800 -4.62700 45.98500
H  8.49900 -0.80500 42.01000
H  8.94300 1.82000 46.56300
H  7.99200 2.75700 45.35600
H  9.64800 2.37200 44.94900
Mg 41.13500 8.12400 29.53500
C  42.52300 9.74000 32.21700
C  38.79600 6.88800 31.83300
C  39.85200 6.41300 27.02600
C  43.73200 9.36700 27.47200
N  40.77900 8.11200 31.79500
C  41.46600 8.99400 32.61000
C  40.90200 9.00500 33.99900
C  39.71300 7.99600 33.91600
C  39.62900 7.69900 32.42800
C  39.90000 6.67600 34.75900
C  40.44600 10.44500 34.51300
C  39.48700 10.48000 35.72100
H  39.96500 11.50000 36.79000
N  39.56300 6.93900 29.46500
C  38.70400 6.51300 30.47700
C  37.68200 5.68900 29.93600
C  37.95600 5.53700 28.58700
C  39.20200 6.26800 28.28900
C  36.73200 4.93300 30.87400
C  37.15500 4.83300 27.46000
O  37.52100 4.64200 26.30800
C  35.88100 4.15000 27.62700
N  41.66100 7.97500 27.53800
C  40.92700 7.19800 26.68800
C  41.63100 7.18300 25.33900
C  42.62900 8.37200 25.41400
C  42.65000 8.65300 26.90900
C  42.25100 5.76900 25.05600
C  42.32500 9.65400 24.68800
C  40.94100 10.22300 25.01000
N  42.84600 9.23600 29.73100
C  43.73600 9.68000 28.81600
C  44.63800 10.54900 29.44600
C  44.29100 10.58000 30.82600
C  43.14700 9.74100 30.94900
C  45.72500 11.35100 28.74200
C  44.54200 11.11700 32.06300
O  45.42300 11.89400 32.48100
C  43.36200 10.59900 33.05200
C  43.98500 9.92300 34.16300
O  44.61600 8.88600 34.11700
O  43.75400 10.53900 35.40300
C  44.18900 9.82900 36.61800
H  38.03500 6.56300 32.54600
H  39.48200 5.88600 26.14400
H  44.50700 9.77200 26.81800
H  41.68700 8.67700 34.68000
H  38.79300 8.49400 34.21900
H  40.24300 5.84600 34.14100
H  38.96900 6.36100 35.23000
H  40.62900 6.75200 35.56600
H  40.13700 10.91900 33.58100
H  41.33900 10.98700 34.82500
H  39.43800 9.47700 36.14300
H  38.54300 10.89800 35.37000
H  35.81400 4.66100 30.35300
H  36.36900 5.56300 31.68600
H  37.24100 4.09700 31.35300
H  35.15100 4.73300 28.18800
H  36.12300 3.22100 28.14400
H  35.44600 4.05900 26.63100
H  40.87500 7.38900 24.58200
H  43.61700 8.07900 25.05800
H  43.28800 5.88600 24.74100
H  41.58100 5.25300 24.36700
H  42.24100 5.11000 25.92400
H  42.21200 9.42800 23.62800
H  43.13600 10.36500 24.84600
H  41.08600 11.30100 25.08100
H  40.51000 9.93300 25.96900
H  40.31300 10.00600 24.14600
H  46.00600 12.23800 29.31000
H  45.46500 11.45000 27.68800
H  46.60900 10.71700 28.67100
H  42.99500 11.54700 33.44400
H  44.41500 8.77300 36.46700
H  43.48200 9.89000 37.44500
H  45.06000 10.34900 37.01800

