158

Mg 47.47200 24.88700 27.85100
C  47.89100 27.31400 30.34900
C  46.87100 22.59100 30.29200
C  46.81700 22.74300 25.43200
C  48.11500 27.54500 25.44400
N  47.13000 25.02200 30.02500
C  47.40900 26.08600 30.81600
C  47.07600 25.74800 32.30200
C  46.88000 24.17900 32.28000
C  47.03900 23.87100 30.71900
C  47.83100 23.20900 33.11200
C  45.95400 26.67600 32.92400
C  45.28500 26.26200 34.18500
H  45.39900 27.18300 35.40100
N  46.97400 22.87500 27.88400
C  46.83200 22.11600 28.99300
C  46.49000 20.72400 28.48400
C  46.36100 20.76000 27.03500
C  46.66500 22.17600 26.70400
C  46.09300 19.54800 29.41800
C  45.90500 19.61800 26.09700
O  45.95100 19.77200 24.89200
C  45.63800 18.13300 26.65800
N  47.44600 25.09200 25.74900
C  47.20200 24.00900 24.98300
C  47.32700 24.42100 23.45100
C  47.55200 25.99500 23.49600
C  47.69900 26.27000 24.99500
C  48.43200 23.66400 22.70400
C  46.40800 26.87700 22.89100
C  46.20200 26.61300 21.42200
N  48.07100 26.93900 27.86900
C  48.37700 27.83600 26.80100
C  48.57900 29.18600 27.36400
C  48.49900 28.96800 28.80300
C  48.18100 27.62100 29.00500
C  48.92800 30.41400 26.51000
C  48.51400 29.63700 30.05300
O  48.82600 30.79100 30.32600
C  48.08300 28.65300 31.14300
C  48.94700 28.62500 32.33100
O  50.06900 28.17100 32.38100
O  48.24800 29.16700 33.36100
C  48.96900 29.03900 34.63100
H  46.67800 21.81300 31.03300
H  46.47000 21.99000 24.72100
H  48.17700 28.34200 24.70000
H  47.95800 25.85700 32.93500
H  45.83300 23.91800 32.43200
H  48.40500 22.55100 32.45900
H  47.14500 22.67100 33.76600
H  48.39800 23.83200 33.80400
H  45.10700 26.80800 32.25100
H  46.46600 27.60000 33.19200
H  45.69500 25.26700 34.35500
H  44.22900 26.15800 33.93900
H  46.84500 18.76200 29.34900
H  45.11100 19.14900 29.16700
H  46.06300 19.80400 30.47700
H  44.57500 18.12800 26.90000
H  46.31600 17.85000 27.46300
H  45.89400 17.54800 25.77400
H  46.40100 24.27200 22.89600
H  48.47500 26.36500 23.04900
H  49.10800 24.37000 22.22000
H  48.01700 23.09500 21.87200
H  49.02000 23.02900 23.36700
H  46.65000 27.91600 23.11600
H  45.38400 26.79700 23.25500
H  45.37800 25.93400 21.20700
H  47.14500 26.22500 21.03600
H  45.99100 27.55500 20.91500
H  47.99300 30.95100 26.34400
H  49.17700 30.19800 25.47100
H  49.59200 31.06500 27.07900
H  47.15200 29.09300 31.50200
H  48.41200 29.74200 35.25100
H  49.89100 29.61400 34.53500
H  49.04700 28.09500 35.17000
Mg 47.30500 35.04700 26.04000
C  45.48500 33.76200 28.73200
C  47.81200 37.88500 27.82400
C  48.74200 36.34300 23.36600
C  46.22400 32.18500 24.16300
N  46.62800 35.68600 27.96100
C  46.08200 34.97100 28.97100
C  46.10200 35.71900 30.28700
C  46.51900 37.15500 29.78600
C  46.96600 36.92800 28.41200
C  45.29600 38.15700 29.82700
C  47.24700 35.12000 31.26200
C  47.01400 34.93000 32.76700
H  46.01300 35.93100 33.35000
N  48.40300 36.71100 25.76100
C  48.50000 37.82900 26.59300
C  49.38600 38.75600 26.04600
C  49.54600 38.42000 24.69800
C  48.84700 37.12300 24.50900
C  49.88200 39.97200 26.79300
C  50.20900 39.20400 23.50400
O  50.40000 38.68500 22.39600
C  50.77100 40.59400 23.63000
N  47.17600 34.47000 23.98800
C  48.03800 35.14500 23.14100
C  48.06000 34.45200 21.73600
C  47.52400 33.00800 22.04300
C  46.95100 33.21100 23.49900
C  47.23600 35.19900 20.65900
C  48.50600 31.80200 21.98100
C  48.16300 30.56000 21.07300
N  45.91600 33.39100 26.31600
C  45.62500 32.32700 25.46900
C  45.05900 31.32200 26.18800
C  44.75400 31.90200 27.46300
C  45.43300 33.11500 27.52100
C  44.68000 29.97200 25.72300
C  44.20300 31.63000 28.70200
O  43.57700 30.68300 29.08500
C  44.52800 32.88200 29.59900
C  45.11300 32.30500 30.87600
O  46.20500 31.78200 30.95900
O  44.13300 32.36100 31.83300
C  44.51900 31.54400 33.04500
H  47.92200 38.83300 28.35400
H  49.26400 36.69000 22.47300
H  45.84100 31.33200 23.59800
H  45.06000 35.71000 30.60500
H  47.19500 37.70800 30.43800
H  44.59100 37.88400 30.61200
H  44.69700 38.12500 28.91700
H  45.67000 39.17400 29.94200
H  48.07500 35.82400 31.34900
H  47.67000 34.19900 30.86200
H  47.91600 35.17700 33.32800
H  46.74200 33.95500 33.17000
H  50.93700 40.17300 26.61000
H  49.87900 39.88400 27.87900
H  49.25800 40.85000 26.62400
H  51.46000 40.62200 24.47400
H  50.01400 41.36900 23.74600
H  51.38000 40.76000 22.74100
H  49.11900 34.44200 21.47700
H  46.63000 32.77600 21.46400
H  46.74100 36.10200 21.01600
H  46.36600 34.68900 20.24700
H  47.89000 35.47600 19.83200
H  48.61200 31.43600 23.00200
H  49.47800 32.12800 21.61100
H  47.33300 30.79200 20.40500
H  47.74700 29.89500 21.82900
H  49.01000 30.16400 20.51200
H  44.32700 29.36300 26.55600
H  45.59500 29.54800 25.30800
H  43.81800 30.03200 25.06000
H  43.51100 33.25900 29.71100
H  45.55700 31.72500 33.32400
H  44.56300 30.47400 32.83800
H  43.86500 31.85000 33.86100

