158

Mg 34.58800 2.91500 29.95800
C  32.46300 3.63800 32.52800
C  37.18400 3.03400 32.28400
C  36.71300 2.70300 27.49400
C  32.08700 3.55700 27.62100
N  34.76300 3.10100 32.16200
C  33.73400 3.41500 33.02300
C  34.16000 3.42800 34.51000
C  35.66800 3.17500 34.44100
C  35.95600 3.11200 32.85300
C  36.56300 4.16800 35.26100
C  33.30000 2.47700 35.39200
C  32.77600 3.12200 36.68200
H  33.77700 4.02900 37.40600
N  36.61700 2.78000 29.86400
C  37.52500 2.84100 30.93700
C  38.88100 2.75300 30.44800
C  38.78000 2.46300 29.01400
C  37.34300 2.59000 28.75600
C  40.10800 3.05100 31.20600
C  39.91500 2.14700 27.96800
O  39.64500 1.92400 26.78400
C  41.35500 2.16100 28.40200
N  34.37900 2.90900 27.88400
C  35.38700 2.75900 27.06100
C  35.02700 2.68400 25.46500
C  33.48000 2.92900 25.55400
C  33.33800 3.18100 27.08600
C  35.89300 3.74900 24.60100
C  32.45400 1.82300 25.05500
C  31.38100 2.37200 24.05100
N  32.64500 3.48000 29.99400
C  31.73900 3.71800 28.97400
C  30.44000 4.02400 29.58300
C  30.68200 4.08500 30.97300
C  32.05000 3.65300 31.13600
C  29.22300 4.29300 28.90700
C  30.09600 4.28300 32.30500
O  28.95400 4.57800 32.57600
C  31.22300 4.15600 33.34900
C  31.37900 5.54700 33.95200
O  32.13800 6.40000 33.53800
O  30.73500 5.69000 35.17400
C  31.17200 6.79100 35.97600
H  38.03500 3.05500 32.96700
H  37.49000 2.67400 26.72800
H  31.28400 3.52600 26.88000
H  33.98700 4.44000 34.87500
H  35.83800 2.12600 34.68300
H  36.96300 3.53900 36.05700
H  36.01400 5.00800 35.68600
H  37.37200 4.51800 34.62000
H  33.92000 1.68500 35.81200
H  32.51900 2.08000 34.74300
H  32.45500 2.29200 37.31100
H  31.79100 3.51600 36.42900
H  39.88600 3.55900 32.14400
H  40.77400 3.63100 30.56700
H  40.69400 2.15600 31.41400
H  41.56800 1.64300 29.33700
H  41.70500 3.18900 28.50100
H  41.90500 1.69700 27.58300
H  35.27200 1.66100 25.18200
H  33.21800 3.91200 25.16500
H  36.44600 4.35300 25.32100
H  35.31900 4.38000 23.92300
H  36.50700 3.13800 23.93900
H  31.95200 1.36800 25.90900
H  33.02100 0.96200 24.70200
H  31.51800 3.40600 23.73700
H  30.38900 2.33900 24.50300
H  31.27700 1.74400 23.16600
H  29.16500 4.79700 27.94200
H  28.72200 4.97000 29.59900
H  28.62300 3.38400 28.87500
H  30.87800 3.45500 34.11000
H  30.67300 6.96500 36.92900
H  30.93000 7.71100 35.44400
H  32.24800 6.81300 36.14800
Mg 7.04900 53.43700 41.91900
C  6.22700 50.00300 41.18500
C  10.28300 52.79900 40.68900
C  7.73700 56.69500 41.87600
C  3.60700 54.01800 42.32300
N  8.11100 51.61800 40.85000
C  7.57300 50.34500 40.91100
C  8.71300 49.34300 40.35700
C  10.01700 50.17200 40.46800
C  9.45100 51.62500 40.71600
C  11.00900 49.67100 41.56100
C  8.31600 48.78400 38.94100
C  7.42400 49.66000 38.05900
H  7.15900 49.14900 36.71200
N  8.80900 54.60100 41.38200
C  10.02000 54.18200 40.96300
C  10.96000 55.24000 40.92000
C  10.13600 56.36600 41.17900
C  8.79200 55.93400 41.49300
C  12.44400 55.01200 40.44400
C  10.63200 57.78300 41.04100
O  11.81500 58.02400 40.78900
C  9.73500 59.00100 41.08400
N  5.81200 55.11300 41.96900
C  6.40600 56.40200 42.13800
C  5.29900 57.37900 42.43800
C  4.04500 56.52600 42.62400
C  4.47900 55.13700 42.26700
C  5.52300 58.49200 43.50300
C  2.80800 57.05700 41.77600
C  1.40700 56.94400 42.41900
N  5.33200 52.30000 41.90100
C  3.97500 52.68200 42.09000
C  3.11900 51.51600 42.05800
C  4.05200 50.41500 41.84500
C  5.31100 50.99900 41.59300
C  1.62300 51.48000 42.33400
C  4.12500 49.01000 41.82700
O  3.26600 48.20700 42.13800
C  5.56700 48.61500 41.33300
C  5.39400 47.68400 40.11800
O  4.93000 47.99800 39.03100
O  5.59400 46.42300 40.54700
C  5.18900 45.31100 39.62300
H  11.33800 52.56400 40.53300
H  7.72100 57.78500 41.82200
H  2.52500 54.15000 42.39000
H  8.66200 48.53700 41.08900
H  10.56400 50.15300 39.52500
H  11.96900 49.30900 41.19500
H  10.57300 48.81100 42.07000
H  11.26700 50.41500 42.31500
H  7.76100 47.86300 39.12000
H  9.17800 48.42800 38.37700
H  7.98200 50.59400 37.99300
H  6.48400 49.93800 38.53800
H  12.41500 54.41700 39.53000
H  12.90900 54.39800 41.21500
H  13.10400 55.87600 40.36900
H  10.36800 59.88700 41.03700
H  9.40500 59.03000 42.12300
H  9.00700 58.99300 40.27300
H  5.24400 57.85200 41.45800
H  3.86900 56.44500 43.69600
H  5.55300 59.50300 43.09700
H  6.43900 58.36600 44.08000
H  4.67500 58.51600 44.18800
H  2.80400 56.66200 40.76100
H  3.02400 58.08400 41.48100
H  0.73100 56.44100 41.72700
H  1.01400 57.94300 42.61000
H  1.43900 56.40300 43.36500
H  1.48400 51.93400 43.31500
H  1.21800 50.46800 42.33500
H  1.14400 52.25700 41.73800
H  5.99200 48.03300 42.15100
H  5.68400 44.35600 39.79900
H  5.43700 45.64300 38.61500
H  4.11100 45.15000 39.66600

