158

Mg 53.79500 23.92400 44.55300
C  51.36900 26.30500 43.62500
C  51.68500 21.48900 43.46000
C  56.46500 21.85900 44.34100
C  55.88800 26.60400 45.28800
N  51.90900 23.89400 43.49200
C  51.02400 24.98700 43.31700
C  49.63100 24.55600 42.80100
C  49.64600 23.06900 43.21900
C  51.15500 22.76300 43.46800
C  48.85700 22.84400 44.52700
C  49.66900 24.72000 41.24500
C  48.25800 24.64900 40.59700
H  48.24700 23.65800 39.43100
N  53.99300 21.88500 44.13500
C  52.99500 21.06700 43.75900
C  53.50200 19.68700 43.69100
C  54.95200 19.78000 43.86100
C  55.23800 21.25800 44.09700
C  52.69700 18.49100 43.34100
C  55.92400 18.59900 43.75200
O  55.57700 17.48100 43.39800
C  57.33400 18.67900 44.06900
N  55.93400 24.19600 44.59800
C  56.75100 23.18600 44.59900
C  58.20200 23.65200 44.82000
C  58.01800 25.13100 45.19200
C  56.55000 25.33000 45.04200
C  59.11400 22.84800 45.82400
C  58.89700 26.16200 44.37300
C  59.34200 27.47400 44.96400
N  53.66900 26.03800 44.50400
C  54.50500 26.98800 45.06300
C  53.91800 28.28600 45.21300
C  52.65200 28.10500 44.58900
C  52.59500 26.72000 44.17900
C  54.49700 29.47300 45.88100
C  51.35500 28.68200 44.30500
O  50.99100 29.84000 44.35500
C  50.51100 27.51200 43.57800
C  50.19200 27.96300 42.14600
O  51.01200 28.14200 41.29600
O  48.81800 28.04300 41.88200
C  48.52500 28.41800 40.45200
H  50.96300 20.71100 43.20300
H  57.32100 21.19700 44.19700
H  56.60300 27.39400 45.52600
H  48.86400 25.05700 43.39300
H  49.23500 22.47300 42.40400
H  49.45700 22.38700 45.31400
H  48.11500 22.11700 44.19400
H  48.41800 23.72800 44.98900
H  50.12200 23.82200 40.82500
H  50.18300 25.62900 40.93300
H  48.00400 25.63000 40.19700
H  47.40800 24.26400 41.16100
H  52.95100 17.94100 42.43500
H  51.62200 18.66700 43.30300
H  52.76500 17.77700 44.16200
H  57.97300 19.22800 43.37600
H  57.66400 17.64100 44.06300
H  57.39300 19.12000 45.06400
H  58.68400 23.54000 43.84900
H  58.09900 25.16600 46.27800
H  59.76400 23.48900 46.42000
H  59.70600 22.17500 45.20400
H  58.43000 22.42300 46.55900
H  58.18800 26.50200 43.61800
H  59.73700 25.60000 43.96300
H  60.42800 27.56300 44.94400
H  58.98500 27.48800 45.99400
H  58.80800 28.24100 44.40400
H  54.32100 30.36500 45.28000
H  55.58200 29.47700 45.98300
H  54.05100 29.65500 46.85900
H  49.55000 27.27300 44.03200
H  47.47900 28.61400 40.21500
H  48.89400 27.62400 39.80400
H  48.96300 29.41400 40.38900
Mg 47.47400 25.30300 28.19900
C  48.64700 27.69700 30.59400
C  46.24600 23.45700 30.79000
C  47.21800 22.77300 26.06500
C  49.57400 26.96500 25.87200
N  47.55000 25.52800 30.40800
C  47.75300 26.71500 31.13000
C  47.33700 26.61900 32.64400
C  46.83600 25.08900 32.74500
C  46.90400 24.65100 31.23200
C  47.76600 24.06400 33.51700
C  46.41300 27.68600 33.28300
C  46.78700 28.09600 34.73900
H  45.81400 28.45500 35.79200
N  46.70000 23.39900 28.38700
C  46.20900 22.80500 29.49900
C  45.64400 21.50300 29.22900
C  45.83800 21.28300 27.80000
C  46.59700 22.48100 27.31900
C  45.14600 20.49600 30.26600
C  45.43100 20.02700 26.93300
O  45.55300 19.96800 25.68000
C  44.61500 19.02900 27.62300
N  48.17900 24.93500 26.26700
C  47.88100 23.88300 25.54200
C  48.41100 23.96400 24.15100
C  48.86200 25.42200 24.00000
C  48.81000 25.79500 25.46500
C  49.49100 22.86900 23.81900
C  48.03000 26.40500 23.10400
C  48.54900 26.44500 21.70500
N  48.83000 27.09300 28.10800
C  49.51600 27.63200 27.10800
C  50.32600 28.76600 27.62500
C  49.99400 28.86600 29.00400
C  49.06900 27.80100 29.25000
C  51.33700 29.58700 26.75300
C  50.21100 29.54900 30.23700
O  50.74800 30.62600 30.42300
C  49.29800 28.87000 31.30800
C  50.18900 28.39100 32.44700
O  50.95700 27.41500 32.43800
O  49.98400 29.20600 33.52900
C  50.71800 28.85000 34.74500
H  45.52300 22.99300 31.46400
H  47.06700 21.92500 25.39400
H  49.98500 27.55100 25.04700
H  48.25100 26.64900 33.23700
H  45.80100 24.99800 33.07500
H  48.50000 24.60000 34.11900
H  48.26900 23.33500 32.88300
H  47.12200 23.57300 34.24700
H  45.38900 27.31300 33.31700
H  46.30400 28.59100 32.68600
H  47.58300 28.84000 34.69700
H  47.22800 27.23500 35.24000
H  44.22700 19.97600 29.99700
H  45.06100 20.92700 31.26300
H  45.86800 19.68100 30.22400
H  45.22700 18.78100 28.49000
H  44.45300 18.14900 27.00200
H  43.69100 19.58900 27.77100
H  47.52300 23.66300 23.59600
H  49.92100 25.38200 23.74100
H  50.41400 23.35700 23.50600
H  49.09200 22.14600 23.10800
H  49.68000 22.27200 24.71100
H  47.86800 27.37900 23.56600
H  47.04000 25.95100 23.14300
H  48.71000 27.51900 21.61100
H  47.74800 26.08300 21.06100
H  49.47700 25.92400 21.47300
H  50.81700 30.23100 26.04300
H  52.06300 28.88000 26.35100
H  51.86700 30.21100 27.47300
H  48.58900 29.59200 31.71300
H  51.72700 28.48200 34.55800
H  50.19900 28.13500 35.38300
H  50.78900 29.75800 35.34400

