158

Mg -0.31900 6.82600 26.46200
C  0.58200 8.96700 29.16700
C  -0.13400 4.08000 28.41700
C  -0.29100 4.99800 23.55200
C  0.22600 9.78000 24.34700
N  0.16800 6.62100 28.52700
C  0.26400 7.63600 29.47200
C  0.18600 7.00800 30.87800
C  0.09300 5.52000 30.62000
C  -0.00800 5.38800 29.09000
C  1.25800 4.57600 31.06700
C  -1.00200 7.57500 31.74200
C  -0.90100 7.59300 33.30200
H  0.30900 7.06800 33.98100
N  -0.28100 4.83700 26.05500
C  -0.25200 3.83000 27.05200
C  -0.28000 2.55400 26.39700
C  -0.26400 2.78500 24.99600
C  -0.24500 4.26000 24.76700
C  -0.38100 1.27200 27.17100
C  -0.38500 1.75500 23.90000
O  -0.31000 2.10100 22.72100
C  -0.70300 0.34500 24.10200
N  -0.14000 7.32100 24.26600
C  -0.22700 6.37400 23.31200
C  -0.28000 6.97800 21.83600
C  -0.07300 8.47200 22.10000
C  0.05600 8.53600 23.68400
C  0.91700 6.48400 20.94500
C  -1.17700 9.47800 21.58400
C  -2.53800 9.50500 22.38900
N  0.23700 8.98000 26.66800
C  0.44000 10.00900 25.74900
C  0.81400 11.22100 26.44800
C  0.74900 10.83200 27.77400
C  0.42300 9.51400 27.87500
C  1.11200 12.49700 25.87700
C  1.09800 11.33900 29.11400
O  1.50400 12.42500 29.51100
C  0.84500 10.14400 30.07900
C  2.03000 9.90900 31.00100
O  3.05500 9.25500 30.73700
O  1.64600 10.62000 32.15600
C  2.62400 10.65700 33.20500
H  -0.28500 3.21800 29.07000
H  -0.24500 4.49700 22.58300
H  0.31700 10.63300 23.67100
H  1.14600 7.18900 31.36200
H  -0.79300 5.08500 31.08100
H  2.07300 5.09300 31.57200
H  1.69600 4.19100 30.14600
H  0.92200 3.72500 31.65900
H  -1.82200 6.97400 31.34800
H  -1.17300 8.57100 31.33400
H  -1.77900 7.14000 33.76200
H  -0.97100 8.66200 33.50700
H  -1.34000 0.83600 26.89200
H  -0.32500 1.32100 28.25800
H  0.33300 0.53900 26.79400
H  -1.65500 0.35600 24.63300
H  0.18300 -0.13900 24.51200
H  -0.91700 -0.23600 23.20600
H  -1.20600 6.54800 21.45500
H  0.86900 8.79400 21.65500
H  1.48100 7.29600 20.48600
H  0.50100 5.80500 20.20100
H  1.56200 5.98300 21.66700
H  -1.30900 9.21600 20.53400
H  -0.62200 10.41100 21.68700
H  -2.44300 10.20200 23.22100
H  -2.79800 8.53600 22.81500
H  -3.31200 9.87200 21.71500
H  0.26400 12.88300 25.31100
H  2.00200 12.32900 25.27100
H  1.53500 13.16400 26.62900
H  -0.04700 10.42300 30.64100
H  2.76600 11.67800 33.55700
H  3.59600 10.23900 32.94300
H  2.26900 10.04200 34.03200
Mg 30.87700 58.11400 40.00400
C  27.84500 56.48900 39.04200
C  32.54500 55.45300 38.75100
C  33.51900 60.02700 40.01900
C  28.89900 60.79900 40.97800
N  30.21700 56.30700 38.75800
C  28.98600 55.78900 38.59100
C  28.93500 54.43600 37.85700
C  30.44400 54.04900 38.12700
C  31.12200 55.37500 38.58000
C  30.67500 52.97100 39.23700
C  28.64000 54.59200 36.38500
C  27.26500 54.19600 35.84200
H  26.43400 55.21600 35.09800
N  32.82100 57.70800 39.65700
C  33.32700 56.56200 39.15700
C  34.71100 56.57700 39.26200
C  35.08600 57.96300 39.54900
C  33.78100 58.65600 39.77500
C  35.62300 55.35400 39.04600
C  36.37800 58.48200 39.64300
O  37.29500 57.76000 39.39500
C  36.72100 59.91900 40.02600
N  31.15900 60.10400 40.36100
C  32.32100 60.66500 40.19100
C  32.35900 62.10400 40.61600
C  30.99900 62.25800 41.36200
C  30.29800 60.99800 40.86100
C  33.50900 62.57400 41.55000
C  30.25700 63.69800 41.05100
C  29.63300 64.38200 42.24700
N  28.79100 58.57900 40.04200
C  28.15900 59.62900 40.59600
C  26.71000 59.49500 40.54600
C  26.54900 58.17700 40.01700
C  27.83700 57.73500 39.62500
C  25.72100 60.52900 40.84400
C  25.52900 57.23200 39.61200
O  24.31900 57.19400 39.70400
C  26.32000 56.05100 38.92300
C  26.01800 54.85100 39.61300
O  26.44000 54.54300 40.68700
O  25.18800 54.02800 38.87600
C  24.94300 52.67700 39.34300
H  33.04200 54.54100 38.41400
H  34.34600 60.73500 39.94200
H  28.34000 61.64300 41.38700
H  28.36100 53.69400 38.41100
H  30.95500 53.70500 37.22800
H  30.63600 53.47100 40.20500
H  31.64600 52.48100 39.16400
H  29.81200 52.30500 39.22800
H  29.36400 53.94000 35.89500
H  28.79100 55.64400 36.14300
H  26.67800 53.71800 36.62700
H  27.29300 53.39800 35.10100
H  36.24100 55.19600 39.93000
H  36.26600 55.72700 38.24800
H  35.11200 54.42300 38.80200
H  36.45900 60.60300 39.21800
H  37.76500 60.01900 40.32300
H  36.11400 60.03900 40.92300
H  32.43800 62.63100 39.66500
H  31.15900 62.08900 42.42700
H  34.08400 61.71000 41.88300
H  33.24000 63.15100 42.43500
H  34.25600 63.15400 41.00700
H  29.58000 63.71900 40.19700
H  30.93800 64.44000 40.63400
H  29.85200 65.44900 42.28900
H  29.98800 64.01100 43.20900
H  28.54400 64.37100 42.27800
H  26.08200 61.52800 40.59900
H  25.67200 60.39000 41.92400
H  24.72300 60.36800 40.43700
H  25.97100 55.98700 37.89300
H  24.10000 52.74800 40.03100
H  25.76700 52.21500 39.88700
H  24.57000 52.08000 38.51100

