158

Mg 47.83500 34.50500 26.83500
C  46.11000 33.26800 29.70800
C  48.25100 37.46600 28.38200
C  49.12000 35.58300 24.06100
C  46.96700 31.38900 25.22500
N  47.28900 35.18300 28.85600
C  46.63600 34.56600 29.85800
C  46.59100 35.46300 31.11200
C  47.07800 36.86200 30.53900
C  47.55200 36.50800 29.14100
C  45.94700 37.90100 30.44400
C  47.53000 34.99800 32.34100
C  46.86000 35.15800 33.76900
H  47.84800 35.56400 34.81700
N  48.71000 36.23400 26.31400
C  48.79100 37.36100 27.08800
C  49.69500 38.24900 26.47400
C  49.89900 37.77200 25.10300
C  49.21200 36.49200 25.11900
C  50.31500 39.46100 27.19300
C  50.72900 38.41300 23.93500
O  50.79200 37.88600 22.82400
C  51.60300 39.62400 24.28000
N  48.05500 33.49700 24.91300
C  48.60400 34.24100 23.94800
C  48.81900 33.37700 22.64200
C  48.19300 31.96800 23.05900
C  47.63300 32.33300 24.43200
C  48.27400 34.00700 21.30100
C  49.18900 30.74000 23.07200
C  50.19900 30.65200 24.17000
N  46.83000 32.61100 27.35400
C  46.52500 31.50800 26.56600
C  45.82200 30.52700 27.43200
C  45.54700 31.16900 28.63800
C  46.20800 32.44000 28.54700
C  45.24700 29.23500 26.92300
C  44.80500 31.20800 29.82500
O  43.96300 30.43800 30.30200
C  45.01600 32.60100 30.54500
C  45.22300 32.35800 31.97000
O  46.23600 31.95900 32.50500
O  43.94600 32.47100 32.55300
C  43.93400 32.00000 33.95600
H  48.45700 38.41700 28.87900
H  49.58700 35.96400 23.15000
H  46.69200 30.43300 24.77500
H  45.54300 35.41200 31.40600
H  47.81000 37.27600 31.23300
H  46.39500 38.89200 30.50500
H  45.25700 37.85800 31.28600
H  45.42100 37.76500 29.49900
H  48.47200 35.54700 32.34800
H  47.87200 33.98300 32.14200
H  46.39900 34.22000 34.07800
H  46.08800 35.92600 33.72600
H  49.99500 40.38200 26.70600
H  51.40500 39.45600 27.19000
H  49.97500 39.56800 28.22300
H  50.97400 40.36700 24.77300
H  51.87900 39.99900 23.29500
H  52.40800 39.17900 24.86500
H  49.89600 33.26700 22.52000
H  47.27800 31.85900 22.47600
H  49.10700 34.49000 20.79100
H  47.46500 34.73400 21.35400
H  47.87100 33.22700 20.65600
H  49.62300 30.72500 22.07200
H  48.55400 29.85400 23.07100
H  51.15100 30.49800 23.66100
H  49.88800 29.75400 24.70300
H  50.26500 31.47900 24.87700
H  44.21400 29.31100 26.58100
H  45.26200 28.55100 27.77200
H  45.88800 28.81700 26.14700
H  44.04200 33.06700 30.39300
H  44.46600 32.71300 34.58600
H  44.34800 30.99600 34.04600
H  42.89000 32.07000 34.26300
Mg -11.84900 39.08200 42.15900
C  -9.66200 36.39900 41.54300
C  -9.53100 41.24900 40.90600
C  -14.14600 41.59500 42.43000
C  -14.37800 36.79100 43.12100
N  -9.84700 38.72200 41.07000
C  -9.13000 37.59000 41.04300
C  -7.91600 37.80500 40.17700
C  -7.85000 39.42500 40.23600
C  -9.19100 39.85100 40.78000
C  -6.63900 40.15000 40.92700
C  -7.96800 37.14700 38.72500
C  -6.99000 35.93600 38.54400
H  -6.04600 36.00300 37.41500
N  -11.83200 41.16400 41.81000
C  -10.80800 41.83000 41.23900
C  -11.18500 43.25800 41.19000
C  -12.48800 43.48900 41.71500
C  -12.89600 42.00700 41.91200
C  -10.10000 44.20500 40.56300
C  -13.13000 44.77500 41.96900
O  -12.52200 45.80400 41.69600
C  -14.39900 44.86500 42.71500
N  -13.96700 39.14200 42.79200
C  -14.62800 40.34000 42.77900
C  -16.16000 40.11200 43.10400
C  -16.25500 38.60900 43.19000
C  -14.77900 38.05700 42.99400
C  -16.69100 40.86700 44.41700
C  -17.35600 38.05700 42.15400
C  -17.03400 37.92200 40.64100
N  -12.07600 36.99200 42.21600
C  -13.10900 36.23000 42.71800
C  -12.72300 34.83500 42.76600
C  -11.38500 34.84500 42.29800
C  -11.01700 36.19500 42.02100
C  -13.65900 33.69700 43.16000
C  -10.28200 33.99000 41.88300
O  -10.17700 32.82800 42.05400
C  -9.16100 35.01700 41.34500
C  -7.90700 34.57400 41.98500
O  -7.48500 34.97600 43.06200
O  -7.25100 33.65200 41.17900
C  -5.89200 33.19000 41.62100
H  -8.81300 41.98900 40.54600
H  -14.92100 42.36100 42.36900
H  -15.25200 36.19600 43.39300
H  -6.99800 37.54100 40.70300
H  -7.81900 39.72000 39.18700
H  -6.98300 40.92400 41.61300
H  -6.01000 40.54400 40.12900
H  -6.12300 39.51800 41.64900
H  -7.71700 37.83100 37.91400
H  -8.95200 36.73700 38.50000
H  -7.66900 35.10400 38.35700
H  -6.59700 35.65600 39.52200
H  -9.16000 44.14500 41.11200
H  -10.48700 45.19900 40.33800
H  -9.99400 43.81300 39.55100
H  -15.15800 44.48300 42.03200
H  -14.58900 45.93400 42.81100
H  -14.17600 44.37800 43.66500
H  -16.76700 40.55300 42.31300
H  -16.49900 38.35500 44.22200
H  -17.69700 41.20600 44.17000
H  -16.00900 41.63200 44.78700
H  -16.85100 40.19900 45.26400
H  -18.09700 38.85600 42.13100
H  -17.83200 37.18100 42.59500
H  -17.33300 38.85500 40.16300
H  -17.63000 37.13700 40.17500
H  -15.95300 37.80500 40.56700
H  -14.52800 33.86400 42.52500
H  -13.93200 33.70600 44.21500
H  -13.23800 32.72400 42.90800
H  -9.08000 34.72400 40.29800
H  -5.36700 33.94700 42.20300
H  -5.34200 32.90700 40.72300
H  -5.74700 32.28400 42.20900

