158

Mg 35.23200 1.39600 29.38500
C  32.97600 2.26200 31.88600
C  37.85400 1.80800 31.52300
C  37.31800 0.99800 26.71500
C  32.56800 1.99500 27.09300
N  35.34500 2.05100 31.38300
C  34.29600 2.18300 32.27300
C  34.79700 2.31800 33.73100
C  36.34000 2.48900 33.46600
C  36.51100 2.03600 32.00200
C  36.91200 3.91500 33.82000
C  34.42500 1.07600 34.56400
C  34.06100 1.32000 36.06700
H  34.50500 2.62700 36.84300
N  37.28400 1.33000 29.17600
C  38.20100 1.49100 30.18000
C  39.55400 1.45300 29.66500
C  39.38100 1.34100 28.28300
C  37.94800 1.23800 27.99000
C  40.76100 1.80300 30.56500
C  40.53800 1.27400 27.22600
O  40.31800 1.16000 26.05800
C  41.99300 1.36900 27.63100
N  34.93400 1.36900 27.22200
C  36.00100 1.20700 26.31900
C  35.48100 1.29000 24.87300
C  33.98900 1.70400 25.00500
C  33.80800 1.72200 26.51000
C  36.28300 2.32900 23.95600
C  33.01400 0.75800 24.31800
C  32.98400 -0.65900 24.92700
N  33.16100 1.81200 29.43300
C  32.23100 2.02900 28.44100
C  30.93100 2.39800 29.03900
C  31.15900 2.40400 30.42400
C  32.53400 2.13800 30.59000
C  29.68300 2.90200 28.35700
C  30.57800 2.77200 31.65300
O  29.45600 3.21500 31.93200
C  31.70000 2.50100 32.71700
C  31.73700 3.83000 33.45900
O  32.07800 4.90500 32.98500
O  31.24300 3.67500 34.68800
C  31.27800 4.94200 35.44000
H  38.66800 1.99900 32.22500
H  38.08000 0.77700 25.96500
H  31.73900 2.40700 26.51400
H  34.37300 3.20200 34.20700
H  36.84000 1.74400 34.08600
H  36.05700 4.59100 33.78400
H  37.64500 4.30500 33.11400
H  37.35500 3.79600 34.80900
H  35.22600 0.33800 34.60500
H  33.49700 0.68500 34.14600
H  34.51000 0.42500 36.49800
H  32.98000 1.19900 36.13800
H  41.40800 2.28900 29.83500
H  41.26400 0.84900 30.72400
H  40.53900 2.19800 31.55600
H  42.24600 0.65300 28.41300
H  42.42100 2.34700 27.85500
H  42.56200 1.00700 26.77500
H  35.71900 0.31400 24.45100
H  33.94400 2.75000 24.70200
H  36.98100 2.00300 23.18500
H  36.94200 2.92400 24.58800
H  35.56900 2.94200 23.40700
H  33.33800 0.52600 23.30300
H  32.01500 1.19400 24.34800
H  32.85900 -1.37100 24.11100
H  31.99800 -0.81400 25.36600
H  33.79600 -0.96800 25.58500
H  29.88200 3.80200 27.77600
H  28.83800 3.16500 28.99300
H  29.42400 2.14200 27.62000
H  31.42100 1.71800 33.42200
H  30.50200 5.58000 35.01600
H  32.27000 5.39300 35.47500
H  31.04600 4.55800 36.43300
Mg 39.76200 8.76300 29.20900
C  41.66100 10.01200 31.89900
C  37.76200 7.17100 31.36400
C  38.03800 7.48600 26.53800
C  42.23100 9.87900 27.05100
N  39.65300 8.58600 31.40500
C  40.53500 9.28900 32.28100
C  39.97700 9.09700 33.73800
C  38.67500 8.19800 33.52900
C  38.72000 7.89300 32.07000
C  38.53500 6.94800 34.42300
C  39.75400 10.43400 34.44500
C  38.82700 10.59300 35.62600
H  39.27100 11.37300 36.91800
N  38.06000 7.57000 28.98200
C  37.40100 6.96200 30.02300
C  36.23600 6.24600 29.48400
C  36.23500 6.42100 28.10500
C  37.48000 7.22100 27.83000
C  35.26300 5.53700 30.50700
C  35.19900 5.77400 27.18900
O  35.40900 5.76900 26.01600
C  34.05100 5.01000 27.58900
N  40.18600 8.55100 27.14600
C  39.25700 8.13500 26.23700
C  39.78000 8.37800 24.77000
C  40.81400 9.40300 24.97400
C  41.10900 9.33000 26.47400
C  40.40300 7.13700 24.09200
C  40.38800 10.87000 24.59000
C  38.91500 11.26100 24.66600
N  41.67800 9.63400 29.35100
C  42.54700 9.96300 28.43300
C  43.74500 10.47800 29.06600
C  43.49400 10.58200 30.42200
C  42.15300 10.03500 30.56400
C  44.87800 11.05600 28.22000
C  43.88100 11.07100 31.66800
O  44.84000 11.71800 31.97300
C  42.75300 10.70700 32.72900
C  43.40100 9.95500 33.80800
O  43.72700 8.77900 33.65700
O  43.62100 10.83500 34.81700
C  44.38200 10.29300 35.93700
H  37.03100 6.64100 31.97900
H  37.53500 7.16300 25.62400
H  42.94100 10.46100 26.46000
H  40.61900 8.50500 34.39000
H  37.83000 8.86400 33.70400
H  37.52200 6.85400 34.81200
H  39.25100 7.05600 35.23900
H  38.83600 6.12400 33.77600
H  39.20200 10.96000 33.66600
H  40.76300 10.84200 34.50800
H  38.64300 9.63200 36.10500
H  37.89100 11.03200 35.28100
H  34.64600 4.77600 30.03000
H  34.65000 6.32900 30.93700
H  35.91800 5.12800 31.27700
H  33.54200 5.65400 28.30600
H  34.48900 4.07000 27.92500
H  33.37100 4.92400 26.74200
H  38.88900 8.69600 24.22900
H  41.67400 9.24400 24.32300
H  39.89900 7.02900 23.13100
H  40.15500 6.28600 24.72600
H  41.49200 7.19200 24.10800
H  40.58700 10.91100 23.51900
H  40.90700 11.72500 25.02400
H  38.50600 11.36000 23.66000
H  38.91400 12.23500 25.15500
H  38.26800 10.57300 25.21000
H  45.82600 10.98100 28.75300
H  44.72000 12.10200 27.95600
H  45.03500 10.45700 27.32300
H  42.46800 11.69300 33.09700
H  43.71700 9.73100 36.59300
H  44.85900 11.14500 36.42200
H  45.14000 9.55000 35.68900

