158

Mg 9.03400 2.55900 27.10300
C  10.33600 1.17100 30.04500
C  7.03500 4.62200 28.96000
C  7.81500 3.74600 24.24900
C  10.88900 0.05000 25.28200
N  8.66500 2.77500 29.29900
C  9.34100 2.13900 30.30500
C  9.16500 2.87700 31.66400
C  7.86700 3.79800 31.28400
C  7.83500 3.75500 29.74600
C  6.53200 3.30500 31.99700
C  10.43400 3.57200 32.23000
C  10.15600 4.40100 33.45000
H  10.85400 4.05100 34.75200
N  7.61000 4.05800 26.70200
C  6.89800 4.74800 27.56900
C  5.99400 5.65800 26.84700
C  6.29000 5.46700 25.44800
C  7.29400 4.38200 25.39600
C  5.08000 6.67800 27.40900
C  5.77100 6.18100 24.10500
O  6.21200 5.93700 22.95500
C  4.73900 7.34400 24.22700
N  9.37700 2.00600 25.06400
C  8.67100 2.67800 24.11300
C  9.17400 2.19300 22.71800
C  9.94800 0.94500 22.99800
C  10.20500 0.99400 24.51400
C  8.02500 1.96700 21.67700
C  11.16200 0.70900 21.98600
C  11.09900 -0.50300 21.04200
N  10.24600 0.93100 27.50700
C  10.98700 0.07700 26.69600
C  11.80200 -0.80500 27.53700
C  11.58800 -0.35500 28.85300
C  10.62400 0.69100 28.80400
C  12.56100 -2.01300 27.19700
C  12.03800 -0.61500 30.17700
O  12.84000 -1.39100 30.71400
C  11.24600 0.49900 30.98600
C  10.51000 -0.05500 32.09400
O  9.46100 -0.71200 31.96500
O  11.07200 0.17400 33.26900
C  10.28800 -0.01300 34.39500
H  6.43900 5.40600 29.43100
H  7.47100 4.03000 23.25200
H  11.36400 -0.68600 24.62900
H  8.82200 2.14500 32.39500
H  8.05400 4.82300 31.60400
H  5.77500 3.35900 31.21400
H  6.27700 4.09700 32.70200
H  6.35600 2.32700 32.44500
H  10.72200 4.21400 31.39900
H  11.34700 3.02100 32.45400
H  9.07700 4.38100 33.60600
H  10.54300 5.38600 33.18900
H  5.57400 7.61300 27.14400
H  5.03100 6.50700 28.48500
H  4.17300 6.66500 26.80600
H  5.01300 8.08500 24.97800
H  3.73500 6.93700 24.34200
H  4.76000 7.86000 23.26700
H  9.85500 2.90800 22.25600
H  9.25600 0.10700 22.91700
H  7.08200 2.33000 22.08600
H  7.88700 0.91600 21.42300
H  8.33400 2.52600 20.79300
H  12.04300 0.67400 22.62500
H  11.25300 1.58900 21.35000
H  11.59200 -1.24900 21.66500
H  11.62600 -0.29900 20.11000
H  10.06300 -0.82300 20.93400
H  13.40400 -2.27100 27.83700
H  12.80900 -1.79300 26.15900
H  11.83200 -2.82200 27.15600
H  11.99900 1.20200 31.34400
H  9.36800 -0.58300 34.27000
H  10.06100 0.97600 34.79200
H  10.67400 -0.54100 35.26700
Mg 44.36600 4.31800 46.77800
C  42.15700 7.06500 46.62700
C  41.39200 2.23700 46.58400
C  46.26000 1.67500 46.47700
C  47.09100 6.45300 46.56600
N  42.14000 4.62000 46.40300
C  41.47900 5.83400 46.43800
C  39.95700 5.66000 46.29700
C  39.78900 4.14200 46.50900
C  41.18000 3.64100 46.50900
C  38.89800 3.80000 47.71500
C  39.52800 6.22700 44.85300
C  38.11100 6.74200 44.55600
H  37.62600 6.79900 43.11000
N  43.95100 2.28600 46.57600
C  42.71300 1.62300 46.56700
C  42.93000 0.23100 46.48800
C  44.35900 0.01200 46.51200
C  44.93600 1.37700 46.53600
C  41.72000 -0.81000 46.60200
C  45.09200 -1.37200 46.44300
O  44.35400 -2.32500 46.45100
C  46.56900 -1.54300 46.21900
N  46.44900 4.14400 46.53300
C  46.97100 2.91700 46.46700
C  48.54000 3.09100 46.45300
C  48.83200 4.63200 46.66800
C  47.42100 5.15500 46.61700
C  49.31900 2.09500 47.40700
C  49.94600 5.33300 45.75800
C  51.29700 4.55400 45.67300
N  44.58700 6.33500 46.69900
C  45.78800 7.07000 46.64600
C  45.47100 8.45600 46.73900
C  44.06700 8.52300 46.74800
C  43.56400 7.17200 46.72900
C  46.45700 9.63900 46.61500
C  42.95400 9.37800 46.84900
O  43.02300 10.58700 46.88500
C  41.70000 8.50100 46.78100
C  40.91700 8.64500 48.04800
O  40.81500 7.74400 48.86200
O  40.10300 9.80300 48.07000
C  39.02200 9.69000 49.06800
H  40.47000 1.65100 46.59200
H  46.99700 0.87000 46.48300
H  47.94600 7.12500 46.47100
H  39.39200 6.21500 47.04700
H  39.33600 3.67300 45.63600
H  38.12500 3.07600 47.45700
H  38.33000 4.67700 48.02500
H  39.47100 3.44900 48.57300
H  39.60600 5.33100 44.23800
H  40.25100 6.97400 44.52600
H  37.87200 7.69800 45.02200
H  37.44700 6.13400 45.17100
H  41.88300 -1.43900 47.47700
H  41.84900 -1.44100 45.72300
H  40.75900 -0.30000 46.53100
H  47.12000 -1.20300 47.09600
H  46.75100 -0.96100 45.31600
H  46.67400 -2.62500 46.14500
H  48.71100 2.77700 45.42400
H  49.25000 4.86600 47.64700
H  50.07100 2.64700 47.97000
H  49.79100 1.24500 46.91300
H  48.60000 1.87100 48.19400
H  50.07600 6.30500 46.23200
H  49.56200 5.55000 44.76100
H  51.34300 3.55400 46.10400
H  52.06900 5.20500 46.08400
H  51.50300 4.63400 44.60500
H  46.91400 9.64600 45.62600
H  47.34400 9.52300 47.23800
H  46.01500 10.62900 46.72900
H  41.11900 8.84800 45.92700
H  39.42500 9.63600 50.07900
H  38.33900 8.89800 48.75900
H  38.40800 10.58200 48.94500

