158

Mg 9.19900 48.75200 26.08700
C  7.64100 48.94200 29.10700
C  12.21600 49.51700 27.66800
C  10.85400 48.13800 23.15500
C  6.25800 48.09300 24.41400
N  9.83900 49.21500 28.11800
C  9.00600 49.25100 29.23200
C  9.66900 49.68400 30.46600
C  10.99500 50.34900 29.88900
C  11.07700 49.66000 28.48400
C  10.97800 51.89700 29.73500
C  9.93200 48.48700 31.44200
C  9.45400 48.60300 32.86500
H  9.43000 47.23600 33.68600
N  11.23800 48.74300 25.50800
C  12.31700 49.03500 26.31500
C  13.52600 48.86500 25.63900
C  13.19500 48.54300 24.29600
C  11.72300 48.45500 24.26900
C  14.86100 49.03100 26.35200
C  14.14100 48.40700 23.12600
O  13.64600 48.21100 22.05000
C  15.63900 48.44500 23.28200
N  8.62600 48.11400 24.03200
C  9.48200 48.08200 23.02100
C  8.78300 47.68500 21.63300
C  7.27600 47.40900 22.08900
C  7.36800 48.01500 23.56200
C  8.91300 48.75100 20.56100
C  6.72300 45.94800 22.07200
C  5.49400 45.62800 21.19400
N  7.25000 48.71600 26.57300
C  6.12700 48.36100 25.80300
C  4.98500 48.32400 26.72300
C  5.55800 48.45700 27.98200
C  6.92400 48.75000 27.84600
C  3.65200 47.93000 26.26700
C  5.24600 48.36000 29.43400
O  4.17900 48.11900 29.99400
C  6.56100 48.60900 30.20900
C  6.81700 47.36900 30.95400
O  7.34000 46.34200 30.45000
O  6.26200 47.41200 32.25400
C  6.23100 46.16300 33.01700
H  13.06800 49.95400 28.19300
H  11.24200 47.94500 22.15200
H  5.28400 47.81000 24.00900
H  8.97100 50.35400 30.96800
H  11.82000 50.14800 30.57200
H  11.95800 52.23900 30.06800
H  10.21900 52.23200 30.44200
H  10.90400 52.19700 28.69000
H  10.98400 48.37500 31.70600
H  9.72700 47.59700 30.84600
H  8.43200 48.97100 32.77500
H  9.99100 49.33200 33.47100
H  15.51700 49.80600 25.95500
H  15.40000 48.08400 26.36800
H  14.69300 49.32100 27.39000
H  16.14300 47.81400 22.55000
H  16.02500 47.89400 24.14000
H  16.02800 49.46200 23.31700
H  9.24200 46.77700 21.24100
H  6.65000 48.04100 21.45900
H  8.36300 48.47100 19.66300
H  9.95900 48.85600 20.27400
H  8.48300 49.68500 20.92300
H  6.54700 45.53800 23.06600
H  7.53300 45.32800 21.68700
H  4.94600 46.54300 20.96900
H  4.86300 44.92000 21.72900
H  5.89500 45.13300 20.30900
H  3.50800 46.85400 26.37200
H  3.57900 48.15300 25.20300
H  3.00400 48.58400 26.85100
H  6.45300 49.47700 30.86000
H  6.62600 46.42600 33.99900
H  7.01100 45.43400 32.79600
H  5.26100 45.66800 33.05100
Mg -3.28200 35.01400 26.95300
C  -4.33600 32.86500 29.26500
C  -1.74000 36.85800 29.57600
C  -2.33700 37.45400 24.73800
C  -4.88400 33.38000 24.40600
N  -3.09600 34.85200 29.13600
C  -3.53800 33.82800 29.91200
C  -3.08300 33.93600 31.34100
C  -2.37500 35.29400 31.46500
C  -2.32200 35.66100 29.90400
C  -3.11900 36.33600 32.37700
C  -2.27500 32.64900 31.81400
C  -2.81700 31.88400 33.05800
H  -2.15900 31.92800 34.44100
N  -2.22700 36.87100 27.15000
C  -1.62800 37.43500 28.30200
C  -0.93900 38.69800 27.97700
C  -1.08800 38.88500 26.59200
C  -1.92900 37.72500 26.10000
C  -0.28900 39.61600 29.05000
C  -0.63400 40.03400 25.73000
O  -0.89000 40.07400 24.51700
C  0.15600 41.19700 26.34200
N  -3.78600 35.46900 24.92100
C  -3.16100 36.48500 24.20000
C  -3.70900 36.50800 22.75700
C  -4.29700 35.07300 22.58300
C  -4.33600 34.56600 24.05200
C  -4.66300 37.66900 22.57300
C  -3.59000 34.22000 21.54300
C  -2.24900 33.60200 21.83100
N  -4.51700 33.43100 26.85400
C  -5.05400 32.85600 25.73700
C  -5.68900 31.64700 26.19700
C  -5.56500 31.61200 27.56900
C  -4.81600 32.75100 27.97900
C  -6.26300 30.58700 25.28800
C  -5.80500 30.84100 28.82000
O  -6.30100 29.75200 29.11700
C  -5.04700 31.67100 29.89800
C  -5.99500 32.00900 30.95700
O  -6.70000 33.01800 30.86500
O  -5.94300 31.11700 32.03800
C  -7.00300 31.33000 33.00800
H  -1.05800 37.28000 30.31800
H  -1.98400 38.12400 23.95100
H  -5.39700 32.76700 23.66200
H  -3.97400 34.09800 31.94600
H  -1.32600 35.21800 31.75200
H  -3.84200 36.84200 31.73800
H  -2.40000 37.11800 32.62500
H  -3.63600 35.96800 33.26300
H  -1.28500 32.83000 32.23400
H  -2.17400 31.95000 30.98300
H  -3.08500 30.86000 32.80000
H  -3.82200 32.23000 33.30100
H  0.74800 39.79600 28.76300
H  -0.21000 39.15600 30.03500
H  -0.92300 40.50100 29.10600
H  0.41400 41.92000 25.56800
H  0.96700 40.62300 26.79200
H  -0.46900 41.66600 27.10100
H  -2.90300 36.65000 22.03700
H  -5.34900 35.13100 22.30500
H  -4.13900 38.36200 21.91600
H  -4.88300 38.29800 23.43500
H  -5.62200 37.43300 22.11300
H  -3.37900 34.73200 20.60400
H  -4.31300 33.45500 21.26100
H  -2.36000 32.54300 21.60200
H  -1.77700 33.79000 22.79600
H  -1.56500 33.87900 21.02900
H  -5.95500 30.65500 24.24400
H  -7.32800 30.81200 25.22800
H  -6.07900 29.54200 25.53700
H  -4.34900 30.98500 30.37800
H  -7.95300 31.17500 32.49600
H  -7.14600 32.36300 33.32600
H  -6.85600 30.72500 33.90200

