158

Mg 46.95200 25.36300 28.37600
C  47.34400 27.52400 31.05300
C  46.17900 22.77100 30.71400
C  47.31200 23.25300 25.98300
C  48.40600 27.88000 26.42100
N  46.50300 25.25600 30.58300
C  46.69900 26.28500 31.44800
C  46.53000 25.75900 32.91200
C  46.12100 24.27300 32.72200
C  46.31800 24.03900 31.29100
C  46.92200 23.27200 33.50500
C  45.61500 26.66000 33.80900
C  46.03100 26.69400 35.29800
H  44.91600 26.61800 36.37000
N  46.43700 23.28400 28.29200
C  46.12800 22.40100 29.29600
C  45.96500 21.10300 28.68800
C  46.31300 21.22400 27.32400
C  46.65400 22.64000 27.12100
C  45.51700 19.88400 29.52200
C  46.58700 20.02500 26.31700
O  46.88600 20.23200 25.16800
C  46.22100 18.63500 26.63900
N  47.82800 25.48300 26.50400
C  47.75800 24.50300 25.58100
C  48.45500 24.88300 24.27400
C  48.42800 26.42700 24.36000
C  48.25200 26.65600 25.84600
C  49.86500 24.21500 24.04700
C  47.34300 27.12600 23.55800
C  47.79900 28.27500 22.68000
N  47.74100 27.38200 28.61200
C  48.25700 28.24000 27.73500
C  48.53200 29.49900 28.36900
C  48.23700 29.17800 29.72400
C  47.71000 27.94000 29.81600
C  49.16300 30.63100 27.74100
C  48.28000 29.82400 30.98700
O  48.85700 30.89600 31.27500
C  47.68400 28.70100 31.95600
C  48.66100 28.50000 33.00500
O  49.68300 27.96100 32.89700
O  48.24200 29.13100 34.17200
C  49.14000 29.16100 35.27100
H  45.85300 22.03100 31.44800
H  47.44100 22.47600 25.22700
H  48.66000 28.70400 25.75000
H  47.56900 25.84200 33.23300
H  45.05200 24.10300 32.85200
H  47.47700 22.64900 32.80300
H  46.27400 22.60800 34.07600
H  47.64100 23.68700 34.21100
H  44.60500 26.25000 33.80200
H  45.50600 27.66700 33.40600
H  46.46000 27.67800 35.48900
H  46.86900 26.00500 35.39800
H  44.83900 19.19000 29.02500
H  45.02500 20.24700 30.42500
H  46.46700 19.38500 29.70900
H  46.69200 18.26500 27.55000
H  46.58900 17.95100 25.87500
H  45.13700 18.64600 26.75600
H  47.78500 24.62900 23.45200
H  49.40600 26.80000 24.05800
H  49.86800 23.34100 23.39600
H  50.27500 23.85400 24.99000
H  50.64700 24.88700 23.69500
H  46.56200 27.47600 24.23200
H  46.86800 26.47700 22.82200
H  47.63500 27.93600 21.65700
H  48.84100 28.57900 22.78100
H  47.11300 29.08000 22.94500
H  48.40000 31.08900 27.11200
H  49.94400 30.40700 27.01400
H  49.58800 31.40300 28.38300
H  46.79300 29.12300 32.42100
H  48.95300 28.16900 35.68300
H  48.86200 29.98200 35.93200
H  50.20000 29.24000 35.03300
Mg -1.58700 34.30200 26.45600
C  -3.13100 32.51600 29.24700
C  -0.19900 36.34600 28.61700
C  -0.66400 36.15400 23.81400
C  -3.65300 32.35100 24.41000
N  -1.45500 34.18500 28.68500
C  -2.19800 33.49100 29.59800
C  -1.81200 33.92800 31.00600
C  -1.19800 35.33400 30.81900
C  -0.85300 35.27000 29.27100
C  -2.01800 36.62200 31.34300
C  -0.97200 32.84800 31.77000
C  -1.48700 32.68300 33.16900
H  -0.41800 32.34400 34.23200
N  -0.56800 35.95600 26.24200
C  -0.00500 36.67000 27.24100
C  0.75600 37.79500 26.64500
C  0.62400 37.80600 25.22600
C  -0.23600 36.61800 25.03300
C  1.67700 38.66000 27.48400
C  1.17600 38.67500 24.08200
O  1.11400 38.36500 22.91200
C  1.88700 39.95900 24.42700
N  -1.93800 34.11200 24.36900
C  -1.52100 35.09900 23.53400
C  -2.15000 34.85300 22.16400
C  -2.85600 33.54100 22.30900
C  -2.79000 33.26700 23.79300
C  -2.97200 35.97700 21.47000
C  -2.25200 32.45700 21.34400
C  -0.94700 31.70500 21.84000
N  -3.19200 32.89200 26.70600
C  -3.87000 32.13900 25.74700
C  -4.81700 31.29100 26.34100
C  -4.55000 31.34800 27.71500
C  -3.58500 32.35500 27.89400
C  -5.79100 30.29500 25.78700
C  -4.88400 30.81800 29.00500
O  -5.71200 29.99800 29.35600
C  -3.99900 31.56200 30.07600
C  -4.95300 32.20000 31.02800
O  -5.77600 33.07300 30.80500
O  -4.58700 31.78000 32.25100
C  -5.37600 32.31900 33.36400
H  0.26400 37.12100 29.23000
H  -0.30500 36.66000 22.91500
H  -4.35200 31.92500 23.68700
H  -2.75300 34.00300 31.55000
H  -0.22600 35.30300 31.31100
H  -2.25100 37.13700 30.41100
H  -1.35700 37.13800 32.04000
H  -2.97800 36.40900 31.81300
H  0.07700 33.13200 31.68800
H  -1.35300 31.92600 31.33100
H  -2.36600 32.04900 33.28700
H  -1.91400 33.63100 33.49700
H  1.54800 38.30700 28.50800
H  1.29100 39.67900 27.51500
H  2.70600 38.67000 27.12400
H  1.46500 40.73100 23.78400
H  2.95800 39.88300 24.23700
H  1.70200 40.39900 25.40700
H  -1.25500 34.62100 21.58700
H  -3.90600 33.63900 22.03500
H  -2.40800 36.47600 20.68300
H  -3.15500 36.71100 22.25500
H  -3.92800 35.75200 20.99700
H  -2.03700 32.85700 20.35300
H  -3.01800 31.68500 21.26600
H  -1.11900 30.65400 22.07200
H  -0.42500 32.19300 22.66300
H  -0.20800 31.81700 21.04700
H  -5.59300 30.24600 24.71600
H  -6.83100 30.54200 26.00300
H  -5.64900 29.36800 26.34200
H  -3.32800 30.84500 30.55000
H  -6.30700 32.83800 33.13600
H  -4.61700 32.94600 33.83300
H  -5.57300 31.47000 34.01800

