158

Mg 17.76300 52.65200 26.02900
C  19.82100 50.93200 28.37700
C  15.54300 53.26600 28.48300
C  15.68700 53.85100 23.68400
C  19.84700 51.32300 23.47700
N  17.65600 52.05700 28.09200
C  18.60800 51.45800 28.90700
C  18.15700 51.50500 30.39000
C  16.64300 51.76400 30.30100
C  16.63500 52.45500 28.88100
C  15.70000 50.45500 30.54300
C  18.97600 52.60000 31.15000
C  19.23500 52.62900 32.63800
H  18.36400 51.62400 33.42400
N  15.81300 53.38500 26.05400
C  15.14900 53.77100 27.20000
C  13.94100 54.49500 26.83100
C  13.95400 54.66500 25.41600
C  15.21700 54.03700 25.00900
C  12.99000 54.98800 27.89400
C  12.95600 55.34100 24.54000
O  13.15700 55.46500 23.30200
C  11.66400 55.89500 25.10800
N  17.78200 52.53800 23.95700
C  16.83700 53.16200 23.19300
C  17.12800 53.03400 21.68600
C  18.47800 52.25700 21.64700
C  18.72200 52.02300 23.12600
C  15.98200 52.52100 20.83500
C  19.64000 52.80500 20.72600
C  20.67600 53.72900 21.41900
N  19.48800 51.44200 25.94800
C  20.19900 50.96600 24.82800
C  21.38900 50.33100 25.25000
C  21.25900 50.24700 26.64200
C  20.13200 50.94900 27.02800
C  22.44100 49.63700 24.34500
C  21.93800 49.70100 27.82500
O  22.93000 49.09500 27.97100
C  20.98200 50.18200 29.03000
C  20.44200 48.99200 29.75600
O  19.61700 48.25600 29.25600
O  20.87000 48.90200 31.07600
C  20.05400 47.87300 31.80700
H  14.77000 53.39100 29.24400
H  15.09900 54.27800 22.86900
H  20.60300 51.04900 22.73800
H  18.44600 50.58300 30.89400
H  16.31800 52.37900 31.14000
H  15.07100 50.61800 31.41800
H  16.24100 49.51300 30.63500
H  15.01200 50.31600 29.70900
H  18.52700 53.57100 30.94100
H  19.95200 52.59200 30.66400
H  18.97800 53.62500 33.00000
H  20.31200 52.56100 32.78600
H  12.07100 54.41900 28.03400
H  12.80500 56.04800 27.72100
H  13.44000 54.99500 28.88700
H  11.79000 56.57500 25.95000
H  11.01400 55.08300 25.43600
H  10.97800 56.42300 24.44600
H  17.22300 54.07100 21.36500
H  18.19100 51.25100 21.33700
H  16.30100 51.67500 20.22700
H  15.72400 53.31800 20.13700
H  15.06100 52.36900 21.39800
H  19.08100 53.43000 20.03000
H  20.13700 52.05900 20.10600
H  20.97100 54.41700 20.62700
H  21.57200 53.14200 21.62100
H  20.18500 54.19200 22.27500
H  23.06800 50.32000 23.77200
H  21.94400 48.95200 23.65800
H  23.10600 49.13700 25.04900
H  21.55400 50.75500 29.76000
H  20.27700 48.02800 32.86300
H  20.50900 46.89100 31.68400
H  18.99300 47.77300 31.58000
Mg 10.38700 47.55400 25.96700
C  8.54300 47.07700 28.96600
C  12.89300 48.99100 27.74400
C  11.99100 48.20600 23.05900
C  7.63300 46.62700 24.27000
N  10.62800 48.05100 28.16900
C  9.79000 47.68400 29.20800
C  10.54400 47.93500 30.58700
C  11.88000 48.66800 30.05300
C  11.80100 48.58600 28.51600
C  12.01700 50.15100 30.62000
C  10.89000 46.65700 31.49300
C  10.15300 46.91700 32.88500
H  10.40900 45.86800 33.94000
N  12.23200 48.43300 25.50400
C  13.16000 48.85600 26.36000
C  14.37200 49.25600 25.63900
C  14.21400 48.82100 24.28000
C  12.80200 48.45400 24.22900
C  15.60800 49.82300 26.43300
C  15.15000 48.81700 23.20200
O  14.92000 48.49000 22.05900
C  16.55200 49.40200 23.42500
N  9.93400 47.46500 23.90900
C  10.73300 47.79700 22.89400
C  9.90600 47.90500 21.59300
C  8.74500 46.92200 21.99300
C  8.75900 46.94500 23.50300
C  9.57700 49.34400 21.11200
C  8.84000 45.54600 21.37700
C  9.88100 44.67100 21.92400
N  8.40600 46.99800 26.49100
C  7.38400 46.70900 25.66400
C  6.16400 46.37700 26.37500
C  6.59800 46.44900 27.72300
C  7.94100 46.87700 27.70300
C  4.79500 45.96800 25.92200
C  6.20300 46.22200 29.00000
O  5.11500 45.83800 29.37700
C  7.51900 46.56300 29.98400
C  7.84500 45.31400 30.61000
O  8.49400 44.42200 30.09300
O  7.16500 45.14800 31.75400
C  6.95500 43.82900 32.43300
H  13.70800 49.23500 28.42900
H  12.38400 48.59300 22.11600
H  6.80900 46.15200 23.73400
H  9.82600 48.59600 31.07300
H  12.78800 48.18600 30.41500
H  12.88400 50.24200 31.27400
H  11.16800 50.19500 31.30200
H  11.89000 50.92300 29.86100
H  11.95200 46.65500 31.73600
H  10.53200 45.69400 31.12800
H  9.07800 47.08600 32.82000
H  10.70200 47.78600 33.24800
H  15.94400 50.61400 25.76300
H  16.33700 49.01400 26.47000
H  15.34100 50.25500 27.39800
H  17.03800 49.59900 22.46900
H  17.20300 48.92400 24.15600
H  16.31800 50.42100 23.73100
H  10.48900 47.41700 20.81200
H  7.78900 47.33900 21.67600
H  10.02600 49.62400 20.15900
H  9.93100 50.10800 21.80400
H  8.49700 49.49300 21.09400
H  8.86400 45.54200 20.28700
H  7.82800 45.19200 21.57300
H  10.42400 45.21700 22.69600
H  10.60400 44.33200 21.18300
H  9.39500 43.80500 22.37300
H  4.66900 45.83100 24.84800
H  4.06600 46.73200 26.19300
H  4.49100 45.01900 26.36300
H  7.47600 47.39300 30.68900
H  5.90400 43.55500 32.34100
H  7.35400 43.71700 33.44100
H  7.41000 42.98300 31.91700

