158

Mg 47.81300 34.63300 27.59100
C  45.79300 33.10600 29.83800
C  48.16400 37.29700 29.50200
C  49.42800 36.32200 24.99200
C  47.13700 32.02000 25.19800
N  47.01200 35.13600 29.45900
C  46.29100 34.28600 30.28900
C  46.26300 34.89400 31.70700
C  46.65700 36.40100 31.51300
C  47.26800 36.33200 30.07000
C  45.50500 37.45400 31.63400
C  47.28900 34.08700 32.66000
C  46.77500 33.80900 34.07100
H  47.62800 34.57600 35.13600
N  48.83800 36.41700 27.32200
C  48.87000 37.34000 28.31100
C  49.78100 38.35600 27.97400
C  50.30800 38.03400 26.68200
C  49.50000 36.87800 26.26700
C  50.00500 39.60900 28.78500
C  51.29100 38.82800 25.78900
O  51.53700 38.43300 24.64200
C  52.11600 40.04800 26.29100
N  48.04400 34.32300 25.33200
C  48.90700 35.07700 24.61100
C  49.03800 34.54100 23.14800
C  48.33300 33.11200 23.23000
C  47.75100 33.17800 24.65200
C  48.44600 35.39600 22.03000
C  49.44500 31.96000 23.03400
C  50.26500 31.50500 24.32800
N  46.67000 33.01500 27.43500
C  46.62600 31.95200 26.53700
C  45.88000 30.88700 27.09200
C  45.50700 31.28900 28.34300
C  45.97900 32.56300 28.48600
C  45.43800 29.59700 26.42100
C  44.78400 30.97900 29.55600
O  44.27700 29.89900 29.92000
C  44.82100 32.22400 30.43900
C  44.91500 31.79400 31.84300
O  45.85900 31.16100 32.41900
O  43.69900 32.00600 32.51500
C  43.69700 31.56000 33.89100
H  48.24400 38.11400 30.22300
H  49.81800 36.85000 24.12000
H  47.22600 31.08300 24.64400
H  45.23400 34.77300 32.04600
H  47.43700 36.70600 32.21100
H  44.64300 37.16700 32.23600
H  45.17500 37.78200 30.64800
H  45.84200 38.32300 32.19900
H  48.21700 34.65400 32.58800
H  47.63400 33.17100 32.17900
H  46.87100 32.75700 34.34000
H  45.75000 34.11900 34.27300
H  49.71600 40.41200 28.10800
H  51.06900 39.67000 29.01600
H  49.46100 39.69300 29.72600
H  51.48800 40.93800 26.32500
H  52.93500 40.21600 25.59100
H  52.46200 39.90800 27.31500
H  50.11600 34.52800 22.98600
H  47.57300 32.90600 22.47600
H  49.14100 35.54900 21.20400
H  48.20000 36.33100 22.53300
H  47.48100 35.10000 21.62100
H  50.02800 32.25000 22.16000
H  48.99700 31.03000 22.68400
H  49.87900 31.91500 25.26100
H  51.31200 31.80100 24.26000
H  50.37200 30.42100 24.36000
H  45.32900 28.84900 27.20500
H  46.21900 29.36500 25.69700
H  44.47200 29.83200 25.97400
H  43.81400 32.63000 30.34300
H  42.86600 30.85400 33.89000
H  43.51100 32.39200 34.56900
H  44.60200 31.26800 34.42400
Mg 29.83500 58.50500 40.28400
C  26.81800 57.00400 39.16200
C  31.55100 55.69800 38.95200
C  32.68600 60.47200 39.86800
C  28.02900 61.42000 40.82700
N  29.18700 56.58400 39.16200
C  27.94900 56.17000 38.84700
C  27.90100 54.87000 37.93600
C  29.37700 54.30600 38.23900
C  30.13900 55.61500 38.83300
C  29.33500 53.19400 39.33700
C  27.76500 55.23600 36.40800
C  27.40100 54.15400 35.42900
H  26.60200 54.64100 34.21100
N  31.86600 58.11200 39.68800
C  32.34700 56.93500 39.21300
C  33.79800 57.08200 39.04100
C  34.15100 58.46700 39.27600
C  32.87100 59.05600 39.65700
C  34.63200 55.95200 38.59100
C  35.50100 59.19700 39.07200
O  36.39700 58.64600 38.43500
C  35.80800 60.54800 39.59900
N  30.33300 60.66900 40.35000
C  31.54200 61.19300 40.25400
C  31.60700 62.70600 40.54500
C  30.15900 62.97500 40.90700
C  29.46400 61.63800 40.74400
C  32.68100 63.18800 41.55500
C  29.31500 64.08000 40.07700
C  28.56000 65.13800 40.88300
N  27.75900 59.09400 40.23400
C  27.24300 60.35800 40.48200
C  25.82300 60.23900 40.24500
C  25.60000 58.94600 39.78600
C  26.81600 58.31200 39.74700
C  24.76600 61.34300 40.42800
C  24.54900 58.06400 39.18800
O  23.38800 58.26400 38.92700
C  25.31000 56.66900 38.91400
C  24.89800 55.77300 40.00100
O  24.64700 56.03400 41.11400
O  24.76600 54.49800 39.46200
C  24.06000 53.46400 40.24600
H  32.09200 54.82400 38.58100
H  33.43300 61.24700 39.68500
H  27.50200 62.32100 41.14800
H  27.10200 54.18900 38.22800
H  29.93100 53.96900 37.36400
H  28.33000 52.82700 39.54500
H  29.65600 53.43500 40.35000
H  29.80100 52.30100 38.92000
H  28.71100 55.65800 36.06800
H  26.99500 56.00400 36.33300
H  26.75900 53.45500 35.96400
H  28.34100 53.70000 35.11600
H  34.27300 55.22900 39.32300
H  35.71600 56.05600 38.64000
H  34.37500 55.62600 37.58400
H  36.89400 60.56000 39.70100
H  35.28800 60.44200 40.55000
H  35.43500 61.26900 38.87200
H  31.83300 63.30400 39.66100
H  30.05300 63.21300 41.96500
H  32.17600 63.48300 42.47500
H  33.20800 64.08400 41.22800
H  33.42500 62.45600 41.86900
H  28.66300 63.56000 39.37600
H  30.06500 64.62200 39.50200
H  28.76500 65.05400 41.95000
H  27.49800 64.99400 40.68200
H  28.84700 66.16100 40.64100
H  25.15000 61.94500 41.25100
H  23.80800 60.87900 40.65800
H  24.90900 61.95000 39.53300
H  25.18400 56.24500 37.91800
H  23.53700 52.86400 39.50100
H  23.29300 53.96300 40.83900
H  24.73300 52.84400 40.83900

