158

Mg 35.40300 2.69400 30.09800
C  33.05600 3.71300 32.60100
C  37.74600 2.42300 32.52100
C  37.51200 2.47800 27.69200
C  32.78500 3.21000 27.73600
N  35.39500 3.16800 32.27800
C  34.38800 3.50600 33.09800
C  34.79800 3.38900 34.60100
C  36.28000 3.16500 34.53700
C  36.51300 2.88400 32.99100
C  37.01800 4.39300 35.19900
C  34.02900 2.22300 35.36300
C  33.96400 2.29400 36.86400
H  34.66800 3.41200 37.67500
N  37.31500 2.51300 30.12600
C  38.10900 2.29800 31.20500
C  39.51900 2.02600 30.78500
C  39.47200 1.96900 29.38700
C  38.06300 2.33900 29.05300
C  40.66300 1.65900 31.79200
C  40.57600 1.72200 28.35700
O  40.58800 1.73800 27.11900
C  42.01500 1.48800 28.96400
N  35.18800 3.09700 27.94000
C  36.19000 2.66100 27.20100
C  35.78100 2.56500 25.73500
C  34.25700 2.80800 25.79200
C  34.03500 3.05700 27.23500
C  36.59000 3.67400 24.94900
C  33.39700 1.68300 25.26800
C  33.43600 0.36500 26.03900
N  33.34100 3.34400 30.10500
C  32.47400 3.47900 29.07200
C  31.18600 4.04600 29.58300
C  31.43600 4.14300 31.01000
C  32.71200 3.63600 31.26500
C  29.96900 4.33900 28.70600
C  30.80400 4.48000 32.26300
O  29.68000 4.94700 32.38500
C  31.80800 4.15100 33.34300
C  32.01400 5.39700 34.09600
O  32.48000 6.44700 33.75600
O  31.33000 5.19300 35.26800
C  31.22100 6.45900 36.06100
H  38.40300 2.01500 33.29200
H  38.24400 2.21700 26.92500
H  31.92400 3.33000 27.07600
H  34.56700 4.35700 35.04600
H  36.45800 2.26800 35.12900
H  37.40400 5.03800 34.40900
H  37.82200 4.02000 35.83200
H  36.39300 5.09500 35.75100
H  34.44500 1.27500 35.02000
H  33.04000 2.16200 34.90900
H  34.41300 1.35100 37.17400
H  32.93300 2.19800 37.20400
H  41.01700 2.62300 32.15600
H  41.44400 1.05500 31.33000
H  40.30900 1.09100 32.65200
H  42.77100 1.71300 28.21100
H  42.14500 0.49700 29.39700
H  42.16200 2.22200 29.75800
H  35.87800 1.57100 25.29700
H  33.96500 3.65700 25.17400
H  37.06300 3.32200 24.03200
H  37.41600 4.08600 25.52800
H  35.96900 4.54300 24.73100
H  33.60800 1.38000 24.24200
H  32.38600 2.08900 25.24900
H  32.42200 -0.00600 26.18400
H  33.84400 0.63900 27.01200
H  34.11100 -0.34600 25.56200
H  30.27300 5.21500 28.13400
H  29.21200 4.63100 29.43400
H  29.65000 3.54700 28.02900
H  31.26900 3.38100 33.89500
H  32.12700 6.99700 36.34200
H  30.64100 6.27000 36.96400
H  30.62000 7.13100 35.44900
Mg 53.90500 23.60200 43.71300
C  51.31700 25.95600 43.28800
C  51.73400 21.08200 42.57700
C  56.46400 21.41800 43.76300
C  55.81300 26.16600 44.87400
N  51.82900 23.59700 42.77200
C  50.97800 24.64900 42.79500
C  49.60400 24.24300 42.10800
C  49.74400 22.68400 42.08400
C  51.21000 22.42100 42.41300
C  48.88700 22.00200 43.11700
C  49.40500 24.75900 40.61800
C  50.76900 24.98300 39.84200
H  50.50100 25.68200 38.50600
N  54.09200 21.49400 43.21200
C  53.04400 20.65900 42.85300
C  53.57100 19.31500 42.79400
C  54.96900 19.38200 43.11700
C  55.23900 20.75300 43.34500
C  52.65400 18.13800 42.43800
C  55.92800 18.14400 43.26300
O  55.48600 17.02800 43.02600
C  57.32200 18.30600 43.56800
N  55.89000 23.77900 44.18200
C  56.81700 22.79300 44.04600
C  58.21700 23.18300 44.58800
C  57.96900 24.70600 44.97900
C  56.47400 24.96800 44.62100
C  58.75200 22.33300 45.73100
C  58.89200 25.69500 44.22300
C  58.71900 26.02400 42.74500
N  53.70800 25.74100 43.96200
C  54.49100 26.63000 44.59900
C  53.86000 27.84300 45.04700
C  52.49900 27.55600 44.55900
C  52.54900 26.29700 43.87000
C  54.40600 28.93900 45.99700
C  51.16700 28.11500 44.46300
O  50.73900 29.20000 44.86700
C  50.37900 27.05400 43.53200
C  49.80300 27.62900 42.33800
O  50.42400 28.15400 41.42100
O  48.44500 27.66000 42.49300
C  47.69400 28.73700 41.82100
H  50.98600 20.32500 42.33100
H  57.30200 20.79500 44.08400
H  56.42400 26.96200 45.30400
H  48.75200 24.44900 42.75500
H  49.51300 22.26100 41.10700
H  47.82900 22.23600 42.99800
H  49.06900 22.30200 44.15000
H  48.81600 20.91600 43.05500
H  48.69700 25.56800 40.43800
H  48.99500 23.95600 40.00600
H  51.36500 24.09600 39.62300
H  51.43800 25.70400 40.31200
H  53.09500 17.19600 42.76400
H  52.41800 18.09100 41.37500
H  51.72600 18.25800 42.99800
H  57.76300 17.31000 43.59900
H  57.45600 18.86000 44.49700
H  57.83700 18.92800 42.83500
H  58.89100 23.09800 43.73500
H  58.12200 24.70000 46.05800
H  59.55200 21.62800 45.50200
H  57.97200 21.65700 46.08100
H  59.05200 22.89800 46.61300
H  59.91500 25.32300 44.15900
H  58.94100 26.61800 44.80300
H  59.51700 25.72500 42.06500
H  58.55000 27.09000 42.59400
H  57.90700 25.39300 42.38300
H  55.40600 28.73100 46.37800
H  53.86700 28.87000 46.94200
H  54.25700 29.91000 45.52500
H  49.62300 26.66800 44.21600
H  48.19400 29.69100 41.98200
H  46.70000 28.81200 42.26400
H  47.68600 28.49300 40.75900

