158

Mg 55.39900 25.74300 44.62100
C  52.35600 27.35300 43.76900
C  53.98700 22.86300 43.66300
C  58.38700 24.48800 44.59300
C  56.62200 28.96900 45.72900
N  53.41500 25.20700 43.38000
C  52.28600 25.98300 43.43100
C  51.12000 25.14200 42.96700
C  51.60300 23.72600 43.50500
C  53.14400 23.93600 43.46300
C  51.15000 23.40200 45.00300
C  50.57700 25.17000 41.51700
C  49.11100 24.73600 41.39400
H  48.72000 23.73300 40.25600
N  56.12700 23.83300 44.16900
C  55.33700 22.82000 43.77800
C  56.17100 21.66800 43.78100
C  57.48500 22.08100 44.12200
C  57.43500 23.53900 44.31300
C  55.61200 20.26400 43.46300
C  58.62000 21.12700 44.07000
O  58.43000 19.90800 43.73400
C  60.05700 21.65500 44.22900
N  57.14900 26.59600 45.11300
C  58.28100 25.80700 45.03500
C  59.58400 26.72400 45.33500
C  58.97400 28.05200 45.85800
C  57.49700 27.85200 45.52600
C  60.58400 26.12800 46.38600
C  59.69600 29.35000 45.32000
C  59.09800 30.06200 44.08100
N  54.69100 27.75800 44.80300
C  55.23500 28.87200 45.42600
C  54.19600 29.90700 45.49100
C  53.09000 29.38200 44.84700
C  53.40000 28.00600 44.47400
C  54.30300 31.24700 46.04400
C  51.77600 29.67800 44.37000
O  51.21200 30.70600 44.51000
C  51.24500 28.42300 43.63100
C  51.06800 28.75500 42.19900
O  51.94600 29.17900 41.47100
O  49.79400 28.50900 41.86100
C  49.47500 29.09500 40.55600
H  53.56700 21.85700 43.60600
H  59.38600 24.04700 44.59700
H  57.07300 29.90200 46.07200
H  50.25800 25.46200 43.55200
H  51.24100 22.91000 42.87900
H  52.03200 23.29700 45.63400
H  50.67400 22.43500 44.84200
H  50.39100 24.12100 45.31200
H  51.15300 24.47900 40.90100
H  50.71500 26.20900 41.21900
H  48.59300 25.66600 41.15800
H  48.71700 24.34100 42.33000
H  55.63100 20.13600 42.38100
H  54.55800 20.20200 43.73500
H  56.09000 19.43500 43.98500
H  60.37300 22.38500 43.48400
H  60.80300 20.86000 44.21500
H  60.16100 22.15400 45.19200
H  59.98100 26.83200 44.32500
H  59.09300 27.99500 46.94000
H  60.86200 26.76900 47.22200
H  61.46500 25.70700 45.90200
H  60.01800 25.34400 46.88700
H  60.73000 29.05400 45.14600
H  59.69200 30.10200 46.11000
H  59.99600 30.22100 43.48300
H  58.55700 30.94800 44.41100
H  58.35200 29.42300 43.61000
H  53.68000 31.29700 46.93700
H  53.96600 31.99200 45.32400
H  55.32000 31.50200 46.34100
H  50.39800 28.03500 44.19600
H  50.15400 29.84600 40.15200
H  48.42400 29.38200 40.61200
H  49.45300 28.33600 39.77400
Mg 47.78700 15.63000 27.62800
C  46.08500 15.79400 30.67200
C  50.17900 17.64300 28.89700
C  49.12300 15.79300 24.54400
C  44.92900 14.02300 26.33900
N  48.11800 16.57500 29.61800
C  47.33500 16.46600 30.71300
C  47.99500 17.06300 31.88600
C  49.26600 17.80700 31.30100
C  49.12600 17.39500 29.79600
C  49.33200 19.31200 31.63100
C  48.38600 15.98800 33.01800
C  47.94700 16.38800 34.45800
H  47.76600 17.86200 34.88600
N  49.47100 16.54600 26.81500
C  50.36900 17.32100 27.53700
C  51.48300 17.84000 26.66000
C  51.19600 17.23000 25.39800
C  49.91600 16.52300 25.50900
C  52.62700 18.62000 27.13700
C  52.03000 17.19200 24.14200
O  51.74400 16.56000 23.10800
C  53.31000 17.89900 24.10200
N  47.23300 14.86000 25.74100
C  47.93200 15.12400 24.62400
C  47.14600 14.70100 23.37800
C  45.82900 14.11700 23.98700
C  45.99100 14.37300 25.45800
C  46.99000 15.91200 22.39400
C  45.46300 12.64000 23.60500
C  46.17100 11.59100 24.40700
N  45.86800 14.92100 28.42000
C  44.84200 14.30300 27.69000
C  43.71200 14.00100 28.63600
C  44.17800 14.52300 29.87700
C  45.50400 15.10000 29.68000
C  42.48700 13.22900 28.30900
C  43.91600 14.79300 31.32100
O  42.92500 14.52700 31.99000
C  45.13900 15.46900 31.89300
C  44.65100 16.74100 32.58000
O  44.58600 17.90600 32.25600
O  44.15700 16.30200 33.77300
C  43.40000 17.21800 34.63500
H  50.95500 18.26500 29.34800
H  49.49500 16.03500 23.54600
H  43.99900 13.65100 25.90500
H  47.33700 17.81200 32.32600
H  50.18300 17.27000 31.54100
H  49.23600 19.86500 30.69600
H  50.28700 19.67000 32.01700
H  48.47300 19.67600 32.19400
H  49.47100 15.93000 32.93500
H  48.05500 14.97800 32.77700
H  48.72800 15.93000 35.06500
H  47.09600 15.76800 34.73800
H  52.89100 19.56400 26.66000
H  53.50700 17.98000 27.08100
H  52.42700 18.92500 28.16400
H  53.06900 18.94000 24.31400
H  53.87700 17.73100 23.18700
H  53.92700 17.49000 24.90200
H  47.73100 13.84800 23.03300
H  45.02300 14.79900 23.71800
H  47.57200 15.65200 21.51000
H  47.51100 16.76100 22.83600
H  45.96400 16.04900 22.05400
H  45.78300 12.64900 22.56300
H  44.38700 12.47600 23.54900
H  46.73100 11.96900 25.26200
H  46.65500 10.95900 23.66300
H  45.44700 10.89600 24.83200
H  42.16700 13.36200 27.27600
H  41.60000 13.52200 28.87000
H  42.47500 12.15600 28.50400
H  45.63600 14.87900 32.66200
H  42.66100 17.82100 34.10800
H  44.11000 17.78700 35.23500
H  42.77100 16.58200 35.25700

