158

Mg 24.16800 -5.69900 46.32500
C  26.14400 -3.30500 44.60700
C  21.62600 -4.90100 43.99800
C  22.56800 -8.52000 47.23800
C  26.94900 -6.75100 47.94600
N  23.93900 -4.27700 44.44200
C  24.87400 -3.42000 43.99200
C  24.32200 -2.58900 42.87200
C  22.80700 -2.76100 43.06600
C  22.75200 -4.09100 43.81000
C  22.04600 -1.71300 43.90900
C  24.86900 -2.99600 41.45300
C  25.32300 -1.69100 40.68300
H  24.72100 -1.46600 39.20400
N  22.32200 -6.45100 45.86300
C  21.45700 -6.05600 44.86200
C  20.31100 -6.92900 44.87700
C  20.45800 -7.85800 45.89700
C  21.84000 -7.63600 46.44800
C  19.05100 -6.65300 43.93700
C  19.40700 -8.91300 46.29600
O  18.32600 -8.89600 45.72900
C  19.53000 -10.08500 47.28700
N  24.73500 -7.47600 47.33600
C  23.85100 -8.45700 47.70600
C  24.57400 -9.57200 48.65300
C  25.85300 -8.67500 49.11900
C  25.88600 -7.59400 48.05300
C  23.63600 -10.24900 49.76300
C  27.10400 -9.55300 49.29500
C  27.88400 -9.18900 50.57700
N  26.08400 -5.15800 46.37600
C  27.10500 -5.64100 47.08200
C  28.36100 -4.88900 46.89100
C  27.99500 -4.05200 45.93400
C  26.61900 -4.20700 45.60600
C  29.69600 -5.04200 47.52500
C  28.50300 -2.89900 45.15000
O  29.59400 -2.40700 45.07800
C  27.27800 -2.43900 44.25300
C  27.21300 -0.93000 44.38100
O  26.48300 -0.33700 45.15000
O  28.03700 -0.32000 43.47500
C  28.13600 1.13300 43.43100
H  20.89500 -4.52900 43.27700
H  21.95900 -9.38200 47.51800
H  27.72900 -6.99300 48.67000
H  24.50400 -1.55500 43.16400
H  22.34600 -2.84600 42.08200
H  21.57100 -2.15600 44.78500
H  21.23100 -1.32800 43.29700
H  22.66100 -0.83000 44.08400
H  24.24600 -3.54300 40.74500
H  25.79100 -3.55200 41.62200
H  26.41300 -1.66200 40.70500
H  25.07800 -0.82400 41.29700
H  18.91700 -7.53500 43.31100
H  19.16100 -5.72500 43.37500
H  18.18600 -6.33400 44.51900
H  20.01700 -9.65700 48.16300
H  20.13700 -10.90000 46.89500
H  18.54400 -10.46600 47.55400
H  24.94900 -10.44000 48.11100
H  25.56700 -8.16400 50.03800
H  22.64400 -9.79700 49.73700
H  23.94200 -10.03200 50.78600
H  23.61800 -11.33200 49.64000
H  27.74400 -9.37700 48.43100
H  26.73500 -10.57800 49.33900
H  28.90200 -8.84600 50.39200
H  27.92800 -10.12700 51.13100
H  27.31000 -8.45900 51.14800
H  30.47400 -4.85700 46.78500
H  29.66700 -6.05400 47.92900
H  29.97900 -4.34400 48.31200
H  27.55800 -2.62400 43.21600
H  27.47900 1.64800 44.13100
H  27.94000 1.45500 42.40800
H  29.15200 1.44600 43.66900
Mg 47.47400 25.30300 28.19900
C  48.64700 27.69700 30.59400
C  46.24600 23.45700 30.79000
C  47.21800 22.77300 26.06500
C  49.57400 26.96500 25.87200
N  47.55000 25.52800 30.40800
C  47.75300 26.71500 31.13000
C  47.33700 26.61900 32.64400
C  46.83600 25.08900 32.74500
C  46.90400 24.65100 31.23200
C  47.76600 24.06400 33.51700
C  46.41300 27.68600 33.28300
C  46.78700 28.09600 34.73900
H  45.81400 28.45500 35.79200
N  46.70000 23.39900 28.38700
C  46.20900 22.80500 29.49900
C  45.64400 21.50300 29.22900
C  45.83800 21.28300 27.80000
C  46.59700 22.48100 27.31900
C  45.14600 20.49600 30.26600
C  45.43100 20.02700 26.93300
O  45.55300 19.96800 25.68000
C  44.61500 19.02900 27.62300
N  48.17900 24.93500 26.26700
C  47.88100 23.88300 25.54200
C  48.41100 23.96400 24.15100
C  48.86200 25.42200 24.00000
C  48.81000 25.79500 25.46500
C  49.49100 22.86900 23.81900
C  48.03000 26.40500 23.10400
C  48.54900 26.44500 21.70500
N  48.83000 27.09300 28.10800
C  49.51600 27.63200 27.10800
C  50.32600 28.76600 27.62500
C  49.99400 28.86600 29.00400
C  49.06900 27.80100 29.25000
C  51.33700 29.58700 26.75300
C  50.21100 29.54900 30.23700
O  50.74800 30.62600 30.42300
C  49.29800 28.87000 31.30800
C  50.18900 28.39100 32.44700
O  50.95700 27.41500 32.43800
O  49.98400 29.20600 33.52900
C  50.71800 28.85000 34.74500
H  45.52300 22.99300 31.46400
H  47.06700 21.92500 25.39400
H  49.98500 27.55100 25.04700
H  48.25100 26.64900 33.23700
H  45.80100 24.99800 33.07500
H  48.50000 24.60000 34.11900
H  48.26900 23.33500 32.88300
H  47.12200 23.57300 34.24700
H  45.38900 27.31300 33.31700
H  46.30400 28.59100 32.68600
H  47.58300 28.84000 34.69700
H  47.22800 27.23500 35.24000
H  44.22700 19.97600 29.99700
H  45.06100 20.92700 31.26300
H  45.86800 19.68100 30.22400
H  45.22700 18.78100 28.49000
H  44.45300 18.14900 27.00200
H  43.69100 19.58900 27.77100
H  47.52300 23.66300 23.59600
H  49.92100 25.38200 23.74100
H  50.41400 23.35700 23.50600
H  49.09200 22.14600 23.10800
H  49.68000 22.27200 24.71100
H  47.86800 27.37900 23.56600
H  47.04000 25.95100 23.14300
H  48.71000 27.51900 21.61100
H  47.74800 26.08300 21.06100
H  49.47700 25.92400 21.47300
H  50.81700 30.23100 26.04300
H  52.06300 28.88000 26.35100
H  51.86700 30.21100 27.47300
H  48.58900 29.59200 31.71300
H  51.72700 28.48200 34.55800
H  50.19900 28.13500 35.38300
H  50.78900 29.75800 35.34400

