158

Mg 34.72000 2.79300 29.25000
C  32.46300 3.60700 31.83100
C  37.23600 2.80300 31.66400
C  36.94800 2.40200 26.74200
C  32.04000 3.08300 26.91800
N  34.84400 3.15100 31.48300
C  33.78900 3.50000 32.29500
C  34.16500 3.43200 33.77700
C  35.70400 3.47000 33.68100
C  35.97400 3.10900 32.18700
C  36.33800 4.78300 34.09200
C  33.47100 2.28700 34.62800
C  32.69000 2.69400 35.83200
H  33.34100 3.75000 36.73600
N  36.82500 2.66600 29.21100
C  37.65300 2.60000 30.31900
C  39.08700 2.34100 29.81700
C  38.97700 2.19800 28.38300
C  37.52500 2.44700 28.05300
C  40.32100 2.29700 30.80200
C  40.06500 1.77700 27.36000
O  39.94000 1.82100 26.15700
C  41.44000 1.28000 27.77200
N  34.57000 2.76600 27.16500
C  35.59600 2.52200 26.32900
C  35.17300 2.46700 24.82200
C  33.62600 2.41800 24.99100
C  33.31300 2.84800 26.43400
C  35.67700 3.65500 24.07400
C  32.99000 1.02200 24.73800
C  31.59000 1.10100 24.09000
N  32.67500 3.06600 29.36000
C  31.70800 3.31500 28.29900
C  30.50400 3.61300 28.96200
C  30.79600 3.78500 30.28100
C  32.12700 3.41900 30.52400
C  29.29000 4.01500 28.29800
C  30.15400 4.20100 31.51800
O  29.03800 4.69800 31.70100
C  31.17800 4.09600 32.62100
C  31.30100 5.40100 33.28400
O  32.03100 6.34000 32.93000
O  30.47700 5.49000 34.35200
C  30.50800 6.79400 35.01700
H  37.95900 2.63800 32.46600
H  37.73200 2.33200 25.98500
H  31.17100 3.12100 26.25800
H  33.82400 4.42100 34.08300
H  36.06700 2.58100 34.19700
H  37.20500 4.62600 34.73300
H  35.53400 5.32800 34.58700
H  36.59100 5.29200 33.16200
H  34.11400 1.44200 34.87400
H  32.74100 1.81000 33.97400
H  32.34200 1.81900 36.38200
H  31.70000 3.01400 35.50700
H  40.00600 2.99900 31.57300
H  41.22000 2.78200 30.42100
H  40.52800 1.32700 31.25400
H  41.32900 0.61100 28.62600
H  42.10100 2.08700 28.08800
H  41.87200 0.74700 26.92500
H  35.40700 1.51000 24.35600
H  33.16000 3.18800 24.37600
H  34.94100 4.45700 24.14100
H  35.86200 3.42000 23.02600
H  36.58800 3.98200 24.57500
H  32.86400 0.60700 25.73800
H  33.68200 0.41100 24.15900
H  31.53800 0.72500 23.06800
H  31.16400 2.10400 24.12200
H  30.94400 0.35300 24.55200
H  29.42700 4.44000 27.30300
H  28.68600 4.69800 28.89500
H  28.71100 3.10500 28.14100
H  30.83000 3.33000 33.31300
H  29.56300 6.86200 35.55700
H  30.81400 7.62800 34.38500
H  31.33600 6.70700 35.72000
Mg 29.98600 58.31500 41.03100
C  27.23800 56.67600 39.89400
C  31.94700 55.73700 39.69800
C  32.66400 60.32700 41.16900
C  27.93600 61.31800 41.66000
N  29.61900 56.50600 39.72800
C  28.39800 55.92500 39.61000
C  28.43700 54.52300 39.15600
C  29.97700 54.20400 39.18300
C  30.57300 55.55800 39.51300
C  30.32500 53.07400 40.24200
C  27.71100 54.26800 37.82600
C  27.08500 55.34000 36.86300
H  27.33200 55.18000 35.40600
N  32.02300 58.03700 40.63100
C  32.59600 56.90300 40.09000
C  34.02800 57.19800 39.90800
C  34.28200 58.51500 40.33800
C  32.94300 59.03300 40.74100
C  34.98600 56.33100 39.15800
C  35.61200 59.19500 40.24600
O  36.65400 58.58600 39.84900
C  35.81100 60.63800 40.54300
N  30.20400 60.56100 41.34000
C  31.48500 60.99000 41.51400
C  31.49100 62.48100 41.93800
C  30.02300 62.76100 42.24100
C  29.29100 61.49400 41.67000
C  32.46000 62.92000 43.03500
C  29.34600 64.08600 41.63200
C  28.59700 65.04400 42.61300
N  27.99600 58.94500 40.97100
C  27.26500 60.15300 41.18800
C  25.83300 59.81500 41.20100
C  25.81200 58.48700 40.63800
C  27.16100 57.98500 40.49300
C  24.62600 60.78300 41.36800
C  24.92000 57.40100 40.29300
O  23.72000 57.38100 40.34000
C  25.78900 56.23700 39.77100
C  25.46400 54.92800 40.51900
O  25.87900 54.51400 41.62700
O  24.69700 54.22200 39.67800
C  24.09700 53.08500 40.31200
H  32.51200 54.81800 39.52700
H  33.39000 61.13900 41.25300
H  27.30300 62.07800 42.12300
H  27.93400 53.93800 39.92600
H  30.41600 53.94400 38.22000
H  29.53600 52.93800 40.98100
H  31.25000 53.20300 40.80300
H  30.38600 52.05800 39.85300
H  26.85500 53.67400 38.14500
H  28.34200 53.55700 37.29300
H  27.39800 56.35300 37.11600
H  26.04300 55.10900 37.08400
H  35.21700 56.69300 38.15600
H  34.58100 55.32400 39.05600
H  35.88100 56.20400 39.76800
H  35.07500 61.25600 40.02900
H  36.71400 60.99400 40.04700
H  35.82300 60.93600 41.59100
H  31.81700 62.97000 41.02000
H  29.73000 62.77700 43.29100
H  31.93000 63.39300 43.86300
H  33.08100 63.66300 42.53400
H  32.97500 62.03000 43.39600
H  28.64100 63.75400 40.87000
H  30.20000 64.63300 41.23100
H  27.92300 64.58000 43.33200
H  28.11600 65.67100 41.86100
H  29.30600 65.63700 43.19100
H  23.69900 60.21100 41.41900
H  24.45100 61.58900 40.65500
H  24.71400 61.25400 42.34700
H  25.37400 56.13900 38.76800
H  23.62300 53.30100 41.26900
H  24.75600 52.22000 40.39000
H  23.25200 52.73800 39.71700

