158

Mg 46.76400 24.64900 28.94200
C  47.47500 26.87600 31.37800
C  45.87100 22.36900 31.41900
C  46.72200 22.21100 26.63600
C  48.43900 26.73600 26.63900
N  46.87400 24.62400 31.19300
C  47.07300 25.72400 31.94800
C  46.56300 25.51200 33.44400
C  46.41900 23.88500 33.48900
C  46.37000 23.59400 31.94100
C  47.58100 23.10400 34.19600
C  45.22100 26.18600 33.69600
C  44.91100 26.85900 34.98400
H  45.66700 26.50600 36.22700
N  46.27200 22.67500 29.03300
C  45.78600 21.91300 30.10400
C  45.30700 20.60400 29.67800
C  45.52700 20.52400 28.23200
C  46.20300 21.84900 27.90000
C  44.61800 19.60900 30.63500
C  45.23000 19.42200 27.24100
O  45.35300 19.45900 26.02100
C  44.67600 18.18400 27.75400
N  47.64100 24.51300 26.93800
C  47.39800 23.31800 26.20100
C  47.77900 23.50400 24.70200
C  48.26600 24.98500 24.67200
C  48.07500 25.46900 26.15600
C  48.79700 22.40400 24.18600
C  47.75800 25.85300 23.52000
C  46.70100 27.00500 23.80500
N  47.64400 26.51700 28.94400
C  48.29600 27.21500 27.91800
C  48.63400 28.48600 28.41300
C  48.36400 28.40400 29.75300
C  47.74000 27.16400 30.03100
C  49.28600 29.51800 27.60300
C  48.45900 29.09900 30.99000
O  48.78900 30.27200 31.20600
C  47.87400 28.14600 32.13400
C  48.97700 27.87800 33.15500
O  50.00400 27.25400 32.90600
O  48.68200 28.56400 34.30700
C  49.66900 28.35000 35.39600
H  45.50300 21.63000 32.13300
H  46.50900 21.54300 25.79900
H  48.80500 27.32400 25.79500
H  47.38300 25.75900 34.11900
H  45.53900 23.45800 33.97000
H  47.79700 22.13100 33.75400
H  47.29100 22.90100 35.22600
H  48.44900 23.76300 34.23000
H  44.41800 25.48900 33.45500
H  45.06200 27.05000 33.05200
H  43.92200 26.52800 35.30000
H  44.91200 27.93900 34.83700
H  44.20700 20.12400 31.50400
H  45.32600 18.87100 31.01100
H  43.82000 18.98400 30.23400
H  45.23000 17.94500 28.66200
H  44.47900 17.37400 27.05200
H  43.69400 18.50500 28.10200
H  46.87900 23.50900 24.08800
H  49.33800 24.89700 24.49300
H  48.46400 21.77400 23.36100
H  48.98000 21.70000 24.99700
H  49.72300 22.85600 23.83200
H  47.26800 25.22600 22.77500
H  48.64400 26.33300 23.10500
H  47.07800 27.97600 23.48600
H  46.39100 27.01900 24.84900
H  45.79300 26.85400 23.22100
H  48.84600 29.54000 26.60500
H  50.33000 29.22700 27.48800
H  49.12700 30.50400 28.04100
H  46.99800 28.53900 32.65000
H  50.48200 29.07300 35.33500
H  49.99800 27.31800 35.51600
H  49.16000 28.62400 36.32000
Mg 6.94500 54.32600 41.50600
C  6.93000 50.73200 41.15300
C  10.23800 54.33900 40.75100
C  6.73500 57.71200 41.42800
C  3.52600 54.12800 42.00800
N  8.33800 52.74800 40.91000
C  8.13700 51.34600 40.81800
C  9.44200 50.56400 40.46300
C  10.50900 51.71000 40.72200
C  9.69400 53.04700 40.80300
C  11.40000 51.58300 41.99900
C  9.50200 50.03400 39.01500
C  9.20500 50.99500 37.84400
H  7.94000 50.77600 36.97400
N  8.31300 55.80500 41.18700
C  9.63400 55.63300 40.85600
C  10.35500 56.95800 40.65300
C  9.30400 57.94900 40.95600
C  8.00200 57.18000 41.18000
C  11.81500 57.14300 40.32100
C  9.48900 59.47600 41.01400
O  10.61100 59.96100 40.70100
C  8.39200 60.55500 41.45200
N  5.26600 55.74400 41.59000
C  5.47500 57.13700 41.67400
C  4.23100 57.83200 42.10100
C  3.17100 56.68300 42.09200
C  4.02200 55.42100 41.85500
C  4.31300 58.52000 43.48400
C  1.95900 56.83600 41.10300
C  0.62200 57.36400 41.73400
N  5.51400 52.82600 41.60100
C  4.21500 52.88000 41.98700
C  3.65600 51.57500 42.14200
C  4.72400 50.72800 41.80900
C  5.79800 51.48400 41.49300
C  2.33700 51.22200 42.59100
C  5.06200 49.35900 41.93000
O  4.45800 48.40400 42.38600
C  6.53600 49.25600 41.44700
C  6.61700 48.39300 40.27000
O  6.35500 48.70600 39.10500
O  6.91400 47.11700 40.71600
C  6.97700 46.16700 39.57500
H  11.32600 54.31600 40.66600
H  6.52900 58.76800 41.61600
H  2.54100 54.09500 42.47800
H  9.74300 49.76300 41.13800
H  11.19300 51.68000 39.87400
H  11.06100 50.81700 42.69600
H  11.23800 52.48400 42.59000
H  12.45600 51.51400 41.73600
H  8.86400 49.15100 39.00500
H  10.46300 49.58200 38.76900
H  10.00800 50.93300 37.11000
H  9.11100 51.96200 38.33900
H  11.97200 58.04500 39.72900
H  12.16900 56.30000 39.72700
H  12.54800 57.18300 41.12700
H  8.67000 61.60300 41.33900
H  8.01800 60.32600 42.45000
H  7.54100 60.52100 40.77100
H  3.96700 58.53600 41.31200
H  2.79000 56.57700 43.10700
H  4.30400 59.60900 43.50700
H  5.21100 58.21600 44.02200
H  3.38300 58.25100 43.98600
H  1.78200 55.90400 40.56800
H  2.23500 57.43600 40.23600
H  0.58500 57.60400 42.79600
H  -0.19800 56.66200 41.57900
H  0.18800 58.29600 41.37100
H  1.87300 50.79800 41.70000
H  1.66300 52.02000 42.90300
H  2.25700 50.46100 43.36700
H  7.11700 48.79300 42.24500
H  7.07600 45.13300 39.90300
H  7.78700 46.45500 38.90500
H  6.06900 46.22600 38.97400

