158

Mg 9.01400 47.03700 25.78300
C  7.14200 47.02500 28.64200
C  11.62800 48.39200 27.43400
C  10.78100 47.28500 22.82600
C  6.14000 46.40200 23.86300
N  9.37600 47.53600 27.93100
C  8.46600 47.41500 28.87700
C  9.04600 47.92100 30.11600
C  10.27800 48.78500 29.67200
C  10.48900 48.16900 28.27300
C  9.98200 50.31300 29.54400
C  9.31300 46.70100 31.06900
C  8.82000 46.96700 32.52200
H  9.03500 45.93400 33.55400
N  10.94400 47.43400 25.29900
C  11.91100 47.94600 26.17900
C  13.18500 48.08100 25.41100
C  12.92100 47.70700 24.08700
C  11.49800 47.47700 23.98500
C  14.45800 48.61100 26.10500
C  13.89600 47.68200 22.92100
O  13.60300 47.51800 21.70800
C  15.37700 47.74500 23.26100
N  8.47700 47.03700 23.55700
C  9.40900 47.07400 22.58300
C  8.80500 46.76600 21.24100
C  7.24100 46.67900 21.55400
C  7.26100 46.65000 23.10500
C  9.29000 47.86500 20.20700
C  6.63300 45.43700 20.93000
C  5.30300 45.76600 20.26700
N  7.09000 46.71700 26.14000
C  6.01300 46.45800 25.29600
C  4.80700 46.31600 26.01600
C  5.21500 46.51900 27.36400
C  6.56900 46.74900 27.39000
C  3.43700 45.94600 25.49800
C  4.75000 46.55900 28.71100
O  3.64100 46.34900 29.23900
C  6.00100 46.84000 29.63800
C  6.23100 45.69200 30.52000
O  6.89700 44.67400 30.26800
O  5.53000 45.93900 31.62400
C  5.60900 44.82500 32.61900
H  12.31100 48.91200 28.10900
H  11.37000 47.16800 21.91400
H  5.24100 46.21200 23.27300
H  8.29500 48.56800 30.56800
H  11.19300 48.61400 30.23900
H  9.69200 50.53200 28.51600
H  10.85200 50.95600 29.66800
H  9.18700 50.55700 30.24900
H  10.37600 46.58200 31.28000
H  8.85300 45.79200 30.68100
H  7.75700 47.20700 32.53800
H  9.17000 47.89800 32.96900
H  15.21800 47.83100 26.08900
H  14.24800 48.88400 27.14000
H  14.69000 49.57400 25.65100
H  15.56000 48.75700 23.62400
H  15.92600 47.47500 22.35900
H  15.64700 47.08000 24.08200
H  9.38700 45.86100 21.06300
H  6.71800 47.59900 21.29500
H  8.58000 48.09100 19.41200
H  10.26700 47.53100 19.85800
H  9.48500 48.73400 20.83600
H  6.59300 44.63800 21.67000
H  7.36300 45.06500 20.21100
H  5.46300 46.30400 19.33300
H  4.65700 46.25700 20.99500
H  4.89200 44.80300 19.96600
H  3.45700 45.41800 24.54500
H  2.67700 46.72600 25.51200
H  3.01600 45.27100 26.24400
H  5.85000 47.75700 30.20800
H  5.94600 45.19400 33.58700
H  6.35900 44.07100 32.37900
H  4.71200 44.21100 32.54400
Mg -5.43500 24.49100 27.39300
C  -3.68300 26.14900 30.05700
C  -6.31500 22.19800 29.68900
C  -6.33800 22.49400 24.86500
C  -3.86200 26.63400 25.24600
N  -5.00800 24.25300 29.68200
C  -4.42000 25.06200 30.51000
C  -4.59700 24.63200 31.93100
C  -5.34100 23.28900 31.76900
C  -5.60600 23.24000 30.27700
C  -4.56200 22.01900 32.15800
C  -5.39800 25.70000 32.74900
C  -4.95800 25.93700 34.17600
H  -5.59100 25.00700 35.18500
N  -6.39700 22.64800 27.28000
C  -6.73300 21.88400 28.37000
C  -7.44200 20.74200 27.86600
C  -7.42800 20.81100 26.47700
C  -6.59900 21.94400 26.11000
C  -7.88300 19.63400 28.68900
C  -8.03100 19.86200 25.41900
O  -7.66000 19.81300 24.24800
C  -9.06900 18.73300 25.95100
N  -5.15500 24.58300 25.30400
C  -5.64700 23.67400 24.43100
C  -5.49400 24.13000 22.98400
C  -4.64800 25.43600 23.15500
C  -4.57600 25.62900 24.61100
C  -4.91500 22.99300 22.06500
C  -5.10200 26.74100 22.43100
C  -3.93100 27.43100 21.58900
N  -4.20100 26.07600 27.58300
C  -3.62300 26.89000 26.59500
C  -2.80600 27.93600 27.21100
C  -2.75700 27.67000 28.53900
C  -3.66000 26.58600 28.73600
C  -2.19200 29.03700 26.38400
C  -2.23300 28.13200 29.79000
O  -1.40600 28.98600 30.07400
C  -2.90300 27.16700 30.84200
C  -1.73400 26.44700 31.46200
O  -1.15500 25.40000 31.03700
O  -1.41500 26.97400 32.72000
C  -0.44300 26.21000 33.51800
H  -6.64200 21.47800 30.44200
H  -6.90800 22.14200 24.00200
H  -3.43500 27.34800 24.53900
H  -3.62200 24.42200 32.37100
H  -6.32000 23.18200 32.23800
H  -3.77200 22.24700 32.87400
H  -4.01200 21.65400 31.29100
H  -5.13600 21.22100 32.63000
H  -6.45300 25.44000 32.65800
H  -5.31300 26.60400 32.14600
H  -5.12200 26.98200 34.44200
H  -3.89600 25.69500 34.15700
H  -8.91600 19.35600 28.47600
H  -7.72800 19.91700 29.73000
H  -7.37400 18.69800 28.45700
H  -8.41100 17.97100 26.36800
H  -9.33100 18.21900 25.02600
H  -9.97000 19.11800 26.42700
H  -6.42700 24.29800 22.44600
H  -3.62500 25.20500 22.85700
H  -4.19600 22.48600 22.70800
H  -4.48800 23.19700 21.08300
H  -5.70100 22.26200 21.87700
H  -5.48500 27.48900 23.12600
H  -5.91900 26.60600 21.72200
H  -3.59300 28.31300 22.13200
H  -4.40500 27.73100 20.65500
H  -3.10900 26.79900 21.25100
H  -2.94900 29.63800 25.88100
H  -1.59900 28.62800 25.56500
H  -1.61300 29.76100 26.95700
H  -3.41800 27.79200 31.57100
H  0.56900 26.56500 33.32100
H  -0.39600 25.13700 33.33500
H  -0.72900 26.34600 34.56100

