158

Mg 29.41100 59.43000 41.77500
C  26.28300 58.08300 40.76600
C  30.95900 56.52600 40.45000
C  32.46400 60.82400 42.08900
C  27.79800 62.23100 42.79800
N  28.67600 57.60700 40.59100
C  27.40600 57.27200 40.37500
C  27.41500 55.99800 39.61900
C  28.82800 55.41300 39.75300
C  29.53800 56.52300 40.45100
C  28.98400 54.00600 40.26500
C  26.81300 56.07800 38.13500
C  26.11300 54.83300 37.70400
H  26.64600 54.26200 36.38300
N  31.44200 58.79600 41.23100
C  31.92800 57.51400 40.78600
C  33.27000 57.45400 40.63500
C  33.70000 58.77300 40.96600
C  32.52800 59.53600 41.48100
C  33.97300 56.22500 40.08100
C  35.07500 59.22100 40.87600
O  35.95200 58.41200 40.56700
C  35.56400 60.63200 41.14000
N  30.06700 61.29600 42.30100
C  31.38000 61.64300 42.44400
C  31.52700 63.08300 42.95000
C  29.98900 63.54000 43.10900
C  29.22200 62.32400 42.62500
C  32.29800 63.27600 44.29900
C  29.63000 64.85300 42.25400
C  29.10000 65.95700 43.20200
N  27.44000 59.99100 41.91200
C  26.93100 61.20900 42.41100
C  25.45300 61.03300 42.51900
C  25.19600 59.84800 41.82800
C  26.43400 59.30900 41.39900
C  24.54400 62.13100 42.90100
C  24.09800 58.97800 41.31300
O  22.89300 59.00100 41.42200
C  24.83100 57.78400 40.62200
C  24.38300 56.49200 41.17900
O  24.34300 56.26300 42.34900
O  24.00800 55.62300 40.20900
C  23.48400 54.42200 40.89600
H  31.47100 55.64400 40.05900
H  33.40000 61.28800 42.40500
H  27.43200 63.18700 43.17800
H  26.74800 55.40500 40.24500
H  29.24200 55.58800 38.76000
H  29.75800 54.14200 41.02000
H  29.31400 53.43700 39.39600
H  28.01200 53.62600 40.58100
H  27.63300 56.18500 37.42500
H  26.16900 56.93900 37.95400
H  25.06400 55.02100 37.47700
H  26.12100 54.05800 38.47000
H  34.03300 56.34400 39.00000
H  33.61300 55.21400 40.27500
H  34.92800 56.04800 40.57700
H  34.72200 61.28600 40.91600
H  36.44600 60.83100 40.53100
H  35.75300 60.59900 42.21400
H  32.10800 63.55500 42.15700
H  29.89800 63.72300 44.18000
H  31.95700 64.07900 44.95200
H  33.29500 63.44200 43.88900
H  32.27500 62.32800 44.83700
H  28.86100 64.60600 41.52200
H  30.49600 65.15100 41.66300
H  29.51900 66.94500 43.01400
H  29.15600 65.59200 44.22800
H  28.02200 66.07800 43.10000
H  23.62700 61.64500 43.23300
H  24.43100 62.72800 41.99600
H  24.85600 62.70000 43.77700
H  24.54200 57.75500 39.57200
H  24.36500 53.87600 41.23100
H  22.93100 53.80500 40.18800
H  22.75000 54.62200 41.67700
Mg 25.77600 51.21200 27.02300
C  23.67200 51.89400 29.84400
C  28.05000 49.89600 29.13800
C  27.86300 51.00200 24.39500
C  23.45500 52.68800 24.96100
N  25.78700 50.88300 29.25100
C  24.82700 51.24300 30.21500
C  25.21000 50.81000 31.60500
C  26.71800 50.34000 31.37900
C  26.86000 50.34000 29.81700
C  27.83000 51.11100 32.13000
C  24.31200 49.68400 32.23700
C  23.95600 49.63200 33.73600
H  24.88300 50.30400 34.83700
N  27.63700 50.48400 26.75900
C  28.40400 49.93700 27.75500
C  29.65600 49.42900 27.12600
C  29.57600 49.64100 25.70200
C  28.27600 50.32200 25.53700
C  30.75900 48.78200 27.99400
C  30.56800 49.28800 24.64500
O  30.41700 49.41100 23.44300
C  31.78100 48.55100 25.05600
N  25.72300 51.87100 25.01300
C  26.71700 51.70400 24.14900
C  26.41100 52.25600 22.72200
C  24.93900 52.72600 22.84700
C  24.68500 52.41800 24.35200
C  27.31600 53.47900 22.34300
C  23.85900 51.97400 21.97200
C  23.90400 52.46900 20.50000
N  23.92200 52.08000 27.31900
C  23.06800 52.52200 26.33300
C  21.85600 52.85600 26.98400
C  22.08600 52.70100 28.41600
C  23.35300 52.13700 28.49300
C  20.63200 53.24300 26.30100
C  21.55700 52.85400 29.69200
O  20.45100 53.19000 30.14600
C  22.53200 52.38000 30.66100
C  22.85900 53.55000 31.51200
O  23.30400 54.64100 31.15000
O  22.49500 53.26800 32.79200
C  22.54300 54.36000 33.70800
H  28.92600 49.50700 29.66200
H  28.64000 50.91100 23.63400
H  22.57300 53.10300 24.46800
H  25.27700 51.76200 32.13200
H  26.77400 49.27000 31.57600
H  27.45500 51.83600 32.85300
H  28.53600 51.64500 31.49400
H  28.48900 50.42300 32.65900
H  24.62300 48.68100 31.94500
H  23.38200 49.75200 31.67200
H  23.70200 48.61000 34.01800
H  23.00600 50.16100 33.80800
H  30.59200 47.70500 28.00300
H  30.80400 49.22600 28.98800
H  31.73300 49.05300 27.58700
H  31.44900 47.63900 25.55100
H  32.48600 49.10900 25.67200
H  32.31200 48.22500 24.16100
H  26.47000 51.42600 22.01700
H  24.75600 53.79800 22.78100
H  27.94400 53.93600 23.10800
H  26.69100 54.09500 21.69700
H  28.06100 53.03500 21.68200
H  22.85600 52.11500 22.37400
H  24.07900 50.90600 21.96300
H  24.58000 53.32000 20.41500
H  22.95700 52.74000 20.03300
H  24.42900 51.73200 19.89200
H  19.84400 53.52900 26.99700
H  20.14500 52.44600 25.73900
H  20.79400 54.17300 25.75600
H  21.97900 51.58500 31.16200
H  21.67200 54.99900 33.56200
H  23.45600 54.94700 33.59900
H  22.40500 53.91100 34.69100

