158

Mg -1.52500 18.40200 26.82100
C  -1.87200 16.10300 29.61900
C  -1.94600 20.97300 29.10800
C  -1.19600 20.50800 24.29600
C  -0.92400 15.70100 24.81500
N  -1.90000 18.52400 29.22300
C  -2.02900 17.43900 30.09200
C  -2.25500 18.02200 31.45200
C  -2.58600 19.48400 31.16200
C  -2.08600 19.70900 29.75700
C  -4.09500 19.86100 31.32800
C  -1.13900 17.88900 32.61500
C  -1.76500 17.57100 33.95600
H  -0.94800 17.70300 35.19500
N  -1.45100 20.48200 26.69500
C  -1.65400 21.36600 27.79900
C  -1.73500 22.69700 27.27300
C  -1.41100 22.56200 25.87200
C  -1.31100 21.14700 25.57500
C  -2.12400 23.80000 28.27200
C  -1.12300 23.72400 24.84600
O  -0.70300 23.54800 23.70000
C  -1.27100 25.07800 25.38000
N  -1.09400 18.14700 24.78300
C  -1.04000 19.16900 23.91200
C  -0.73400 18.68300 22.54300
C  -0.53600 17.13600 22.68000
C  -0.89400 16.93500 24.19200
C  -1.82600 19.09200 21.57200
C  0.87000 16.66800 22.23400
C  2.05100 17.16400 23.07800
N  -1.56100 16.37500 27.04900
C  -1.24500 15.41300 26.12800
C  -1.42900 14.16100 26.73300
C  -1.62700 14.32200 28.06100
C  -1.68200 15.69900 28.24900
C  -1.33400 12.88500 25.96400
C  -1.83500 13.73100 29.35100
O  -1.91400 12.51300 29.62100
C  -2.11100 14.87100 30.35500
C  -1.17600 14.46800 31.46000
O  0.01800 14.68600 31.61300
O  -2.00800 13.84200 32.35700
C  -1.36900 13.48600 33.59500
H  -2.04800 21.81000 29.80200
H  -1.08800 21.21000 23.46700
H  -0.80900 14.92000 24.06100
H  -3.12400 17.43900 31.75600
H  -2.12000 20.21500 31.82400
H  -4.67800 18.94100 31.37400
H  -4.53300 20.49400 30.55600
H  -4.26700 20.48400 32.20500
H  -0.62900 18.84000 32.76800
H  -0.40700 17.11000 32.40200
H  -2.06900 16.52400 33.94000
H  -2.64600 18.17700 34.16900
H  -3.08900 23.58400 28.72900
H  -2.23400 24.76400 27.77600
H  -1.34400 23.95500 29.01800
H  -0.56300 25.31600 26.17400
H  -2.27600 25.25000 25.76600
H  -1.24700 25.77800 24.54500
H  0.24800 19.09800 22.31800
H  -1.37100 16.79200 22.07000
H  -2.01400 18.32900 20.81800
H  -1.56400 19.98200 20.99900
H  -2.79700 19.17500 22.06000
H  0.82500 17.23000 21.30100
H  0.94100 15.60000 22.03100
H  1.86900 17.61100 24.05600
H  2.60000 17.84700 22.43000
H  2.67900 16.31900 23.35800
H  -0.56600 13.00000 25.19900
H  -2.33400 12.82900 25.53400
H  -1.14800 12.12400 26.72300
H  -3.16700 14.80100 30.61400
H  -0.32100 13.18900 33.64100
H  -1.96300 12.70900 34.07600
H  -1.46000 14.26800 34.34900
Mg 40.78600 40.59700 26.71000
C  40.29000 43.13800 29.12200
C  41.99200 38.63000 28.99500
C  41.24400 38.40100 24.10900
C  40.06600 43.10400 24.28600
N  41.04200 40.89300 28.90800
C  40.80600 41.93800 29.68700
C  41.12700 41.62100 31.14500
C  41.51900 40.05400 31.13700
C  41.55000 39.81000 29.58200
C  42.81800 39.63200 31.92600
C  40.01400 42.04400 32.09200
C  39.62100 41.06200 33.27000
H  39.48400 41.56800 34.68900
N  41.46300 38.71900 26.58300
C  41.93100 38.05300 27.67800
C  42.28600 36.69900 27.24000
C  42.20700 36.67200 25.82200
C  41.65000 37.90900 25.45400
C  42.74600 35.58000 28.24000
C  42.59400 35.60700 24.80100
O  42.47800 35.71700 23.55800
C  43.29800 34.36500 25.33900
N  40.79300 40.83000 24.57000
C  40.87700 39.64700 23.73800
C  40.71700 40.03000 22.18900
C  39.86700 41.29900 22.43000
C  40.27300 41.82600 23.82400
C  42.11400 40.30500 21.50300
C  38.26200 41.03800 22.46700
C  37.70600 39.53600 22.64000
N  40.24900 42.63000 26.64000
C  40.08400 43.51500 25.59400
C  39.75800 44.78100 26.10900
C  39.74500 44.70400 27.51200
C  40.09600 43.33700 27.75500
C  39.48600 45.98600 25.35000
C  39.60500 45.44400 28.75800
O  39.22600 46.57600 28.97800
C  40.04000 44.41500 29.83900
C  41.24500 45.02100 30.46200
O  42.41700 44.87900 30.09400
O  40.94800 45.80000 31.60100
C  42.08600 46.28100 32.37900
H  42.33000 37.99300 29.81400
H  41.45400 37.68200 23.31400
H  39.83700 43.87300 23.54500
H  41.97400 42.25100 31.41600
H  40.72800 39.37500 31.45500
H  42.64600 38.88500 32.70000
H  43.39400 40.48400 32.28800
H  43.53600 39.27700 31.18700
H  39.09200 42.00200 31.51300
H  40.00100 43.07800 32.43700
H  40.43700 40.36900 33.47200
H  38.70900 40.50700 33.05100
H  42.15400 34.71500 27.94300
H  42.37800 35.89700 29.21500
H  43.82100 35.41700 28.32800
H  42.74300 33.72800 26.02800
H  44.22900 34.70300 25.79500
H  43.37200 33.65300 24.51700
H  40.26500 39.19900 21.64800
H  39.99500 42.15500 21.76800
H  42.98000 40.26800 22.16400
H  42.00000 41.28700 21.04300
H  42.34400 39.58900 20.71400
H  37.75200 41.54000 21.64500
H  37.95700 41.58600 23.35900
H  36.76100 39.51700 22.09900
H  37.34800 39.37900 23.65700
H  38.41300 38.76700 22.32900
H  40.24100 46.04200 24.56500
H  39.51100 46.90200 25.93900
H  38.48400 45.90000 24.92900
H  39.17400 44.35800 30.49900
H  42.00600 47.24900 32.87300
H  42.81700 46.61500 31.64300
H  42.47600 45.52700 33.06300

