158

Mg -1.09800 17.38600 26.95700
C  -1.92000 14.98500 29.46800
C  -1.93000 19.83100 29.14300
C  -0.76500 19.35600 24.41500
C  -0.69300 14.60900 24.82200
N  -2.05600 17.34500 29.03000
C  -2.02500 16.30900 29.89500
C  -2.23600 16.78300 31.30500
C  -2.48600 18.33000 31.11700
C  -2.08700 18.54500 29.72800
C  -3.87400 18.78000 31.34100
C  -1.19400 16.23600 32.31200
C  -1.23300 16.91400 33.63200
H  -0.67800 16.13600 34.81500
N  -1.31400 19.29400 26.80700
C  -1.58700 20.19400 27.82900
C  -1.51200 21.49300 27.37700
C  -1.10800 21.37000 25.95200
C  -1.07100 19.97800 25.61600
C  -1.71700 22.71300 28.14000
C  -0.83800 22.47500 24.90900
O  -0.55500 22.24600 23.68500
C  -0.85400 23.87800 25.43600
N  -0.96700 16.98100 24.86900
C  -0.62400 18.03600 24.11300
C  -0.40100 17.64600 22.63800
C  -0.16200 16.08400 22.74700
C  -0.53400 15.81300 24.20000
C  -1.60700 17.94800 21.77400
C  1.29700 15.60000 22.44100
C  2.43400 16.18700 23.36500
N  -1.35700 15.18100 27.05100
C  -1.07900 14.22300 26.15600
C  -1.55800 12.91200 26.59200
C  -1.79500 13.12400 27.96600
C  -1.72600 14.54500 28.13700
C  -1.50500 11.63600 25.83500
C  -2.26700 12.57400 29.21500
O  -2.72800 11.46200 29.49300
C  -2.20900 13.69100 30.24500
C  -0.95900 13.28800 31.09200
O  0.19600 13.59400 30.90400
O  -1.40900 12.50300 32.21900
C  -0.40800 11.95100 33.14700
H  -1.99400 20.62800 29.88700
H  -0.54400 19.98400 23.55000
H  -0.43800 13.71600 24.24700
H  -3.07900 16.19700 31.67200
H  -1.84300 18.83800 31.83500
H  -4.06300 19.56800 30.61200
H  -3.84300 19.11800 32.37600
H  -4.52300 17.90600 31.28100
H  -0.22200 16.37200 31.83700
H  -1.40300 15.20200 32.58400
H  -2.22700 17.29200 33.86900
H  -0.53000 17.71700 33.41600
H  -2.25300 22.59700 29.08200
H  -2.15100 23.54200 27.58300
H  -0.68200 22.97700 28.35700
H  -0.24100 24.08700 26.31300
H  -1.87400 24.20000 25.64500
H  -0.42300 24.49300 24.64600
H  0.46700 18.15100 22.21400
H  -0.82300 15.34900 22.28700
H  -2.33700 18.01300 22.58000
H  -1.71900 17.25000 20.94400
H  -1.54100 18.90700 21.26000
H  1.60100 15.86800 21.42900
H  1.41800 14.51800 22.49100
H  2.08500 17.01000 23.98900
H  3.27200 16.52100 22.75500
H  2.92000 15.49000 24.04700
H  -0.98000 11.87500 24.91000
H  -2.51900 11.37700 25.53100
H  -0.99200 10.85300 26.39400
H  -3.03700 13.70800 30.95400
H  -0.90300 11.77600 34.10200
H  0.39700 12.67600 33.27200
H  -0.10400 10.97700 32.76500
Mg 17.16900 52.85500 25.75200
C  18.95500 51.37100 28.52600
C  14.72400 53.70100 27.97800
C  15.37900 53.95600 23.17900
C  19.56800 51.51600 23.61000
N  16.85600 52.47500 27.95300
C  17.81400 52.10100 28.89500
C  17.30800 52.41600 30.29900
C  15.84800 52.89300 30.01200
C  15.75100 52.98000 28.54000
C  14.76800 51.94300 30.66600
C  18.19800 53.59500 31.02100
C  18.03600 53.87600 32.55800
H  17.12100 53.09300 33.42400
N  15.31900 53.80600 25.64800
C  14.44000 54.02500 26.67400
C  13.22400 54.66200 26.08200
C  13.39800 54.79100 24.68000
C  14.73800 54.13500 24.45000
C  12.00700 55.01900 26.84700
C  12.48100 55.34000 23.60500
O  12.81500 55.37200 22.41000
C  11.21600 55.92600 23.97200
N  17.37900 52.51000 23.67500
C  16.52000 53.23100 22.86100
C  17.02600 53.06100 21.41200
C  18.43700 52.27400 21.53700
C  18.42700 51.99000 22.98800
C  16.03100 52.30700 20.52000
C  19.63000 52.99300 20.92800
C  20.42700 52.36600 19.78100
N  18.91000 51.63800 25.91100
C  19.82500 51.32100 24.98900
C  20.98100 50.58600 25.59000
C  20.70600 50.64400 27.03300
C  19.40600 51.20600 27.13400
C  22.10200 50.03300 24.79800
C  21.09700 50.28200 28.41100
O  22.12000 49.73500 28.76500
C  20.03500 50.77000 29.35500
C  19.56100 49.51500 30.11700
O  19.25000 48.45200 29.52500
O  19.45300 49.74800 31.45900
C  18.83800 48.58600 32.20700
H  13.98500 54.08300 28.68600
H  14.73000 54.31000 22.37500
H  20.35600 51.22900 22.91000
H  17.42800 51.53400 30.92900
H  15.83100 53.81300 30.59600
H  15.16300 51.04400 31.13800
H  14.04500 51.76700 29.87000
H  14.27500 52.52700 31.44300
H  18.03600 54.53000 30.48300
H  19.25000 53.38400 30.83000
H  17.81700 54.93500 32.69600
H  18.98800 53.70200 33.05900
H  11.67200 56.02900 26.61100
H  12.27200 55.09200 27.90100
H  11.15200 54.34500 26.78300
H  11.42500 56.76700 24.63300
H  10.59500 55.16800 24.45100
H  10.78100 56.24600 23.02500
H  17.26800 54.09000 21.14400
H  18.38400 51.33100 20.99200
H  15.49900 52.92800 19.79900
H  15.27000 51.78200 21.09700
H  16.52000 51.61900 19.83000
H  20.35500 53.16200 21.72400
H  19.44500 54.02700 20.63600
H  20.49300 53.10200 18.97900
H  19.94200 51.45600 19.42900
H  21.42700 52.09900 20.12400
H  21.82200 50.02400 23.74500
H  22.18600 48.98100 25.07100
H  23.06500 50.54400 24.79800
H  20.51500 51.47400 30.03400
H  18.94300 48.88500 33.25000
H  19.34400 47.63800 32.02500
H  17.77100 48.47100 32.01600

