158

Mg 30.12800 57.67200 40.62100
C  27.42700 55.81900 39.31300
C  32.24900 55.69600 38.90700
C  32.64700 59.99900 40.89600
C  27.77600 60.24500 41.49800
N  29.82300 56.00300 39.25200
C  28.66600 55.33500 38.92500
C  28.84800 54.09200 37.96200
C  30.38200 53.85500 38.37300
C  30.91100 55.24100 38.86000
C  30.63900 52.64100 39.36300
C  28.51800 54.47400 36.46000
C  27.70400 53.36600 35.76000
H  26.52600 53.85000 34.84700
N  32.15300 57.74100 40.16600
C  32.83600 56.80600 39.43600
C  34.26300 57.15900 39.34300
C  34.44700 58.36900 40.07800
C  33.06500 58.77000 40.37100
C  35.40200 56.20100 38.66500
C  35.75600 59.02600 40.47800
O  36.82800 58.57600 40.12300
C  35.82100 60.16800 41.55500
N  30.19600 59.94800 40.86500
C  31.37900 60.61000 41.13000
C  31.20300 61.97000 41.88500
C  29.61000 62.08100 41.71500
C  29.08800 60.69800 41.35100
C  31.74400 62.08500 43.34000
C  29.22000 63.12800 40.63500
C  28.91100 64.54900 41.27000
N  28.07100 57.94200 40.65500
C  27.22900 59.05000 41.07900
C  25.86800 58.54300 41.07100
C  25.88600 57.30400 40.37000
C  27.23400 57.00300 40.07700
C  24.64400 59.30200 41.50300
C  25.02700 56.31800 39.73100
O  23.82300 56.17100 39.66900
C  26.08000 55.20700 39.09200
C  25.79700 53.82900 39.62200
O  26.30200 53.37000 40.63800
O  24.90100 53.15300 38.77200
C  24.56900 51.73600 39.19000
H  32.99400 55.03900 38.45300
H  33.47500 60.66900 41.13400
H  26.99600 60.94100 41.81300
H  28.28400 53.23300 38.32400
H  31.01300 53.70200 37.49800
H  30.98800 53.05800 40.30700
H  31.38700 52.05700 38.82700
H  29.72300 52.07200 39.52200
H  29.48700 54.49500 35.96000
H  28.11400 55.48600 36.43500
H  27.27600 52.69500 36.50500
H  28.26300 52.85200 34.97800
H  36.04300 55.63300 39.33900
H  36.10300 56.68700 37.98600
H  34.87300 55.47900 38.04400
H  35.51500 61.06400 41.01500
H  36.84800 60.34300 41.87600
H  35.19600 59.92500 42.41500
H  31.68500 62.75600 41.30400
H  29.26300 62.41200 42.69400
H  32.34700 61.18000 43.40900
H  30.95100 62.26500 44.06700
H  32.31600 63.01300 43.35100
H  28.26000 62.85000 40.20200
H  29.92400 63.13000 39.80200
H  27.87500 64.87500 41.17700
H  29.52400 65.29800 40.76900
H  29.12500 64.48400 42.33700
H  23.91500 58.63700 41.96700
H  24.27900 59.66800 40.54300
H  24.97500 60.08000 42.19100
H  25.82200 55.17500 38.03300
H  24.81100 51.11300 38.32900
H  23.50600 51.64000 39.41100
H  25.07800 51.48300 40.12100
Mg 16.52900 51.18000 25.92100
C  18.55000 49.63000 28.47000
C  14.20300 51.80400 28.14800
C  14.56500 52.39000 23.27100
C  18.78300 49.87500 23.56400
N  16.42300 50.63700 28.09100
C  17.37100 50.24900 28.94700
C  16.97600 50.53000 30.38600
C  15.46900 50.93800 30.27800
C  15.37900 51.18100 28.73900
C  14.37200 50.00800 30.82400
C  17.93100 51.59000 30.97100
C  17.71200 52.07000 32.42100
H  16.68900 51.32800 33.35000
N  14.70500 51.95800 25.72400
C  13.91300 52.17300 26.80600
C  12.76400 52.94200 26.38900
C  12.75800 53.04000 24.92300
C  14.05900 52.42500 24.59900
C  11.76100 53.38600 27.38300
C  11.78300 53.79000 24.06000
O  11.86300 53.74400 22.82500
C  10.61200 54.53400 24.61100
N  16.69900 51.12100 23.72200
C  15.87200 51.83000 22.92100
C  16.40600 51.77800 21.38500
C  17.76200 51.05100 21.48000
C  17.72800 50.62600 22.97400
C  15.41300 51.33700 20.23700
C  18.93800 51.97000 21.05800
C  19.42600 53.07700 21.99200
N  18.31700 50.05800 25.98800
C  19.15500 49.68200 24.90900
C  20.33300 49.11000 25.46000
C  20.18500 49.04000 26.85600
C  18.91700 49.57400 27.12900
C  21.47400 48.64100 24.67700
C  20.76600 48.59200 28.06800
O  21.75100 47.96600 28.29800
C  19.65600 48.94200 29.13400
C  19.16500 47.90100 30.05900
O  18.59300 46.84900 29.73700
O  19.54600 48.29100 31.35200
C  19.21000 47.47200 32.44400
H  13.52200 51.91500 28.99500
H  14.05200 52.74000 22.37300
H  19.52500 49.49500 22.85900
H  17.20400 49.64100 30.97400
H  15.28900 51.80700 30.91200
H  14.35200 49.10300 30.21700
H  13.40400 50.47900 30.65300
H  14.41500 49.76400 31.88500
H  17.80500 52.47200 30.34400
H  18.92800 51.14900 30.94800
H  17.49800 53.13500 32.32500
H  18.63500 51.96900 32.99200
H  11.89600 53.05400 28.41200
H  10.74400 53.15500 27.06500
H  11.75800 54.46900 27.50300
H  10.95600 55.13100 25.45500
H  10.08500 53.62100 24.88700
H  10.13400 55.14500 23.84400
H  16.58300 52.84500 21.24900
H  17.83700 50.10800 20.93700
H  15.11500 52.13200 19.55300
H  14.50600 50.97700 20.72200
H  15.71000 50.53200 19.56400
H  18.54800 52.59600 20.25500
H  19.74600 51.28700 20.79600
H  18.73500 53.14500 22.83200
H  19.66100 54.05300 21.56600
H  20.37600 52.75500 22.41800
H  21.85700 49.36000 23.95200
H  21.02100 47.79700 24.15600
H  22.24800 48.20400 25.30700
H  20.08400 49.80300 29.64700
H  19.14100 48.02700 33.38000
H  19.97200 46.72900 32.68100
H  18.31200 46.86900 32.30700

