158

Mg 46.70300 45.01700 43.66000
C  43.17400 44.08700 43.33900
C  47.42800 41.86900 42.48000
C  49.86500 45.93500 43.42600
C  45.67200 48.36500 44.01300
N  45.37900 43.18400 42.83200
C  44.01800 43.04000 43.06400
C  43.63400 41.60300 42.72200
C  45.04500 40.89000 42.43600
C  46.00600 42.08200 42.54900
C  45.23200 39.68500 43.30000
C  42.63600 41.35600 41.54500
C  42.87900 42.16500 40.21000
H  42.83400 41.45200 38.85500
N  48.48600 43.95200 43.22700
C  48.53800 42.66700 42.80300
C  49.90800 42.21700 42.65600
C  50.70300 43.42100 42.91700
C  49.73600 44.53500 43.18700
C  50.34300 40.81200 42.16000
C  52.18700 43.53500 42.95100
O  52.89200 42.50500 42.75700
C  53.03300 44.88800 43.22400
N  47.54800 46.93200 43.48600
C  48.88500 46.99200 43.65000
C  49.40200 48.45600 43.83500
C  48.08500 49.23200 44.11100
C  47.04100 48.09000 43.92200
C  50.49000 48.59000 44.98400
C  47.93000 50.58100 43.42300
C  47.84000 51.87800 44.24000
N  44.86300 46.03500 43.71100
C  44.62400 47.42900 43.86300
C  43.19600 47.62700 44.10900
C  42.56400 46.31800 43.90500
C  43.60100 45.39600 43.58700
C  42.65400 48.98900 44.51500
C  41.32400 45.67200 43.75800
O  40.21700 46.05000 43.83300
C  41.66200 44.13200 43.53500
C  41.20900 43.50600 44.77200
O  40.26600 42.69200 44.86100
O  41.91900 43.99800 45.83900
C  41.55700 43.57000 47.16300
H  47.67800 40.87400 42.10800
H  50.89000 46.29000 43.29900
H  45.25600 49.35900 44.19100
H  43.13300 41.20100 43.60200
H  45.04400 40.48700 41.42400
H  46.27700 39.43700 43.48700
H  44.88100 38.76500 42.83300
H  44.70100 39.73500 44.25100
H  41.68600 41.64400 41.99500
H  42.71700 40.28900 41.33500
H  43.91700 42.39800 40.44500
H  42.35200 43.11000 40.34300
H  50.68800 41.14400 41.18100
H  49.60100 40.03500 41.97700
H  51.17500 40.39100 42.72600
H  52.80900 45.65200 42.48000
H  54.10500 44.69300 43.17800
H  52.86300 45.21500 44.25000
H  49.88500 48.66000 42.88000
H  48.03200 49.51300 45.16300
H  50.72000 47.64300 45.47100
H  50.25600 49.36200 45.71700
H  51.39000 48.90100 44.45400
H  47.03600 50.57000 42.80000
H  48.81200 50.67900 42.78900
H  47.33600 51.84400 45.20500
H  47.49300 52.68800 43.59800
H  48.85400 52.18400 44.50200
H  41.56700 49.05800 44.51400
H  43.03000 49.85900 43.97600
H  42.87700 49.20500 45.56000
H  41.04700 43.71300 42.73800
H  40.63100 42.99500 47.14900
H  41.38100 44.42400 47.81700
H  42.38100 42.93400 47.48700
Mg 26.50900 51.98800 26.74200
C  24.25200 52.90800 29.31100
C  28.77800 51.24500 29.14800
C  28.71200 51.74300 24.33500
C  24.10500 53.14400 24.46200
N  26.48600 52.17700 29.02500
C  25.46200 52.39200 29.85700
C  25.90000 52.16200 31.35500
C  27.35900 51.72800 31.19100
C  27.56300 51.69400 29.66200
C  28.39400 52.66200 31.93900
C  25.00200 51.11400 32.15000
C  25.42200 50.86100 33.59600
H  24.56300 51.26600 34.76300
N  28.52500 51.46900 26.80900
C  29.23100 51.17500 27.85400
C  30.54000 50.79900 27.34900
C  30.51800 50.97200 25.94300
C  29.20900 51.41300 25.61800
C  31.66600 50.22900 28.23400
C  31.75600 50.83500 25.05500
O  31.63300 51.14200 23.89300
C  33.08200 50.43700 25.52000
N  26.37900 52.32700 24.71100
C  27.39000 52.02600 23.93300
C  27.05100 52.27500 22.38400
C  25.57500 52.54900 22.45500
C  25.31600 52.83400 23.92100
C  27.89000 53.32300 21.73500
C  24.63600 51.43200 21.80000
C  23.75200 51.96700 20.64700
N  24.58300 52.95700 26.83800
C  23.75100 53.23300 25.83400
C  22.51400 53.75300 26.32900
C  22.65700 53.57500 27.71500
C  23.93500 53.13900 27.99800
C  21.36900 54.37900 25.63400
C  21.97500 53.70800 29.05500
O  20.88700 54.15000 29.41500
C  23.00200 53.33200 30.07400
C  23.20700 54.51700 30.96500
O  23.68900 55.60000 30.63100
O  22.79100 54.17300 32.22800
C  22.56400 55.26500 33.17400
H  29.43800 50.90700 29.95000
H  29.37600 51.74800 23.46900
H  23.27600 53.58400 23.90500
H  25.77900 53.11100 31.87700
H  27.47200 50.74100 31.64100
H  29.23000 52.88800 31.27700
H  28.82100 52.07500 32.75200
H  28.08100 53.63400 32.32000
H  25.14600 50.22200 31.54000
H  23.95200 51.38500 32.03900
H  26.40400 51.32900 33.66500
H  25.49900 49.77800 33.70000
H  31.93800 49.20300 27.98600
H  31.40600 50.27500 29.29200
H  32.50000 50.92700 28.15500
H  33.31000 51.16500 26.29900
H  33.85100 50.51900 24.75300
H  33.07100 49.41700 25.90300
H  27.33200 51.29200 22.00700
H  25.42800 53.55400 22.05900
H  27.27900 54.09700 21.27100
H  28.46600 52.85400 20.93700
H  28.52100 53.70300 22.53800
H  23.93900 51.03700 22.54000
H  25.24300 50.58300 21.48700
H  23.85500 51.30700 19.78600
H  24.01500 52.99200 20.38500
H  22.70000 51.88400 20.91900
H  21.80800 55.16200 25.01500
H  20.80900 54.72100 26.50500
H  20.87100 53.60600 25.05000
H  22.64600 52.48100 30.65600
H  23.51100 55.79500 33.26900
H  22.33400 54.82700 34.14500
H  21.73800 55.90400 32.86200

