158

Mg 9.23100 4.10800 27.07700
C  10.55900 2.75000 30.08400
C  7.47700 6.25000 29.01600
C  8.09400 5.33300 24.23900
C  10.54200 1.39000 25.35200
N  9.03400 4.47900 29.39300
C  9.70600 3.90400 30.36000
C  9.41600 4.54400 31.75600
C  8.30300 5.57700 31.38700
C  8.20500 5.40100 29.86800
C  6.96900 5.48300 32.16200
C  10.63800 5.13400 32.47700
C  10.25700 5.83700 33.78600
H  11.20900 5.55500 35.00700
N  8.01800 5.53700 26.73600
C  7.29500 6.31800 27.58800
C  6.57600 7.32700 26.91300
C  6.98200 7.28400 25.58500
C  7.71900 6.01100 25.45200
C  5.55900 8.22000 27.49200
C  6.55100 8.11900 24.50000
O  6.85400 8.00100 23.31900
C  5.69300 9.33800 24.78000
N  9.60500 3.54600 25.03900
C  8.90600 4.14600 24.02900
C  9.08900 3.44100 22.69500
C  9.72700 2.11400 23.15900
C  10.00600 2.37400 24.57600
C  7.81500 3.38600 21.76300
C  10.87700 1.65200 22.19900
C  10.58200 0.40800 21.37800
N  10.26500 2.40600 27.54300
C  10.79200 1.42100 26.70800
C  11.52600 0.46100 27.56900
C  11.53900 1.04100 28.88300
C  10.71400 2.16800 28.79300
C  12.21500 -0.73200 27.20300
C  12.06000 0.79900 30.21000
O  12.77100 -0.04700 30.78600
C  11.42000 1.97600 31.06200
C  10.66500 1.25500 32.09700
O  9.63400 0.64000 31.74700
O  11.22600 1.50300 33.37500
C  10.41400 1.10100 34.46300
H  7.06100 7.07100 29.60300
H  7.71800 5.71000 23.28600
H  10.89000 0.52800 24.77800
H  9.06400 3.82400 32.49500
H  8.69800 6.56700 31.61700
H  6.90500 6.31500 32.86300
H  6.86000 4.52500 32.67100
H  6.13300 5.59300 31.47000
H  11.31600 5.70200 31.84000
H  11.25200 4.26900 32.72600
H  9.29400 5.40800 34.06200
H  10.18300 6.91300 33.63400
H  4.61600 8.08300 26.96400
H  5.86100 9.25900 27.35900
H  5.47000 7.93800 28.54100
H  5.77200 10.01800 23.93200
H  6.23700 9.98200 25.47100
H  4.65700 9.20400 25.09300
H  9.90400 4.01000 22.24800
H  8.89000 1.41500 23.15200
H  6.94600 3.77900 22.29000
H  7.77700 2.30000 21.67700
H  8.03200 3.83600 20.79500
H  11.74300 1.55400 22.85400
H  11.27100 2.41200 21.52500
H  11.23000 -0.44300 21.59100
H  10.84100 0.59200 20.33500
H  9.51600 0.18300 21.36800
H  11.89400 -1.60400 27.77400
H  13.29000 -0.56400 27.26300
H  11.95200 -1.12400 26.22000
H  12.26400 2.45900 31.55300
H  9.50300 0.63400 34.08800
H  10.23500 1.88300 35.20000
H  10.99000 0.31700 34.95400
Mg 35.47700 1.68200 28.75100
C  33.51900 3.12700 31.22800
C  38.06200 1.35700 31.03300
C  37.35600 0.71200 26.20800
C  32.93900 2.36900 26.35200
N  35.84600 2.41800 30.91500
C  34.78200 2.82600 31.76900
C  35.27200 2.91600 33.22900
C  36.87700 2.62200 33.04500
C  36.94200 2.05900 31.62000
C  37.69800 3.91300 33.28700
C  34.49700 1.90600 34.08800
C  33.74200 2.38400 35.35800
H  34.35500 3.54300 36.21900
N  37.46700 1.11200 28.66300
C  38.35900 1.05400 29.66300
C  39.63100 0.63000 29.13800
C  39.47200 0.36600 27.74100
C  38.08400 0.82700 27.46000
C  40.81000 0.37300 30.09600
C  40.43900 -0.29300 26.72700
O  40.18100 -0.45100 25.54800
C  41.81600 -0.63300 27.21300
N  35.19400 1.50500 26.53300
C  36.11500 0.95200 25.76900
C  35.70900 0.86000 24.24400
C  34.19700 1.26400 24.34300
C  34.08300 1.74200 25.78300
C  36.47000 1.82600 23.25300
C  33.27400 0.08000 23.99600
C  32.24500 0.36000 22.85300
N  33.58100 2.40500 28.77400
C  32.66200 2.67100 27.73800
C  31.50700 3.48300 28.26400
C  31.82100 3.55200 29.64200
C  33.08700 2.93000 29.86600
C  30.28900 3.87400 27.46500
C  31.21800 4.00000 30.87700
O  30.09600 4.51000 31.08500
C  32.30000 3.61700 31.92800
C  32.57700 4.82100 32.78000
O  33.27600 5.75700 32.43700
O  31.72300 4.83100 33.82600
C  31.62700 6.02000 34.67200
H  38.85400 1.24500 31.77600
H  37.98400 0.14700 25.51600
H  32.23600 2.79200 25.63100
H  35.07700 3.94600 33.52700
H  37.13800 1.78000 33.68600
H  38.30100 3.74400 34.17900
H  37.05200 4.78700 33.37000
H  38.30100 4.15700 32.41200
H  35.26700 1.22000 34.44000
H  33.83500 1.31700 33.45400
H  33.75000 1.52200 36.02600
H  32.73900 2.74000 35.12700
H  40.83100 1.27900 30.70400
H  41.84800 0.32900 29.76700
H  40.55000 -0.49800 30.69700
H  42.44900 -0.90900 26.37000
H  41.77700 -1.39900 27.98900
H  42.10200 0.28200 27.73100
H  35.88500 -0.15000 23.87400
H  33.96800 2.11200 23.69800
H  35.67900 2.09200 22.55200
H  37.14100 1.18200 22.68500
H  36.92600 2.64400 23.81200
H  32.76800 -0.22500 24.91100
H  33.89700 -0.76000 23.68700
H  31.28600 0.16100 23.33000
H  32.33400 -0.41600 22.09200
H  32.22700 1.40200 22.53500
H  30.58500 4.20700 26.47000
H  29.78300 4.64100 28.05000
H  29.62500 3.00900 27.45100
H  31.97700 2.79500 32.56700
H  32.33400 6.81000 34.41900
H  31.65800 5.83500 35.74600
H  30.60600 6.35800 34.49400

