158

Mg 0.54900 7.67600 26.07300
C  1.09700 9.64800 28.93800
C  0.09800 5.00000 28.17300
C  0.28900 5.90500 23.35300
C  0.60300 10.56300 24.26700
N  0.57300 7.37700 28.29600
C  0.78600 8.35500 29.20700
C  0.45900 7.77500 30.57300
C  0.61800 6.26600 30.34400
C  0.34500 6.18600 28.89800
C  1.98000 5.56800 30.74800
C  -0.87500 8.25000 31.23600
C  -1.00000 7.98100 32.74600
H  0.29300 7.91100 33.67300
N  0.37600 5.68900 25.78400
C  0.23500 4.76100 26.83700
C  0.13100 3.38700 26.18600
C  0.12700 3.61900 24.72100
C  0.33400 5.10400 24.54000
C  -0.18100 2.13100 27.02500
C  0.05900 2.63000 23.52500
O  -0.03100 2.88500 22.36700
C  -0.05600 1.07600 23.80800
N  0.53600 8.12400 24.09300
C  0.32700 7.25700 23.14500
C  0.34000 7.91800 21.68300
C  -0.02200 9.36900 22.10700
C  0.38500 9.34000 23.59500
C  1.67600 7.82300 20.89500
C  -1.52600 9.68500 21.89500
C  -1.79300 10.84400 20.93300
N  0.83700 9.73600 26.46100
C  0.83900 10.81700 25.60500
C  1.16400 12.06400 26.31000
C  1.15700 11.59300 27.67100
C  1.11800 10.19800 27.66200
C  1.37100 13.43300 25.78100
C  1.31500 12.07700 28.93300
O  1.50500 13.23900 29.31500
C  1.19900 10.85600 29.85800
C  2.47400 10.81400 30.63700
O  3.57100 10.48700 30.19600
O  2.25200 11.29800 31.88100
C  3.41500 11.24200 32.74900
H  -0.05700 4.12400 28.80600
H  0.21600 5.23100 22.49700
H  0.48500 11.36800 23.53900
H  1.20000 8.17300 31.26700
H  -0.21400 5.83000 30.89700
H  2.31200 6.25600 31.52600
H  2.60700 5.47000 29.86200
H  1.81000 4.60700 31.23300
H  -1.67900 7.69200 30.75600
H  -1.15900 9.28300 31.03600
H  -1.64400 7.11000 32.87000
H  -1.59700 8.75600 33.22600
H  -1.23400 2.10300 27.30500
H  0.40800 2.14700 27.94200
H  -0.03700 1.16000 26.55200
H  0.24100 0.55100 22.90000
H  -1.06900 0.72900 24.01100
H  0.55500 0.72200 24.63900
H  -0.46600 7.44200 21.12400
H  0.49600 10.09800 21.48400
H  1.95200 8.73300 20.36200
H  1.58000 6.90400 20.31800
H  2.48100 7.81300 21.63000
H  -1.94200 9.90100 22.87900
H  -2.00300 8.80900 21.45400
H  -0.94500 11.34100 20.46100
H  -2.25000 11.64400 21.51600
H  -2.45200 10.55300 20.11500
H  0.51600 13.86300 25.25900
H  2.26600 13.55300 25.17000
H  1.57500 14.06900 26.64300
H  0.38500 10.94000 30.57800
H  3.08000 11.66000 33.69900
H  4.33500 11.69700 32.38500
H  3.59300 10.18900 32.97100
Mg 41.06500 9.19600 29.50200
C  42.76900 10.19700 32.35200
C  38.62500 8.07900 31.52000
C  39.47400 8.09700 26.73600
C  43.63500 10.42700 27.48000
N  40.91000 8.90300 31.70500
C  41.54900 9.63300 32.69800
C  40.90100 9.63400 34.06900
C  39.69700 8.62800 33.81900
C  39.75800 8.49600 32.25900
C  39.82300 7.25400 34.61300
C  40.44400 11.03000 34.47700
C  40.34800 11.11400 35.96800
H  41.16500 12.21000 36.65500
N  39.37600 8.09000 29.18800
C  38.36500 7.84000 30.11000
C  37.18400 7.31700 29.43600
C  37.43600 7.40400 28.08400
C  38.81300 7.82700 27.92900
C  35.83500 6.89100 30.10500
C  36.48000 7.22400 26.93100
O  36.75900 7.48900 25.76300
C  35.09000 6.72900 27.16300
N  41.54700 9.09900 27.35300
C  40.76100 8.55100 26.48900
C  41.29200 8.75700 25.05000
C  42.44700 9.76200 25.31600
C  42.57100 9.74600 26.81200
C  41.58900 7.38400 24.31600
C  42.18600 11.20000 24.77500
C  41.03300 12.03000 25.34500
N  42.89900 9.95200 29.79200
C  43.82800 10.46900 28.87100
C  44.96700 11.00800 29.57100
C  44.61700 10.98800 30.92500
C  43.31800 10.37500 31.03600
C  46.25400 11.64100 29.12500
C  45.05600 11.34700 32.25900
O  46.12500 11.85000 32.65500
C  43.80200 10.94100 33.25600
C  44.33300 9.99000 34.27500
O  44.75700 8.85800 34.09400
O  44.47600 10.75300 35.41900
C  45.17200 10.14800 36.56200
H  37.68800 7.95000 32.06400
H  39.01700 7.83000 25.78100
H  44.38400 10.89900 26.84000
H  41.65000 9.22500 34.74700
H  38.75500 9.07700 34.13400
H  40.81200 7.15600 35.06200
H  39.68600 6.38100 33.97500
H  39.03000 7.23700 35.36000
H  39.49100 11.26400 34.00300
H  41.16300 11.75600 34.09600
H  40.48600 10.12600 36.40800
H  39.31200 11.38200 36.17700
H  35.93700 6.74700 31.18000
H  35.65400 5.89600 29.69800
H  35.06800 7.63000 29.87700
H  35.00700 5.87500 27.83400
H  34.58200 6.71200 26.19800
H  34.77200 7.60300 27.73200
H  40.51800 9.15800 24.39600
H  43.36400 9.44700 24.81700
H  42.50100 7.48400 23.72700
H  40.72900 7.13200 23.69600
H  41.75700 6.67100 25.12300
H  41.95900 11.13100 23.71100
H  43.15700 11.68900 24.84700
H  40.48600 12.52600 24.54300
H  41.40300 12.78500 26.03900
H  40.24500 11.49900 25.87900
H  46.39200 12.53000 29.74000
H  46.08700 11.92300 28.08500
H  47.08600 11.03600 29.48400
H  43.42800 11.85700 33.71200
H  44.58500 10.08600 37.47800
H  46.07400 10.75100 36.66600
H  45.49100 9.12400 36.36900

