158

Mg 2.35700 -2.03500 45.04700
C  5.69100 -1.05500 44.45100
C  1.32300 0.53800 43.03300
C  -0.68700 -3.30600 45.37300
C  3.70200 -4.97200 46.63100
N  3.41000 -0.52900 43.67800
C  4.77200 -0.24600 43.73600
C  5.10900 0.94000 42.79900
C  3.68400 1.53100 42.51200
C  2.74600 0.45500 43.13700
C  3.35600 2.98500 43.05100
C  5.96400 0.47400 41.55600
C  7.25400 1.32100 41.30600
H  7.93100 1.15100 40.00900
N  0.52600 -1.37600 44.33700
C  0.32500 -0.35700 43.51800
C  -1.04400 -0.37700 43.19800
C  -1.73500 -1.37400 43.96400
C  -0.65400 -2.04900 44.63500
C  -1.58700 0.66300 42.19600
C  -3.17900 -1.71400 43.92700
O  -3.83000 -0.98300 43.24900
C  -3.84200 -2.61300 44.86000
N  1.63800 -3.88800 45.89400
C  0.27300 -4.13400 45.92300
C  0.09700 -5.49300 46.66900
C  1.45500 -6.14000 46.75900
C  2.34100 -4.95400 46.42400
C  -0.70900 -5.26100 48.05800
C  1.76100 -7.41200 45.93400
C  2.64500 -8.49600 46.55600
N  4.25500 -2.87600 45.54000
C  4.61100 -4.08300 46.14000
C  6.07700 -4.10400 46.33700
C  6.52000 -2.90800 45.67500
C  5.42300 -2.22800 45.15800
C  6.92800 -5.17400 46.95200
C  7.69400 -2.23900 45.19600
O  8.89400 -2.50800 45.20900
C  7.16900 -0.93800 44.56000
C  7.51400 0.02000 45.53400
O  7.30200 -0.13400 46.72900
O  7.98600 1.19400 44.90600
C  7.98700 2.43400 45.71300
H  0.82700 1.31200 42.44400
H  -1.71700 -3.64500 45.50300
H  4.00500 -5.83700 47.22500
H  5.58200 1.63600 43.49200
H  3.48200 1.56300 41.44100
H  4.32200 3.38600 43.35900
H  2.63400 2.98400 43.86800
H  2.99400 3.49100 42.15700
H  5.37300 0.31800 40.65400
H  6.33900 -0.51500 41.81800
H  8.00200 1.14300 42.07800
H  6.89800 2.33100 41.50800
H  -1.13800 0.48300 41.21900
H  -1.38600 1.68100 42.53200
H  -2.67400 0.65200 42.11800
H  -3.74200 -3.66400 44.59200
H  -4.89800 -2.35700 44.77700
H  -3.38200 -2.37000 45.81800
H  -0.54200 -6.09400 46.02300
H  1.59400 -6.38000 47.81400
H  -0.97600 -6.12100 48.67100
H  -1.64100 -4.77900 47.76000
H  -0.14700 -4.59700 48.71500
H  2.23100 -7.18300 44.97800
H  0.82200 -7.88500 45.64700
H  3.43100 -8.78000 45.85600
H  2.16100 -9.42800 46.84800
H  3.06100 -8.05500 47.46200
H  7.87800 -4.83700 47.36600
H  7.18400 -5.89600 46.17700
H  6.42700 -5.68400 47.77500
H  7.71300 -0.74500 43.63500
H  9.03300 2.68100 45.89300
H  7.45500 2.29900 46.65500
H  7.45000 3.21400 45.17300
Mg -4.75300 25.16200 25.35800
C  -3.52800 26.29200 28.49700
C  -6.69600 22.95700 27.02200
C  -5.40300 23.62100 22.45000
C  -2.41900 27.22300 23.78800
N  -4.79700 24.51800 27.47900
C  -4.36700 25.27500 28.57100
C  -4.92900 24.74300 29.87100
C  -5.78900 23.51600 29.31100
C  -5.74600 23.63900 27.82800
C  -5.43800 22.03600 29.89800
C  -5.78000 25.75300 30.75100
C  -5.25100 25.86300 32.20700
H  -6.19700 25.35200 33.35300
N  -5.97300 23.62000 24.80500
C  -6.80600 22.98700 25.63900
C  -7.74500 22.11700 24.94400
C  -7.23500 22.08400 23.62400
C  -6.15600 23.10500 23.56100
C  -8.97000 21.42500 25.51900
C  -7.52800 21.13200 22.45600
O  -6.87900 20.94000 21.50400
C  -8.80300 20.34900 22.67300
N  -3.86200 25.24400 23.45900
C  -4.39600 24.54500 22.45000
C  -3.77200 24.89900 21.09000
C  -3.08600 26.28600 21.46700
C  -3.12100 26.27300 22.98400
C  -2.84300 23.82300 20.48200
C  -3.83000 27.52400 20.79500
C  -3.66900 27.54800 19.30600
N  -3.34400 26.65300 25.94300
C  -2.46100 27.36500 25.20900
C  -1.66200 28.23600 26.11600
C  -2.00000 27.84900 27.39500
C  -3.05200 26.86200 27.24000
C  -0.58500 29.24200 25.80700
C  -1.64800 28.03400 28.75500
O  -0.88300 28.79600 29.37300
C  -2.74500 27.10900 29.55600
C  -1.88700 26.36800 30.47700
O  -1.45900 25.20200 30.38600
O  -1.71600 27.02400 31.68100
C  -1.00500 26.32900 32.72800
H  -7.42400 22.30700 27.51300
H  -5.59400 23.06300 21.53100
H  -1.74000 27.83600 23.19100
H  -4.02300 24.46300 30.40800
H  -6.84200 23.53100 29.59300
H  -4.48100 22.05400 30.42000
H  -5.17800 21.30600 29.13200
H  -6.23100 21.58000 30.49100
H  -6.84500 25.56800 30.88900
H  -5.82800 26.70300 30.21900
H  -5.02600 26.89800 32.46500
H  -4.27100 25.40200 32.33700
H  -8.91500 20.33700 25.51400
H  -9.96400 21.68000 25.15000
H  -9.15500 21.58700 26.58100
H  -9.69300 20.97500 22.73000
H  -8.64200 19.69400 23.52900
H  -8.87500 19.62700 21.86000
H  -4.55600 25.05000 20.34800
H  -2.05100 26.41000 21.15000
H  -1.81200 24.17600 20.48000
H  -3.19100 23.45400 19.51700
H  -2.94400 23.02700 21.21900
H  -3.32700 28.41900 21.16400
H  -4.87300 27.58700 21.10400
H  -4.59000 27.11100 18.92000
H  -2.83500 26.99400 18.87400
H  -3.45600 28.55700 18.95400
H  -0.88300 29.83400 24.94200
H  0.42600 28.84500 25.72300
H  -0.56300 29.88900 26.68400
H  -3.43200 27.65800 30.20000
H  0.03900 26.30500 32.41500
H  -1.28900 25.27900 32.78400
H  -1.16800 26.85400 33.67000

