158

Mg -1.80000 17.40600 26.20800
C  -2.29900 15.16000 28.93600
C  -2.30800 19.99600 28.37800
C  -1.68500 19.49000 23.59400
C  -1.86200 14.51300 24.02900
N  -2.33100 17.54400 28.35000
C  -2.39200 16.54500 29.26000
C  -2.85300 17.03200 30.65300
C  -2.99800 18.56000 30.40100
C  -2.54100 18.75100 28.90800
C  -4.39500 19.07000 30.88600
C  -1.82700 16.79700 31.78900
C  -2.41200 16.30800 33.12600
H  -1.48200 15.72200 34.10800
N  -1.83400 19.53400 26.01300
C  -2.02600 20.36800 27.07700
C  -2.11300 21.72500 26.54800
C  -1.97100 21.65100 25.15500
C  -1.84700 20.20700 24.84800
C  -2.45100 22.95100 27.39100
C  -1.96300 22.84800 24.04200
O  -1.86200 22.62000 22.83300
C  -2.11100 24.25800 24.44700
N  -1.83900 16.99700 24.09900
C  -1.76300 18.06500 23.27400
C  -1.88100 17.64400 21.82300
C  -1.69200 16.07600 21.95500
C  -1.78600 15.81100 23.44700
C  -3.23700 18.11400 21.30700
C  -0.49200 15.56900 21.15100
C  0.78800 15.25000 21.95800
N  -2.06700 15.26700 26.37000
C  -1.98600 14.24300 25.42400
C  -2.07200 12.96800 26.08300
C  -2.07800 13.28800 27.47800
C  -2.08100 14.68400 27.57600
C  -2.02500 11.67300 25.40500
C  -2.18000 12.72400 28.78900
O  -2.16500 11.50600 29.10200
C  -2.43900 13.90700 29.75000
C  -1.62100 13.60600 30.88100
O  -0.40300 13.79100 30.95200
O  -2.39700 12.98800 31.84200
C  -1.55700 12.41500 32.90500
H  -2.51200 20.69100 29.19500
H  -1.62300 20.08400 22.67900
H  -1.84800 13.65700 23.35000
H  -3.76900 16.46300 30.80900
H  -2.26500 19.21800 30.86600
H  -4.26400 20.08400 31.26400
H  -4.67200 18.36200 31.66700
H  -5.00100 19.03400 29.98100
H  -1.32900 17.72000 32.08300
H  -0.99700 16.18300 31.43900
H  -3.18100 15.58100 32.86500
H  -2.93600 17.17800 33.52000
H  -1.67200 23.71300 27.44200
H  -2.84200 22.63400 28.35700
H  -3.35400 23.37100 26.94700
H  -2.12600 25.04400 23.69300
H  -1.26200 24.48100 25.09400
H  -2.97200 24.32700 25.11300
H  -1.09000 18.07600 21.21000
H  -2.55100 15.52400 21.57300
H  -3.04700 18.79500 20.47700
H  -3.84300 18.69700 22.00100
H  -3.79100 17.24700 20.94900
H  -0.21600 16.29900 20.39000
H  -0.63800 14.57000 20.74000
H  1.59500 15.75200 21.42600
H  0.99200 14.18200 22.02700
H  0.66200 15.56500 22.99400
H  -3.06800 11.38200 25.27700
H  -1.60100 10.91000 26.05700
H  -1.51800 11.71400 24.44100
H  -3.51500 13.91600 29.92100
H  -1.51300 13.08700 33.76200
H  -0.56600 12.16600 32.52400
H  -1.96000 11.46200 33.24600
Mg -2.35100 35.50600 26.57700
C  -4.00300 33.79100 29.19300
C  -0.68900 37.42000 28.83300
C  -1.06600 37.20300 24.03800
C  -4.40500 33.81800 24.44500
N  -2.59800 35.68800 28.78000
C  -3.16400 34.85900 29.64100
C  -2.72400 35.16600 31.15400
C  -1.90700 36.48400 30.97500
C  -1.75300 36.58000 29.42600
C  -2.49300 37.77800 31.64900
C  -1.98200 33.98000 31.81900
C  -2.68500 33.35200 33.06400
H  -1.74000 33.30900 34.31700
N  -0.85600 36.88800 26.44800
C  -0.30800 37.63200 27.51100
C  0.80500 38.50700 26.97800
C  0.75400 38.39800 25.53200
C  -0.38900 37.48400 25.22800
C  1.62000 39.37100 27.85400
C  1.61500 39.19900 24.54900
O  1.53600 39.01900 23.34600
C  2.80200 39.97500 24.93700
N  -2.93400 35.73800 24.55600
C  -2.17400 36.40100 23.73000
C  -2.75800 36.36200 22.32200
C  -3.76800 35.18400 22.41400
C  -3.71000 34.87000 23.86900
C  -3.25500 37.70300 21.74800
C  -3.44900 33.97800 21.51400
C  -2.08900 33.27300 21.92000
N  -3.84100 34.06300 26.71800
C  -4.49800 33.35800 25.76500
C  -5.08100 32.22200 26.31400
C  -4.93600 32.36500 27.67600
C  -4.25800 33.50300 27.87600
C  -5.66400 31.12400 25.40400
C  -5.26000 31.79900 28.94400
O  -5.78900 30.74000 29.22400
C  -4.79700 32.76600 30.01900
C  -5.98700 33.27800 30.77000
O  -6.93300 33.86200 30.33700
O  -5.81100 32.95600 32.09300
C  -7.04800 32.84400 32.94000
H  -0.16400 37.99500 29.59800
H  -0.72100 37.91200 23.28200
H  -4.84900 33.10900 23.74200
H  -3.60500 35.38300 31.75900
H  -0.90200 36.50700 31.39600
H  -3.29100 37.49600 32.33500
H  -2.93100 38.43900 30.90100
H  -1.77900 38.27900 32.30200
H  -1.00600 34.36600 32.11400
H  -1.88200 33.17300 31.09300
H  -2.78900 32.29900 32.80400
H  -3.66700 33.80300 33.19900
H  1.82800 40.30400 27.33100
H  2.46000 38.75300 28.17300
H  1.07500 39.59600 28.77100
H  2.44700 40.94800 25.27800
H  3.39700 40.08700 24.03100
H  3.34700 39.45300 25.72300
H  -1.94800 36.02200 21.67600
H  -4.80400 35.41300 22.16300
H  -2.62600 38.50100 22.14100
H  -4.30600 37.88100 21.97500
H  -3.07500 37.71600 20.67300
H  -3.27600 34.16100 20.45400
H  -4.27900 33.27700 21.61000
H  -1.57800 33.11400 20.97000
H  -2.22700 32.35600 22.49400
H  -1.36600 33.89500 22.44800
H  -4.97500 30.67200 24.69100
H  -6.56500 31.45500 24.88600
H  -5.97300 30.32500 26.07700
H  -4.16600 32.18000 30.68700
H  -7.81200 33.39000 32.38700
H  -6.79900 33.36000 33.86600
H  -7.26000 31.78100 33.05500

