158

Mg 40.62900 9.69000 29.71000
C  42.39200 11.10000 32.34400
C  38.40500 8.45000 31.96800
C  38.89000 8.30000 27.08600
C  42.99200 10.99400 27.44500
N  40.48800 9.76700 31.99200
C  41.23000 10.45400 32.83200
C  40.60400 10.38700 34.24000
C  39.48300 9.34000 34.17000
C  39.45900 9.15400 32.60000
C  39.66200 8.11000 35.01100
C  40.16400 11.76500 34.80700
C  39.89700 11.83400 36.36800
H  40.73100 12.70300 37.28000
N  38.91500 8.63900 29.52400
C  38.17000 8.19900 30.61400
C  37.00100 7.42200 30.17500
C  37.04200 7.55600 28.75100
C  38.32800 8.12000 28.40500
C  35.96800 6.80100 31.09200
C  36.00700 7.16800 27.65500
O  36.18000 7.31800 26.42000
C  34.67000 6.72300 28.16200
N  40.96700 9.57300 27.62900
C  39.99200 9.08100 26.77200
C  40.38200 9.33500 25.28200
C  41.70800 10.18700 25.39200
C  41.87100 10.29600 26.90900
C  40.41900 8.15100 24.32000
C  41.69300 11.55800 24.72400
C  40.57200 12.63100 25.10900
N  42.36500 10.62100 29.81000
C  43.18600 11.16600 28.85400
C  44.28200 11.89400 29.43300
C  43.97200 11.91800 30.77100
C  42.79700 11.16200 30.96500
C  45.42100 12.47100 28.64100
C  44.44300 12.38300 32.02600
O  45.37100 13.03600 32.35200
C  43.44500 11.83500 33.08400
C  44.03300 10.82000 34.01700
O  44.35700 9.68300 33.68600
O  44.14900 11.30500 35.33200
C  44.31700 10.33400 36.41300
H  37.64400 8.18500 32.70600
H  38.34900 7.89700 26.22700
H  43.64600 11.51300 26.74100
H  41.42600 10.07700 34.88600
H  38.56100 9.79900 34.52400
H  39.47200 7.20900 34.42700
H  38.97000 8.21800 35.84700
H  40.66400 8.06800 35.43800
H  39.24000 12.01400 34.28700
H  40.94700 12.48800 34.57700
H  39.93200 10.80600 36.73000
H  38.85500 12.09400 36.55500
H  35.22800 7.57500 31.29400
H  36.45700 6.39400 31.97700
H  35.52200 5.89700 30.67500
H  34.68000 5.63600 28.24000
H  34.06500 6.98300 27.29300
H  34.30500 7.15200 29.09500
H  39.65300 10.07600 24.95200
H  42.54200 9.63700 24.95500
H  40.31800 7.27200 24.95700
H  41.37600 8.07800 23.80400
H  39.66800 8.24100 23.53500
H  41.51400 11.23900 23.69700
H  42.68000 12.01900 24.75200
H  40.01100 12.24100 25.95900
H  39.86900 12.69600 24.27800
H  40.93700 13.60600 25.43200
H  45.44000 13.49600 29.01300
H  45.32500 12.43200 27.55600
H  46.29000 11.93200 29.01800
H  43.21600 12.74700 33.63500
H  45.37000 10.05300 36.41200
H  43.79800 9.37800 36.34000
H  43.82800 10.78200 37.27800
Mg 27.21900 51.02700 26.26000
C  25.23500 52.00600 29.12400
C  29.60800 50.04800 28.50300
C  29.16500 50.17200 23.50100
C  24.96700 52.56600 24.29000
N  27.36600 51.00800 28.49000
C  26.44800 51.33700 29.45600
C  26.88900 51.09700 30.89400
C  28.40700 50.72300 30.65800
C  28.50600 50.67800 29.09500
C  29.43400 51.65000 31.38100
C  26.00900 50.00900 31.60400
C  25.46700 50.36700 32.99600
H  26.45500 50.71600 34.15300
N  29.14800 50.22900 26.04800
C  29.93100 49.82100 27.18900
C  31.09100 49.10300 26.66900
C  31.04600 49.34500 25.23400
C  29.75400 49.99300 24.83300
C  32.04400 48.29200 27.51800
C  32.06900 48.96400 24.12200
O  31.97900 49.32700 22.94400
C  33.22000 48.19900 24.46600
N  27.16300 51.40200 24.11400
C  27.91900 50.84100 23.19500
C  27.34200 50.95000 21.83600
C  25.95500 51.65900 22.09700
C  26.02600 51.96700 23.59600
C  28.24900 51.61900 20.80400
C  24.77600 50.70800 21.72100
C  23.45700 51.39900 21.30800
N  25.48500 52.03100 26.61200
C  24.70000 52.59500 25.64700
C  23.50600 53.18700 26.24000
C  23.73800 52.96600 27.60000
C  24.93900 52.28900 27.77400
C  22.26600 53.86200 25.63200
C  23.14200 53.20800 28.95600
O  22.18100 53.85300 29.27600
C  24.16400 52.61500 29.96600
C  24.70900 53.67000 30.82300
O  25.73500 54.28600 30.66000
O  23.85400 53.81100 31.88800
C  24.23000 54.89700 32.78500
H  30.31300 49.64000 29.23000
H  29.74900 49.66000 22.73300
H  24.13200 52.83100 23.63800
H  26.84800 52.01600 31.47800
H  28.62100 49.73700 31.06900
H  29.05100 52.59600 31.76400
H  29.96100 52.01200 30.49700
H  30.09300 51.11100 32.06100
H  26.63900 49.12600 31.71500
H  25.23200 49.58500 30.96800
H  24.77700 49.55700 33.23700
H  24.76600 51.18600 32.83400
H  31.96800 47.24800 27.21600
H  31.70100 48.30400 28.55200
H  33.09800 48.55600 27.42700
H  32.88500 47.35900 25.07500
H  33.79900 48.88000 25.08900
H  33.69000 47.82800 23.55500
H  27.27800 49.95100 21.40500
H  25.84700 52.63500 21.62400
H  28.59500 50.88200 20.07900
H  28.99400 52.22200 21.32400
H  27.71200 52.27600 20.12000
H  24.56400 49.92000 22.44400
H  25.17000 50.26100 20.80800
H  23.11700 51.13700 20.30600
H  23.55800 52.48400 21.35700
H  22.78300 51.11400 22.11600
H  22.34400 54.94800 25.59400
H  21.48900 53.68000 26.37500
H  22.06200 53.41500 24.65900
H  23.75900 51.83500 30.61000
H  24.98900 54.48700 33.45100
H  23.39800 55.13900 33.44700
H  24.46500 55.81200 32.24200

