158

Mg -0.40800 7.56900 26.58700
C  0.39700 9.52500 29.36100
C  -0.48900 4.70600 28.56600
C  -0.80400 5.80300 23.75100
C  0.26000 10.45500 24.54900
N  0.02000 7.21300 28.78300
C  0.13800 8.18500 29.75200
C  0.20600 7.49800 31.17100
C  0.04100 5.93600 30.84200
C  -0.30200 5.93500 29.31600
C  1.23100 5.00400 31.33200
C  -0.75500 8.13400 32.17700
C  -0.15300 8.59100 33.59400
H  -0.98000 8.11800 34.81800
N  -0.73900 5.60000 26.27700
C  -0.73400 4.54900 27.21300
C  -0.95200 3.32200 26.53300
C  -1.25200 3.59000 25.15500
C  -0.97800 5.06700 24.98700
C  -1.03100 1.95900 27.26800
C  -1.56800 2.67600 23.94800
O  -1.72200 3.04800 22.76800
C  -1.72800 1.23800 24.27700
N  -0.09800 7.98000 24.46600
C  -0.55000 7.10300 23.52500
C  -0.47900 7.72100 22.11100
C  -0.33300 9.22500 22.40500
C  0.02300 9.22500 23.90900
C  0.59700 7.06300 21.15800
C  -1.53800 10.02900 22.04200
C  -1.41000 11.47300 21.51700
N  0.33900 9.67500 26.81400
C  0.53100 10.62700 25.89100
C  0.81800 11.84600 26.62900
C  0.95100 11.39700 27.99400
C  0.51800 10.09500 28.03800
C  0.99300 13.21000 26.16300
C  1.23600 11.86600 29.33400
O  1.67600 12.91000 29.84600
C  0.78900 10.67400 30.25100
C  1.98500 10.36200 31.10300
O  3.00400 9.81500 30.71200
O  1.80400 10.83000 32.36500
C  2.96000 10.56800 33.26500
H  -0.68300 3.78600 29.12100
H  -1.04300 5.11900 22.93500
H  0.17700 11.34800 23.92600
H  1.21600 7.58600 31.57400
H  -0.86100 5.57400 31.33500
H  0.93300 4.31200 32.12000
H  2.04900 5.60000 31.73700
H  1.79700 4.43800 30.59300
H  -1.52200 7.39700 32.41600
H  -1.41200 8.92500 31.81400
H  -0.17800 9.68000 33.61900
H  0.86500 8.22200 33.71600
H  -0.72300 1.08800 26.69000
H  -1.86500 1.72000 27.92800
H  -0.19600 1.93000 27.96800
H  -2.51800 1.15800 25.02300
H  -0.79500 0.79800 24.62900
H  -2.01100 0.68900 23.37900
H  -1.43700 7.64200 21.59700
H  0.50500 9.64900 21.85200
H  0.88300 6.05700 21.46400
H  1.50100 7.67400 21.14600
H  0.23400 7.01600 20.13100
H  -2.15500 10.04100 22.94100
H  -2.06700 9.49900 21.25000
H  -1.93700 11.66700 20.58300
H  -0.34200 11.68500 21.48300
H  -1.84200 12.08300 22.31100
H  1.23600 13.94500 26.93000
H  0.12200 13.64000 25.66800
H  1.76300 13.23700 25.39300
H  -0.02600 11.00100 30.89700
H  3.94000 10.73200 32.81600
H  2.78100 9.55500 33.62700
H  2.98900 11.14300 34.19100
Mg 6.41800 53.37500 41.35300
C  6.10800 49.96800 40.22500
C  9.46800 53.39200 39.76500
C  6.28600 56.66800 41.21500
C  2.91200 53.17200 42.25100
N  7.58100 51.88600 40.05800
C  7.26400 50.60700 39.74800
C  8.30400 49.93300 38.83600
C  9.49900 50.91900 39.08600
C  8.81000 52.14700 39.63900
C  10.71500 50.35800 39.89900
C  7.85800 49.83400 37.30400
C  7.95600 48.44000 36.64200
H  6.92000 47.97800 35.57300
N  7.75200 54.86800 40.72900
C  9.01200 54.67800 40.22000
C  9.69700 55.89600 40.18200
C  8.80100 56.94900 40.53200
C  7.53700 56.20400 40.79300
C  11.16800 55.91900 39.69300
C  9.06900 58.45800 40.40700
O  10.21200 58.87500 40.05400
C  8.00200 59.41500 40.55600
N  4.79800 54.64400 41.52300
C  5.10000 56.04000 41.49700
C  3.80800 56.84300 41.82300
C  2.72300 55.73200 42.08900
C  3.49100 54.41800 41.97400
C  3.85500 57.89700 43.03200
C  1.50100 55.77700 41.15800
C  0.10700 55.47400 41.79100
N  4.89400 51.89800 41.52400
C  3.64500 51.92000 42.05500
C  3.16200 50.59800 42.21900
C  4.09300 49.80800 41.52800
C  5.10900 50.64800 41.05000
C  1.82000 50.25600 43.00600
C  4.40000 48.38000 41.06600
O  3.88200 47.33500 41.40600
C  5.73600 48.49000 40.24600
C  5.56800 47.74900 38.92700
O  4.88200 48.15200 38.00000
O  5.84500 46.42700 39.06300
C  5.40300 45.44700 38.09300
H  10.51400 53.34800 39.45400
H  6.27500 57.74300 41.40700
H  1.88000 53.02400 42.57500
H  8.57600 48.96600 39.26100
H  9.96300 51.28700 38.17100
H  11.40300 49.68900 39.38300
H  10.25000 49.90300 40.77400
H  11.38200 51.08500 40.36300
H  8.57000 50.38600 36.69100
H  6.83600 50.20800 37.24400
H  8.07200 47.80000 37.51600
H  8.90200 48.35800 36.10700
H  11.28800 55.23800 38.85000
H  11.91400 55.67700 40.44900
H  11.38400 56.96000 39.45100
H  8.20900 60.43600 40.23400
H  7.73400 59.32500 41.60900
H  7.17900 59.11600 39.90700
H  3.62400 57.39800 40.90300
H  2.37800 55.80400 43.12000
H  3.58800 58.86600 42.61000
H  4.83500 57.94200 43.50700
H  3.15000 57.57400 43.79800
H  1.57800 55.08600 40.31800
H  1.48700 56.77300 40.71600
H  -0.34000 56.46800 41.82300
H  0.14400 55.11500 42.81900
H  -0.54500 54.80800 41.22700
H  1.46600 49.47100 42.33800
H  1.00900 50.98100 43.07200
H  2.08700 49.95900 44.02100
H  6.41700 47.88500 40.84400
H  4.41100 45.69100 37.71300
H  5.21600 44.43100 38.44100
H  6.10100 45.33700 37.26400

