158

Mg 49.33500 46.75500 43.68000
C  46.07500 47.01500 42.63600
C  49.61100 43.92000 41.81000
C  52.47100 46.90700 44.48500
C  48.94300 50.07500 45.04300
N  47.96700 45.65400 42.30200
C  46.64600 45.84900 42.09900
C  45.98500 44.78200 41.16300
C  47.04300 43.68600 41.23300
C  48.31500 44.51600 41.76500
C  46.67200 42.55500 42.29200
C  45.78900 45.44700 39.73700
C  44.43400 45.10400 39.07600
H  44.31100 44.77900 37.57200
N  50.82600 45.52700 43.14300
C  50.77600 44.38500 42.42100
C  52.11700 43.80500 42.43700
C  52.94500 44.57200 43.22000
C  52.10000 45.78900 43.60500
C  52.41400 42.59400 41.47200
C  54.38000 44.23500 43.65000
O  54.89100 43.20700 43.27700
C  55.15700 44.99200 44.77900
N  50.56200 48.35900 44.54700
C  51.79800 48.05500 44.81500
C  52.51800 49.29700 45.53200
C  51.38700 50.42800 45.58300
C  50.22100 49.63400 44.98600
C  53.33900 49.10000 46.78100
C  51.55900 51.62300 44.63100
C  52.85700 52.45000 44.77800
N  47.84800 48.20300 43.91200
C  47.81900 49.50400 44.51400
C  46.51200 50.11800 44.33000
C  45.80800 49.17300 43.58400
C  46.67800 48.00100 43.41200
C  46.24900 51.47100 44.67800
C  44.54900 48.91700 42.97300
O  43.56600 49.62000 42.94500
C  44.62600 47.44500 42.31100
C  43.56800 46.57700 43.00900
O  43.42400 46.47700 44.23200
O  42.82200 45.92400 42.05500
C  41.82800 45.07200 42.60300
H  49.57700 42.93600 41.33800
H  53.50100 46.93500 44.84500
H  48.73000 51.00200 45.58000
H  44.98400 44.49900 41.48900
H  47.34800 43.27900 40.26900
H  47.34200 42.52200 43.15100
H  46.86800 41.59200 41.82200
H  45.66700 42.72300 42.67900
H  46.56600 45.10700 39.05300
H  45.90200 46.52900 39.80300
H  43.72400 45.92500 39.17600
H  43.97300 44.25700 39.58500
H  51.66300 42.28100 40.74600
H  52.71700 41.77400 42.12300
H  53.36600 42.80500 40.98400
H  55.88700 44.29400 45.18800
H  54.46400 44.98100 45.62100
H  55.50600 46.00000 44.55700
H  53.27100 49.67100 44.83700
H  51.22200 50.81300 46.58900
H  54.39600 49.30600 46.61600
H  53.37100 48.11400 47.24500
H  53.08400 49.80200 47.57500
H  50.79800 52.34100 44.93700
H  51.51100 51.37700 43.57000
H  53.44100 52.35000 43.86200
H  53.53100 52.33700 45.62700
H  52.68900 53.52300 44.85900
H  47.12100 52.08000 44.43800
H  46.11800 51.51600 45.75900
H  45.32900 51.92700 44.31300
H  44.39500 47.49700 41.24700
H  42.13300 44.32700 43.33700
H  41.31300 44.45700 41.86400
H  41.05200 45.74100 42.97600
Mg 1.97800 41.61800 25.18500
C  2.52500 42.15600 28.52500
C  -0.95000 40.01000 25.92700
C  1.46100 41.30000 21.88400
C  5.19600 42.73400 24.56900
N  0.75100 41.30200 27.05300
C  1.26300 41.56000 28.26200
C  0.26000 41.17400 29.32700
C  -0.74000 40.17200 28.58000
C  -0.36600 40.54000 27.11300
C  -0.72100 38.68900 28.98200
C  -0.49100 42.32400 29.97500
C  -0.32600 42.64700 31.46400
H  -0.86800 41.64500 32.47400
N  0.34700 40.84100 24.08400
C  -0.72300 40.18600 24.54400
C  -1.57200 39.79800 23.42900
C  -0.94200 40.26300 22.20000
C  0.32300 40.86600 22.65100
C  -2.95000 39.27600 23.69100
C  -1.57200 40.33500 20.83300
O  -1.01100 40.81400 19.83900
C  -2.88900 39.72500 20.62300
N  3.25100 41.72700 23.50300
C  2.72200 41.73100 22.28000
C  3.77200 42.17300 21.24300
C  4.92400 42.78300 22.09600
C  4.40800 42.44600 23.45800
C  4.14500 41.05800 20.28200
C  5.04400 44.34100 21.73000
C  3.72600 45.24900 21.89900
N  3.63300 42.19500 26.29600
C  4.85600 42.67000 25.86600
C  5.68400 43.00600 27.09100
C  4.73300 42.88100 28.10600
C  3.50700 42.47400 27.58500
C  7.10300 43.52900 27.08800
C  4.57900 43.09400 29.53200
O  5.32100 43.56500 30.38900
C  3.13100 42.56700 29.86000
C  3.34900 41.27500 30.61000
O  4.05400 40.39300 30.27400
O  2.66500 41.29900 31.82000
C  2.83500 40.13000 32.71400
H  -1.87200 39.47400 26.16100
H  1.27200 41.29800 20.80800
H  6.14200 43.21200 24.30400
H  0.76700 40.61900 30.11600
H  -1.75200 40.56900 28.66500
H  0.00900 38.52200 29.77400
H  -0.46800 38.02700 28.15400
H  -1.67700 38.27200 29.29900
H  -1.56600 42.25800 29.80700
H  -0.24400 43.18400 29.35300
H  -0.77800 43.62600 31.62700
H  0.74500 42.64100 31.66300
H  -3.68100 40.03500 23.40900
H  -3.10300 38.98300 24.72900
H  -3.09200 38.40900 23.04600
H  -3.64100 40.08500 21.32500
H  -2.70600 38.65300 20.69900
H  -3.17000 39.88000 19.58200
H  3.27500 42.96900 20.68800
H  5.87600 42.32000 21.83500
H  5.08500 41.08800 19.73100
H  3.35000 40.91300 19.55000
H  4.22900 40.12900 20.84500
H  5.57100 44.50300 20.79000
H  5.77200 44.70200 22.45600
H  3.88000 45.98200 22.69100
H  2.85800 44.60700 22.05000
H  3.58000 45.83100 20.98900
H  7.82800 42.71600 27.12800
H  7.10400 44.16800 27.97100
H  7.30300 44.13400 26.20400
H  2.68700 43.33400 30.49500
H  2.88000 39.14800 32.24200
H  1.95000 40.06000 33.34700
H  3.70400 40.24100 33.36300

