158

Mg 1.42100 -1.87000 44.36100
C  4.54000 -0.80600 43.60500
C  0.13700 0.72600 42.34900
C  -1.73900 -3.33000 44.42600
C  2.77000 -4.77900 45.82300
N  2.33100 -0.21900 43.15500
C  3.59400 0.03400 42.99800
C  3.82900 1.25400 42.11500
C  2.39800 1.88000 42.02000
C  1.52900 0.72000 42.47900
C  2.13300 3.26800 42.65200
C  4.50700 0.95000 40.71900
C  5.72200 1.77500 40.38300
H  5.91000 2.27000 38.89800
N  -0.53800 -1.23900 43.65100
C  -0.82400 -0.14800 42.89500
C  -2.25700 -0.05400 42.72600
C  -2.83200 -1.15300 43.49600
C  -1.71900 -2.00300 43.91600
C  -2.86800 1.11700 41.83600
C  -4.34600 -1.40100 43.59700
O  -5.14100 -0.61800 43.10000
C  -4.90700 -2.57600 44.27100
N  0.61400 -3.82400 45.13300
C  -0.68500 -4.16100 44.97300
C  -0.93400 -5.61300 45.52200
C  0.52600 -6.10300 45.79800
C  1.35600 -4.88300 45.57100
C  -1.92400 -5.77800 46.67000
C  0.96300 -7.34000 44.93800
C  1.19800 -8.64400 45.64400
N  3.26800 -2.56600 44.91300
C  3.66000 -3.72100 45.56000
C  5.09300 -3.77400 45.58800
C  5.54700 -2.67100 44.83200
C  4.34400 -1.95900 44.43300
C  5.99800 -4.91500 46.01700
C  6.63300 -1.97500 44.20500
O  7.84200 -2.11700 44.18100
C  6.01300 -0.64700 43.56400
C  6.55100 0.57800 44.25400
O  6.29500 1.00300 45.37100
O  7.42100 1.15900 43.42200
C  8.12500 2.33600 43.92700
H  -0.01900 1.67300 41.82900
H  -2.69300 -3.86200 44.42300
H  3.25300 -5.68400 46.19600
H  4.53700 1.82900 42.71200
H  2.18900 2.02000 40.95900
H  3.00800 3.69000 43.14700
H  1.27900 3.23200 43.32800
H  1.92200 3.93800 41.81900
H  3.89600 1.16500 39.84200
H  4.71700 -0.11700 40.64300
H  6.58100 1.12300 40.54300
H  5.72100 2.65300 41.02900
H  -3.35200 0.78000 40.91900
H  -2.12600 1.80900 41.43600
H  -3.66300 1.68600 42.31500
H  -4.98600 -3.43200 43.60000
H  -5.83300 -2.24200 44.73900
H  -4.34400 -2.85700 45.16100
H  -1.34900 -6.13000 44.65700
H  0.52800 -6.48800 46.81800
H  -2.48700 -4.85200 46.78000
H  -1.34700 -5.83100 47.59400
H  -2.60300 -6.62700 46.58500
H  1.92700 -7.12700 44.47700
H  0.22000 -7.51000 44.16000
H  2.25400 -8.91300 45.68100
H  0.76000 -9.33400 44.92200
H  0.68500 -8.66400 46.60500
H  6.26400 -5.41800 45.08700
H  5.34300 -5.60900 46.54500
H  6.89000 -4.49800 46.48400
H  6.41800 -0.65500 42.55200
H  7.42700 3.16700 44.03200
H  8.83200 2.72600 43.19500
H  8.62700 2.18000 44.88200
Mg 54.39800 23.89800 44.27900
C  51.68100 26.16500 43.69700
C  52.37200 21.29000 43.34800
C  57.09800 21.94000 43.98600
C  56.43600 26.70500 44.98400
N  52.29800 23.77700 43.51700
C  51.34200 24.78000 43.41300
C  49.99300 24.14300 43.00300
C  50.23000 22.63800 43.31900
C  51.74900 22.50300 43.33900
C  49.59500 22.13800 44.70000
C  49.77900 24.35600 41.44600
C  50.99500 24.30500 40.50900
H  50.78600 24.62700 39.02300
N  54.65500 21.84500 43.76500
C  53.68600 20.93700 43.51600
C  54.26400 19.64800 43.36200
C  55.67900 19.77300 43.47200
C  55.91900 21.20800 43.84400
C  53.63900 18.35300 42.92500
C  56.68000 18.71000 43.21800
O  56.36700 17.66800 42.62500
C  58.13600 18.83500 43.67200
N  56.59600 24.33000 44.13600
C  57.47700 23.27800 44.17700
C  58.95300 23.95100 44.39100
C  58.62900 25.44700 44.64400
C  57.09600 25.46700 44.70700
C  59.61900 23.24600 45.69400
C  59.21300 26.41000 43.53600
C  58.62500 26.27400 42.10800
N  54.20200 25.98100 44.44800
C  55.04200 26.97700 44.81700
C  54.31000 28.16900 45.02700
C  52.98500 27.89400 44.57500
C  52.97000 26.57600 44.14600
C  54.87700 29.46600 45.48500
C  51.72000 28.52400 44.44700
O  51.35800 29.62400 44.76800
C  50.80800 27.40600 43.82700
C  50.35700 27.92700 42.48900
O  50.91200 27.76800 41.46700
O  49.35700 28.78500 42.65900
C  48.82700 29.33500 41.38000
H  51.62000 20.52000 43.16600
H  58.05500 21.42400 43.88600
H  57.03500 27.53900 45.35600
H  49.24900 24.55000 43.68800
H  49.75200 21.94600 42.62600
H  50.35300 21.53200 45.19600
H  48.68800 21.54200 44.59700
H  49.52300 22.92500 45.45100
H  49.44300 25.39000 41.37300
H  49.03500 23.63000 41.11700
H  51.29400 23.29300 40.78500
H  51.81200 24.95600 40.82200
H  54.07600 17.94600 42.01200
H  52.58500 18.44200 42.66100
H  53.71700 17.65500 43.75900
H  58.52200 17.82100 43.77700
H  58.20600 19.36100 44.62400
H  58.68400 19.39500 42.91400
H  59.64400 23.69700 43.58700
H  59.16100 25.70500 45.56000
H  58.90700 22.51600 46.08100
H  59.84800 23.90500 46.53100
H  60.61200 22.85500 45.47300
H  60.30000 26.37500 43.61100
H  59.16400 27.45500 43.84300
H  57.87000 27.02600 41.87800
H  58.34500 25.23200 41.95500
H  59.45700 26.51400 41.44600
H  55.89400 29.69800 45.16800
H  54.75800 29.30700 46.55700
H  54.17700 30.25600 45.21300
H  49.89400 27.15000 44.36400
H  47.87800 29.85400 41.51500
H  48.65400 28.43900 40.78500
H  49.37400 30.15000 40.90500

