158

Mg 2.45800 -1.68300 44.17600
C  4.90500 0.75400 43.33000
C  0.03800 0.52500 42.80400
C  0.36200 -4.16200 44.25600
C  5.10100 -3.78600 45.21200
N  2.47900 0.34100 43.20300
C  3.64200 1.14400 42.96800
C  3.24600 2.45600 42.26200
C  1.67000 2.40400 42.22500
C  1.38400 0.95600 42.75300
C  1.04900 3.53400 43.14500
C  3.95100 2.55800 40.87500
C  4.66000 3.87200 40.58000
H  4.45900 4.34900 39.07800
N  0.42600 -1.78400 43.83000
C  -0.39700 -0.77400 43.34100
C  -1.77300 -1.28300 43.35700
C  -1.69800 -2.71900 43.64800
C  -0.25700 -2.94500 43.94500
C  -2.97400 -0.48000 43.17300
C  -2.94100 -3.62900 43.87400
O  -4.09500 -3.23600 43.64600
C  -2.77000 -5.08600 44.34900
N  2.70700 -3.72200 44.60600
C  1.65100 -4.57500 44.57600
C  2.07500 -5.97800 45.11600
C  3.64100 -5.81400 45.34500
C  3.89600 -4.38700 45.06800
C  1.20500 -6.56600 46.23900
C  4.54600 -6.76800 44.39300
C  5.36800 -7.91000 45.01200
N  4.67500 -1.59600 44.21800
C  5.55800 -2.51600 44.72400
C  6.83200 -1.89200 44.70800
C  6.62200 -0.56800 44.21500
C  5.26000 -0.40900 43.90900
C  8.10200 -2.54900 45.04100
C  7.25900 0.68900 43.90900
O  8.41700 1.04100 43.97100
C  6.15300 1.66400 43.37600
C  6.04400 2.76600 44.32200
O  5.54000 2.62400 45.45200
O  6.69100 3.89000 43.94400
C  6.64400 4.95700 44.96400
H  -0.79400 1.11600 42.41400
H  -0.29400 -5.03500 44.24800
H  5.81700 -4.53300 45.56200
H  3.69800 3.24200 42.86800
H  1.29100 2.52700 41.21000
H  1.73900 4.27500 43.54900
H  0.53100 3.09400 43.99700
H  0.36000 4.08700 42.50700
H  3.25300 2.42100 40.04900
H  4.74700 1.81600 40.80600
H  5.72600 3.75700 40.77100
H  4.25900 4.55500 41.32900
H  -3.30600 -0.81200 42.19000
H  -2.74800 0.57800 43.04100
H  -3.80800 -0.69600 43.84100
H  -3.69600 -5.62300 44.55200
H  -2.10900 -5.19000 45.21000
H  -2.29900 -5.68500 43.57000
H  2.02700 -6.66100 44.26800
H  3.80900 -5.95100 46.41300
H  0.54500 -5.82500 46.68900
H  1.71500 -6.85500 47.15700
H  0.66500 -7.37700 45.75000
H  5.23600 -6.22200 43.75100
H  3.90900 -7.24900 43.65100
H  5.36900 -8.10200 46.08500
H  6.39700 -7.63900 44.77800
H  5.18600 -8.87900 44.54900
H  8.47200 -3.09000 44.17000
H  7.84900 -3.34700 45.73900
H  8.79400 -1.84500 45.50300
H  6.43900 2.10300 42.42000
H  7.40500 4.71600 45.70700
H  5.68100 5.14300 45.43800
H  6.90500 5.85300 44.40100
Mg 0.79100 42.79400 26.79000
C  2.90600 42.69400 29.61600
C  -1.83200 42.12900 29.09700
C  -1.24700 42.45100 24.21100
C  3.47900 43.37400 24.84000
N  0.62200 42.50700 29.07100
C  1.60800 42.66500 30.05300
C  1.09500 42.60900 31.48100
C  -0.39200 42.22600 31.22300
C  -0.55400 42.27200 29.64600
C  -0.95500 40.90300 31.82300
C  1.41200 43.88900 32.20300
C  1.36400 43.77200 33.74400
H  1.03800 42.49600 34.53000
N  -1.23400 42.19000 26.62000
C  -2.14800 42.13700 27.66800
C  -3.45100 41.86400 27.13700
C  -3.33400 41.90900 25.66100
C  -1.91800 42.18600 25.43500
C  -4.75300 41.72400 27.96000
C  -4.37800 41.64600 24.56100
O  -4.10000 41.44400 23.34400
C  -5.89600 41.39800 24.94600
N  1.07500 42.82900 24.76600
C  0.03700 42.79800 23.85800
C  0.58200 42.88200 22.38200
C  2.14100 43.21300 22.61800
C  2.25300 43.12500 24.14000
C  0.26100 41.61300 21.53900
C  2.70600 44.51200 21.94700
C  2.37800 45.91200 22.64900
N  2.74800 43.05000 27.10400
C  3.74500 43.25900 26.21900
C  5.05000 43.30200 26.87400
C  4.77100 42.97900 28.19000
C  3.36700 42.83600 28.27100
C  6.32500 43.67600 26.23200
C  5.39800 42.82300 29.49100
O  6.58200 42.87200 29.80100
C  4.15900 42.67600 30.52800
C  4.24300 41.46600 31.40600
O  4.12600 40.32000 31.01200
O  4.57400 41.83900 32.68400
C  4.79700 40.68500 33.52700
H  -2.65300 42.05500 29.81400
H  -1.96400 42.62900 23.40600
H  4.33800 43.67200 24.23600
H  1.44300 41.70600 31.98300
H  -0.96000 43.09100 31.56700
H  -1.30100 40.29700 30.98600
H  -1.82700 41.20700 32.40300
H  -0.22600 40.33500 32.40100
H  0.58700 44.56200 31.97200
H  2.36400 44.29000 31.85600
H  0.91600 44.67000 34.17000
H  2.39600 44.07100 33.93200
H  -5.43400 40.97100 27.56300
H  -5.14400 42.73900 28.04000
H  -4.46700 41.40700 28.96300
H  -5.96900 40.39400 25.36500
H  -6.42300 41.41700 23.99300
H  -6.42500 42.17000 25.50500
H  0.11500 43.70800 21.84600
H  2.60000 42.34600 22.14200
H  -0.14400 40.79700 22.13700
H  1.22700 41.37300 21.09300
H  -0.61300 41.79500 20.91500
H  2.32200 44.56800 20.92800
H  3.75500 44.21600 21.97200
H  3.37300 46.24700 22.94100
H  1.81300 45.73600 23.56400
H  1.81800 46.58200 21.99600
H  6.24400 44.55900 25.59900
H  6.73800 42.84300 25.66400
H  6.89900 43.95300 27.11700
H  4.08800 43.50700 31.23000
H  5.81200 40.32300 33.36300
H  4.07500 39.87200 33.44700
H  4.89200 41.02800 34.55800

