158

Mg 47.26800 25.43700 27.93700
C  48.75500 27.37100 30.46000
C  45.84700 23.53600 30.26000
C  46.68500 23.24800 25.49600
C  49.36200 27.29100 25.63800
N  47.37700 25.53500 30.17900
C  47.81800 26.44900 30.98000
C  47.25400 26.40100 32.37900
C  46.44000 25.07500 32.36900
C  46.53700 24.69700 30.84000
C  46.93700 24.03800 33.43000
C  46.41800 27.65700 32.89700
C  46.94100 28.30300 34.21200
H  45.90200 28.49300 35.30600
N  46.25900 23.73600 27.88500
C  45.78200 23.04500 29.00900
C  45.12700 21.86800 28.57800
C  45.39900 21.74000 27.20600
C  46.21900 22.91900 26.81800
C  44.53600 20.92300 29.55700
C  45.03200 20.54000 26.30100
O  45.43300 20.47000 25.07900
C  44.15100 19.52100 26.80800
N  48.16200 25.13600 25.88700
C  47.56200 24.25000 25.05300
C  47.86200 24.53400 23.58100
C  48.26500 26.02000 23.69400
C  48.64900 26.19000 25.11400
C  48.97500 23.63300 22.98700
C  47.16500 27.01500 23.30700
C  47.37900 28.57200 23.30200
N  48.68800 26.99000 27.93200
C  49.37200 27.67500 26.96300
C  50.17100 28.77500 27.54700
C  49.91900 28.64300 28.93600
C  49.02200 27.59000 29.13700
C  51.03900 29.73700 26.83100
C  50.12100 29.34600 30.10800
O  50.74000 30.39200 30.31400
C  49.42900 28.49000 31.23100
C  50.42300 28.13400 32.24700
O  51.48600 27.60100 32.10500
O  49.93900 28.55300 33.45900
C  50.88500 28.54700 34.65100
H  45.29900 23.04500 31.06600
H  46.51600 22.57300 24.65400
H  49.88200 27.95400 24.94300
H  48.13500 26.18600 32.98300
H  45.41400 25.30800 32.65400
H  47.30700 24.49900 34.34600
H  47.59400 23.32100 32.93600
H  46.01700 23.52400 33.70800
H  45.38200 27.33900 33.01300
H  46.44700 28.43000 32.12800
H  47.27300 29.30300 33.93300
H  47.78100 27.72200 34.59200
H  43.69200 20.34000 29.18700
H  44.21700 21.33500 30.51500
H  45.42400 20.31200 29.71800
H  44.63000 18.97300 27.61900
H  43.96700 18.79400 26.01700
H  43.15600 19.90300 27.03500
H  46.90600 24.57800 23.05900
H  49.09300 26.17000 23.00200
H  49.00000 22.85400 23.74900
H  49.95000 24.12000 22.98800
H  48.76500 23.24800 21.98900
H  46.27300 26.91700 23.92600
H  46.74500 26.72700 22.34300
H  48.45100 28.67100 23.46900
H  47.03000 28.97000 24.25500
H  47.04300 29.10000 22.41000
H  51.77400 29.12400 26.31000
H  51.62000 30.39100 27.48200
H  50.53200 30.35000 26.08500
H  48.61500 29.04500 31.69800
H  51.48900 27.64000 34.63900
H  50.48200 28.47900 35.66200
H  51.53900 29.37600 34.38000
Mg 1.45200 42.11900 26.30100
C  2.78300 42.34400 29.60500
C  -1.54500 41.14600 27.73800
C  0.23800 41.42800 23.18500
C  4.50200 43.01400 24.97500
N  0.71300 41.92900 28.45800
C  1.47800 42.00100 29.62300
C  0.52000 42.04600 30.87000
C  -0.82200 41.69400 30.26700
C  -0.59900 41.59000 28.69900
C  -1.58400 40.55200 30.91000
C  0.55100 43.41800 31.58100
C  1.22800 43.45900 33.00700
H  0.19400 43.40800 34.11100
N  -0.38700 41.27100 25.53400
C  -1.46000 40.97400 26.33800
C  -2.48400 40.36500 25.53700
C  -1.98600 40.40400 24.20700
C  -0.70500 41.08300 24.23100
C  -3.81800 39.87600 26.11300
C  -2.68000 40.04300 22.90400
O  -2.09800 40.00100 21.80200
C  -4.16200 39.62000 23.00700
N  2.22100 42.30600 24.37700
C  1.55200 41.99000 23.23300
C  2.50700 42.19800 21.96700
C  3.60300 43.04100 22.66300
C  3.42900 42.80200 24.09800
C  3.00400 40.85600 21.35000
C  3.50900 44.46200 22.37800
C  3.60500 44.72800 20.82100
N  3.35200 42.54700 27.11200
C  4.48800 42.90900 26.41200
C  5.52000 43.08400 27.38200
C  4.88500 42.92200 28.64300
C  3.58300 42.50600 28.40800
C  6.95300 43.43000 26.96800
C  5.14800 42.85000 30.07500
O  6.10900 42.88600 30.74500
C  3.70800 42.52400 30.75200
C  3.83500 41.17400 31.49700
O  3.89700 40.07800 30.94500
O  4.01100 41.34700 32.87000
C  4.12400 40.10200 33.59500
H  -2.56600 41.00700 28.10100
H  -0.10900 41.11800 22.19700
H  5.41400 43.44200 24.55200
H  0.95800 41.26500 31.49100
H  -1.37200 42.62800 30.37900
H  -2.06000 40.85900 31.84100
H  -1.12300 39.60800 31.20000
H  -2.32800 40.23700 30.17800
H  -0.45300 43.83900 31.64700
H  1.17000 44.12600 31.02900
H  1.81300 44.37500 33.09100
H  1.88900 42.60100 33.12900
H  -4.09000 40.21900 27.11100
H  -3.95200 38.79500 26.14600
H  -4.59400 40.19000 25.41600
H  -4.50300 39.27800 22.03000
H  -4.61200 40.54200 23.37500
H  -4.12100 38.81700 23.74400
H  1.95600 42.69900 21.17100
H  4.57100 42.74500 22.26000
H  2.52300 40.05400 21.90900
H  4.08700 40.80400 21.46300
H  2.72700 40.90700 20.29700
H  4.30900 45.03100 22.85100
H  2.62200 44.96000 22.76800
H  2.71600 45.21800 20.42500
H  3.76800 43.80000 20.27300
H  4.49000 45.35100 20.68800
H  7.20800 44.49000 26.96900
H  7.03600 42.99200 25.97300
H  7.68700 42.95700 27.62000
H  3.44500 43.28000 31.49300
H  5.06300 39.72200 33.19200
H  3.27700 39.45300 33.37200
H  4.19000 40.23400 34.67500

