158

Mg 53.59000 24.41500 45.23900
C  51.34300 26.86000 44.20500
C  51.57700 22.01000 43.77700
C  56.17500 22.13500 45.22600
C  55.71400 26.87900 46.26500
N  51.66000 24.42800 44.18300
C  50.95800 25.52200 43.79400
C  49.74800 25.20500 42.97300
C  49.62600 23.66800 43.21100
C  51.08000 23.33200 43.74300
C  48.37500 23.22200 44.03600
C  49.89300 25.57500 41.46300
C  51.36700 25.85400 41.02500
H  52.36500 24.64800 41.06800
N  53.80200 22.23500 44.65700
C  52.83000 21.45400 44.13600
C  53.25300 20.10800 43.95700
C  54.52700 20.08100 44.56600
C  54.92000 21.48500 44.79300
C  52.43600 18.98500 43.31800
C  55.42400 18.92100 44.73100
O  54.91300 17.80600 44.63800
C  56.80200 19.03700 45.18200
N  55.67500 24.52200 45.36400
C  56.45500 23.43600 45.55500
C  57.88500 23.78500 46.03500
C  57.75500 25.34500 46.35000
C  56.28300 25.61200 45.91500
C  58.27500 22.93500 47.25600
C  58.82200 26.19300 45.47200
C  59.53200 27.27700 46.41600
N  53.52900 26.45800 45.38800
C  54.41300 27.33900 46.00800
C  53.78700 28.62400 46.09800
C  52.63200 28.52600 45.27100
C  52.46800 27.15800 44.95600
C  54.49300 29.83300 46.80200
C  51.55400 29.23400 44.72400
O  51.25700 30.39800 44.81200
C  50.57800 28.14200 44.11000
C  50.20500 28.52400 42.72700
O  50.98000 28.82400 41.80100
O  48.83800 28.66300 42.66700
C  48.38100 29.11800 41.34100
H  50.89800 21.27100 43.34700
H  57.09200 21.55400 45.35100
H  56.35400 27.58800 46.79300
H  48.82700 25.63300 43.37000
H  49.65300 23.25400 42.20300
H  47.67500 23.12600 43.20600
H  47.94200 24.03500 44.61900
H  48.58800 22.30200 44.58000
H  49.33400 26.50200 41.33700
H  49.43400 24.84200 40.79900
H  51.94000 26.57800 41.60500
H  51.25800 26.19300 39.99400
H  53.05100 18.27300 42.76600
H  51.85200 19.51600 42.56700
H  51.93500 18.58400 44.19900
H  57.40900 18.14100 45.05600
H  56.96900 19.25000 46.23800
H  57.22500 19.82300 44.55700
H  58.56800 23.56400 45.21400
H  57.91300 25.52100 47.41400
H  57.51800 22.17200 47.43600
H  58.34900 23.61300 48.10700
H  59.23400 22.43900 47.10500
H  58.41800 26.72000 44.60700
H  59.56500 25.45700 45.16600
H  59.27800 27.19500 47.47300
H  59.42700 28.27600 45.99300
H  60.60700 27.14200 46.30300
H  54.94500 29.38900 47.68800
H  53.74900 30.59600 47.03200
H  55.26800 30.37100 46.25600
H  49.67300 28.15400 44.71800
H  47.33100 28.82700 41.37600
H  48.77900 28.72400 40.40600
H  48.30300 30.20500 41.33200
Mg 46.49600 25.73100 29.24800
C  47.35000 27.80400 31.73000
C  45.70600 23.21500 31.71200
C  46.24100 23.18700 26.95100
C  48.13500 27.59200 26.87500
N  46.58400 25.55200 31.43700
C  46.77300 26.60600 32.27400
C  46.51900 26.31500 33.77900
C  46.36800 24.75100 33.73800
C  46.17300 24.44600 32.23200
C  47.49700 23.85700 34.38200
C  45.43000 27.21800 34.36200
C  45.69000 27.94200 35.69100
H  46.33500 27.22500 36.95900
N  45.72800 23.69600 29.24100
C  45.48000 22.87400 30.35700
C  44.81000 21.68300 29.90400
C  45.13300 21.62300 28.47700
C  45.66100 22.92100 28.16100
C  44.20000 20.65000 30.85400
C  45.00700 20.42700 27.56700
O  45.24500 20.36600 26.39300
C  44.37000 19.19700 28.11000
N  47.09400 25.41500 27.13700
C  46.89700 24.33600 26.42300
C  47.44900 24.35300 25.04400
C  47.97300 25.87500 24.99000
C  47.75100 26.31100 26.42300
C  48.45300 23.17800 24.81800
C  47.32900 26.84900 23.88400
C  48.32500 27.37900 22.84900
N  47.44900 27.44500 29.21100
C  47.98300 28.16900 28.18400
C  48.68700 29.33100 28.76000
C  48.35700 29.27700 30.12900
C  47.63600 28.09100 30.36300
C  49.36100 30.48600 28.14300
C  48.47300 29.93800 31.40000
O  48.95000 31.04300 31.57500
C  47.91400 28.98500 32.44100
C  49.06500 28.62000 33.26300
O  49.91000 27.80500 32.89700
O  49.00200 29.28600 34.45700
C  50.10200 29.14000 35.42500
H  45.35200 22.67000 32.59000
H  46.20500 22.46200 26.13600
H  48.76300 28.22700 26.24600
H  47.39900 26.72500 34.27400
H  45.48000 24.68300 34.36500
H  48.47100 24.27500 34.12600
H  47.41100 22.87600 33.91300
H  47.37400 23.77400 35.46200
H  44.43800 26.76900 34.41500
H  45.31700 28.11000 33.74700
H  44.67700 28.21800 35.98400
H  46.30500 28.81900 35.48900
H  43.23100 20.58400 30.36000
H  44.00400 21.08100 31.83600
H  44.84700 19.78000 30.96500
H  45.11800 18.83200 28.81400
H  44.29800 18.44700 27.32300
H  43.37400 19.30600 28.54100
H  46.64100 24.26700 24.31800
H  49.05800 25.92800 24.90100
H  48.04000 22.52800 24.04700
H  48.66900 22.64600 25.74400
H  49.39500 23.62100 24.49400
H  46.91900 27.74100 24.35600
H  46.50200 26.33100 23.39700
H  47.99700 27.16100 21.83200
H  49.37700 27.10500 22.92700
H  48.39200 28.46100 22.95700
H  48.80200 31.40500 28.32300
H  49.52700 30.29200 27.08400
H  50.24900 30.67000 28.74700
H  47.13700 29.54000 32.96700
H  51.00900 28.71000 35.00000
H  49.84900 28.71000 36.39400
H  50.43600 30.16100 35.61400

