158

Mg 49.42200 35.86800 27.14700
C  47.37200 34.34400 29.46800
C  50.23000 38.30300 29.39600
C  51.52400 37.21200 24.76400
C  48.83500 33.35800 24.87800
N  48.79100 36.25500 29.16000
C  48.05300 35.47600 30.01300
C  48.23600 35.97900 31.49200
C  48.90100 37.40100 31.41500
C  49.35200 37.33500 29.88000
C  48.16700 38.68700 31.79000
C  49.13800 35.03000 32.34500
C  48.94700 34.89100 33.91200
H  48.06300 35.85500 34.57800
N  50.62500 37.62400 26.98100
C  50.82800 38.47700 28.05000
C  51.74300 39.48200 27.70400
C  52.27900 39.20500 26.40600
C  51.49800 37.92900 25.98400
C  52.05600 40.70100 28.65000
C  53.30800 39.91200 25.51600
O  53.63300 39.43500 24.44100
C  54.04600 41.14500 26.04400
N  49.86900 35.52800 24.97100
C  50.83500 36.14700 24.26900
C  51.06800 35.55900 22.85700
C  50.42400 34.19000 23.08500
C  49.67200 34.38800 24.37200
C  50.26900 36.42800 21.89100
C  51.38400 33.00400 23.19400
C  51.51800 32.26000 21.91400
N  48.21900 34.24800 27.09800
C  48.15600 33.32800 26.14100
C  47.34600 32.19600 26.65700
C  46.94400 32.60000 27.94000
C  47.52200 33.82700 28.19200
C  47.15500 30.88100 25.90300
C  46.21100 32.19900 29.04500
O  45.55800 31.11800 29.23300
C  46.34000 33.42600 30.01700
C  46.51600 32.79600 31.42300
O  47.42000 32.06100 31.85400
O  45.38000 33.17300 32.12300
C  45.37900 32.61900 33.51500
H  50.71200 38.92200 30.15600
H  52.42500 37.49100 24.21300
H  48.70500 32.43700 24.30700
H  47.31200 36.18200 32.03300
H  49.75700 37.41400 32.09000
H  48.63600 39.19100 32.63500
H  47.15100 38.43900 32.09700
H  48.01900 39.40400 30.98300
H  50.17500 35.21200 32.06400
H  49.02000 34.00100 32.00600
H  49.92800 34.95000 34.38400
H  48.52000 33.89400 34.02900
H  52.37900 41.59400 28.11500
H  52.84500 40.49700 29.37500
H  51.15100 41.01800 29.16700
H  53.37400 42.00100 26.10600
H  54.90300 41.53000 25.49100
H  54.44000 40.84400 27.01500
H  52.11100 35.51400 22.54500
H  49.78000 34.15100 22.20600
H  50.50500 37.39500 22.33500
H  49.19400 36.29200 22.01400
H  50.66900 36.50500 20.88000
H  51.09300 32.20200 23.87200
H  52.33700 33.46400 23.45700
H  50.54800 32.20100 21.41900
H  52.01800 31.29300 21.86400
H  52.01600 33.01900 21.31100
H  48.06200 30.47700 25.45500
H  46.39200 31.07000 25.14800
H  46.76700 30.17400 26.63600
H  45.33400 33.84200 29.96000
H  45.29700 31.53300 33.46600
H  44.51500 33.00300 34.05600
H  46.27900 32.96300 34.02600
Mg 5.23600 54.28500 40.95400
C  4.18800 50.87500 40.71700
C  7.95500 53.39300 38.92000
C  6.11400 57.49700 40.77400
C  2.11800 55.00000 42.30900
N  5.90600 52.34500 39.83700
C  5.32800 51.11700 39.91000
C  5.99700 50.16000 38.92500
C  7.37600 50.91400 38.69900
C  7.09500 52.33100 39.20800
C  8.63600 50.25100 39.28800
C  5.12500 49.80600 37.75900
C  4.98400 48.33000 37.31300
H  5.46800 47.84100 35.94500
N  6.85200 55.27600 40.07100
C  7.84100 54.75400 39.31300
C  8.92500 55.81100 39.16000
C  8.39300 57.03300 39.65400
C  7.13600 56.64900 40.19600
C  10.30100 55.39900 38.65200
C  9.12200 58.30100 39.71500
O  10.22200 58.41100 39.14000
C  8.65500 59.53100 40.51100
N  4.21200 55.95700 41.37400
C  4.77800 57.17300 41.23800
C  3.80100 58.25900 41.70900
C  2.49000 57.47400 42.07400
C  2.93500 56.03800 41.86600
C  4.27300 59.14800 42.86000
C  1.33000 57.76700 41.04600
C  -0.06300 57.98400 41.59000
N  3.47000 53.21200 41.62600
C  2.28800 53.61700 42.16200
C  1.61900 52.41400 42.56100
C  2.27400 51.34000 42.04100
C  3.42400 51.87300 41.42200
C  0.32100 52.35500 43.43500
C  2.31100 49.83600 41.97000
O  1.72600 48.92100 42.50800
C  3.57700 49.49000 41.11600
C  3.22500 48.47900 40.13500
O  2.24000 48.51500 39.40300
O  4.09600 47.37100 40.28200
C  3.52600 46.11100 39.78500
H  8.89500 53.14000 38.42600
H  6.30100 58.57300 40.79900
H  1.19400 55.34200 42.78000
H  6.23900 49.16800 39.30700
H  7.43700 51.02300 37.61600
H  9.55100 50.46300 38.73500
H  8.55500 49.22700 39.65000
H  8.69600 50.83400 40.20700
H  5.36400 50.42400 36.89300
H  4.07400 50.05600 37.90000
H  3.90800 48.15800 37.28300
H  5.35000 47.56200 37.99400
H  10.45400 54.37100 38.98200
H  10.99900 55.93700 39.29300
H  10.44400 55.61100 37.59200
H  7.78400 59.99300 40.04600
H  9.53100 60.16800 40.63700
H  8.45300 59.20200 41.53000
H  3.63200 58.92300 40.86100
H  2.08400 57.66200 43.06800
H  4.33500 60.19500 42.56300
H  5.17600 58.75500 43.32500
H  3.49000 59.18600 43.61700
H  1.32500 56.99000 40.28200
H  1.38600 58.69300 40.47400
H  -0.78500 57.47900 40.94900
H  -0.30800 59.03300 41.42500
H  -0.21100 57.59900 42.59900
H  -0.19300 53.31300 43.36200
H  0.41800 52.29400 44.51900
H  -0.37000 51.56700 43.13400
H  4.38300 49.11200 41.74400
H  3.64900 46.01500 38.70600
H  2.54200 45.87400 40.18800
H  4.21500 45.35300 40.15900

