158

Mg 40.99500 9.13400 29.44000
C  42.45400 10.28600 32.53900
C  38.53600 7.72700 31.28200
C  39.96400 7.64300 26.76800
C  43.99800 10.01400 28.00900
N  40.60300 8.98500 31.64600
C  41.21500 9.64500 32.73300
C  40.38500 9.62000 34.03900
C  39.15600 8.74500 33.63400
C  39.39700 8.49500 32.08500
C  39.08500 7.45700 34.41900
C  40.04900 11.08200 34.45600
C  39.03300 11.24700 35.65400
H  39.58300 11.42800 37.07300
N  39.40100 7.92300 29.05400
C  38.48400 7.47700 29.92900
C  37.40900 6.72400 29.18400
C  37.74700 6.79600 27.82300
C  39.04800 7.49300 27.86200
C  36.33200 5.93000 29.92200
C  37.03200 6.27500 26.62800
O  37.46100 6.24800 25.46200
C  35.64100 5.64800 26.82900
N  41.97400 8.64600 27.67800
C  41.24200 8.20500 26.62600
C  41.79500 8.39500 25.24100
C  43.07200 9.21800 25.65900
C  43.00900 9.38500 27.19200
C  42.26400 7.16400 24.44800
C  43.23700 10.56000 24.93300
C  42.03100 11.49200 25.02600
N  42.70900 10.10000 30.00800
C  43.86900 10.33400 29.33100
C  44.82000 11.10200 30.04700
C  44.23400 11.23300 31.30600
C  43.02700 10.49300 31.27800
C  46.08800 11.57300 29.61900
C  44.43400 11.78400 32.65200
O  45.22100 12.64300 33.08900
C  43.33000 11.11800 33.49000
C  43.86500 10.15200 34.55700
O  44.81400 9.38200 34.47500
O  43.00700 10.12000 35.65100
C  43.45000 9.23100 36.77200
H  37.65700 7.37500 31.82700
H  39.53600 7.22500 25.85500
H  44.83600 10.50000 27.50600
H  41.00400 9.14100 34.79800
H  38.15900 9.18300 33.59500
H  39.09700 6.57500 33.77900
H  38.17200 7.40000 35.01100
H  39.91400 7.51200 35.12500
H  39.60300 11.62200 33.62100
H  40.95700 11.53200 34.85600
H  38.40600 10.36500 35.78700
H  38.31400 12.04300 35.46400
H  36.45100 5.97600 31.00400
H  36.28200 4.85500 29.74600
H  35.40100 6.41600 29.63000
H  35.74800 4.87400 27.58800
H  35.30700 5.31300 25.84600
H  34.83200 6.31100 27.13600
H  41.20900 8.95500 24.51300
H  44.02300 8.74300 25.41600
H  43.20700 6.77600 24.83300
H  42.46300 7.48200 23.42500
H  41.62600 6.29300 24.59500
H  43.38300 10.33000 23.87800
H  44.03100 11.13300 25.41400
H  42.19100 12.48300 25.45100
H  41.30400 11.11000 25.74200
H  41.43000 11.66600 24.13300
H  46.08000 12.38700 28.89500
H  46.46700 10.71800 29.06000
H  46.82500 11.72800 30.40700
H  42.74100 11.93000 33.91600
H  44.38200 9.59100 37.20700
H  43.56600 8.18300 36.49500
H  42.76800 9.21900 37.62300
Mg 46.97100 25.08400 29.41700
C  48.02800 27.48900 31.86800
C  45.61500 23.35300 32.19300
C  46.46200 22.49900 27.33700
C  48.54000 26.90700 26.99100
N  46.78800 25.49500 31.82800
C  47.24200 26.52300 32.51500
C  46.84700 26.39600 34.06200
C  46.17000 24.93300 34.06900
C  46.21400 24.55500 32.60600
C  46.82100 23.88700 35.05000
C  45.95500 27.59800 34.57700
C  46.42900 28.27900 35.90800
H  46.76300 27.28200 37.01600
N  46.08200 23.19100 29.66100
C  45.56600 22.64200 30.90400
C  45.02000 21.33000 30.62100
C  45.28000 21.00800 29.17200
C  46.01300 22.24300 28.64700
C  44.39100 20.49900 31.62300
C  45.01600 19.75000 28.50100
O  45.44600 19.50300 27.35200
C  44.23000 18.63600 29.19700
N  47.37900 24.80300 27.41600
C  47.02700 23.58600 26.81200
C  47.44200 23.71600 25.25000
C  48.05200 25.15600 25.14100
C  48.06500 25.63800 26.60200
C  48.50400 22.57000 24.80300
C  47.15100 26.01300 24.17300
C  47.90000 27.07700 23.26400
N  48.03500 26.88000 29.38600
C  48.63600 27.46500 28.27900
C  49.25300 28.73200 28.77000
C  49.00500 28.74800 30.16900
C  48.33300 27.58700 30.46900
C  49.92000 29.72700 27.95400
C  49.27800 29.47500 31.39300
O  49.90800 30.52600 31.58200
C  48.65200 28.70100 32.54300
C  49.78000 28.36500 33.53200
O  50.44800 27.33200 33.79700
O  49.75800 29.38500 34.40800
C  50.42300 29.14900 35.70400
H  45.04700 22.95000 33.03300
H  46.28000 21.64600 26.68000
H  48.96700 27.55300 26.22100
H  47.82100 26.36800 34.54900
H  45.15300 25.07400 34.43500
H  46.03000 23.14200 35.13800
H  47.07200 24.40300 35.97600
H  47.66000 23.39400 34.55900
H  44.93300 27.31600 34.83000
H  45.92900 28.32200 33.76300
H  45.73900 28.98300 36.37400
H  47.41200 28.73000 35.77200
H  44.20500 21.03900 32.55100
H  45.10300 19.68100 31.74000
H  43.45200 20.00700 31.36500
H  43.29100 19.08300 29.52500
H  44.84600 18.18100 29.97100
H  44.13000 17.79000 28.51800
H  46.53800 23.62800 24.64800
H  49.09300 25.13300 24.81800
H  48.34200 22.08900 23.83800
H  48.44700 21.75900 25.53000
H  49.48800 22.99800 24.99400
H  46.37400 26.55600 24.71200
H  46.69900 25.27500 23.51000
H  47.61500 26.96000 22.21900
H  48.97600 26.94400 23.37300
H  47.58900 28.05000 23.64400
H  49.82600 30.69900 28.43800
H  49.48500 29.98300 26.98900
H  50.98500 29.57900 27.77700
H  47.95100 29.33700 33.08500
H  51.31000 28.51700 35.75100
H  49.69500 28.72100 36.39400
H  50.68000 30.10100 36.16800

