158

Mg 5.94300 52.94100 40.56700
C  5.88300 49.33400 40.12300
C  9.21200 52.93400 39.75100
C  5.67700 56.22200 40.31300
C  2.34700 52.67200 41.08900
N  7.29500 51.27400 39.82000
C  7.16800 49.87900 39.93500
C  8.56400 49.21500 39.86600
C  9.54300 50.42700 40.14500
C  8.63300 51.68900 39.99200
C  10.15000 50.49100 41.62400
C  8.86500 48.54300 38.48000
C  8.76100 49.47500 37.20200
H  7.65700 49.14900 36.23000
N  7.25500 54.39500 39.96700
C  8.56500 54.16100 39.65700
C  9.17100 55.40100 39.29600
C  8.17900 56.43900 39.54400
C  6.95500 55.75000 39.90400
C  10.52200 55.53800 38.67500
C  8.39000 57.85500 39.31800
O  9.47700 58.25500 38.91600
C  7.34300 58.91400 39.66900
N  4.20900 54.29000 40.77300
C  4.44000 55.62200 40.66800
C  3.12800 56.31200 40.84200
C  2.02900 55.20100 41.02000
C  2.87200 53.94100 40.97200
C  3.15200 57.43100 41.98900
C  0.85900 55.23100 39.97300
C  -0.54600 55.69000 40.53400
N  4.42600 51.42900 40.72100
C  3.03500 51.44900 40.86800
C  2.48200 50.08400 40.88200
C  3.58400 49.27900 40.58700
C  4.74200 50.07900 40.48900
C  0.95400 49.82000 40.99800
C  3.92300 47.83000 40.32800
O  3.20400 46.83400 40.47900
C  5.44100 47.86400 39.95000
C  5.53000 47.32000 38.64100
O  5.11400 47.87000 37.65300
O  6.19500 46.12100 38.61000
C  6.33100 45.55300 37.27800
H  10.29900 52.83300 39.70900
H  5.55700 57.30600 40.26400
H  1.27000 52.51100 41.17500
H  8.58300 48.41400 40.60500
H  10.48900 50.44000 39.60500
H  10.52100 49.57900 42.09200
H  9.46700 51.00600 42.30000
H  11.03500 51.12800 41.63700
H  8.11400 47.75300 38.49800
H  9.83900 48.05400 38.50500
H  9.74100 49.18400 36.82400
H  8.85100 50.53700 37.42800
H  10.46500 56.36000 37.96200
H  10.69100 54.59600 38.15300
H  11.25200 55.68300 39.47100
H  7.67900 59.93000 39.46400
H  7.09600 58.77900 40.72200
H  6.42600 58.69500 39.12200
H  3.04200 56.80100 39.87200
H  1.64900 55.26300 42.04000
H  3.59500 58.36900 41.65400
H  3.68700 57.00900 42.84000
H  2.19100 57.71200 42.42100
H  0.66700 54.25000 39.53900
H  1.13200 55.85500 39.12200
H  -0.43700 56.02200 41.56600
H  -1.20800 54.82500 40.49300
H  -0.81800 56.54900 39.92000
H  0.46800 49.93400 40.02900
H  0.47100 50.52900 41.67000
H  0.82700 48.85000 41.47700
H  5.90000 47.17600 40.66000
H  7.19100 45.96000 36.74600
H  5.51900 45.61000 36.55300
H  6.46100 44.50600 37.55000
Mg -5.98300 25.01800 26.72600
C  -4.47000 26.39600 29.61800
C  -7.63600 22.79500 28.63300
C  -6.98000 23.62800 23.83800
C  -3.69600 26.97500 24.84700
N  -5.94100 24.57000 28.92000
C  -5.40700 25.34200 29.90100
C  -5.89700 24.79200 31.31200
C  -6.54400 23.36500 30.87200
C  -6.71800 23.57200 29.35800
C  -5.81800 22.03300 31.26700
C  -6.75000 25.84400 32.09700
C  -7.52000 25.51100 33.37100
H  -6.96900 24.67300 34.52600
N  -7.29900 23.58000 26.25800
C  -7.94700 22.79600 27.24000
C  -8.90000 21.93500 26.53300
C  -8.76900 22.12900 25.11400
C  -7.65000 23.17700 24.98300
C  -9.87100 21.11200 27.40600
C  -9.63500 21.58700 23.97300
O  -9.48700 21.88400 22.78700
C  -10.73200 20.59600 24.36200
N  -5.40500 25.28700 24.64700
C  -5.99100 24.58100 23.66000
C  -5.41000 24.89400 22.32400
C  -4.54300 26.19900 22.59700
C  -4.61800 26.25400 24.13100
C  -4.60600 23.60700 21.97000
C  -4.82400 27.56900 21.86300
C  -3.55400 28.17800 21.20800
N  -4.40600 26.35700 27.10000
C  -3.62700 27.09300 26.22900
C  -2.73700 27.97000 26.92300
C  -3.11600 27.77500 28.26000
C  -4.10600 26.76400 28.34000
C  -1.80500 29.02000 26.39200
C  -2.85700 28.19200 29.60300
O  -2.13000 29.06800 30.09700
C  -3.72900 27.26700 30.56900
C  -2.69200 26.50000 31.35700
O  -1.83500 25.83600 30.77200
O  -2.83900 26.60200 32.68800
C  -1.65500 25.96900 33.35800
H  -8.18100 21.98800 29.12800
H  -7.33000 23.15200 22.92000
H  -2.98100 27.59000 24.29700
H  -4.97600 24.45500 31.78800
H  -7.49600 23.18200 31.37100
H  -5.21700 21.67500 30.43100
H  -6.51800 21.21900 31.45800
H  -5.12300 22.12800 32.10100
H  -7.53300 26.14700 31.40200
H  -6.09300 26.65300 32.41700
H  -8.41800 25.01800 32.99800
H  -7.78800 26.49300 33.76000
H  -9.69200 20.04100 27.50900
H  -10.91400 21.29100 27.14700
H  -9.93300 21.51700 28.41600
H  -11.45600 21.13000 24.97800
H  -10.32000 19.80600 24.99000
H  -11.27700 20.14900 23.53100
H  -6.12900 25.06800 21.52400
H  -3.54900 25.84500 22.32300
H  -5.15500 23.17100 21.13500
H  -4.48300 22.90700 22.79600
H  -3.60400 23.87800 21.63600
H  -5.12300 28.37600 22.53200
H  -5.50900 27.36500 21.04000
H  -3.87900 28.43800 20.20000
H  -2.69300 27.51300 21.13600
H  -3.36900 29.09100 21.77300
H  -1.34000 28.63100 25.48600
H  -1.03400 29.25500 27.12600
H  -2.35600 29.94100 26.20000
H  -4.36100 27.68900 31.35100
H  -1.34300 26.73900 34.06300
H  -0.79800 25.76700 32.71500
H  -1.87200 24.98100 33.76500

