158

Mg -1.48600 16.90300 26.02200
C  -1.74900 14.68000 28.73900
C  -1.89600 19.55000 28.25600
C  -1.71800 19.06100 23.35700
C  -1.66200 14.20900 23.80700
N  -1.77700 17.07900 28.28000
C  -1.74000 16.02200 29.15900
C  -1.63600 16.55500 30.54800
C  -1.97500 18.06600 30.43900
C  -1.93900 18.28200 28.90100
C  -3.37100 18.47000 30.94700
C  -0.22100 16.35400 31.20800
C  -0.07000 15.93500 32.71900
H  -1.11800 16.20200 33.83500
N  -1.62900 19.01100 25.83900
C  -1.85900 19.92600 26.87600
C  -1.91000 21.28100 26.32600
C  -1.70800 21.17100 24.85800
C  -1.68800 19.65500 24.63700
C  -2.07800 22.55400 27.13700
C  -1.51100 22.19600 23.79900
O  -1.33400 21.91500 22.66500
C  -1.48900 23.68000 24.10900
N  -1.78400 16.69300 23.87800
C  -1.72600 17.76700 22.99500
C  -1.88900 17.22000 21.53600
C  -1.58700 15.66500 21.74800
C  -1.70100 15.47100 23.22100
C  -3.31900 17.49200 20.93700
C  -0.18300 15.07000 21.23700
C  1.12100 15.45100 22.01600
N  -1.55200 14.88400 26.21000
C  -1.64800 13.91000 25.19200
C  -1.66400 12.63800 25.88000
C  -1.58300 12.84600 27.19600
C  -1.66000 14.22700 27.39700
C  -1.81800 11.30000 25.18500
C  -1.55300 12.22800 28.52300
O  -1.57200 11.05400 28.82800
C  -1.95200 13.39100 29.49100
C  -1.23300 13.17100 30.79000
O  -0.04500 13.15000 30.92700
O  -2.15800 12.84800 31.74200
C  -1.69300 12.34000 33.02200
H  -1.76300 20.48300 28.80800
H  -1.96300 19.75800 22.55200
H  -1.89100 13.44000 23.06600
H  -2.35800 16.01500 31.16100
H  -1.24500 18.66500 30.98400
H  -3.82200 19.34600 30.48100
H  -3.17500 18.71800 31.99000
H  -4.07400 17.63900 31.00100
H  0.38900 17.24500 31.05900
H  0.36000 15.60300 30.67400
H  0.80500 16.44200 33.12600
H  -0.03300 14.84600 32.75600
H  -2.42900 22.30800 28.13900
H  -2.87400 23.11400 26.64800
H  -1.10600 23.04200 27.07400
H  -0.61500 23.79000 24.75000
H  -2.39600 24.06200 24.57900
H  -1.28500 24.38400 23.30200
H  -1.12600 17.61700 20.86700
H  -2.35700 15.05800 21.27200
H  -4.06000 17.80500 21.67300
H  -3.63800 16.56700 20.45700
H  -3.19800 18.28200 20.19700
H  -0.13000 15.57700 20.27300
H  -0.27900 13.98800 21.14600
H  1.46700 14.50900 22.44100
H  0.79500 16.16500 22.77200
H  1.94500 15.76200 21.37300
H  -2.73500 11.24200 24.59900
H  -1.86900 10.60000 26.02000
H  -0.93400 11.05300 24.59600
H  -3.01300 13.34200 29.73900
H  -1.41800 11.29100 32.91100
H  -2.41700 12.31300 33.83600
H  -0.85200 12.92900 33.38900
Mg 9.21400 3.26800 27.29500
C  10.58000 1.83100 30.15800
C  7.92500 5.75800 29.27500
C  7.67500 4.52600 24.60400
C  10.46900 0.77600 25.43800
N  9.14500 3.68000 29.56300
C  9.78400 2.90800 30.54000
C  9.53100 3.60000 31.93000
C  8.78500 4.91900 31.50200
C  8.56700 4.77600 30.06200
C  7.55800 5.35600 32.36300
C  10.90100 3.84400 32.66800
C  10.81000 4.80400 33.81200
H  11.55000 4.54200 35.10900
N  8.06700 4.95100 26.99400
C  7.62900 5.86600 27.92600
C  6.70000 6.77200 27.32200
C  6.49900 6.29500 25.98000
C  7.40900 5.19100 25.79500
C  6.15700 8.00900 27.96800
C  5.53000 6.87300 25.00500
O  5.38300 6.39100 23.85700
C  4.76100 8.11300 25.26400
N  9.28200 2.92000 25.27000
C  8.50600 3.48600 24.36800
C  8.61600 2.82100 22.95500
C  9.75400 1.80700 23.21200
C  9.85500 1.80800 24.72000
C  7.36300 2.18600 22.37200
C  11.05200 2.10000 22.47200
C  10.96000 1.76000 20.96700
N  10.41600 1.67700 27.67000
C  10.75100 0.69400 26.80100
C  11.43800 -0.43000 27.49200
C  11.45900 0.02000 28.83300
C  10.84200 1.31200 28.88200
C  12.08300 -1.53200 26.78000
C  11.82800 -0.27800 30.18800
O  12.50700 -1.22800 30.64200
C  11.35300 0.87400 31.09100
C  10.62300 0.34800 32.29000
O  9.47700 -0.12300 32.22300
O  11.38600 0.39300 33.43000
C  10.68600 -0.11500 34.63400
H  7.67200 6.63200 29.87800
H  7.05900 4.78000 23.73900
H  10.89700 0.03900 24.75500
H  8.85800 2.96700 32.50800
H  9.44300 5.78800 31.53700
H  7.18800 6.34000 32.07200
H  7.69000 5.32800 33.44500
H  6.72400 4.69300 32.13400
H  11.68300 4.23400 32.01600
H  11.22800 2.93400 33.17100
H  9.79800 4.97100 34.18000
H  11.32500 5.68500 33.42900
H  6.15600 8.84300 27.26600
H  6.86100 8.34800 28.72800
H  5.14000 7.77600 28.28300
H  4.01900 8.04300 24.46800
H  5.40000 8.99400 25.20200
H  4.32400 8.01400 26.25700
H  8.88000 3.62200 22.26400
H  9.41200 0.80300 22.96400
H  6.58100 2.24900 23.12900
H  7.40200 1.18500 21.94300
H  7.02100 2.83000 21.56200
H  11.78100 1.42500 22.92100
H  11.18800 3.16900 22.63800
H  10.10800 1.09000 20.84200
H  11.94200 1.35500 20.72700
H  10.72000 2.53100 20.23600
H  11.37600 -2.36200 26.77200
H  12.98400 -1.85600 27.30000
H  12.30000 -1.28200 25.74200
H  12.30400 1.23600 31.48400
H  10.18300 0.70900 35.14000
H  11.41700 -0.52400 35.33100
H  9.94700 -0.89300 34.44300

