158

Mg -0.38900 6.55000 26.14800
C  0.54500 8.85600 28.62600
C  0.21300 3.95800 28.28500
C  -0.79700 4.52900 23.59900
C  0.01900 9.31500 23.92600
N  0.39000 6.33000 28.21800
C  0.42600 7.48800 29.08400
C  0.40600 6.97200 30.58900
C  0.49900 5.39600 30.41600
C  0.30400 5.18000 28.89900
C  1.73700 4.70800 31.05400
C  -0.80000 7.49200 31.40000
C  -0.51400 8.34000 32.60600
H  0.63400 7.86300 33.49600
N  -0.36200 4.53800 25.93400
C  0.00900 3.61200 26.89500
C  -0.14500 2.31600 26.38700
C  -0.56000 2.44700 25.03200
C  -0.63100 3.85500 24.80400
C  0.04500 1.14300 27.23900
C  -0.93300 1.40200 24.04200
O  -1.54000 1.71600 23.02400
C  -0.68600 -0.05300 24.34000
N  -0.48000 6.93700 24.10500
C  -0.67300 5.90600 23.26900
C  -0.43200 6.34000 21.84900
C  -0.51100 7.86200 21.91700
C  -0.31600 8.09900 23.41600
C  0.97600 5.90700 21.33200
C  -1.74200 8.59700 21.28700
C  -2.82200 9.15200 22.25900
N  0.18600 8.68200 26.16100
C  0.25800 9.65700 25.20600
C  0.79600 10.85900 25.75600
C  0.84200 10.65500 27.09400
C  0.48500 9.29200 27.25300
C  1.20000 12.04300 25.03900
C  1.22900 11.26600 28.39700
O  1.63400 12.39500 28.71100
C  0.89900 10.14400 29.40700
C  2.11700 9.99200 30.24100
O  3.03600 9.23200 29.97000
O  1.97100 10.81200 31.36000
C  3.12500 10.98300 32.20600
H  0.30300 3.16400 29.02900
H  -0.90200 3.84600 22.75400
H  0.32800 10.12000 23.25600
H  1.27800 7.31300 31.14700
H  -0.40500 4.97400 30.85500
H  2.08800 5.40700 31.81300
H  2.49000 4.50500 30.29200
H  1.38200 3.73100 31.38100
H  -1.57000 6.77100 31.67300
H  -1.23200 8.17800 30.67200
H  -1.35700 8.36600 33.29600
H  -0.41900 9.39400 32.34500
H  -0.87300 0.81000 27.72300
H  0.64500 1.26300 28.14100
H  0.57700 0.37400 26.68000
H  -1.00800 -0.33200 25.34400
H  0.33200 -0.42400 24.22500
H  -1.26100 -0.68400 23.66300
H  -1.28500 6.09100 21.21800
H  0.38200 8.29100 21.46200
H  1.25400 4.93200 21.73000
H  1.78100 6.63200 21.45300
H  0.95200 5.75800 20.25200
H  -2.28600 7.93600 20.61300
H  -1.28600 9.44300 20.77200
H  -2.81100 10.23800 22.17100
H  -2.64800 9.08800 23.33300
H  -3.73300 8.70800 21.85700
H  0.45300 12.40500 24.33300
H  2.09500 12.01100 24.41700
H  1.13100 12.88000 25.73400
H  0.06700 10.46100 30.03600
H  3.95300 11.22000 31.53700
H  3.38700 10.03800 32.68300
H  2.99000 11.66200 33.04800
Mg 8.04900 2.44100 27.37000
C  9.72500 0.94000 30.29000
C  6.44200 4.59600 29.45200
C  6.18900 3.44600 24.73700
C  9.71700 0.10000 25.43900
N  8.08000 2.61100 29.58100
C  8.89500 2.01800 30.60200
C  8.66100 2.65600 31.90100
C  7.46400 3.55900 31.60200
C  7.34800 3.67800 30.07300
C  6.08400 3.15500 32.23100
C  9.89400 3.26800 32.65300
C  10.47900 2.52700 33.93300
H  11.12000 3.36700 35.07200
N  6.41900 3.68300 27.18400
C  5.95100 4.55900 28.10800
C  4.86000 5.38400 27.59100
C  4.81200 5.08700 26.23500
C  5.84700 3.98400 26.00300
C  4.04700 6.35600 28.46000
C  3.80600 5.57800 25.18400
O  3.74100 5.22400 23.99800
C  2.74800 6.46800 25.68000
N  7.92600 1.86900 25.41400
C  7.12400 2.46100 24.44200
C  7.45300 1.88600 23.05400
C  8.60000 0.90500 23.24000
C  8.73700 0.88800 24.80800
C  6.26000 1.27600 22.26400
C  9.95500 1.14500 22.52800
C  10.44300 0.14800 21.50800
N  9.49300 0.77000 27.73200
C  10.02700 -0.07400 26.79900
C  10.95700 -0.93600 27.49900
C  10.88200 -0.62000 28.85100
C  9.96700 0.46400 28.91700
C  11.78000 -2.06400 26.79200
C  11.35600 -0.94000 30.18700
O  12.15800 -1.78500 30.48600
C  10.75300 0.10700 31.17700
C  10.13100 -0.54200 32.38600
O  8.89100 -0.79000 32.52800
O  11.05200 -0.82300 33.38600
C  10.34800 -1.06000 34.64500
H  5.99000 5.31500 30.13800
H  5.64100 3.93600 23.92900
H  10.19600 -0.57900 24.73100
H  8.14500 1.94200 32.54200
H  7.56000 4.57600 31.98100
H  5.37000 3.91900 32.53900
H  6.31400 2.65200 33.17000
H  5.50000 2.65500 31.45900
H  9.64600 4.25700 33.03800
H  10.62300 3.34500 31.84600
H  11.24100 1.83400 33.57600
H  9.69000 1.98700 34.45700
H  4.47000 6.46100 29.45800
H  3.04000 5.94200 28.52200
H  4.09500 7.29500 27.90900
H  2.04000 5.94500 26.32200
H  2.12700 6.85000 24.86900
H  3.25100 7.33200 26.11400
H  7.79500 2.74000 22.47000
H  8.38800 -0.13100 22.97400
H  5.33200 1.47300 22.80200
H  6.28600 0.20400 22.06900
H  6.39400 1.83000 21.33600
H  10.67500 1.18400 23.34600
H  10.03400 2.14800 22.10800
H  10.75300 0.86100 20.74400
H  9.65600 -0.54800 21.21800
H  11.28800 -0.46500 21.82200
H  11.60600 -3.01600 27.29300
H  12.83300 -1.78500 26.84000
H  11.43500 -2.20200 25.76800
H  11.53600 0.72200 31.61900
H  9.75000 -0.22700 35.01400
H  11.05300 -1.23900 35.45700
H  9.57100 -1.82400 34.61600

