158

Mg 54.11500 23.54700 43.98700
C  51.66300 26.04200 43.25700
C  52.30400 21.22900 42.44200
C  56.83100 21.65300 44.03000
C  56.24400 26.32300 45.03000
N  52.30500 23.72100 42.77000
C  51.38400 24.68100 42.82700
C  50.10700 24.18800 42.02200
C  50.25800 22.63600 42.15900
C  51.71600 22.55600 42.47700
C  49.36100 21.93400 43.27200
C  50.04500 24.76000 40.58900
C  51.40500 24.90700 39.84200
H  51.18800 25.59500 38.41100
N  54.48400 21.67600 43.41800
C  53.64300 20.86400 42.76500
C  54.24000 19.57700 42.59500
C  55.49200 19.67200 43.19200
C  55.62200 21.07700 43.56900
C  53.58300 18.35200 41.95000
C  56.46600 18.45700 43.36800
O  56.16400 17.25900 43.13100
C  57.85500 18.67900 43.81000
N  56.24200 24.03000 44.54600
C  57.13000 22.93100 44.52300
C  58.50500 23.35800 44.92400
C  58.35500 24.87800 45.22000
C  56.88600 25.13100 44.84400
C  59.13900 22.41200 46.08600
C  59.46600 25.78700 44.55900
C  60.19200 26.67600 45.51300
N  54.07300 25.74500 44.14900
C  54.92000 26.63900 44.74900
C  54.21100 28.00200 44.90100
C  52.87200 27.72100 44.37400
C  52.88000 26.40400 43.86400
C  54.64700 29.19100 45.62200
C  51.58800 28.27700 44.12800
O  51.16700 29.39000 44.35800
C  50.68500 27.15900 43.45400
C  50.17500 27.79700 42.22300
O  50.87900 28.00500 41.25800
O  48.82600 28.02500 42.29400
C  48.10700 28.21100 40.98600
H  51.68200 20.35000 42.26300
H  57.79000 21.13000 44.01800
H  56.84000 27.14500 45.43100
H  49.12000 24.52900 42.33500
H  50.00200 22.12700 41.23000
H  48.54000 22.62700 43.45300
H  49.93900 21.87600 44.19500
H  49.04600 20.97300 42.86500
H  49.53100 25.71800 40.50500
H  49.42600 24.08800 39.99500
H  51.71300 23.86300 39.78100
H  52.07500 25.48900 40.47500
H  52.98700 18.58000 41.06600
H  52.98700 17.73800 42.62600
H  54.36800 17.67700 41.60900
H  57.76500 19.29900 44.70200
H  58.36400 19.17000 42.98100
H  58.39200 17.74400 43.96700
H  59.16700 23.27600 44.06200
H  58.38300 24.92900 46.30900
H  59.32000 22.98100 46.99800
H  60.10900 22.00300 45.80300
H  58.47500 21.56300 46.24900
H  59.03500 26.42200 43.78500
H  60.26500 25.16400 44.15700
H  60.16900 27.69500 45.12700
H  61.24000 26.38300 45.44900
H  59.84700 26.54800 46.53900
H  53.97100 29.22500 46.47700
H  54.45800 30.03800 44.96400
H  55.71500 29.09200 45.81900
H  49.86600 26.86300 44.11000
H  48.15300 27.31500 40.36700
H  48.63700 28.94300 40.37500
H  47.08900 28.59700 41.03500
Mg -5.38100 25.13100 25.94400
C  -3.86700 26.67600 28.66800
C  -6.80400 22.89200 28.15300
C  -7.09300 23.78000 23.39600
C  -3.66400 27.14700 23.77800
N  -5.32200 24.80600 28.12800
C  -4.74500 25.65800 29.06000
C  -5.13900 25.27300 30.54300
C  -5.66600 23.78300 30.24600
C  -5.94500 23.83400 28.78300
C  -4.74600 22.64000 30.82200
C  -6.28100 26.17700 31.14400
C  -5.94900 26.68400 32.55700
H  -6.90100 26.34100 33.66700
N  -6.76900 23.55700 25.70800
C  -7.29800 22.77800 26.80800
C  -8.43700 21.92300 26.39200
C  -8.56900 22.16300 25.01400
C  -7.48500 23.23300 24.65300
C  -9.09100 21.02900 27.38400
C  -9.47800 21.64200 23.87700
O  -9.36700 22.10100 22.72800
C  -10.36600 20.38700 24.13700
N  -5.17000 25.30700 23.90200
C  -6.07700 24.67800 23.04600
C  -5.74100 24.99000 21.59300
C  -4.70800 26.24200 21.70600
C  -4.42200 26.19500 23.18600
C  -5.33500 23.72700 20.76500
C  -5.27800 27.61000 21.12600
C  -4.93600 27.93800 19.62800
N  -4.01900 26.57200 26.13800
C  -3.33900 27.27700 25.16500
C  -2.46000 28.27300 25.72400
C  -2.69800 28.12200 27.12600
C  -3.61300 27.00800 27.32400
C  -1.57200 29.20700 24.97600
C  -2.32000 28.67700 28.49000
O  -1.65700 29.62200 28.95200
C  -3.11400 27.67800 29.47800
C  -2.09300 27.00800 30.28500
O  -1.21100 26.22700 29.78400
O  -2.06200 27.54900 31.56800
C  -0.92500 27.20700 32.37600
H  -7.19500 22.14300 28.84500
H  -7.72300 23.62200 22.51800
H  -3.05400 27.81200 23.16300
H  -4.36300 25.18400 31.30300
H  -6.65700 23.59900 30.66200
H  -3.84000 22.55400 30.22200
H  -5.36400 21.74200 30.83300
H  -4.52100 22.85000 31.86800
H  -7.27100 25.72200 31.16800
H  -6.19300 27.08500 30.54800
H  -6.19000 27.74700 32.54900
H  -4.92100 26.44700 32.83100
H  -9.38100 21.53100 28.30700
H  -8.31700 20.30300 27.63200
H  -9.97300 20.50800 27.01100
H  -9.71700 19.70100 24.68100
H  -10.69000 20.09400 23.13800
H  -11.14400 20.82000 24.76500
H  -6.70000 25.34900 21.21800
H  -3.78200 25.96400 21.20300
H  -5.40600 22.87100 21.43700
H  -4.30400 23.82400 20.42500
H  -6.06300 23.78500 19.95600
H  -4.86900 28.39100 21.76700
H  -6.35900 27.72900 21.20000
H  -4.06400 27.39300 19.26500
H  -4.71500 29.00400 19.57900
H  -5.78100 27.64700 19.00300
H  -2.09000 29.96000 24.38200
H  -0.83100 28.57700 24.48400
H  -0.96400 29.72300 25.72000
H  -3.74200 28.25700 30.15600
H  -1.28800 26.59500 33.20100
H  -0.70100 28.16800 32.84000
H  -0.03700 26.77600 31.91300

