158

Mg 36.05300 48.93200 25.72400
C  36.42000 46.93300 28.72200
C  35.09900 51.47100 27.71500
C  35.52000 50.56900 22.91400
C  36.74200 46.01200 23.87700
N  35.76700 49.09400 27.95300
C  36.00900 48.17700 28.90700
C  35.78400 48.80500 30.33500
C  35.17300 50.19300 30.00700
C  35.36700 50.25900 28.49400
C  33.71300 50.49300 30.59000
C  37.12400 48.88800 31.13800
C  37.10400 48.85100 32.68800
H  35.71700 48.90300 33.41600
N  35.39800 50.73800 25.33800
C  35.07100 51.69200 26.30800
C  34.81900 52.97300 25.68900
C  34.98000 52.75500 24.25400
C  35.31700 51.30300 24.06800
C  34.31300 54.13700 26.41000
C  34.74900 53.70800 23.11000
O  34.94100 53.37000 21.97400
C  34.29200 55.11000 23.39200
N  36.01400 48.25900 23.69800
C  35.94000 49.21100 22.74900
C  36.13400 48.55300 21.33400
C  36.66000 47.16300 21.62500
C  36.48600 47.12300 23.13500
C  34.94700 48.43800 20.41700
C  38.17700 46.71000 21.23300
C  38.14700 46.00200 19.84600
N  36.49200 46.91000 26.14100
C  36.78300 45.87400 25.32400
C  37.06700 44.69600 26.10600
C  36.84000 45.08500 27.39600
C  36.51700 46.40800 27.40700
C  37.35200 43.35300 25.60100
C  37.00800 44.54000 28.78300
O  37.38400 43.44800 29.15400
C  36.56200 45.73100 29.69900
C  35.30800 45.40900 30.36500
O  34.24800 45.28900 29.75400
O  35.54800 45.19500 31.64200
C  34.28700 44.94200 32.43400
H  34.91600 52.36300 28.31900
H  35.48100 51.11500 21.96900
H  37.00500 45.19000 23.20800
H  35.03800 48.17800 30.82300
H  35.80500 50.95300 30.46500
H  33.26700 49.59000 31.00500
H  33.03600 50.69000 29.75800
H  33.83300 51.27400 31.34000
H  37.57800 49.83500 30.84600
H  37.87000 48.18700 30.76400
H  37.66200 49.62600 33.21300
H  37.61800 47.92800 32.95800
H  34.34200 54.17900 27.49900
H  33.25900 54.32300 26.20200
H  34.83000 55.05500 26.13200
H  34.81300 55.70500 24.14300
H  33.32100 55.03000 23.88100
H  34.23100 55.55300 22.39800
H  36.90500 49.21100 20.93300
H  35.89800 46.52200 21.18000
H  34.85900 47.58100 19.75000
H  35.24000 49.24400 19.74500
H  34.03400 48.71500 20.94300
H  38.73400 46.13000 21.96800
H  38.80100 47.52700 20.87000
H  37.15000 45.81000 19.45000
H  38.59100 45.03900 20.09800
H  38.81000 46.44400 19.10200
H  37.09500 42.59500 26.34100
H  38.37300 43.24300 25.23600
H  36.64500 43.17000 24.79200
H  37.29200 45.89500 30.49200
H  34.05500 43.89900 32.21800
H  33.42000 45.59100 32.30600
H  34.56400 45.03400 33.48400
Mg -4.75400 25.45100 26.33600
C  -3.48700 26.96900 29.23000
C  -6.68500 23.45300 28.26600
C  -5.48300 23.82200 23.59600
C  -2.34900 27.47700 24.58400
N  -4.95800 25.29300 28.51900
C  -4.40900 25.99400 29.47500
C  -5.01700 25.61600 30.86500
C  -5.73700 24.31900 30.48700
C  -5.80600 24.33900 28.95900
C  -5.03600 23.00300 30.98900
C  -5.84700 26.81700 31.46500
C  -5.63300 27.00100 32.98900
H  -5.35700 25.65400 33.71600
N  -6.06100 23.89100 25.95800
C  -6.82700 23.25800 26.83300
C  -7.87000 22.37800 26.13900
C  -7.43900 22.36000 24.71700
C  -6.31100 23.38700 24.67400
C  -9.00600 21.57600 26.82700
C  -7.97900 21.64700 23.54600
O  -7.42500 21.70200 22.45600
C  -9.21000 20.70800 23.72900
N  -4.22500 25.81100 24.39700
C  -4.56600 24.91400 23.43300
C  -3.90700 25.19400 22.04500
C  -2.96100 26.37800 22.39100
C  -3.20300 26.64000 23.86700
C  -3.08700 24.01800 21.49300
C  -3.19400 27.68400 21.56100
C  -1.87500 28.36100 21.05000
N  -3.22900 26.92400 26.75100
C  -2.41500 27.69100 25.94300
C  -1.68000 28.66600 26.75500
C  -2.06500 28.39800 28.09600
C  -2.96500 27.34200 28.02000
C  -0.61000 29.64100 26.35100
C  -1.85800 28.81200 29.45600
O  -1.11900 29.67500 29.96500
C  -2.67100 27.74800 30.30700
C  -1.80900 26.97900 31.16100
O  -0.99000 26.19900 30.75300
O  -2.12100 27.19500 32.40800
C  -1.26100 26.52300 33.36500
H  -7.44100 22.92900 28.85500
H  -5.71100 23.24400 22.69800
H  -1.54900 28.01700 24.07400
H  -4.11800 25.38200 31.43600
H  -6.73000 24.16700 30.90900
H  -4.21700 23.13500 31.69600
H  -4.60500 22.48800 30.13000
H  -5.81900 22.34500 31.36400
H  -6.88300 26.51700 31.31000
H  -5.74100 27.77000 30.94800
H  -6.54000 27.35000 33.48300
H  -4.79900 27.69300 33.10700
H  -9.87700 22.07600 26.40200
H  -9.07900 21.65700 27.91200
H  -9.11900 20.53400 26.52900
H  -9.90700 21.37100 24.24200
H  -8.88600 19.97000 24.46300
H  -9.42500 20.09400 22.85400
H  -4.64600 25.42700 21.27800
H  -1.92100 26.13300 22.17500
H  -2.01400 24.09000 21.66500
H  -3.25300 23.85000 20.42900
H  -3.39600 23.10200 21.99800
H  -3.81800 28.32800 22.18000
H  -3.71800 27.41900 20.64300
H  -1.90000 29.43900 21.20700
H  -1.94700 28.21600 19.97200
H  -0.94200 27.90600 21.38000
H  -0.93700 30.68000 26.33100
H  -0.27400 29.43000 25.33600
H  0.16200 29.57000 27.11700
H  -3.39500 28.37100 30.83200
H  -0.28800 26.99500 33.49600
H  -0.95900 25.51000 33.09900
H  -1.79800 26.42000 34.30800

