158

Mg 24.39700 -5.08700 45.73500
C  26.92100 -2.92600 44.70200
C  22.24700 -3.57500 43.53700
C  22.18100 -7.65400 46.23800
C  26.85100 -6.97900 47.34100
N  24.63200 -3.65100 44.04900
C  25.76300 -2.86400 43.91700
C  25.50000 -1.85000 42.79300
C  23.99900 -1.72600 42.76200
C  23.54500 -3.03000 43.42900
C  23.55900 -0.47200 43.52300
C  26.04700 -2.32200 41.44200
C  26.21800 -1.30200 40.45600
H  25.50400 -1.50100 39.07200
N  22.41200 -5.50300 45.10800
C  21.73100 -4.72700 44.22200
C  20.39100 -5.21900 44.01800
C  20.38300 -6.49000 44.72100
C  21.65600 -6.60900 45.48800
C  19.34100 -4.45000 43.30200
C  19.24200 -7.39400 44.56200
O  18.21000 -7.13100 44.04100
C  19.30500 -8.76900 45.19700
N  24.54800 -7.09400 46.62400
C  23.48900 -7.90500 46.78800
C  23.85200 -9.25800 47.40700
C  25.32500 -9.07900 47.82800
C  25.60300 -7.61100 47.20700
C  22.87700 -9.72000 48.60300
C  26.27900 -10.14300 47.14800
C  27.51900 -10.49300 47.95700
N  26.39300 -4.87100 46.20200
C  27.26800 -5.67500 46.96700
C  28.48200 -4.95500 47.15000
C  28.41000 -3.91300 46.21600
C  27.12300 -3.88700 45.68200
C  29.51700 -5.53600 48.05300
C  29.11900 -2.74200 45.59500
O  30.24800 -2.32500 45.82400
C  28.17800 -2.12700 44.52600
C  27.90300 -0.68300 44.84700
O  27.46400 -0.22400 45.88500
O  28.34700 0.11700 43.84200
C  28.06800 1.53700 43.93600
H  21.67100 -2.83600 42.97600
H  21.47200 -8.45700 46.45000
H  27.62200 -7.57400 47.83500
H  26.03400 -0.93300 43.03900
H  23.68400 -1.60300 41.72600
H  22.81100 0.15700 43.04000
H  24.39300 0.20200 43.71900
H  23.04800 -0.75400 44.44300
H  25.36700 -3.06400 41.02400
H  26.96000 -2.85800 41.70200
H  27.26400 -1.32100 40.15300
H  26.08900 -0.28100 40.81800
H  18.84700 -5.06000 42.54600
H  19.89000 -3.76100 42.66000
H  18.64300 -3.85000 43.88700
H  19.27100 -8.66900 46.28200
H  20.25700 -9.22600 44.92700
H  18.59200 -9.51400 44.84500
H  23.70700 -10.03900 46.66100
H  25.53600 -8.94700 48.89000
H  21.98700 -9.09300 48.54200
H  23.41900 -9.66500 49.54700
H  22.75400 -10.80200 48.65600
H  26.59800 -9.76600 46.17600
H  25.80300 -11.10100 46.94000
H  28.17200 -11.10700 47.33700
H  27.17900 -11.17000 48.74100
H  27.95600 -9.70700 48.57300
H  30.32900 -4.85400 48.30700
H  29.98400 -6.41200 47.60200
H  29.10000 -5.76700 49.03300
H  28.70400 -2.18900 43.57400
H  28.94900 2.01000 44.37100
H  27.29500 1.79900 44.65700
H  27.70800 1.78800 42.93800
Mg 0.21800 44.11000 26.08200
C  2.24300 44.30700 28.91900
C  -2.55400 43.60200 28.35200
C  -1.76200 43.26100 23.44800
C  2.90500 44.08000 24.10200
N  -0.05400 44.05000 28.33100
C  0.90000 44.12400 29.25600
C  0.32700 44.03700 30.63600
C  -1.13900 43.64600 30.50400
C  -1.30200 43.83700 28.98700
C  -1.47200 42.18600 31.00200
C  0.59100 45.28700 31.55600
C  0.83200 45.11500 33.08900
H  0.46500 43.83100 33.84300
N  -1.83100 43.68800 25.90600
C  -2.83400 43.59200 26.95300
C  -4.15700 43.48200 26.39100
C  -3.90900 43.37200 24.95200
C  -2.47100 43.42000 24.68300
C  -5.45300 43.40700 27.26100
C  -5.02800 43.31900 23.89400
O  -4.75900 43.46600 22.69200
C  -6.46100 43.07000 24.34200
N  0.54800 43.50700 24.10100
C  -0.43300 43.35600 23.12200
C  0.14600 43.31700 21.75800
C  1.49000 44.01600 21.99300
C  1.69600 43.84100 23.51600
C  0.15300 41.90600 21.26800
C  1.52000 45.51900 21.53200
C  2.51600 45.88000 20.47100
N  2.27700 44.19600 26.37800
C  3.24300 44.17400 25.45600
C  4.52000 44.39400 26.13700
C  4.20300 44.50500 27.49900
C  2.80200 44.22900 27.63300
C  5.85900 44.54300 25.42000
C  4.71300 44.64500 28.86600
O  5.86200 44.77300 29.25100
C  3.43200 44.48600 29.87000
C  3.72500 43.26700 30.68300
O  3.81300 42.13600 30.18100
O  4.10000 43.64500 31.95400
C  4.82800 42.52000 32.63900
H  -3.37700 43.41900 29.04600
H  -2.43500 42.99200 22.63100
H  3.73500 44.32000 23.43400
H  0.77600 43.18000 31.13900
H  -1.77500 44.40300 30.96200
H  -2.32000 42.33200 31.67100
H  -0.65900 41.76400 31.59300
H  -1.62800 41.54000 30.13900
H  -0.34000 45.85200 31.50700
H  1.32400 45.99000 31.15900
H  0.27000 45.82300 33.69800
H  1.89400 45.17000 33.32700
H  -6.05300 44.30000 27.08900
H  -5.29000 43.33400 28.33700
H  -5.97400 42.47600 27.03700
H  -6.70600 42.04800 24.63100
H  -7.10800 43.16300 23.47000
H  -6.88500 43.68300 25.13800
H  -0.48800 43.83500 21.03900
H  2.32500 43.54800 21.47100
H  -0.10600 41.11300 21.97000
H  1.18600 41.63100 21.05400
H  -0.41600 41.87400 20.33900
H  1.87500 46.14400 22.35200
H  0.55000 45.99600 21.39200
H  2.02800 46.51600 19.73300
H  2.82700 45.03800 19.85200
H  3.31800 46.48700 20.89100
H  6.57700 45.22300 25.87900
H  5.65600 44.94800 24.42900
H  6.26400 43.53400 25.35100
H  3.32400 45.39200 30.46700
H  5.78500 42.26400 32.18500
H  4.18100 41.64600 32.71600
H  5.05600 42.80200 33.66700

