158

Mg -0.65100 44.15800 25.81600
C  1.42200 43.89400 28.65400
C  -3.20500 42.81400 27.90700
C  -2.60600 44.06700 23.16300
C  2.11400 45.16700 23.95000
N  -0.92700 43.66300 28.13300
C  0.04000 43.66800 29.01500
C  -0.39600 43.19500 30.41300
C  -1.83800 42.62000 30.05700
C  -2.01000 43.02200 28.62800
C  -2.07700 41.04100 30.28900
C  -0.40500 44.42000 31.39700
C  -0.07500 44.20100 32.89700
H  -0.22800 42.77200 33.52500
N  -2.63900 43.64100 25.60200
C  -3.48500 43.11000 26.52400
C  -4.73200 42.73500 25.83600
C  -4.59400 42.94800 24.47300
C  -3.22900 43.50700 24.34800
C  -5.96800 42.20600 26.48000
C  -5.54200 42.65800 23.30300
O  -5.19000 42.80400 22.11400
C  -6.86600 42.02000 23.42300
N  -0.30400 44.54400 23.87400
C  -1.31200 44.63600 22.95600
C  -0.79600 45.13700 21.66900
C  0.60800 45.72200 21.98500
C  0.86200 45.13300 23.36300
C  -0.68400 44.09400 20.52900
C  0.50100 47.28800 21.95000
C  1.12200 47.89400 20.76200
N  1.43000 44.45900 26.15500
C  2.41800 44.77700 25.27000
C  3.69900 44.77000 25.97100
C  3.33600 44.38300 27.30600
C  1.94600 44.24100 27.37200
C  5.07600 45.06600 25.44400
C  3.90400 44.16600 28.60000
O  5.08500 44.24200 28.97100
C  2.71100 43.89300 29.53300
C  2.85600 42.57300 30.16500
O  2.83700 41.53400 29.53100
O  3.23900 42.68600 31.46600
C  3.76700 41.46100 32.07700
H  -3.95500 42.26900 28.48500
H  -3.22800 44.31200 22.30000
H  3.00000 45.53300 23.42600
H  0.26100 42.37800 30.71000
H  -2.57600 43.05900 30.72900
H  -2.80000 40.87600 31.08800
H  -1.13000 40.67900 30.69000
H  -2.28100 40.36400 29.45900
H  -1.46000 44.68900 31.43700
H  0.05100 45.30600 30.95400
H  -0.72400 44.90300 33.42000
H  0.94800 44.56400 33.00200
H  -6.72200 42.98800 26.39000
H  -5.73000 41.95400 27.51300
H  -6.44100 41.36100 25.97900
H  -6.85600 41.06000 23.94000
H  -7.03300 41.72000 22.38900
H  -7.68900 42.67400 23.71300
H  -1.43000 45.94200 21.29900
H  1.51300 45.37700 21.48400
H  -0.67800 43.11900 21.01600
H  0.23500 44.26500 19.97000
H  -1.41800 44.17200 19.72700
H  1.10200 47.51600 22.83000
H  -0.46600 47.75600 22.12900
H  2.03200 48.41900 21.05200
H  0.39500 48.51000 20.23100
H  1.39500 47.05800 20.11800
H  5.85300 44.54100 26.00100
H  5.28300 46.13600 25.40600
H  5.11200 44.62900 24.44700
H  2.66800 44.58000 30.37700
H  4.85100 41.49600 31.96600
H  3.41700 40.52100 31.65100
H  3.48400 41.46500 33.12900
Mg -4.80400 25.60100 26.12300
C  -3.31500 27.01100 28.87900
C  -6.51000 23.34000 28.27400
C  -6.00700 23.99000 23.53300
C  -2.76900 27.63600 24.02400
N  -4.94100 25.28900 28.29200
C  -4.24700 26.04200 29.25000
C  -4.71900 25.69800 30.72500
C  -5.68200 24.42700 30.39200
C  -5.70500 24.36200 28.87900
C  -5.06300 23.15900 31.03400
C  -5.46400 26.95000 31.28500
C  -5.25400 27.17300 32.73100
H  -5.18500 25.99200 33.68300
N  -6.14500 23.90100 25.95800
C  -6.74000 23.14900 26.95200
C  -7.68500 22.28700 26.34100
C  -7.65200 22.51700 24.92100
C  -6.62100 23.52000 24.72100
C  -8.49400 21.33200 27.23600
C  -8.47200 21.91200 23.88500
O  -8.50700 22.34800 22.72600
C  -9.56200 20.89400 24.24800
N  -4.48400 25.85400 24.12200
C  -5.12000 25.00600 23.29300
C  -4.94000 25.45500 21.77400
C  -3.89600 26.63400 21.95100
C  -3.65400 26.67100 23.42800
C  -4.40500 24.36100 20.79100
C  -4.27400 28.01900 21.33400
C  -3.09000 28.73000 20.70200
N  -3.16700 26.86100 26.31400
C  -2.54400 27.72900 25.43000
C  -1.53800 28.54100 26.19200
C  -1.79000 28.32700 27.54800
C  -2.81600 27.28800 27.57000
C  -0.49000 29.50400 25.61400
C  -1.37600 28.68700 28.86500
O  -0.50800 29.48400 29.25800
C  -2.34100 27.84300 29.80000
C  -1.47300 27.05500 30.71500
O  -1.14200 25.89700 30.61600
O  -1.20600 27.92900 31.73200
C  -0.75000 27.39000 32.93400
H  -6.93800 22.63200 28.98700
H  -6.40100 23.65200 22.57200
H  -2.20400 28.33200 23.40000
H  -3.83200 25.48100 31.32100
H  -6.72300 24.53300 30.70000
H  -3.97600 23.16800 30.95000
H  -5.60400 22.28600 30.67100
H  -5.25700 23.22300 32.10500
H  -6.53700 26.83600 31.12600
H  -5.08600 27.81200 30.73600
H  -5.97100 27.86200 33.17700
H  -4.26100 27.59300 32.88800
H  -8.13600 20.30400 27.18900
H  -9.55900 21.20600 27.04600
H  -8.32100 21.63600 28.26900
H  -10.21500 20.51800 23.46100
H  -10.20800 21.43100 24.94200
H  -9.08600 20.01300 24.67700
H  -5.94800 25.71900 21.45400
H  -3.01400 26.39400 21.35600
H  -4.00200 23.50100 21.32600
H  -3.61000 24.70000 20.12800
H  -5.12600 24.09700 20.01600
H  -4.73000 28.69200 22.06000
H  -5.08600 27.81900 20.63500
H  -3.39800 29.05200 19.70700
H  -2.21700 28.09000 20.57600
H  -2.98400 29.64700 21.28100
H  0.08300 30.01600 26.38700
H  -1.18400 30.24400 25.21600
H  0.27000 29.18400 24.90100
H  -2.89900 28.65200 30.27100
H  0.33600 27.37500 33.03100
H  -1.16200 26.39600 33.10800
H  -1.10300 27.94600 33.80200

