158

Mg -1.74100 16.77900 26.25100
C  -2.46600 14.34300 28.66400
C  -2.49000 19.19700 28.38400
C  -1.82700 18.92900 23.56400
C  -1.19100 14.09400 23.97200
N  -2.65600 16.70800 28.23400
C  -2.62600 15.67400 29.13100
C  -2.71500 16.21700 30.58700
C  -2.88100 17.76100 30.38700
C  -2.75800 17.89400 28.86400
C  -4.01500 18.46500 30.99100
C  -1.52800 15.79000 31.55000
C  -1.20000 16.64200 32.79100
H  -0.86200 15.76200 34.06400
N  -2.02700 18.77300 25.97500
C  -2.33100 19.63600 26.98700
C  -2.34500 21.02000 26.54000
C  -2.10800 20.91700 25.11100
C  -1.99700 19.54000 24.81900
C  -2.49700 22.19200 27.56800
C  -1.95900 21.97100 24.15100
O  -1.95000 21.74200 22.92900
C  -1.79600 23.32000 24.59400
N  -1.66000 16.51900 24.03000
C  -1.65400 17.58000 23.17600
C  -1.35800 17.20300 21.75000
C  -0.97400 15.65900 21.93300
C  -1.17200 15.37500 23.45700
C  -2.52900 17.48500 20.79600
C  0.49200 15.31700 21.59300
C  1.59300 15.73500 22.59700
N  -1.85200 14.62400 26.22700
C  -1.57900 13.74200 25.28000
C  -1.79600 12.40600 25.72000
C  -2.07200 12.56100 27.09600
C  -2.10800 13.96500 27.36500
C  -1.69700 11.12400 24.84400
C  -2.39900 11.86800 28.33500
O  -2.52600 10.67500 28.60100
C  -2.48300 12.96800 29.45000
C  -1.19800 12.75900 30.20000
O  -0.08600 13.02000 29.80800
O  -1.54700 12.23400 31.41900
C  -0.38000 11.97700 32.28200
H  -2.59200 20.00100 29.11700
H  -1.71900 19.51100 22.64700
H  -0.91100 13.31800 23.25700
H  -3.66500 15.75000 30.84700
H  -2.09800 18.40700 30.78400
H  -3.77000 19.17700 31.77900
H  -4.75500 17.78700 31.41800
H  -4.49100 19.13500 30.27600
H  -0.57200 15.73700 31.02900
H  -1.78600 14.82400 31.98300
H  -1.94400 17.39000 33.06600
H  -0.23400 17.07600 32.53400
H  -2.93300 21.84800 28.50600
H  -3.04800 23.04100 27.16300
H  -1.51100 22.51100 27.90600
H  -1.37500 23.87200 23.75300
H  -1.07500 23.36400 25.40900
H  -2.72200 23.78300 24.93400
H  -0.50900 17.81200 21.44100
H  -1.67600 15.02700 21.38800
H  -3.34200 17.88800 21.39900
H  -2.89300 16.58800 20.29600
H  -2.21000 18.18700 20.02600
H  0.76300 15.80000 20.65400
H  0.61200 14.25100 21.39600
H  2.01800 14.85000 23.07200
H  1.29800 16.42300 23.38900
H  2.39300 16.24100 22.05800
H  -2.62800 10.72600 24.44000
H  -1.15700 10.43600 25.49400
H  -1.05700 11.28700 23.97600
H  -3.32800 12.96600 30.13900
H  -0.87600 11.61100 33.18100
H  0.27700 12.84700 32.28300
H  0.14800 11.07300 31.97900
Mg 49.21200 35.62700 27.09500
C  47.44000 34.02400 29.64400
C  49.22100 38.54200 28.93200
C  50.83500 37.00200 24.59200
C  48.25600 32.88600 24.85400
N  48.50700 36.18800 29.12000
C  47.90500 35.35300 30.01800
C  47.91500 36.04200 31.33700
C  48.13800 37.57700 30.99700
C  48.59200 37.43700 29.56700
C  46.87900 38.52500 30.96700
C  48.99500 35.31400 32.25300
C  48.57700 35.02900 33.75600
H  48.13400 36.20200 34.73400
N  50.11700 37.41800 26.93500
C  49.93800 38.53500 27.75200
C  50.70600 39.63300 27.18500
C  51.39500 39.10100 26.01200
C  50.79900 37.76000 25.82400
C  50.79200 41.07900 27.64100
C  52.48100 39.73500 25.13900
O  52.87200 39.08000 24.15300
C  53.11200 41.08700 25.43600
N  49.66300 34.96000 25.02600
C  50.27000 35.76900 24.16500
C  50.28100 35.27300 22.74700
C  49.50000 33.88200 22.86700
C  49.15700 33.86700 24.40200
C  49.60000 36.27300 21.75200
C  50.25400 32.57200 22.40800
C  51.72200 32.57500 22.41700
N  48.12400 33.81900 27.16000
C  47.81500 32.83700 26.22800
C  47.01900 31.82900 26.83100
C  46.75100 32.31200 28.12300
C  47.58400 33.44400 28.33400
C  46.48800 30.57400 26.24800
C  46.05200 32.01500 29.27200
O  45.23800 31.07800 29.55700
C  46.27200 33.21200 30.32500
C  46.68400 32.67000 31.68400
O  47.78700 32.17900 31.98000
O  45.61200 32.61700 32.50600
C  45.76100 32.08400 33.87400
H  49.36600 39.47200 29.48600
H  51.31600 37.55200 23.78100
H  47.84800 32.20100 24.10800
H  46.91100 36.11100 31.75800
H  48.85900 38.06600 31.65300
H  46.91000 39.33700 30.24000
H  46.75700 38.92200 31.97500
H  45.99700 37.92300 30.75200
H  49.91000 35.90500 32.23600
H  49.23900 34.36600 31.77300
H  49.34800 34.63700 34.42000
H  47.71300 34.36700 33.81600
H  49.96300 41.28700 28.31800
H  50.53000 41.67400 26.76500
H  51.77000 41.22500 28.09800
H  52.35600 41.86600 25.33800
H  53.94500 41.18400 24.74000
H  53.44100 40.99200 26.47100
H  51.29700 35.20200 22.36100
H  48.55500 33.97900 22.33300
H  48.55100 36.01200 21.61800
H  50.06700 36.30500 20.76700
H  49.60800 37.31200 22.08000
H  49.87100 32.39700 21.40300
H  49.78600 31.70500 22.87500
H  52.06100 32.51600 21.38300
H  52.06200 31.72000 23.00100
H  52.04200 33.49700 22.90200
H  46.32100 29.90200 27.08900
H  47.15000 30.07900 25.53800
H  45.46900 30.85800 25.98400
H  45.39600 33.85000 30.44100
H  44.80000 31.69500 34.21000
H  46.11900 32.92900 34.46100
H  46.60100 31.39200 33.93000

