158

Mg 49.10300 35.32200 27.06600
C  46.98300 33.93200 29.51700
C  49.30300 38.06400 29.05000
C  50.86700 36.67000 24.70100
C  48.37700 32.57900 25.04800
N  48.12100 35.92600 29.09000
C  47.50800 35.13600 29.98900
C  47.55400 35.69700 31.41300
C  47.95300 37.16600 31.06100
C  48.58300 37.01200 29.64200
C  46.68800 38.15700 30.97500
C  48.56500 34.93000 32.35800
C  48.12700 34.86400 33.84400
H  49.04100 35.79800 34.75100
N  49.92600 37.21600 26.88300
C  49.96100 38.17600 27.83800
C  50.76600 39.32700 27.35400
C  51.19300 38.91500 26.05600
C  50.70000 37.53100 25.84700
C  50.90600 40.61000 28.12900
C  52.15300 39.63900 25.12700
O  52.48900 39.12800 24.07400
C  52.72700 40.95500 25.45400
N  49.50000 34.72000 25.07200
C  50.35700 35.48400 24.35500
C  50.46100 34.88400 22.95100
C  49.88800 33.41400 23.07500
C  49.17300 33.59400 24.41000
C  49.79600 35.76300 21.86000
C  50.89000 32.26500 23.12300
C  50.50200 31.03700 22.33600
N  47.86100 33.59000 27.18500
C  47.63200 32.63900 26.27800
C  46.79500 31.61200 26.84700
C  46.45700 32.17400 28.05000
C  47.15700 33.34400 28.24200
C  46.54400 30.21800 26.25500
C  45.71700 31.96300 29.16700
O  44.96700 31.05900 29.43800
C  45.96300 33.07000 30.13600
C  46.28700 32.59200 31.55900
O  47.29200 31.95500 31.87600
O  45.15600 32.97600 32.36600
C  45.25000 32.43300 33.76900
H  49.38800 38.87100 29.78000
H  51.43700 37.15300 23.90400
H  48.13000 31.71200 24.43100
H  46.49600 35.67400 31.67300
H  48.63400 37.49100 31.84800
H  45.73400 37.71900 31.26900
H  46.50200 38.55400 29.97700
H  46.87800 39.00100 31.63700
H  49.57900 35.32700 32.30600
H  48.67400 33.92800 31.94300
H  48.18200 33.85100 34.24300
H  47.10000 35.21600 33.94600
H  50.59000 40.61700 29.17200
H  50.19100 41.37800 27.83600
H  51.98300 40.77100 28.15200
H  52.02500 41.77300 25.61700
H  53.32000 41.24900 24.58800
H  53.45800 40.87300 26.25800
H  51.54100 34.90600 22.80000
H  49.08000 33.24100 22.36500
H  50.55800 36.43800 21.47200
H  48.93200 36.28400 22.27300
H  49.53000 35.03900 21.09000
H  51.08900 31.90800 24.13300
H  51.84900 32.67200 22.80000
H  51.39600 30.46700 22.08400
H  50.11300 31.13800 21.32300
H  49.80400 30.37000 22.84300
H  47.20700 30.02400 25.41200
H  45.54500 30.15000 25.82400
H  46.85400 29.55700 27.06400
H  45.06200 33.67600 30.22100
H  44.25100 32.21500 34.14700
H  45.49500 33.27400 34.41800
H  45.95700 31.63900 34.00700
Mg -4.89100 24.97700 25.51900
C  -3.30100 26.00900 28.41500
C  -7.11000 23.16100 27.37800
C  -5.95700 23.56100 22.66100
C  -2.24200 26.48600 23.59600
N  -5.06600 24.57200 27.71000
C  -4.44500 25.26400 28.72700
C  -5.07900 24.96100 30.10600
C  -6.23700 23.92200 29.73700
C  -6.19100 23.89400 28.17300
C  -5.98400 22.48400 30.40100
C  -5.68600 26.27500 30.72600
C  -5.32200 26.66400 32.10300
H  -4.89600 25.51300 33.09300
N  -6.32200 23.53500 25.07600
C  -7.16800 22.92400 25.99900
C  -8.14300 22.12200 25.31800
C  -7.82800 22.17700 23.95500
C  -6.66700 23.16400 23.82000
C  -9.22300 21.34200 26.02600
C  -8.50500 21.45000 22.81600
O  -8.05100 21.57200 21.66300
C  -9.70800 20.65400 23.03700
N  -4.25100 25.10400 23.44900
C  -4.84200 24.40700 22.46100
C  -4.36700 24.77000 21.03700
C  -3.21700 25.80100 21.35000
C  -3.25500 25.83900 22.87300
C  -3.90500 23.51500 20.18400
C  -3.37000 27.22300 20.74800
C  -2.34800 27.66800 19.74200
N  -3.15700 26.05800 25.87600
C  -2.24400 26.67100 25.00300
C  -1.31100 27.43500 25.76600
C  -1.68500 27.20200 27.09500
C  -2.74600 26.28600 27.11300
C  -0.36100 28.50500 25.16000
C  -1.38300 27.55500 28.45500
O  -0.59900 28.37000 28.84400
C  -2.37300 26.74000 29.36700
C  -1.58200 25.92400 30.29000
O  -1.08400 24.84400 29.95400
O  -1.29100 26.61500 31.39100
C  -0.46600 25.99400 32.37800
H  -7.91900 22.66700 27.91900
H  -6.20700 23.17700 21.67000
H  -1.31800 26.89800 23.18500
H  -4.38200 24.54000 30.83100
H  -7.13400 24.39500 30.13600
H  -6.06000 21.65500 29.69700
H  -6.66000 22.39800 31.25200
H  -4.96800 22.35900 30.77500
H  -6.77000 26.15900 30.70800
H  -5.50800 27.10400 30.04100
H  -6.27000 26.97600 32.53900
H  -4.66100 27.52900 32.16500
H  -10.22600 21.61800 25.70100
H  -9.39600 21.54900 27.08200
H  -9.02400 20.28800 25.83300
H  -9.34400 19.85100 23.67800
H  -10.12900 20.32600 22.08700
H  -10.57300 21.17300 23.45200
H  -5.27400 25.24300 20.66000
H  -2.24900 25.37500 21.08500
H  -4.37600 23.64900 19.21000
H  -4.19400 22.59800 20.69700
H  -2.81700 23.52200 20.11700
H  -3.36700 27.96600 21.54500
H  -4.28000 27.19800 20.14900
H  -2.80200 27.84600 18.76700
H  -1.58100 26.91200 19.57700
H  -1.88900 28.58100 20.12200
H  -0.14300 29.20500 25.96700
H  -0.78500 28.93300 24.25200
H  0.61800 28.11500 24.88200
H  -3.01900 27.40800 29.93700
H  0.59900 26.04900 32.14800
H  -0.83300 24.97900 32.52800
H  -0.66300 26.51200 33.31600

