158

Mg 24.16500 -6.76100 47.40100
C  26.69500 -4.52600 46.34000
C  22.07300 -5.34800 45.22000
C  22.11900 -9.45800 47.86600
C  26.68900 -8.56600 49.14900
N  24.43000 -5.22500 45.87800
C  25.45900 -4.38800 45.66800
C  25.20400 -3.35300 44.65200
C  23.63300 -3.43600 44.46800
C  23.31500 -4.74800 45.21700
C  22.77800 -2.20000 44.75500
C  26.01800 -3.57800 43.31600
C  26.47400 -2.32600 42.53800
H  25.74000 -1.96000 41.21400
N  22.30500 -7.29300 46.77300
C  21.62700 -6.54200 45.87100
C  20.37300 -7.23400 45.51700
C  20.32500 -8.37200 46.30000
C  21.65800 -8.47300 47.02400
C  19.41200 -6.80200 44.49100
C  19.08600 -9.29200 46.33200
O  18.04900 -8.95300 45.82800
C  18.99300 -10.59000 47.10300
N  24.47300 -8.89100 48.17800
C  23.35700 -9.65400 48.47100
C  23.66700 -10.83900 49.37300
C  25.12100 -10.53400 49.78700
C  25.51400 -9.32500 48.90100
C  22.57500 -11.11700 50.47700
C  26.12700 -11.77300 49.73600
C  26.85800 -11.95900 51.07500
N  26.20700 -6.54500 47.81500
C  27.07400 -7.28500 48.63000
C  28.40600 -6.59300 48.77600
C  28.27200 -5.47600 47.90300
C  26.97300 -5.52100 47.29300
C  29.59900 -7.02600 49.64700
C  28.87600 -4.23400 47.34300
O  29.87200 -3.68200 47.65300
C  27.95400 -3.74100 46.22100
C  27.64000 -2.28800 46.42600
O  26.96900 -1.77700 47.30200
O  28.27100 -1.56200 45.45900
C  28.30600 -0.09900 45.62600
H  21.36500 -4.82700 44.57300
H  21.38900 -10.24100 48.08100
H  27.44500 -9.05000 49.77100
H  25.52000 -2.36400 44.98200
H  23.31800 -3.79800 43.49000
H  23.34100 -1.51000 45.38400
H  21.92100 -2.50200 45.35700
H  22.38800 -1.71000 43.86200
H  25.39600 -4.27200 42.75000
H  26.89100 -4.21900 43.43900
H  27.53200 -2.42900 42.29600
H  26.39900 -1.48000 43.22200
H  18.52800 -6.33500 44.92600
H  19.18000 -7.63000 43.82100
H  19.87100 -6.11700 43.77800
H  18.01500 -10.99100 46.83600
H  19.09500 -10.24200 48.13100
H  19.74700 -11.31400 46.79500
H  23.55900 -11.75600 48.79500
H  25.22900 -10.03600 50.75100
H  21.82600 -10.32700 50.44700
H  23.21300 -11.15900 51.36000
H  21.99000 -12.03000 50.36600
H  26.84500 -11.67500 48.92200
H  25.63200 -12.71900 49.51600
H  26.30700 -12.75700 51.57100
H  26.81000 -11.03800 51.65700
H  27.88300 -12.21000 50.80200
H  29.95300 -6.37200 50.44400
H  30.46800 -7.24000 49.02500
H  29.24400 -7.95600 50.09000
H  28.47700 -3.89800 45.27800
H  28.03500 0.18200 46.64300
H  27.54700 0.36300 44.99400
H  29.32000 0.25700 45.44300
Mg -11.23700 39.15300 41.55900
C  -9.89600 36.05900 40.57400
C  -8.65300 40.73000 39.94400
C  -12.87600 42.09800 42.15100
C  -14.20600 37.42300 42.62500
N  -9.56700 38.42800 40.19700
C  -9.13400 37.16800 40.21100
C  -7.86100 37.06200 39.37000
C  -7.33100 38.45600 39.57100
C  -8.56200 39.31300 39.94600
C  -6.20100 38.62000 40.70000
C  -8.07000 36.57800 37.88500
C  -7.30800 35.31200 37.52600
H  -6.20100 35.64800 36.49700
N  -10.85000 41.11300 41.06900
C  -9.76800 41.52100 40.38400
C  -9.81800 42.96100 40.29800
C  -10.87900 43.44400 41.08100
C  -11.63500 42.22100 41.50800
C  -8.78600 43.70300 39.59700
C  -11.12900 44.89300 41.31500
O  -10.41400 45.75600 40.80700
C  -12.28600 45.41900 42.06000
N  -13.26500 39.70200 42.06500
C  -13.64000 40.99400 42.42300
C  -15.12500 41.06900 42.93600
C  -15.50700 39.58100 42.94200
C  -14.20800 38.86400 42.61700
C  -15.15700 41.81900 44.32900
C  -16.61000 39.28900 41.87300
C  -17.65400 38.26700 42.15500
N  -11.94800 37.17900 41.63200
C  -13.12900 36.59600 42.15000
C  -12.96700 35.08000 42.15400
C  -11.73400 34.85600 41.59100
C  -11.16900 36.16100 41.28700
C  -13.90900 34.03300 42.79500
C  -10.67000 33.88300 41.23500
O  -10.60700 32.68300 41.54900
C  -9.55200 34.61800 40.61400
C  -8.30800 34.59200 41.54200
O  -8.33400 34.87100 42.74200
O  -7.27700 33.98000 40.86400
C  -6.04200 34.14000 41.68000
H  -7.72400 41.13300 39.53500
H  -13.40700 43.02300 42.38700
H  -15.05800 36.84400 42.98900
H  -7.17600 36.37500 39.86500
H  -6.87400 38.78600 38.63800
H  -5.30300 39.03500 40.24100
H  -5.90300 37.62500 41.02900
H  -6.42000 39.28400 41.53600
H  -7.65200 37.30400 37.18700
H  -9.13700 36.44000 37.71200
H  -7.86000 34.45500 37.14100
H  -6.70500 34.99000 38.37500
H  -7.85800 43.22400 39.28400
H  -8.39700 44.46400 40.27300
H  -9.32500 44.15600 38.76400
H  -13.19900 45.16300 41.52300
H  -12.05100 46.47700 42.18100
H  -12.20700 44.85300 42.98800
H  -15.51200 41.61800 42.07700
H  -15.86400 39.22700 43.90900
H  -14.20500 41.91900 44.84900
H  -15.80200 41.26100 45.00800
H  -15.58400 42.80400 44.14200
H  -16.05700 39.07500 40.95800
H  -17.10200 40.21400 41.57100
H  -17.71900 37.80900 41.16800
H  -18.66700 38.66700 42.17800
H  -17.41900 37.55000 42.94200
H  -13.25300 33.34700 43.33000
H  -14.53600 33.51600 42.06800
H  -14.51600 34.49400 43.57400
H  -9.26500 34.34400 39.59900
H  -5.92200 35.17400 42.00400
H  -5.17700 33.95800 41.04200
H  -5.90800 33.43400 42.50000

