158

Mg 48.60400 35.51500 27.90500
C  46.58200 34.29200 30.49500
C  49.33000 38.19600 30.05700
C  50.11800 37.00000 25.36300
C  47.49800 33.02300 25.82500
N  48.15800 36.03400 30.06600
C  47.39200 35.31400 30.93200
C  47.40900 35.88000 32.41600
C  48.05500 37.30900 32.15600
C  48.58400 37.14900 30.73000
C  47.12100 38.61300 32.23300
C  48.14100 35.01600 33.55300
C  49.52800 35.37600 34.15400
H  49.60600 36.16300 35.49300
N  49.70700 37.30600 27.69400
C  49.77200 38.28000 28.70800
C  50.34400 39.52800 28.08000
C  50.46500 39.28200 26.71500
C  50.04400 37.82400 26.52500
C  50.55100 40.89000 28.84500
C  50.99700 40.14300 25.59200
O  50.97900 39.74200 24.40700
C  51.55200 41.47900 25.92400
N  48.90500 35.02400 25.98500
C  49.63600 35.70400 25.10300
C  49.78300 35.07400 23.72100
C  48.83100 33.85600 23.82100
C  48.28700 33.97500 25.28700
C  49.34300 35.93400 22.64400
C  49.41800 32.42700 23.51200
C  49.16400 32.05200 22.06300
N  47.36900 33.93500 28.06700
C  47.05600 33.00700 27.16000
C  46.05600 32.10700 27.69800
C  45.74300 32.68600 28.99400
C  46.63000 33.70300 29.20900
C  45.37000 31.03500 27.02300
C  44.98400 32.53800 30.19700
O  44.18200 31.71200 30.49500
C  45.48300 33.59900 31.25100
C  45.82600 32.87400 32.47300
O  46.66400 32.05000 32.52300
O  44.93400 33.21300 33.51300
C  45.47000 32.54100 34.77800
H  49.64700 39.06400 30.64000
H  50.53900 37.47200 24.47300
H  47.06100 32.33200 25.10100
H  46.37900 35.94200 32.76800
H  48.98200 37.42400 32.71800
H  47.22500 39.18200 31.30900
H  47.34400 39.17300 33.14100
H  46.06100 38.36100 32.25700
H  48.46800 34.02700 33.23100
H  47.40700 34.75300 34.31400
H  50.18100 35.88300 33.44400
H  50.10500 34.45700 34.26400
H  50.32800 41.68900 28.13800
H  51.62200 40.72700 28.96100
H  49.93700 40.95900 29.74300
H  50.74700 42.14100 26.24400
H  51.88500 41.90000 24.97600
H  52.28500 41.32600 26.71600
H  50.80300 34.73700 23.53900
H  47.91800 33.97800 23.23800
H  48.89900 36.81600 23.10500
H  48.72600 35.47200 21.87300
H  50.23200 36.38000 22.19800
H  48.98600 31.70200 24.20100
H  50.50500 32.44800 23.44000
H  49.03400 32.86900 21.35400
H  48.36700 31.32000 21.93100
H  50.03100 31.58800 21.59200
H  45.16500 30.20900 27.70500
H  45.90500 30.71800 26.12800
H  44.34800 31.31400 26.76400
H  44.68700 34.28900 31.53100
H  45.56600 31.45500 34.77600
H  44.83200 32.90100 35.58500
H  46.47300 32.89700 35.01500
Mg -12.14700 37.77800 42.22400
C  -10.14300 34.89500 41.33900
C  -9.90700 39.61700 40.49200
C  -14.26300 40.22100 42.59600
C  -14.57600 35.50400 43.37100
N  -10.30300 37.20800 40.98400
C  -9.58700 36.06400 40.90900
C  -8.38600 36.22200 39.98300
C  -8.20300 37.78500 40.11100
C  -9.56300 38.24500 40.61800
C  -7.02300 38.18700 41.03500
C  -8.64200 35.60100 38.57900
C  -7.41500 35.20800 37.80300
H  -6.92600 36.05200 36.65300
N  -12.11700 39.67900 41.60800
C  -11.05800 40.30100 40.94300
C  -11.25300 41.76300 40.95400
C  -12.53700 41.96000 41.62500
C  -13.01800 40.59300 41.95700
C  -10.34800 42.78300 40.38000
C  -13.21200 43.31100 41.66500
O  -12.67400 44.31800 41.19700
C  -14.57900 43.47400 42.12100
N  -14.11000 37.92800 43.10300
C  -14.83600 39.01200 42.99400
C  -16.29100 38.91800 43.48400
C  -16.34000 37.40700 43.77100
C  -14.95600 36.86900 43.36300
C  -16.63400 40.04600 44.59400
C  -17.51100 36.66600 43.03900
C  -18.46200 35.79500 43.98200
N  -12.38600 35.56400 42.44200
C  -13.39100 34.84400 42.99000
C  -13.01400 33.41300 43.00700
C  -11.79400 33.34100 42.32300
C  -11.47600 34.70500 41.94700
C  -13.57400 32.24800 43.90300
C  -10.66800 32.45000 41.90900
O  -10.55000 31.24500 41.97900
C  -9.56500 33.40500 41.16900
C  -8.24700 33.28600 41.87100
O  -7.24700 32.98300 41.30600
O  -8.34500 33.44600 43.25600
C  -7.14100 33.08600 44.11000
H  -9.09400 40.28000 40.19000
H  -14.87000 41.10400 42.80400
H  -15.32000 34.77500 43.69800
H  -7.50300 35.77000 40.43400
H  -8.00600 38.14000 39.09900
H  -7.21500 38.93900 41.80000
H  -6.36900 38.70300 40.33200
H  -6.55100 37.30500 41.46800
H  -9.09300 36.40800 38.00100
H  -9.20500 34.66900 38.61500
H  -7.51000 34.18900 37.42600
H  -6.52300 35.20100 38.43000
H  -10.73700 43.27700 39.49000
H  -9.42400 42.29400 40.07000
H  -10.18600 43.57300 41.11400
H  -14.93800 44.46900 41.85800
H  -14.50200 43.27900 43.19100
H  -15.13100 42.71600 41.56600
H  -16.95500 39.07100 42.63300
H  -16.43500 37.31800 44.85300
H  -15.64000 40.45000 44.78400
H  -17.09200 39.53900 45.44400
H  -17.28900 40.83500 44.22400
H  -17.14400 35.95100 42.30300
H  -18.13000 37.38400 42.50000
H  -19.25900 36.33300 44.49500
H  -17.80100 35.38600 44.74600
H  -18.97000 34.97000 43.48300
H  -14.50500 32.58700 44.35800
H  -12.67500 31.95700 44.44500
H  -13.81600 31.39900 43.26400
H  -9.46800 32.99400 40.16400
H  -6.79400 32.19600 43.58500
H  -7.33500 32.91800 45.16900
H  -6.50200 33.96800 44.09500

