158

Mg 49.61600 46.17100 41.98100
C  46.17000 46.49400 41.05700
C  49.66400 43.22100 40.19600
C  52.81400 46.09800 42.47800
C  49.45500 49.62500 42.75200
N  48.07600 45.18200 40.61800
C  46.78400 45.38800 40.52400
C  46.14400 44.32500 39.60100
C  47.18000 43.20400 39.54300
C  48.40900 43.93600 40.12600
C  46.71100 42.01200 40.48500
C  45.67100 44.89700 38.22400
C  44.33300 44.32900 37.60700
H  44.42400 43.39800 36.44900
N  51.09800 44.73200 41.53700
C  50.95900 43.55100 40.84600
C  52.19300 42.82200 40.86400
C  53.13000 43.63000 41.58200
C  52.39500 44.90900 41.85100
C  52.25400 41.38000 40.38400
C  54.53600 43.26700 41.94200
O  54.98100 42.19100 41.52600
C  55.34300 44.00600 42.92200
N  50.90300 47.64200 42.67900
C  52.24000 47.33400 42.74900
C  53.05300 48.63300 42.98200
C  51.96900 49.76400 42.89300
C  50.72400 49.01300 42.70300
C  53.77600 48.47000 44.39600
C  52.16300 50.81000 41.70900
C  51.79300 52.30800 41.96400
N  48.16100 47.74600 41.99600
C  48.21200 49.05100 42.43300
C  46.87200 49.69900 42.34000
C  46.05200 48.61700 41.97500
C  46.87600 47.54300 41.63000
C  46.46500 51.16500 42.58300
C  44.64500 48.37700 41.62400
O  43.61700 49.02800 41.68000
C  44.68200 46.94000 40.98200
C  43.73300 46.12600 41.91500
O  44.15800 45.62800 42.97400
O  42.57000 45.91100 41.29100
C  41.51400 45.20800 42.06300
H  49.71900 42.29000 39.62700
H  53.90600 46.12100 42.48600
H  49.32800 50.69300 42.94000
H  45.28500 44.00500 40.19100
H  47.41400 42.84400 38.54200
H  45.71800 41.68000 40.18200
H  46.71600 42.34200 41.52300
H  47.45700 41.21700 40.48100
H  46.48200 44.71900 37.51700
H  45.59400 45.98400 38.26800
H  43.84900 45.27300 37.35700
H  43.89600 43.85700 38.48600
H  52.60600 41.44300 39.35400
H  51.29500 40.91100 40.60400
H  53.01400 40.77500 40.87900
H  54.82800 44.32700 43.82700
H  55.86400 44.81200 42.40500
H  56.00300 43.26900 43.37900
H  53.87900 48.87400 42.31300
H  51.89100 50.12100 43.92000
H  53.35200 49.16300 45.12300
H  54.81400 48.80000 44.36200
H  53.71300 47.50400 44.89800
H  51.52100 50.47900 40.89200
H  53.20800 50.92400 41.42200
H  51.45900 52.30400 43.00200
H  50.88300 52.70200 41.51100
H  52.57200 53.06800 42.01100
H  46.14700 51.57500 41.62500
H  47.33000 51.72200 42.94400
H  45.63200 51.01100 43.26900
H  44.27100 46.95400 39.97200
H  41.96300 44.46300 42.72100
H  40.86600 44.65700 41.38200
H  41.08700 45.99400 42.68500
Mg -6.46500 25.56600 27.37300
C  -5.14100 27.35500 29.98400
C  -8.07800 23.55200 29.57600
C  -7.66900 24.13900 24.71300
C  -4.23700 27.40500 25.22800
N  -6.38300 25.40500 29.46200
C  -5.93000 26.29500 30.37900
C  -6.39800 25.96500 31.83200
C  -6.85700 24.48000 31.69000
C  -7.14200 24.43000 30.12000
C  -5.82000 23.40000 32.07900
C  -7.33500 26.96900 32.48100
C  -7.23200 27.05600 34.04400
H  -6.75600 25.81300 34.85900
N  -7.81400 24.06100 27.17200
C  -8.43200 23.40900 28.22000
C  -9.32800 22.36300 27.64300
C  -9.24000 22.47000 26.18500
C  -8.28700 23.64900 25.91100
C  -10.24200 21.49700 28.53300
C  -9.93500 21.68400 25.09300
O  -9.60500 21.76600 23.98400
C  -10.90800 20.50900 25.44900
N  -5.89200 25.67000 25.27500
C  -6.68200 25.04100 24.40500
C  -6.21700 25.22100 22.94600
C  -5.18900 26.39400 23.13200
C  -5.10300 26.51000 24.60300
C  -5.54200 23.97700 22.29800
C  -5.65400 27.68100 22.38500
C  -5.29600 27.79900 20.90500
N  -4.92900 27.05600 27.47300
C  -4.11900 27.68300 26.57800
C  -3.34500 28.73000 27.22700
C  -3.69300 28.61800 28.58800
C  -4.66400 27.64200 28.68400
C  -2.42300 29.70200 26.47800
C  -3.55300 29.18100 29.85600
O  -2.83900 30.09700 30.23900
C  -4.42800 28.37600 30.83800
C  -3.49000 27.60700 31.73200
O  -2.72000 26.70100 31.45100
O  -3.66300 28.21600 33.00300
C  -2.83300 27.63300 34.01600
H  -8.49000 22.82600 30.27900
H  -7.95400 23.65900 23.77400
H  -3.49500 27.77900 24.51900
H  -5.55500 25.92900 32.52300
H  -7.73600 24.27800 32.30300
H  -6.36400 22.70300 32.71600
H  -5.03800 23.90100 32.65100
H  -5.43000 22.91500 31.18500
H  -8.37200 26.69600 32.28100
H  -6.98700 27.96300 32.20000
H  -8.22200 27.44600 34.27800
H  -6.56400 27.89900 34.22300
H  -11.30600 21.73400 28.53300
H  -10.01700 21.57300 29.59700
H  -10.14000 20.43400 28.31800
H  -10.21700 19.73900 25.79200
H  -11.41800 20.05600 24.59900
H  -11.58000 20.81100 26.25300
H  -7.08200 25.54300 22.36700
H  -4.20500 26.12000 22.75200
H  -4.45700 24.01400 22.39400
H  -5.80500 23.86900 21.24600
H  -5.84000 23.00500 22.69100
H  -5.37400 28.58200 22.93100
H  -6.73800 27.58900 22.32300
H  -4.88600 26.85400 20.55000
H  -4.64900 28.66600 20.77400
H  -6.19100 28.12200 20.37400
H  -2.52500 30.64500 27.01500
H  -2.82000 29.89800 25.48200
H  -1.40500 29.32400 26.38500
H  -4.95600 29.09900 31.46000
H  -2.78200 28.32500 34.85700
H  -1.77300 27.56200 33.77100
H  -3.27700 26.65200 34.18200

