158

Mg 41.15100 9.34400 29.85300
C  42.74800 10.48100 32.78200
C  38.58000 8.20100 31.77200
C  39.80700 7.96800 27.07800
C  43.91800 10.38200 28.06500
N  40.70300 9.45400 32.06100
C  41.49400 9.94100 33.02900
C  40.74900 9.77600 34.40300
C  39.50600 8.89500 34.11000
C  39.59200 8.76100 32.56200
C  39.42500 7.59800 34.91000
C  40.49400 11.15700 35.06700
C  40.02500 11.17200 36.55300
H  40.84300 12.07500 37.53600
N  39.34200 8.24400 29.48600
C  38.43200 7.95600 30.37900
C  37.30600 7.39700 29.72400
C  37.54200 7.35400 28.30600
C  38.96000 7.84100 28.20800
C  36.11600 6.83300 30.51100
C  36.66600 6.97900 27.13100
O  37.04300 7.20900 25.97100
C  35.26600 6.52200 27.35200
N  41.86900 9.21100 27.89800
C  41.10300 8.57900 26.92200
C  41.80900 8.55600 25.52900
C  43.11600 9.29500 25.88300
C  42.92000 9.70700 27.33900
C  42.07300 7.15500 24.85500
C  43.60500 10.40900 24.94100
C  42.95900 11.72000 25.08500
N  42.94800 10.32800 30.20500
C  43.97200 10.66000 29.35200
C  45.05300 11.20300 30.11500
C  44.67500 11.12400 31.47100
C  43.35000 10.63200 31.45000
C  46.48100 11.59900 29.61800
C  45.06700 11.38500 32.81800
O  46.05400 11.99800 33.25500
C  43.83400 10.95900 33.74500
C  44.33500 10.05500 34.75900
O  44.34500 8.86100 34.72400
O  44.82200 10.76900 35.89200
C  45.27100 9.91000 36.95200
H  37.73800 7.93200 32.41300
H  39.41600 7.50200 26.17100
H  44.88100 10.54900 27.57800
H  41.49600 9.24600 34.99500
H  38.53800 9.31800 34.38100
H  40.17900 7.51700 35.69300
H  39.64200 6.76500 34.24200
H  38.40600 7.38600 35.23500
H  39.82000 11.72200 34.42400
H  41.39900 11.73000 34.86600
H  39.91100 10.17000 36.96600
H  39.01700 11.58600 36.55400
H  35.18400 7.28300 30.16800
H  36.17300 7.08700 31.57000
H  35.87500 5.77600 30.40200
H  35.26300 5.77100 28.14200
H  34.93700 5.97200 26.47100
H  34.64400 7.40800 27.48100
H  41.17400 9.26500 24.99700
H  43.99100 8.64500 25.90900
H  41.73700 6.45800 25.62300
H  43.13200 6.99300 24.65400
H  41.41400 7.00600 23.99900
H  43.41400 9.91400 23.98800
H  44.66500 10.64500 25.03500
H  42.24300 11.63400 25.90200
H  42.36900 11.97100 24.20400
H  43.64500 12.54500 25.27900
H  46.54100 12.61700 29.23300
H  46.88800 10.89200 28.89500
H  47.04600 11.71000 30.54400
H  43.47000 11.90000 34.15800
H  45.99700 10.56900 37.42900
H  45.84100 9.03500 36.63900
H  44.54000 9.57800 37.68900
Mg -6.06900 25.51200 27.19700
C  -4.58000 26.72000 30.14300
C  -7.84100 23.43300 28.82400
C  -7.22200 24.32900 24.26100
C  -3.84200 27.67100 25.41900
N  -6.15300 25.06800 29.22000
C  -5.49200 25.63000 30.37500
C  -6.09100 25.19600 31.67100
C  -6.97300 23.98100 31.26500
C  -7.00300 24.17300 29.70800
C  -6.38700 22.57700 31.57600
C  -6.87700 26.35300 32.44500
C  -6.63100 26.56200 33.94300
H  -5.94200 25.45800 34.78300
N  -7.38100 24.10900 26.61400
C  -8.07500 23.36200 27.47300
C  -8.99900 22.46600 26.82700
C  -8.81700 22.67100 25.43700
C  -7.79700 23.72500 25.39000
C  -9.87600 21.50400 27.50100
C  -9.45800 21.91500 24.27200
O  -9.30400 22.26800 23.12900
C  -10.25000 20.64600 24.41500
N  -5.59700 25.95500 25.14600
C  -6.19300 25.26600 24.16100
C  -5.51600 25.54000 22.78300
C  -4.62600 26.74600 23.18300
C  -4.67300 26.82200 24.66600
C  -4.78100 24.29500 22.23500
C  -5.24400 28.05300 22.50300
C  -6.51100 28.68000 22.99000
N  -4.49600 26.90200 27.65100
C  -3.67700 27.66700 26.85100
C  -2.82400 28.56000 27.65900
C  -3.24300 28.29500 28.99900
C  -4.13000 27.19300 28.89200
C  -1.83600 29.68000 27.10000
C  -3.00700 28.62000 30.32700
O  -2.29300 29.47300 30.82000
C  -3.91900 27.60400 31.18400
C  -3.02000 26.97100 32.17500
O  -2.66000 25.75800 32.09200
O  -2.95500 27.76500 33.30400
C  -2.29500 27.21200 34.48700
H  -8.42200 22.87200 29.56000
H  -7.71400 23.93400 23.36900
H  -3.19200 28.35000 24.86200
H  -5.28000 24.81800 32.29300
H  -7.97200 23.86700 31.68700
H  -5.65700 22.79600 32.35500
H  -5.95600 22.18800 30.65300
H  -7.08400 21.85700 32.00400
H  -7.95000 26.21800 32.30700
H  -6.78500 27.35100 32.01800
H  -7.62400 26.66900 34.37900
H  -5.96500 27.41700 34.06500
H  -9.70100 20.45900 27.24400
H  -10.93400 21.71500 27.34500
H  -9.69800 21.57800 28.57400
H  -11.03800 20.81800 25.14800
H  -9.68000 19.80900 24.81900
H  -10.52300 20.33900 23.40500
H  -6.14200 25.82700 21.93800
H  -3.56200 26.56200 23.02900
H  -5.15800 23.38400 22.70000
H  -3.69400 24.35800 22.29200
H  -4.97100 24.09800 21.18000
H  -5.54300 27.75000 21.49900
H  -4.43900 28.78700 22.44500
H  -7.30000 28.56400 22.24700
H  -6.38900 29.69500 23.36900
H  -6.96200 28.06300 23.76800
H  -0.83900 29.27300 26.92700
H  -1.71600 30.52700 27.77600
H  -2.29900 30.04300 26.18300
H  -4.62600 28.31700 31.60800
H  -1.67500 27.90500 35.05600
H  -1.48400 26.49600 34.35500
H  -3.04300 26.90100 35.21700

