158

Mg 30.29000 57.79300 40.48400
C  27.57400 55.96400 39.29400
C  32.42600 55.30400 39.30400
C  32.77900 59.99800 40.58100
C  28.07800 60.49100 41.18400
N  30.00300 55.88400 39.31100
C  28.79200 55.28600 38.99000
C  29.11200 53.98800 38.33400
C  30.52300 53.60100 38.80700
C  31.03700 55.01000 39.19700
C  30.55100 52.61600 40.08100
C  29.01500 53.83400 36.83600
C  28.05100 52.64500 36.35000
H  27.15400 53.04900 35.18300
N  32.33100 57.68700 39.95200
C  33.00900 56.57900 39.53200
C  34.38900 56.83200 39.52500
C  34.50100 58.21200 39.94700
C  33.15400 58.72200 40.16800
C  35.45300 55.82200 39.11600
C  35.86400 58.96400 40.10300
O  36.87900 58.41100 39.78500
C  36.13100 60.29800 40.72600
N  30.40000 59.98400 40.82400
C  31.56600 60.58400 40.87900
C  31.42300 62.07300 41.16800
C  29.84400 62.13500 41.55300
C  29.38500 60.82700 41.09400
C  32.39300 62.52700 42.35800
C  28.96500 63.33000 41.05300
C  29.63000 64.65100 40.84500
N  28.29300 58.09000 40.53900
C  27.52800 59.22000 40.83200
C  26.11100 58.98800 40.67000
C  26.15600 57.68700 40.06700
C  27.44000 57.24800 39.95100
C  25.06500 59.85600 41.17100
C  25.19400 56.63700 39.51100
O  23.96900 56.57300 39.34200
C  26.12700 55.45800 39.00800
C  25.80300 54.27400 39.78300
O  25.62400 54.25100 40.96000
O  25.58400 53.20700 38.94400
C  25.17800 51.96800 39.59200
H  32.99000 54.40000 39.06500
H  33.61700 60.69800 40.60900
H  27.45600 61.27900 41.61400
H  28.39600 53.29900 38.78200
H  31.11800 53.15100 38.01200
H  30.81100 51.70500 39.54200
H  29.66800 52.29000 40.63200
H  31.27000 52.95700 40.82600
H  29.97400 53.80100 36.31900
H  28.61800 54.76200 36.42400
H  27.42300 52.48500 37.22700
H  28.57300 51.74500 36.02600
H  35.36800 55.60400 38.05100
H  35.33400 54.86900 39.63200
H  36.39100 56.20700 39.51500
H  37.21400 60.39500 40.80600
H  35.60300 60.39000 41.67500
H  35.68700 61.05700 40.08300
H  31.56800 62.57800 40.21300
H  29.76600 62.21700 42.63700
H  33.09000 63.32200 42.09000
H  32.89700 61.71300 42.87800
H  31.81400 62.98800 43.15800
H  28.28000 63.39000 41.89800
H  28.49900 63.05100 40.10800
H  30.49300 64.55500 41.50400
H  28.88000 65.41700 41.04100
H  29.80000 64.69300 39.76900
H  25.47400 60.29500 42.08100
H  24.26300 59.17700 41.46100
H  24.70700 60.59300 40.45300
H  26.00400 55.27600 37.94000
H  24.52300 51.36100 38.96800
H  24.77600 52.06700 40.60000
H  26.10700 51.40900 39.70600
Mg 8.90600 47.88100 26.43700
C  6.88500 47.73200 29.22700
C  11.52000 49.01200 28.39300
C  10.85100 48.02900 23.71600
C  6.06400 47.06300 24.50700
N  9.08200 48.34400 28.56000
C  8.14200 48.13100 29.52500
C  8.72300 48.49000 30.89300
C  10.11000 49.16300 30.55000
C  10.27200 48.83500 29.09500
C  10.26500 50.64900 30.84400
C  8.73600 47.14300 31.67500
C  9.79000 46.94700 32.80000
H  9.23200 46.42500 34.08400
N  10.93900 48.36000 26.08900
C  11.87300 48.71000 27.03300
C  13.17700 48.73500 26.44300
C  12.98700 48.60900 25.04700
C  11.51500 48.36600 24.89100
C  14.42500 49.17700 27.24400
C  13.97600 48.48500 23.93400
O  13.62400 48.48200 22.76400
C  15.42900 48.38700 24.31500
N  8.46000 47.63300 24.36100
C  9.49900 47.70700 23.47800
C  8.94700 47.24700 22.04100
C  7.50500 46.78000 22.33000
C  7.29600 47.11500 23.82700
C  8.97000 48.28300 20.82100
C  7.28400 45.27700 22.08100
C  7.92300 44.08500 22.92700
N  6.82100 47.59300 26.78200
C  5.76700 47.29800 25.89300
C  4.54700 47.03300 26.57700
C  4.92600 47.26200 27.94000
C  6.33700 47.47600 27.99000
C  3.22800 46.57100 25.94800
C  4.48900 47.30300 29.34100
O  3.37200 47.27200 29.88300
C  5.77200 47.39900 30.17900
C  5.89400 46.04300 30.74000
O  6.38300 45.04500 30.26100
O  5.50700 45.99100 32.03900
C  5.73800 44.75600 32.81900
H  12.35600 49.35900 29.00400
H  11.39500 48.00300 22.77000
H  5.18500 46.63600 24.02000
H  8.06300 49.15500 31.44800
H  11.00500 48.67800 30.93900
H  10.91500 50.95100 31.66500
H  9.29100 51.01200 31.17300
H  10.63500 51.27100 30.02900
H  8.88900 46.34000 30.95500
H  7.74200 47.00900 32.10100
H  10.20400 47.92500 33.04400
H  10.59200 46.31700 32.41500
H  14.98400 48.25600 27.41100
H  14.22000 49.67000 28.19400
H  15.08800 49.78800 26.63100
H  15.85000 49.33100 24.66300
H  16.03800 48.13900 23.44600
H  15.55800 47.55200 25.00400
H  9.51500 46.37800 21.71200
H  6.71800 47.40500 21.91000
H  8.01300 48.52800 20.36000
H  9.53200 47.89000 19.97500
H  9.51800 49.15900 21.16800
H  7.34600 44.96500 21.03800
H  6.23800 45.32300 22.38400
H  7.47200 44.07500 23.91900
H  8.98700 44.15400 23.15400
H  7.97000 43.26700 22.20800
H  2.94300 47.19000 25.09700
H  2.41300 46.76800 26.64500
H  3.26100 45.53500 25.60900
H  5.69100 48.05200 31.04800
H  6.79700 44.78000 33.07700
H  5.38700 43.78800 32.46300
H  5.28200 44.77700 33.81000

