158

Mg 1.98200 -2.13900 45.10400
C  5.41500 -1.58900 44.56100
C  1.31200 0.57000 43.10100
C  -1.27600 -3.02000 45.08100
C  2.78400 -4.94100 46.93700
N  3.23700 -0.87300 43.79500
C  4.65200 -0.72900 43.78500
C  5.13000 0.56300 43.05300
C  3.74600 1.23600 42.75600
C  2.62200 0.27700 43.26600
C  3.46300 2.65100 43.35400
C  5.92400 0.19500 41.73900
C  6.41200 1.37200 40.91500
H  6.26400 1.32800 39.46500
N  0.21500 -1.35200 44.21000
C  0.18900 -0.24000 43.43300
C  -1.17700 -0.00100 42.96900
C  -1.96700 -1.03900 43.53900
C  -1.02300 -1.87200 44.30500
C  -1.58900 1.13400 42.14000
C  -3.47500 -1.22000 43.25600
O  -4.16400 -0.37500 42.66600
C  -4.29000 -2.42400 43.81400
N  0.89500 -3.92500 45.68700
C  -0.46100 -3.97900 45.79300
C  -0.91700 -5.26400 46.46100
C  0.39600 -5.74600 47.12500
C  1.45500 -4.78500 46.58700
C  -2.21000 -5.20400 47.37300
C  0.73900 -7.23500 46.81600
C  0.52700 -8.29900 47.93100
N  3.77000 -3.09400 45.75000
C  3.91300 -4.21600 46.49600
C  5.32200 -4.45400 46.74900
C  5.94800 -3.38400 46.04000
C  4.96200 -2.62200 45.41600
C  6.01800 -5.52700 47.52800
C  7.26500 -2.69600 45.73700
O  8.39700 -2.89800 46.22900
C  6.88100 -1.52600 44.69100
C  7.35400 -0.21600 45.19400
O  7.03300 0.26300 46.29000
O  8.20300 0.39200 44.28000
C  8.41000 1.88700 44.35100
H  1.07000 1.51400 42.60900
H  -2.32800 -3.31400 45.07500
H  3.16400 -5.83000 47.44400
H  5.64600 1.27700 43.69600
H  3.63600 1.29300 41.67300
H  2.83400 3.25300 42.69800
H  4.37800 3.21200 43.54700
H  2.95900 2.42000 44.29200
H  5.14500 -0.32100 41.17800
H  6.74200 -0.42000 42.11300
H  7.48000 1.49300 41.09800
H  6.04000 2.31700 41.31200
H  -2.14000 0.79000 41.26400
H  -0.76200 1.73700 41.76600
H  -2.22600 1.77800 42.74600
H  -5.29500 -2.47400 43.39700
H  -4.40400 -2.32900 44.89400
H  -3.76600 -3.33200 43.51400
H  -1.17700 -5.88200 45.60200
H  0.28400 -5.57800 48.19600
H  -1.88100 -5.56300 48.34800
H  -2.91000 -5.91100 46.93000
H  -2.61800 -4.19900 47.49000
H  1.79100 -7.47100 46.65800
H  0.44900 -7.65500 45.85300
H  -0.38000 -8.76300 47.54500
H  0.58400 -7.78700 48.89100
H  1.33800 -9.02400 47.86000
H  6.85900 -5.93700 46.96900
H  5.40500 -6.42100 47.63800
H  6.36200 -5.09700 48.46900
H  7.35300 -1.73900 43.73200
H  9.03100 2.19300 45.19300
H  7.46100 2.38800 44.54100
H  8.98600 2.17400 43.47100
Mg 7.46400 2.82400 28.58200
C  8.73900 1.50400 31.34700
C  5.25600 4.71100 30.29000
C  6.32200 4.11500 25.65200
C  9.24700 0.46500 26.76800
N  7.01700 2.99300 30.61100
C  7.81900 2.50100 31.60200
C  7.33100 3.02600 33.00800
C  5.93400 3.75700 32.60900
C  6.04600 3.83500 31.07700
C  4.71400 2.92400 33.01000
C  8.29700 4.03200 33.65600
C  8.07000 4.33600 35.12900
H  9.02600 3.72100 36.14500
N  6.00100 4.22200 28.03000
C  5.21000 4.95500 28.89200
C  4.51600 5.95300 28.12200
C  4.83400 5.76400 26.75500
C  5.80900 4.66400 26.74100
C  3.55700 6.96100 28.71200
C  4.47500 6.60900 25.59400
O  4.90800 6.42400 24.47500
C  3.48100 7.70100 25.79400
N  7.70400 2.32300 26.55600
C  7.18500 3.03500 25.46700
C  7.51600 2.53200 24.10600
C  8.65600 1.55000 24.44800
C  8.56100 1.40500 26.03300
C  6.33200 1.75800 23.34100
C  10.10400 2.10500 24.00400
C  10.52000 3.42200 24.76700
N  8.69400 1.14100 28.89100
C  9.43300 0.35700 28.10700
C  10.19700 -0.57200 28.89900
C  10.01800 -0.08600 30.19400
C  9.06500 0.90800 30.09500
C  10.80500 -1.73400 28.37600
C  10.44100 -0.21900 31.57500
O  11.31600 -0.94700 32.05600
C  9.53800 0.82800 32.37100
C  8.84000 0.03500 33.47500
O  7.72100 -0.48800 33.42400
O  9.63900 -0.08300 34.60700
C  9.03400 -0.74400 35.82400
H  4.66800 5.34400 30.95900
H  6.00600 4.55200 24.70300
H  9.78000 -0.27200 26.16300
H  7.12800 2.18200 33.66800
H  5.99800 4.76500 33.01800
H  4.77700 1.83800 33.07300
H  3.92900 3.17400 32.29600
H  4.20200 3.36000 33.86800
H  8.11500 4.99100 33.17000
H  9.32100 3.67300 33.55200
H  7.07500 3.97000 35.38000
H  8.05600 5.41500 35.28600
H  3.56300 6.96000 29.80200
H  2.53500 6.73000 28.41000
H  3.81300 7.97700 28.41200
H  3.92400 8.50700 26.37800
H  2.49100 7.30100 26.01600
H  3.49400 8.24400 24.84900
H  7.76500 3.35700 23.43900
H  8.56400 0.62200 23.88500
H  5.45100 2.09800 23.88700
H  6.28400 0.67100 23.28900
H  6.33400 2.17500 22.33400
H  10.08500 2.26000 22.92500
H  10.72600 1.23400 24.21000
H  9.72900 3.79800 25.41600
H  10.74400 4.20500 24.04300
H  11.48300 3.25800 25.25100
H  11.70800 -1.49900 27.81200
H  10.10200 -2.15800 27.65900
H  11.04700 -2.41000 29.19600
H  10.17300 1.48400 32.96600
H  8.18100 -1.30200 35.43800
H  8.76000 0.01800 36.55400
H  9.76800 -1.40800 36.28000

