158

Mg 54.35800 24.36700 45.10800
C  51.54100 26.28800 43.96100
C  52.68500 21.50500 43.97700
C  57.17800 22.73100 45.35400
C  55.86600 27.47100 45.81400
N  52.46700 23.97700 43.81400
C  51.46900 24.91900 43.64200
C  50.19400 24.26100 43.03300
C  50.42400 22.79100 43.50400
C  51.94600 22.74300 43.72200
C  49.62200 22.38600 44.77700
C  50.11600 24.36800 41.44300
C  48.75400 24.14200 40.87700
H  48.59300 23.10100 39.73600
N  54.83200 22.37800 44.76600
C  54.02400 21.30800 44.40100
C  54.77300 20.04700 44.62800
C  56.07700 20.37200 45.00200
C  56.04800 21.89200 45.08700
C  54.17500 18.66500 44.53400
C  57.19400 19.39400 45.39900
O  57.08100 18.13000 45.41600
C  58.60900 19.85200 45.68700
N  56.29100 25.03300 45.30800
C  57.28100 24.10800 45.49700
C  58.62200 24.82800 45.86200
C  58.19800 26.33000 45.58800
C  56.65700 26.30400 45.70000
C  59.05900 24.69900 47.35500
C  58.60000 26.77000 44.11900
C  59.26400 28.10400 43.88400
N  53.82600 26.44700 45.09500
C  54.50100 27.52800 45.53400
C  53.62700 28.60000 45.62700
C  52.40000 28.26700 45.01100
C  52.65400 26.89900 44.66300
C  53.96700 29.91600 46.16700
C  51.09200 28.64500 44.54500
O  50.38900 29.62900 44.63700
C  50.50400 27.37400 43.89500
C  50.21800 27.72200 42.50100
O  51.10500 28.02300 41.64400
O  48.90800 27.59800 42.22300
C  48.51200 27.90700 40.84200
H  52.17400 20.54100 44.00300
H  58.09600 22.15400 45.48800
H  56.41900 28.38900 46.02200
H  49.39000 24.74600 43.58500
H  50.24900 22.06400 42.71200
H  48.78500 21.73300 44.53000
H  49.21000 23.25200 45.29400
H  50.30200 21.93000 45.49700
H  50.56600 23.49200 40.97600
H  50.55500 25.29900 41.08300
H  48.37500 25.08100 40.47300
H  48.12900 23.79000 41.69700
H  54.88900 17.84300 44.49400
H  53.45100 18.62100 43.72000
H  53.59700 18.38500 45.41400
H  59.09200 20.27800 44.80800
H  59.16000 18.98800 46.05800
H  58.53100 20.53700 46.53200
H  59.41400 24.48400 45.19700
H  58.62000 27.01600 46.32300
H  60.14500 24.67700 47.43900
H  58.61900 23.79700 47.77900
H  58.72400 25.52700 47.98000
H  57.70400 26.61500 43.51800
H  59.22500 26.03500 43.61200
H  58.66600 28.70400 43.19800
H  60.25100 27.97100 43.44200
H  59.47200 28.61600 44.82400
H  54.55700 29.81000 47.07800
H  52.97700 30.33400 46.35200
H  54.44600 30.52700 45.40300
H  49.62500 27.03800 44.44500
H  47.94300 28.83700 40.82500
H  47.74900 27.17000 40.59100
H  49.25600 28.06000 40.06000
Mg 7.42200 54.57800 41.45700
C  6.69400 51.22700 41.18400
C  10.59900 53.98200 40.35600
C  7.78000 57.99000 41.05600
C  4.04300 55.21800 42.00600
N  8.53800 52.75200 40.97100
C  8.01400 51.46100 40.81500
C  9.06200 50.45900 40.29400
C  10.35100 51.32200 40.38900
C  9.78200 52.76200 40.61600
C  11.45000 50.78100 41.33500
C  8.79200 49.89200 38.88400
C  8.35400 50.87600 37.75200
H  9.04600 50.76400 36.41200
N  8.97000 55.76200 40.69300
C  10.22000 55.31000 40.41900
C  11.07600 56.47300 40.28700
C  10.21200 57.61700 40.36000
C  8.95100 57.16900 40.78200
C  12.54800 56.38800 39.91900
C  10.67900 59.01800 40.12500
O  11.85400 59.21000 39.93100
C  9.71800 60.13300 40.07100
N  6.07100 56.27500 41.31000
C  6.47200 57.57200 41.32800
C  5.38100 58.62200 41.47300
C  4.15500 57.69300 41.70500
C  4.79300 56.30500 41.68500
C  5.74100 59.67800 42.57600
C  2.99600 57.95600 40.66500
C  3.26100 57.62900 39.14400
N  5.75900 53.52900 41.77900
C  4.44400 53.87200 42.05700
C  3.65000 52.71200 42.40000
C  4.56800 51.65800 42.07800
C  5.75200 52.21500 41.62400
C  2.16900 52.46200 42.77300
C  4.66200 50.19700 42.07400
O  3.88600 49.37600 42.53500
C  6.07900 49.88300 41.41200
C  5.84800 49.01600 40.20800
O  5.62200 49.46200 39.11600
O  5.72700 47.66300 40.52400
C  5.17400 46.86400 39.41300
H  11.62800 53.67800 40.15600
H  7.81000 59.07100 41.21000
H  2.97100 55.38100 42.13900
H  9.17400 49.67800 41.04700
H  10.83100 51.36900 39.41100
H  11.24300 49.73200 41.55000
H  11.42500 51.29600 42.29500
H  12.39400 50.95700 40.81900
H  8.00900 49.13500 38.92600
H  9.70700 49.32900 38.69800
H  8.34100 51.89500 38.13800
H  7.32700 50.55900 37.57500
H  12.85500 55.55900 39.28200
H  13.23600 56.43500 40.76300
H  12.86000 57.29100 39.39500
H  10.09000 60.97200 39.48300
H  9.30600 60.41600 41.03900
H  8.79600 59.84100 39.56800
H  5.26200 59.06900 40.48600
H  3.78200 57.78500 42.72500
H  6.68900 59.57200 43.10500
H  4.98200 59.57800 43.35200
H  5.68000 60.63000 42.04900
H  2.74300 59.01500 40.71400
H  2.14600 57.35600 40.99100
H  3.87000 56.79900 38.78800
H  3.27300 58.51600 38.51000
H  2.26400 57.28100 38.87700
H  1.58700 52.40200 41.85300
H  1.69400 53.26700 43.33400
H  1.92500 51.52400 43.27300
H  6.73800 49.43600 42.15500
H  5.63100 47.05600 38.44200
H  4.10800 47.04600 39.27200
H  5.26600 45.78200 39.51300

