158

Mg -2.20100 17.15500 25.88300
C  -2.39500 14.74900 28.39700
C  -2.74000 19.60100 28.21500
C  -2.52200 19.27500 23.39000
C  -1.93300 14.47900 23.60500
N  -2.57700 17.15600 28.09600
C  -2.45400 16.05400 28.92500
C  -2.67400 16.48500 30.39200
C  -2.79600 18.06200 30.29700
C  -2.67500 18.31500 28.78700
C  -4.17500 18.52700 30.89700
C  -1.63500 15.96000 31.36900
C  -1.48200 16.56000 32.72400
H  -1.91300 15.98100 34.12100
N  -2.63200 19.19600 25.81700
C  -2.72200 20.07900 26.84500
C  -2.70700 21.45500 26.31900
C  -2.61800 21.33900 24.90600
C  -2.65300 19.89600 24.66700
C  -2.88400 22.60400 27.23100
C  -2.61200 22.38400 23.86500
O  -2.56100 22.18700 22.65600
C  -2.44800 23.82600 24.25700
N  -2.13800 16.95100 23.76800
C  -2.26200 17.97300 22.93700
C  -2.06100 17.53900 21.52900
C  -1.69700 15.99500 21.62500
C  -1.90300 15.79200 23.10500
C  -3.26200 17.85800 20.59200
C  -0.34900 15.64900 21.15100
C  0.80400 16.22400 21.88100
N  -2.10100 15.07600 25.89900
C  -2.02900 14.11400 24.89500
C  -1.91300 12.79800 25.45300
C  -2.02700 13.00000 26.81600
C  -2.17800 14.40600 27.03900
C  -1.89300 11.45000 24.84600
C  -2.06000 12.33900 28.07200
O  -2.04600 11.11500 28.34900
C  -2.26600 13.51400 29.14600
C  -1.00500 13.41900 29.85800
O  -0.00800 14.05600 29.53200
O  -1.16300 12.56200 30.94600
C  -0.00800 12.58300 31.88100
H  -2.92800 20.43900 28.89000
H  -2.70600 19.88300 22.50200
H  -1.84700 13.77500 22.77500
H  -3.54900 15.88300 30.64100
H  -1.97900 18.57800 30.80000
H  -4.51600 17.67700 31.48800
H  -5.01800 18.78600 30.25600
H  -4.06600 19.37200 31.57600
H  -0.69500 15.94400 30.81800
H  -1.96900 14.94300 31.57500
H  -2.13000 17.43600 32.70700
H  -0.48700 16.99900 32.78900
H  -1.99000 23.07700 27.63800
H  -3.52200 22.38500 28.08600
H  -3.47500 23.33900 26.68400
H  -1.72600 23.90600 25.07000
H  -3.46900 24.13700 24.47900
H  -2.02500 24.39200 23.42700
H  -1.17200 17.99400 21.09100
H  -2.48800 15.39100 21.17900
H  -2.92300 18.41900 19.72100
H  -4.11100 18.30600 21.11000
H  -3.63900 16.96200 20.10000
H  -0.30600 16.19100 20.20600
H  -0.19500 14.58800 20.95600
H  0.64500 16.24500 22.95900
H  1.12700 17.15000 21.40500
H  1.65400 15.54700 21.79700
H  -1.37100 11.34100 23.89500
H  -2.88600 11.02300 24.70700
H  -1.38300 10.76100 25.51800
H  -3.13200 13.31200 29.77700
H  -0.32800 11.92900 32.69200
H  0.31900 13.53100 32.31000
H  0.91000 12.25600 31.39300
Mg 35.57600 1.87800 29.21400
C  33.39800 3.06000 31.68300
C  38.09500 2.04400 31.40200
C  37.45400 1.11800 26.64700
C  32.72800 1.92700 27.00400
N  35.77700 2.72900 31.30700
C  34.67200 2.89400 32.14800
C  35.15200 2.86200 33.62800
C  36.74200 2.80600 33.44700
C  36.92200 2.48000 31.98500
C  37.38400 4.13500 33.83600
C  34.39100 1.68300 34.40500
C  33.93300 1.94800 35.87700
H  34.39700 3.27800 36.52300
N  37.50000 1.59100 29.06800
C  38.44800 1.67800 30.09800
C  39.69400 1.17100 29.57200
C  39.54900 1.02200 28.16900
C  38.10700 1.24200 27.88300
C  40.87500 0.89700 30.48500
C  40.57000 0.62700 27.16100
O  40.31400 0.49900 25.96600
C  42.01100 0.46100 27.54600
N  35.09100 1.50200 27.07800
C  36.08500 1.15200 26.24400
C  35.59600 0.94800 24.77000
C  34.06200 0.95800 25.04000
C  33.91200 1.44400 26.44300
C  36.07600 2.01600 23.80000
C  33.32300 -0.41400 24.85100
C  32.73700 -0.61100 23.48800
N  33.51300 2.48700 29.25000
C  32.52800 2.48400 28.31400
C  31.21900 2.96500 28.84700
C  31.56700 3.20800 30.17000
C  32.95200 2.94300 30.36300
C  29.84600 3.14500 28.17100
C  30.96700 3.59900 31.40100
O  29.87100 3.98800 31.80300
C  32.12200 3.44100 32.45300
C  32.23400 4.75700 33.20800
O  32.80000 5.75400 32.75800
O  31.60800 4.64200 34.37600
C  31.32400 5.92900 35.15000
H  38.95400 1.92200 32.06500
H  38.12100 0.86200 25.82100
H  31.83100 1.93900 26.38100
H  34.86600 3.78700 34.13000
H  37.22700 2.08100 34.10100
H  38.13000 4.01100 34.62100
H  36.74600 4.96600 34.13600
H  37.99700 4.55600 33.04000
H  35.09300 0.85300 34.48200
H  33.50200 1.38300 33.85000
H  34.13300 1.10400 36.53700
H  32.84800 1.96800 35.78100
H  41.31000 -0.07500 30.25500
H  40.69300 0.79400 31.55500
H  41.55500 1.72900 30.30300
H  42.67500 0.31000 26.69400
H  42.12500 -0.31800 28.30000
H  42.43200 1.34000 28.03300
H  35.94800 -0.05100 24.51300
H  33.56200 1.68400 24.39900
H  35.22500 2.42100 23.25300
H  36.87900 1.57000 23.21200
H  36.39300 2.84700 24.43000
H  32.57000 -0.62500 25.61000
H  34.06400 -1.20900 24.93700
H  31.65900 -0.48700 23.58200
H  32.95600 -1.63300 23.17900
H  33.09200 0.05600 22.70200
H  29.61700 4.20000 28.02000
H  29.23100 2.65300 28.92400
H  29.79400 2.64500 27.20400
H  31.77300 2.64100 33.10600
H  30.48300 6.47200 34.71900
H  32.08500 6.69900 35.27800
H  31.11400 5.50700 36.13300

