158

Mg 25.37700 1.50300 29.21000
C  27.30000 0.90300 32.23000
C  22.67500 1.27500 31.20000
C  23.55700 1.69300 26.38100
C  28.26900 0.93100 27.39300
N  25.04900 0.99300 31.58200
C  25.95700 0.91900 32.56700
C  25.15800 1.06300 33.92800
C  23.76700 0.67400 33.49400
C  23.79900 1.04900 32.02000
C  23.50000 -0.84500 33.72500
C  25.27700 2.50100 34.58300
C  26.12500 2.45600 35.89200
H  25.70400 3.45900 36.90800
N  23.43700 1.71100 28.85800
C  22.46900 1.58000 29.81700
C  21.13000 1.81300 29.11100
C  21.34500 1.91100 27.71000
C  22.84000 1.81300 27.62500
C  19.82600 1.92000 29.82300
C  20.37600 1.96000 26.51200
O  20.76900 2.21600 25.34400
C  18.95700 1.82700 26.73500
N  25.83600 1.29600 27.25900
C  24.94400 1.47300 26.23300
C  25.57300 1.36600 24.82700
C  27.11100 1.30600 25.16800
C  27.10100 1.16100 26.66100
C  25.06500 0.08200 24.02300
C  27.88600 2.58400 24.76200
C  27.24800 4.00200 24.83900
N  27.35300 1.08700 29.64200
C  28.47900 0.96600 28.82500
C  29.65400 0.76400 29.54300
C  29.25900 0.80800 30.90000
C  27.81200 0.88500 30.89500
C  31.08200 0.50400 29.09500
C  29.77400 0.82100 32.25100
O  30.89200 0.71000 32.63700
C  28.55700 0.92400 33.18300
C  28.52900 -0.11100 34.22200
O  27.83400 -1.15400 34.18300
O  29.29300 0.26500 35.34700
C  29.34200 -0.68900 36.41400
H  21.68500 1.35700 31.65100
H  22.98400 1.78700 25.45600
H  29.20200 0.72300 26.86400
H  25.47300 0.34300 34.68300
H  23.08000 1.29300 34.07000
H  22.64700 -0.85400 34.40300
H  24.30700 -1.32300 34.28100
H  23.15000 -1.33800 32.81800
H  24.29500 2.79300 34.95500
H  25.61000 3.19700 33.81400
H  27.08500 2.77400 35.48700
H  26.30000 1.44200 36.25200
H  19.43500 2.88400 29.49700
H  19.85200 1.89800 30.91200
H  19.08500 1.18800 29.50200
H  18.55400 2.33800 27.60900
H  18.86200 0.74300 26.79000
H  18.45100 2.19000 25.84100
H  25.44000 2.25100 24.20500
H  27.58200 0.40500 24.77300
H  24.03300 -0.18800 24.24600
H  25.64700 -0.79000 24.32100
H  25.25100 0.22700 22.95900
H  28.24000 2.29600 23.77300
H  28.84300 2.58700 25.28300
H  27.98600 4.76900 25.07600
H  26.56700 4.01000 25.69100
H  26.79400 4.24900 23.88000
H  31.27000 -0.56200 28.96300
H  31.62500 0.94400 29.93100
H  31.30600 1.06400 28.18700
H  28.55000 1.89200 33.68400
H  30.26700 -0.62100 36.98600
H  29.26400 -1.73300 36.10900
H  28.57300 -0.49100 37.16000
Mg 27.11200 50.75100 25.63600
C  25.02900 51.90900 28.26700
C  29.49700 49.93600 28.15900
C  29.23300 50.23300 23.06900
C  24.97100 52.37700 23.34700
N  27.27900 50.89300 27.95100
C  26.23100 51.34500 28.77200
C  26.61900 51.02400 30.25600
C  28.18000 50.79400 30.20000
C  28.37700 50.52700 28.68900
C  29.15000 51.92100 30.62500
C  25.91400 49.81000 30.99900
C  25.23800 49.98700 32.35800
H  25.97100 50.63600 33.52500
N  29.08800 49.99300 25.63500
C  29.88400 49.65800 26.75700
C  31.03100 49.00100 26.18700
C  30.91500 49.10000 24.74700
C  29.71200 49.81600 24.40700
C  32.15500 48.38000 27.01200
C  31.86400 48.53800 23.64900
O  31.68100 48.74600 22.44200
C  33.09400 47.72000 23.98200
N  27.09900 51.14000 23.56100
C  28.09300 50.88100 22.76400
C  27.84700 51.22600 21.26000
C  26.39300 51.77000 21.39100
C  26.09700 51.76700 22.89400
C  28.90000 52.26000 20.65700
C  25.28400 51.12800 20.52600
C  24.85900 49.72300 20.90300
N  25.36400 51.96900 25.72000
C  24.61000 52.49300 24.70300
C  23.44100 53.14800 25.25900
C  23.53000 52.87000 26.66500
C  24.69800 52.11200 26.90200
C  22.40800 53.82400 24.41700
C  22.90400 53.02800 27.95900
O  21.81400 53.56700 28.21100
C  23.78400 52.20700 29.01200
C  24.00200 53.07100 30.11200
O  24.78800 53.92800 30.19300
O  23.27800 52.58700 31.18600
C  23.57700 53.15400 32.50300
H  30.36200 49.68400 28.77700
H  29.97000 50.09400 22.27500
H  24.34700 52.97100 22.67600
H  26.36900 51.90900 30.84000
H  28.46000 49.90500 30.76600
H  28.61500 52.86200 30.75700
H  29.94400 52.20000 29.93300
H  29.62800 51.78500 31.59600
H  26.52500 48.91100 31.08600
H  25.19500 49.48900 30.24500
H  25.03400 48.95700 32.65100
H  24.29000 50.50400 32.20600
H  32.07900 47.31900 26.77500
H  31.99400 48.46800 28.08700
H  33.13900 48.72300 26.69600
H  33.97400 48.30200 24.25200
H  33.29000 47.07700 23.12400
H  32.76600 47.04200 24.77000
H  27.96200 50.29800 20.69900
H  26.35200 52.83700 21.17300
H  28.37100 53.15200 20.32200
H  29.48100 51.96200 19.78500
H  29.66600 52.43900 21.41100
H  25.72600 51.04800 19.53300
H  24.48300 51.82400 20.27700
H  24.86000 49.07400 20.02700
H  23.90000 49.72200 21.42200
H  25.55500 49.23100 21.58200
H  22.73300 54.86200 24.48600
H  21.48200 53.69900 24.97900
H  22.37900 53.45900 23.39100
H  23.34300 51.27900 29.37500
H  24.54100 53.66300 32.52600
H  23.76000 52.37100 33.24000
H  22.75700 53.79900 32.81900

