158

Mg 47.09000 15.82500 28.70700
C  44.57700 15.75900 31.33100
C  49.30000 16.95400 30.96700
C  48.88100 16.93200 26.12400
C  44.59300 14.79900 26.53700
N  46.85700 16.47400 30.89900
C  45.87600 16.23700 31.82900
C  46.42600 16.31600 33.32600
C  47.75700 17.00000 33.05600
C  48.00400 16.78300 31.53300
C  47.88900 18.45300 33.42400
C  46.40200 14.98400 34.23100
C  45.92400 15.09600 35.74100
H  45.64000 16.44800 36.38100
N  48.92800 16.64000 28.54000
C  49.71400 16.99900 29.62900
C  50.95700 17.33400 29.16100
C  50.93900 17.33500 27.74500
C  49.54700 17.00900 27.36200
C  52.10700 17.73000 30.11500
C  52.02300 17.60500 26.82700
O  51.89000 17.60500 25.60600
C  53.42400 17.85400 27.33000
N  46.71800 15.92600 26.69300
C  47.65400 16.34600 25.76700
C  47.34900 15.92700 24.35900
C  46.16500 15.00400 24.53000
C  45.77800 15.21800 26.00600
C  47.23600 17.05500 23.25900
C  46.26500 13.48300 24.15800
C  45.40600 12.85100 23.05900
N  44.97500 15.28700 28.87700
C  44.13600 14.93400 27.92700
C  42.89200 14.60200 28.41800
C  43.04100 14.90400 29.76900
C  44.29700 15.34500 30.00800
C  41.78500 14.02100 27.69900
C  42.29300 14.87400 30.97800
O  41.15300 14.49900 31.20400
C  43.36000 15.38600 32.05900
C  42.71800 16.55700 32.75700
O  42.36900 17.62300 32.22900
O  42.55600 16.34300 34.06700
C  41.84800 17.39800 34.81100
H  50.02900 17.14000 31.75900
H  49.56000 17.28400 25.34400
H  43.81800 14.39400 25.88300
H  45.81300 16.95000 33.96700
H  48.46400 16.32600 33.54100
H  47.30200 18.87200 34.24100
H  47.66400 19.04200 32.53600
H  48.94200 18.64100 33.63300
H  47.32500 14.41700 34.11200
H  45.63800 14.46600 33.65100
H  46.62700 14.46800 36.28700
H  45.01600 14.49400 35.77200
H  52.90200 16.98500 30.08300
H  51.75100 17.70400 31.14500
H  52.39000 18.77100 29.96100
H  53.34100 18.68600 28.02900
H  53.99700 18.11100 26.43900
H  53.79500 16.97800 27.86400
H  48.17000 15.23800 24.16100
H  45.29400 15.29300 23.94100
H  46.44100 16.79300 22.56200
H  48.24500 17.19200 22.87000
H  46.84300 17.97200 23.70000
H  46.17000 12.78700 24.99000
H  47.29000 13.37800 23.80200
H  45.00300 11.87400 23.32500
H  45.92500 12.71700 22.11000
H  44.56300 13.52100 22.89000
H  41.92600 13.09000 27.15100
H  41.24100 14.69400 27.03700
H  41.09000 13.67500 28.46400
H  43.44900 14.55900 32.76300
H  41.35400 18.08600 34.12600
H  42.49200 17.95600 35.49100
H  41.09900 16.93500 35.45400
Mg 49.81300 44.63400 42.80400
C  46.61300 44.78300 41.84100
C  49.76500 41.07600 42.22600
C  53.23300 44.52700 43.21700
C  49.96800 48.11300 43.13300
N  48.32900 43.03900 42.24000
C  47.00000 43.43900 41.89000
C  46.17900 42.17100 41.35900
C  47.11000 40.99500 41.90400
C  48.47700 41.70200 42.12400
C  46.72200 40.09700 43.08100
C  46.13600 42.21300 39.76600
C  44.68900 42.31800 39.25500
H  44.28200 43.41000 38.28900
N  51.28700 43.06000 42.75300
C  51.06300 41.65800 42.52500
C  52.28200 40.94200 42.55700
C  53.32000 41.85400 42.86300
C  52.67100 43.23400 42.94700
C  52.43400 39.51300 42.12100
C  54.81700 41.44300 43.01200
O  55.21000 40.27900 42.94600
C  55.84800 42.58100 43.01900
N  51.34200 46.08400 43.45200
C  52.66000 45.80200 43.34000
C  53.51900 47.04100 43.59900
C  52.42000 48.17800 43.68100
C  51.18800 47.40400 43.43500
C  54.41100 47.12300 44.83300
C  52.78300 49.42100 42.73300
C  52.45500 50.84800 43.14300
N  48.57300 46.15500 42.64900
C  48.77200 47.49900 42.73200
C  47.44100 48.08200 42.44600
C  46.55500 47.08900 42.19100
C  47.32700 45.91700 42.24600
C  47.19100 49.58200 42.46600
C  45.21000 46.76300 41.82300
O  44.18000 47.44400 41.70100
C  45.17500 45.26000 41.56200
C  44.16100 44.80000 42.57000
O  44.19200 44.72700 43.82700
O  42.94400 44.64300 41.84000
C  41.69800 44.49800 42.59400
H  49.77900 39.99200 42.09600
H  54.31500 44.53700 43.36800
H  49.99600 49.20500 43.10400
H  45.22000 42.27400 41.86600
H  47.20600 40.29700 41.07300
H  47.23900 40.31800 44.01400
H  46.85200 39.05800 42.77900
H  45.67700 40.31800 43.30000
H  46.65300 41.34400 39.36000
H  46.59800 43.07800 39.29000
H  43.88300 42.10600 39.95700
H  44.76700 41.51000 38.52700
H  51.53600 39.27700 41.55000
H  52.48900 38.81700 42.95800
H  53.29700 39.29100 41.49200
H  55.66600 43.35800 42.27700
H  56.76800 42.14200 42.63400
H  55.87700 43.06900 43.99400
H  54.04300 47.19000 42.65600
H  52.32000 48.56600 44.69500
H  54.05000 47.87700 45.53200
H  55.34900 47.55000 44.47900
H  54.52900 46.11800 45.23900
H  52.34700 49.28200 41.74400
H  53.85500 49.37900 42.53900
H  53.35400 51.46000 43.21000
H  51.85500 50.85500 44.05300
H  51.82900 51.24000 42.34100
H  46.29900 49.85300 43.03200
H  47.14300 49.94800 41.44000
H  48.05700 50.07600 42.90800
H  44.76500 45.09500 40.56500
H  40.97800 44.42500 41.77900
H  41.51200 45.30200 43.30700
H  41.75500 43.54700 43.12300

