158

Mg 0.54900 8.27300 25.13400
C  1.31200 9.92800 28.29600
C  0.75000 5.31900 26.98400
C  0.20600 6.76500 22.30500
C  1.20900 11.28700 23.54600
N  0.86700 7.69700 27.44400
C  1.10600 8.56100 28.44200
C  1.29100 7.78000 29.80000
C  1.15900 6.29800 29.37200
C  1.00200 6.42000 27.80400
C  2.30700 5.27600 29.79300
C  0.28500 8.12900 30.96700
C  0.88600 8.58200 32.28500
H  1.98400 7.68500 32.83100
N  0.48300 6.26000 24.68700
C  0.54100 5.23500 25.55400
C  0.37100 4.01900 24.80300
C  0.22600 4.37900 23.40700
C  0.33900 5.83200 23.38800
C  0.31600 2.69100 25.48600
C  0.19300 3.49600 22.19800
O  0.00000 3.94800 21.08800
C  0.32800 1.97500 22.35400
N  0.80800 8.96700 23.20900
C  0.42900 8.12500 22.23600
C  0.70200 8.81600 20.85900
C  0.76900 10.30300 21.25300
C  0.94200 10.16400 22.75400
C  1.89800 8.24600 20.09200
C  -0.39400 11.23300 20.82200
C  -1.81600 11.11000 21.38600
N  1.17500 10.26200 25.68800
C  1.40900 11.38800 24.93500
C  1.74500 12.51400 25.78800
C  1.68600 12.02300 27.09400
C  1.38800 10.61300 27.00100
C  2.02900 13.88200 25.46800
C  1.80600 12.36500 28.51800
O  2.23100 13.42700 29.02500
C  1.57400 11.04300 29.34200
C  2.84300 10.78600 30.06500
O  3.83600 10.14300 29.69900
O  2.76600 11.45100 31.22500
C  3.86600 11.58700 32.15500
H  0.84600 4.32900 27.43500
H  -0.03400 6.31800 21.33900
H  1.37200 12.28200 23.12600
H  2.30600 8.10800 30.02400
H  0.19300 5.86800 29.63500
H  3.02800 5.57700 30.55400
H  2.81100 4.82500 28.93800
H  1.79900 4.46100 30.30800
H  -0.30100 7.25500 31.25100
H  -0.41900 8.84000 30.53400
H  0.11600 8.49100 33.05100
H  1.11400 9.64600 32.22100
H  -0.42100 2.08400 24.96200
H  -0.14700 2.71700 26.47200
H  1.28600 2.19800 25.55900
H  -0.44700 1.47300 22.93300
H  1.34200 1.91400 22.74900
H  0.35700 1.42500 21.41300
H  -0.19900 8.56600 20.29800
H  1.70100 10.77100 20.93400
H  2.74500 8.93100 20.05200
H  1.57500 8.10100 19.06100
H  2.20400 7.26700 20.45800
H  -0.43200 11.25700 19.73300
H  -0.07700 12.23100 21.12400
H  -2.05100 12.08400 21.81600
H  -1.79300 10.36900 22.18400
H  -2.58200 10.80900 20.67100
H  0.99900 14.21000 25.32800
H  2.60800 13.86000 24.54400
H  2.32900 14.46200 26.34000
H  0.66000 11.08700 29.93500
H  4.74800 11.70700 31.52600
H  4.11100 10.70700 32.74900
H  3.69100 12.34100 32.92300
Mg 9.74200 48.57400 26.26900
C  7.50700 48.43200 29.04900
C  12.24100 49.43200 28.41700
C  11.72700 48.56000 23.64300
C  6.92600 47.76700 24.21800
N  9.75100 49.13300 28.45600
C  8.81200 48.81600 29.37500
C  9.38600 48.94400 30.79300
C  10.72100 49.73100 30.55900
C  10.92200 49.44300 29.01700
C  10.60800 51.26700 30.82700
C  9.47700 47.53800 31.59800
C  10.63700 47.29300 32.59400
H  10.35000 46.36500 33.76700
N  11.74100 49.02200 26.06200
C  12.60500 49.33200 27.02900
C  13.86400 49.29200 26.53800
C  13.80500 48.99200 25.11900
C  12.43900 48.90600 24.85000
C  15.14700 49.61000 27.29800
C  14.94900 48.81500 23.94300
O  14.71500 48.58300 22.78200
C  16.30400 48.58400 24.54000
N  9.29500 48.40600 24.18500
C  10.36000 48.33300 23.28800
C  9.83100 48.04400 21.89600
C  8.37500 47.66000 22.15300
C  8.13300 48.04700 23.56900
C  10.14900 49.22200 20.89900
C  8.16800 46.15400 21.96500
C  6.93400 45.78900 21.04600
N  7.58000 48.24900 26.49400
C  6.59100 47.89900 25.59000
C  5.37600 47.60000 26.29000
C  5.63200 47.75300 27.63800
C  7.02100 48.20700 27.68300
C  4.05500 47.16000 25.64700
C  5.11100 47.81700 28.97900
O  3.95900 47.65100 29.37200
C  6.27400 48.09400 29.92600
C  6.42900 46.81100 30.74100
O  6.85800 45.74100 30.24700
O  5.91000 46.94500 31.98100
C  6.08400 45.87500 32.92900
H  13.05900 49.65000 29.10700
H  12.28300 48.45000 22.71000
H  6.06300 47.48500 23.61000
H  8.56500 49.52100 31.21900
H  11.64400 49.33500 30.98300
H  11.05400 51.86000 30.02800
H  11.12500 51.57200 31.73700
H  9.58200 51.46300 31.13600
H  9.20100 46.75700 30.88900
H  8.63400 47.68200 32.27300
H  10.94300 48.22800 33.06300
H  11.53900 46.99700 32.05800
H  15.04200 49.97600 28.32000
H  15.75000 50.35000 26.77200
H  15.68700 48.66600 27.36900
H  16.64700 49.54200 24.93200
H  17.04200 48.36600 23.76800
H  16.27800 47.78200 25.27700
H  10.41500 47.21300 21.50000
H  7.61600 48.12200 21.52100
H  10.68400 48.81800 20.03900
H  10.70100 49.94400 21.50000
H  9.26600 49.63500 20.41000
H  8.01400 45.59000 22.88500
H  9.08200 45.73000 21.54800
H  7.18900 45.65300 19.99500
H  6.10300 46.49200 21.10600
H  6.53900 44.81800 21.34400
H  4.27300 46.55000 24.77000
H  3.47700 48.03100 25.33900
H  3.39000 46.60000 26.30500
H  6.07300 48.99800 30.50100
H  5.05800 45.57900 33.14600
H  6.60500 46.24200 33.81300
H  6.55200 44.96300 32.55900

