158

Mg 6.58000 54.97300 40.65000
C  5.76900 51.55000 40.88900
C  9.82300 54.04700 39.64600
C  7.15700 58.22800 40.04700
C  3.34000 55.83100 41.77100
N  7.61900 53.09600 40.15200
C  7.03400 51.79300 40.31400
C  7.99500 50.68400 39.83500
C  9.39500 51.49300 39.81900
C  8.90600 52.98000 39.84400
C  10.32000 51.15000 41.05000
C  7.66900 50.01000 38.43000
C  6.86800 50.85300 37.40400
H  6.16700 50.04600 36.21300
N  8.27700 56.03600 39.95900
C  9.53100 55.46400 39.65500
C  10.42900 56.50300 39.24400
C  9.70100 57.76200 39.28300
C  8.30900 57.42700 39.78000
C  11.89300 56.31200 38.88700
C  10.30300 59.06100 38.98900
O  11.40700 59.06600 38.52000
C  9.65500 60.33100 39.45500
N  5.41400 56.70200 40.71800
C  5.89100 57.88600 40.49500
C  4.91100 59.06600 40.71000
C  3.67400 58.33900 41.34500
C  4.19100 56.85900 41.32800
C  5.46300 60.16200 41.65700
C  2.23400 58.61100 40.72000
C  1.73500 60.01900 41.08100
N  4.82800 53.89500 41.17300
C  3.58900 54.42100 41.60500
C  2.68300 53.24400 41.90700
C  3.48700 52.11400 41.65900
C  4.77600 52.56700 41.17500
C  1.26500 53.29200 42.51600
C  3.49100 50.71100 41.76000
O  2.64300 49.98300 42.20500
C  4.94700 50.21700 41.24800
C  4.62000 49.29400 40.05700
O  4.12300 49.58100 38.93000
O  4.98800 48.01000 40.42800
C  4.98000 47.09200 39.28200
H  10.71800 53.57300 39.23700
H  7.39000 59.22600 39.66800
H  2.33000 56.10200 42.08500
H  7.90500 50.03800 40.70800
H  10.03400 51.26800 38.96500
H  10.29900 52.03600 41.68600
H  11.36600 51.02900 40.77000
H  9.92100 50.34100 41.66100
H  7.22000 49.05100 38.68800
H  8.56100 49.80800 37.83700
H  7.58200 51.58300 37.02200
H  6.12900 51.39300 37.99500
H  12.05100 55.29300 38.53200
H  12.61400 56.64500 39.63400
H  12.10900 56.90300 37.99700
H  8.97300 60.79300 38.74100
H  10.43300 61.07500 39.62500
H  9.11600 60.20500 40.39400
H  4.66100 59.54900 39.76600
H  3.62700 58.64100 42.39100
H  6.54800 60.17800 41.76700
H  4.86200 60.38400 42.53900
H  5.30900 61.05500 41.05200
H  1.46500 57.99100 41.18100
H  2.23600 58.43800 39.64300
H  0.86600 59.90100 41.72800
H  1.61500 60.72200 40.25700
H  2.50100 60.32600 41.79200
H  1.31500 53.93200 43.39700
H  0.74000 52.40100 42.85800
H  0.76400 53.74800 41.66200
H  5.34600 49.58000 42.03700
H  4.98500 46.10100 39.73500
H  5.85000 47.30000 38.66000
H  4.08900 47.15100 38.65600
Mg -11.39500 38.89600 42.09200
C  -9.55300 36.16500 40.91900
C  -9.46400 40.93200 40.07200
C  -13.72000 41.28700 42.41300
C  -13.73500 36.53400 43.38700
N  -9.74200 38.56400 40.50300
C  -9.12200 37.35500 40.29300
C  -7.99200 37.56800 39.33000
C  -7.89600 39.13800 39.21300
C  -9.05200 39.56700 40.01900
C  -6.55600 39.71300 39.63800
C  -8.38100 36.94400 37.91600
C  -7.37100 36.00700 37.27700
H  -6.52400 36.70300 36.19100
N  -11.47100 40.86000 41.46600
C  -10.54400 41.55300 40.73200
C  -11.01900 42.95900 40.67400
C  -12.23800 43.09600 41.44500
C  -12.52400 41.68800 41.83100
C  -10.10700 43.97700 40.06500
C  -13.04600 44.34600 41.66400
O  -12.57000 45.38100 41.16700
C  -14.22800 44.49500 42.57900
N  -13.42800 38.95800 42.99100
C  -14.20900 40.08900 42.94400
C  -15.62300 39.80400 43.34700
C  -15.64000 38.23600 43.71700
C  -14.17600 37.88000 43.38100
C  -15.91400 40.71300 44.56000
C  -16.73100 37.43900 42.91400
C  -17.65700 36.62200 43.84200
N  -11.53600 36.84400 42.28000
C  -12.52500 36.04200 42.87500
C  -11.98400 34.69800 43.03600
C  -10.77500 34.71600 42.28700
C  -10.63900 35.98000 41.77700
C  -12.72300 33.57400 43.78800
C  -9.72100 33.90500 41.78600
O  -9.39800 32.76000 41.98300
C  -8.81600 34.80700 40.88500
C  -7.47300 34.82700 41.41800
O  -6.55800 34.03800 41.15000
O  -7.18400 35.91900 42.15700
C  -5.85900 35.82300 42.79800
H  -8.94800 41.65800 39.44100
H  -14.55200 41.99500 42.42900
H  -14.41700 35.78700 43.79800
H  -7.04300 37.12900 39.63800
H  -8.07000 39.51700 38.20500
H  -6.37100 40.56700 38.98700
H  -5.72600 39.05000 39.39700
H  -6.52300 39.89900 40.71200
H  -8.74300 37.70600 37.22700
H  -9.29700 36.37600 38.07900
H  -7.93600 35.23100 36.76200
H  -6.81700 35.48300 38.05600
H  -10.65700 44.62100 39.38000
H  -9.27300 43.55600 39.50500
H  -9.75700 44.46900 40.97300
H  -14.14800 45.51200 42.96400
H  -14.14100 43.94400 43.51500
H  -15.16800 44.31000 42.05900
H  -16.25900 40.12000 42.52100
H  -15.71100 38.12700 44.79900
H  -15.01600 40.79500 45.17100
H  -16.67000 40.25900 45.20100
H  -16.40400 41.65000 44.29500
H  -16.23500 36.85200 42.14100
H  -17.40800 38.13200 42.41600
H  -17.47300 35.58800 43.54900
H  -18.67500 36.91200 43.58600
H  -17.68400 36.70200 44.92900
H  -12.26500 32.58800 43.72300
H  -13.72600 33.51200 43.36600
H  -12.77300 33.87200 44.83500
H  -8.82800 34.48600 39.84400
H  -5.86300 36.37900 43.73500
H  -5.13700 36.36100 42.18300
H  -5.40200 34.86900 43.06200

