158

Mg -1.71800 16.74300 26.01100
C  -2.02100 14.57000 28.64400
C  -2.32500 19.48600 28.38900
C  -2.13500 18.88000 23.54000
C  -2.02500 14.02800 23.79200
N  -2.21900 16.94700 28.17700
C  -2.10600 15.89900 29.07900
C  -2.49500 16.38800 30.52200
C  -2.79400 17.84600 30.23200
C  -2.37000 18.13300 28.83600
C  -4.33600 18.17400 30.48200
C  -1.44900 16.07700 31.59100
C  -1.69400 16.90400 32.94200
H  -1.53300 16.33900 34.33800
N  -1.98100 18.86900 25.91600
C  -2.12800 19.83800 26.96100
C  -2.01100 21.11700 26.39900
C  -1.97300 20.97000 25.00400
C  -2.07200 19.50600 24.76800
C  -2.06400 22.37500 27.27700
C  -1.88100 22.07000 23.93300
O  -2.01700 21.83700 22.73700
C  -1.70200 23.45700 24.35400
N  -2.22500 16.47700 23.94900
C  -2.22400 17.53500 23.11100
C  -2.34900 17.05800 21.64000
C  -2.12400 15.56000 21.76400
C  -2.10600 15.36100 23.26800
C  -3.77500 17.39000 21.12800
C  -0.79600 15.10600 21.10000
C  0.47100 15.40400 21.91200
N  -1.89800 14.68800 26.09700
C  -1.98400 13.69800 25.13400
C  -1.87700 12.41900 25.75000
C  -1.83800 12.66800 27.12300
C  -1.87800 14.07700 27.28400
C  -1.76700 11.19800 25.05000
C  -1.79700 12.12700 28.44200
O  -1.59400 10.99100 28.80900
C  -1.98600 13.26500 29.48900
C  -0.89800 13.26000 30.42700
O  0.17400 13.77500 30.21300
O  -1.21500 12.55800 31.55500
C  -0.16200 12.50400 32.61600
H  -2.24000 20.33500 29.07000
H  -2.08700 19.55300 22.68100
H  -1.91800 13.18100 23.11200
H  -3.41000 15.85600 30.78300
H  -2.28600 18.54400 30.89800
H  -4.44900 19.00600 31.17700
H  -4.87700 17.49000 31.13500
H  -4.79800 18.35500 29.51100
H  -0.45200 16.26900 31.19300
H  -1.53600 15.06800 31.99300
H  -2.70800 17.29300 32.84600
H  -0.98100 17.72700 32.89200
H  -2.86600 23.06400 27.01300
H  -1.14100 22.94300 27.15600
H  -2.16900 22.17200 28.34200
H  -2.67900 23.88500 24.57700
H  -1.29400 23.96300 23.47900
H  -1.13000 23.66200 25.25900
H  -1.75600 17.63300 20.92800
H  -2.99200 15.00100 21.41600
H  -3.93600 18.34500 21.62800
H  -4.52500 16.73400 21.56900
H  -3.82200 17.44400 20.04100
H  -0.67700 15.38900 20.05400
H  -0.83200 14.01700 21.06400
H  0.22800 16.08700 22.72600
H  1.18800 15.94000 21.29100
H  0.94000 14.56000 22.41800
H  -0.81300 11.02100 24.55300
H  -2.60600 11.04200 24.37100
H  -1.77800 10.49400 25.88200
H  -2.95200 13.09800 29.96600
H  -0.42000 13.16100 33.44700
H  0.82100 12.71600 32.19600
H  -0.24900 11.47900 32.97600
Mg 9.20300 47.33600 27.13300
C  7.09500 46.82800 29.92000
C  11.80600 47.95000 29.08600
C  10.92100 48.22300 24.31000
C  6.27100 47.15000 25.15300
N  9.41300 47.35600 29.24900
C  8.45300 47.07800 30.25800
C  9.09600 47.27200 31.64000
C  10.62200 47.52300 31.30100
C  10.65000 47.72700 29.78200
C  11.25100 48.62800 32.07600
C  8.77400 46.16200 32.65800
C  9.84100 45.70400 33.62800
H  9.34100 45.01800 34.95200
N  11.15700 47.76700 26.75500
C  12.10300 48.02400 27.69400
C  13.47000 48.11700 27.10500
C  13.13900 48.16700 25.69100
C  11.67700 48.02600 25.47800
C  14.77900 48.10200 27.90800
C  14.13400 48.17500 24.53800
O  13.79900 47.81500 23.43500
C  15.63400 48.40700 24.87800
N  8.62000 47.89100 25.01200
C  9.51000 48.17600 24.09600
C  8.83300 48.47300 22.75200
C  7.34100 47.85000 22.94900
C  7.36700 47.65900 24.47700
C  8.82900 50.01800 22.51400
C  7.11200 46.52100 22.14900
C  6.37900 46.61900 20.77000
N  7.07500 47.17200 27.43000
C  6.09400 47.00800 26.51400
C  4.84600 46.64900 27.15500
C  5.17400 46.62300 28.49900
C  6.51200 46.95000 28.61200
C  3.45400 46.36700 26.49700
C  4.64200 46.43300 29.78100
O  3.49000 46.18400 30.26500
C  5.86400 46.49500 30.77100
C  5.96300 45.13400 31.31300
O  6.60800 44.17600 30.90000
O  5.28700 45.11200 32.53400
C  5.11700 43.80300 33.14500
H  12.66200 48.19000 29.72000
H  11.44700 48.53300 23.40500
H  5.47800 47.02300 24.41300
H  8.78400 48.21200 32.09600
H  11.16300 46.58500 31.42400
H  12.24700 48.29500 32.36800
H  10.68900 49.05800 32.90500
H  11.36200 49.48100 31.40600
H  8.60500 45.36300 31.93600
H  7.84800 46.28400 33.21900
H  10.39600 46.61400 33.85400
H  10.51200 45.01500 33.11700
H  15.64100 47.66000 27.40900
H  14.62600 47.85900 28.96000
H  15.00900 49.16600 27.96800
H  15.65800 49.12000 25.70300
H  16.20300 48.72800 24.00600
H  16.17500 47.53600 25.24700
H  9.40400 48.01000 21.94800
H  6.52500 48.53000 22.70600
H  7.84100 50.46600 22.61900
H  9.13600 50.18700 21.48200
H  9.54200 50.46300 23.20700
H  6.56700 45.81200 22.77300
H  8.10800 46.09100 22.04500
H  7.05300 46.11400 20.07800
H  6.24700 47.61800 20.35500
H  5.40900 46.12800 20.68600
H  3.02700 45.56300 27.09600
H  3.50000 46.15500 25.42900
H  2.78700 47.22400 26.59300
H  5.66500 47.28500 31.49500
H  4.96300 44.03600 34.19900
H  5.98900 43.15300 33.08100
H  4.25100 43.16900 32.95500

