158

Mg 48.85500 44.75400 42.57100
C  45.64500 45.38100 41.56200
C  48.69000 41.63100 41.17500
C  52.16900 44.54900 42.92600
C  49.19500 48.28700 43.39800
N  47.43600 43.75100 41.44200
C  46.11100 44.10400 41.23000
C  45.40700 43.13600 40.28900
C  46.23200 41.84600 40.48500
C  47.53200 42.38600 41.16300
C  45.53400 40.79700 41.32000
C  45.37100 43.67400 38.82900
C  44.06900 43.58200 38.12400
H  44.08300 42.90000 36.73700
N  50.21100 43.27700 42.21500
C  49.97800 42.02000 41.62100
C  51.20400 41.32200 41.63400
C  52.17000 42.13300 42.24100
C  51.51700 43.41500 42.50100
C  51.29800 39.90900 40.98300
C  53.63500 41.74600 42.51700
O  54.14800 40.68700 42.18900
C  54.58800 42.58400 43.45600
N  50.45600 46.26100 43.10100
C  51.73500 45.85400 43.13900
C  52.63200 46.94300 43.61000
C  51.72700 48.19100 43.52300
C  50.38500 47.60700 43.28000
C  53.20100 46.69300 45.06300
C  52.07600 49.02800 42.20700
C  52.58500 50.44900 42.56200
N  47.68400 46.46900 42.51700
C  47.91000 47.79200 42.95200
C  46.67900 48.54400 42.86900
C  45.76700 47.58500 42.39700
C  46.42800 46.37600 42.10100
C  46.38500 49.99500 43.35800
C  44.33700 47.35100 42.11600
O  43.40900 48.15200 42.23300
C  44.20100 45.85600 41.55000
C  43.34900 44.96500 42.39500
O  42.18500 44.62000 42.19600
O  44.04200 44.43600 43.40300
C  43.48600 43.27100 44.11600
H  48.61300 40.60200 40.81900
H  53.23400 44.45600 43.14900
H  49.20300 49.35100 43.64100
H  44.45700 42.90500 40.77200
H  46.58600 41.41700 39.54800
H  46.22900 40.45600 42.08800
H  45.21400 39.94400 40.72200
H  44.70100 41.21000 41.88900
H  46.04600 43.10000 38.19300
H  45.61300 44.72400 38.66900
H  43.54700 44.53800 38.10200
H  43.35800 42.94800 38.65400
H  52.03900 39.34900 41.55400
H  51.59900 39.76400 39.94600
H  50.32600 39.44400 41.14400
H  53.95300 42.96200 44.25700
H  55.02300 43.27400 42.73300
H  55.31100 41.84900 43.80900
H  53.47100 46.97100 42.91500
H  51.69700 48.68200 44.49500
H  52.58300 47.06600 45.88000
H  54.18700 47.15100 44.98200
H  53.19700 45.61000 45.18400
H  51.19400 49.11100 41.57100
H  52.83200 48.47000 41.65500
H  53.60300 50.50700 42.17600
H  52.59400 50.70000 43.62300
H  51.92900 51.18700 42.10100
H  45.29900 50.08300 43.39700
H  46.70900 50.79000 42.68600
H  46.80300 50.08100 44.36100
H  43.75200 45.97100 40.56300
H  42.93100 42.53100 43.53900
H  42.82000 43.55800 44.93000
H  44.37200 42.73300 44.45400
Mg 30.30600 58.21800 40.12900
C  27.69200 55.98800 39.18800
C  32.50000 55.84200 39.18700
C  32.67000 60.52700 40.74400
C  27.83200 60.82700 40.36100
N  29.98800 56.08200 39.31400
C  28.90400 55.35200 39.07600
C  29.27100 53.95200 38.55100
C  30.84900 54.01400 38.47600
C  31.16100 55.40800 39.03500
C  31.53600 52.80800 39.09500
C  28.72800 53.60800 37.15500
C  29.00100 54.63200 36.08100
H  28.03000 54.82300 34.92900
N  32.35900 58.13500 40.10900
C  33.00200 57.04700 39.70500
C  34.44800 57.28000 39.85300
C  34.58600 58.60800 40.29000
C  33.21600 59.17200 40.36700
C  35.45900 56.15400 39.53800
C  35.92900 59.31800 40.53000
O  36.98300 58.66000 40.51800
C  35.99100 60.72800 40.81900
N  30.20000 60.36800 40.55100
C  31.36300 61.01400 40.84400
C  31.08800 62.54500 41.00100
C  29.54600 62.54600 41.28700
C  29.13900 61.18100 40.71200
C  31.95700 63.44900 41.94200
C  28.72600 63.71400 40.72800
C  27.94000 64.52800 41.82800
N  28.24000 58.39400 39.92200
C  27.38000 59.49700 40.10100
C  25.99600 59.11600 39.88200
C  26.10900 57.73000 39.53500
C  27.47700 57.36100 39.57700
C  24.79600 60.00000 39.94200
C  25.28000 56.58900 39.16800
O  24.07300 56.46800 39.12900
C  26.29500 55.41700 38.88100
C  25.96700 54.26500 39.78300
O  26.36200 54.16400 40.89700
O  25.33900 53.26000 39.05100
C  25.05300 51.96700 39.63400
H  33.12700 55.06500 38.74400
H  33.50000 61.21800 40.90800
H  27.07900 61.58300 40.59400
H  29.02700 53.27300 39.36800
H  31.17600 54.11300 37.44100
H  32.41400 53.12400 39.65800
H  31.83800 52.06400 38.35800
H  30.87800 52.37700 39.84900
H  27.67600 53.32800 37.09800
H  29.50100 52.89400 36.87000
H  29.91800 54.46400 35.51600
H  29.10700 55.65900 36.43300
H  36.48100 56.45600 39.76400
H  35.58600 55.82500 38.50700
H  35.23900 55.30600 40.18800
H  35.67200 60.98700 41.82800
H  35.41700 61.30100 40.09100
H  37.02500 61.06900 40.75800
H  31.20700 62.99000 40.01300
H  29.41400 62.41800 42.36200
H  32.84600 62.92500 42.29300
H  31.29600 63.48900 42.80800
H  32.14100 64.42800 41.50000
H  27.97400 63.48200 39.97400
H  29.38200 64.40600 40.19900
H  28.14100 65.56000 41.54100
H  28.34000 64.30500 42.81700
H  26.87500 64.38700 41.64700
H  24.55200 60.24800 40.97500
H  23.93200 59.53600 39.46600
H  25.00700 60.95600 39.46200
H  26.20000 54.98400 37.88500
H  25.03100 51.80300 40.71200
H  25.73900 51.19400 39.28800
H  24.16900 51.69300 39.05800

