158

Mg 46.87700 15.05600 27.74900
C  44.90000 15.08500 30.72000
C  48.91800 17.41800 29.24300
C  48.47200 15.18300 25.01200
C  44.24700 13.16700 26.25600
N  46.82000 16.07600 29.74700
C  45.98100 15.94300 30.78300
C  46.52300 16.62900 32.00300
C  47.55200 17.69200 31.37400
C  47.79700 16.99700 30.01200
C  47.20200 19.16400 31.22300
C  47.28000 15.56400 32.93200
C  46.96900 15.63600 34.40000
H  48.17700 15.47800 35.40300
N  48.57900 16.04800 27.22400
C  49.28900 16.94100 27.95600
C  50.42200 17.42200 27.19500
C  50.37000 16.75500 25.92100
C  49.12800 15.97100 26.01200
C  51.41400 18.43500 27.72500
C  51.30600 16.80600 24.69700
O  51.11600 16.19200 23.62900
C  52.56900 17.68200 24.83400
N  46.26700 14.37700 25.78800
C  47.25500 14.50800 24.84600
C  46.93800 13.61100 23.62400
C  45.53800 12.96000 24.02900
C  45.31000 13.51500 25.41600
C  46.83100 14.48800 22.35800
C  45.45500 11.32700 23.96600
C  46.68400 10.57500 24.62500
N  45.02600 14.22100 28.26300
C  44.05800 13.57900 27.52400
C  42.93400 13.26800 28.38100
C  43.23700 13.85200 29.61600
C  44.49800 14.43600 29.52900
C  41.63600 12.76000 27.95200
C  42.61300 14.10100 30.96500
O  41.50300 13.89500 31.46600
C  43.82300 14.84000 31.71500
C  43.27400 16.16700 32.19600
O  43.02200 17.10300 31.50100
O  43.12500 16.13000 33.58500
C  42.67600 17.30200 34.36200
H  49.59600 18.14100 29.70300
H  49.14900 15.18900 24.15600
H  43.41500 12.64200 25.78400
H  45.70900 17.03500 32.60300
H  48.44500 17.74000 31.99700
H  46.99100 19.39700 30.17900
H  48.04400 19.76100 31.57200
H  46.27200 19.30400 31.77300
H  48.35000 15.63500 32.73400
H  46.95500 14.57000 32.62400
H  46.26000 14.86800 34.70900
H  46.48500 16.59500 34.58500
H  51.70500 19.12600 26.93400
H  52.28500 17.90100 28.10600
H  51.03000 19.01800 28.56300
H  53.12600 17.62700 23.89900
H  53.18200 17.29800 25.64900
H  52.26800 18.72900 24.85900
H  47.67500 12.80800 23.63400
H  44.79000 13.26800 23.29700
H  46.50900 15.51400 22.53600
H  46.04700 14.10400 21.70500
H  47.84100 14.55500 21.95300
H  45.49500 11.02700 22.91900
H  44.59200 10.89500 24.47200
H  47.27300 10.15200 23.81200
H  46.24700 9.77700 25.22600
H  47.23900 11.22400 25.30300
H  41.22300 13.19600 27.04300
H  40.98600 13.04300 28.78000
H  41.80600 11.69100 27.82500
H  44.16600 14.35700 32.63000
H  42.30700 18.17100 33.81800
H  43.47600 17.69100 34.99200
H  41.85900 17.01300 35.02300
Mg 30.91900 59.80200 39.44900
C  27.98900 58.32200 38.20200
C  32.71700 56.88600 38.48900
C  33.83400 61.46700 39.90000
C  29.19900 62.81700 39.71600
N  30.37200 57.90700 38.33700
C  29.10600 57.46800 38.04000
C  29.14200 56.17300 37.28500
C  30.62700 55.65100 37.56700
C  31.29300 56.84200 38.29100
C  30.75100 54.36800 38.49700
C  28.79700 56.08900 35.74900
C  27.50500 55.32600 35.40100
H  26.64400 55.83800 34.33500
N  33.05900 59.27000 39.15800
C  33.49400 58.00500 38.83600
C  34.87700 58.06800 38.80500
C  35.30400 59.43300 39.06600
C  34.08800 60.19200 39.41000
C  35.77400 56.85600 38.53400
C  36.77700 59.85500 39.13100
O  37.69700 59.12300 38.81500
C  37.09700 61.23500 39.57100
N  31.40800 61.65300 39.72200
C  32.65500 62.14200 39.99200
C  32.76600 63.68800 40.09400
C  31.24600 64.04800 39.99100
C  30.57100 62.74600 39.82000
C  33.44300 64.15800 41.44200
C  30.95200 65.13900 38.94800
C  30.22700 66.43200 39.46300
N  28.90900 60.52200 39.12400
C  28.38100 61.76500 39.19400
C  27.00300 61.68100 39.05200
C  26.74800 60.36200 38.57700
C  28.01100 59.67800 38.64700
C  26.07100 62.77300 39.46700
C  25.71900 59.35600 38.19000
O  24.51900 59.45500 38.17800
C  26.52600 58.06700 37.84900
C  25.95700 57.00200 38.68000
O  26.20100 56.83000 39.84200
O  25.23300 56.14600 37.87000
C  24.64000 55.03400 38.57000
H  33.23200 55.97800 38.16700
H  34.77000 62.00400 40.07100
H  28.70600 63.78000 39.86600
H  28.48200 55.50900 37.84200
H  31.09900 55.50500 36.59500
H  31.07300 53.46900 37.97300
H  29.81900 54.09900 38.99500
H  31.41500 54.63600 39.31800
H  29.58100 55.59800 35.17400
H  28.64900 57.12900 35.45500
H  27.00900 55.02100 36.32200
H  27.95500 54.42400 34.98800
H  36.48200 56.66400 39.34100
H  36.38500 57.23300 37.71400
H  35.28300 55.92400 38.25200
H  38.15200 61.50600 39.53400
H  36.61600 61.48600 40.51600
H  36.72200 61.89900 38.79200
H  33.30900 64.14400 39.26600
H  31.01300 64.34200 41.01500
H  33.81100 63.34700 42.07000
H  32.77000 64.78100 42.03200
H  34.27400 64.81800 41.19100
H  30.53400 64.54400 38.13500
H  31.91700 65.48200 38.57500
H  29.27100 66.21800 38.98500
H  30.70700 67.33200 39.07700
H  30.03600 66.33100 40.53200
H  26.54500 63.73200 39.67600
H  25.53600 62.46600 40.36500
H  25.26100 62.92800 38.75400
H  26.42300 57.76600 36.80600
H  23.88500 55.35000 39.28900
H  25.42000 54.40600 39.00000
H  24.24400 54.31900 37.84800

