158

Mg -0.21500 7.84700 25.77200
C  0.42400 9.36100 28.76500
C  -0.96300 4.89500 27.25200
C  -0.75000 6.45900 22.71400
C  0.81400 10.86100 24.28100
N  -0.14200 7.22500 27.71000
C  0.01900 8.01000 28.85200
C  -0.37500 7.21700 30.11500
C  -0.46100 5.73400 29.62000
C  -0.51100 5.92200 28.09800
C  0.69400 4.72400 30.02400
C  -1.64500 7.73100 30.92500
C  -1.51100 7.77500 32.48200
H  -0.63400 6.75000 33.17100
N  -0.72400 5.90100 25.10100
C  -1.02600 4.84000 25.87700
C  -1.47000 3.72300 25.04300
C  -1.37300 4.15900 23.69000
C  -0.90000 5.53900 23.79400
C  -1.97800 2.39500 25.58500
C  -1.51300 3.45700 22.36300
O  -1.20500 3.89100 21.24500
C  -2.14400 2.07800 22.40100
N  0.19300 8.54500 23.77800
C  -0.34900 7.81200 22.69200
C  0.07400 8.51000 21.37400
C  0.28300 9.97000 21.89100
C  0.54500 9.76600 23.38400
C  1.35400 7.85900 20.71500
C  -0.87100 11.00900 21.65100
C  -2.36000 10.59200 21.39700
N  0.53800 9.72800 26.32900
C  0.81300 10.88900 25.62900
C  1.00500 12.01400 26.49200
C  0.99900 11.45800 27.77300
C  0.63400 10.06300 27.61100
C  1.28800 13.40100 26.04100
C  1.15800 11.66700 29.19700
O  1.58700 12.69900 29.69600
C  0.55900 10.34200 29.92900
C  1.55800 9.92200 30.95500
O  2.55500 9.23300 30.74100
O  1.17200 10.42500 32.19000
C  2.13300 10.36400 33.32400
H  -1.29500 3.99200 27.76900
H  -1.04200 6.10100 21.72400
H  0.92700 11.78700 23.71300
H  0.50800 7.25300 30.75300
H  -1.36200 5.26700 30.01700
H  1.47300 5.30800 30.51300
H  1.09800 4.37000 29.07600
H  0.34100 3.83900 30.55300
H  -2.52500 7.16100 30.62800
H  -1.93900 8.73100 30.60400
H  -2.53400 7.60600 32.81900
H  -1.09600 8.77000 32.64400
H  -3.00200 2.29600 25.22500
H  -1.94000 2.43600 26.67300
H  -1.40100 1.50500 25.33500
H  -3.13200 2.16700 22.85300
H  -1.52900 1.46500 23.06100
H  -2.11700 1.50700 21.47400
H  -0.81300 8.39500 20.75100
H  1.23900 10.30100 21.48500
H  1.87100 7.29500 21.49100
H  2.00700 8.56300 20.19900
H  1.05900 7.18600 19.91000
H  -0.59300 11.70100 20.85700
H  -1.05100 11.53400 22.58900
H  -2.85100 10.73200 22.36000
H  -2.46300 9.54900 21.09700
H  -2.76100 11.24800 20.62400
H  1.72500 13.78100 26.96400
H  0.38500 13.92900 25.73300
H  2.03900 13.31200 25.25700
H  -0.30000 10.67800 30.51100
H  2.40500 11.38900 33.57400
H  3.05500 9.85600 33.04000
H  1.71600 9.87800 34.20600
Mg 36.28500 49.45800 26.11400
C  36.88200 47.33800 28.99300
C  34.80900 51.63600 28.27000
C  35.18900 51.10100 23.43700
C  37.33000 46.69900 24.23400
N  35.73300 49.40100 28.36400
C  36.23200 48.55700 29.38300
C  36.09700 49.18500 30.81300
C  35.09900 50.31700 30.43100
C  35.33500 50.53500 28.89600
C  33.62100 50.15000 30.76100
C  37.49100 49.62700 31.42900
C  37.62500 49.21200 32.84200
H  36.58300 49.81300 33.86900
N  35.07700 51.13300 25.80400
C  34.65000 51.95800 26.86600
C  34.05900 53.13800 26.28400
C  34.14000 52.95600 24.87800
C  34.78300 51.68200 24.66300
C  33.44300 54.20400 27.11200
C  33.81800 53.92200 23.82800
O  33.89500 53.70000 22.63200
C  33.46500 55.31700 24.18700
N  36.23900 48.97200 24.09600
C  35.82100 49.82900 23.10700
C  36.03300 49.19000 21.74000
C  36.67500 47.72500 22.03500
C  36.75900 47.81200 23.56100
C  34.66600 49.15800 20.92900
C  38.03700 47.46000 21.37000
C  39.18500 48.42400 21.74100
N  37.11600 47.53400 26.49700
C  37.53200 46.49300 25.60600
C  38.08100 45.39700 26.30400
C  37.83700 45.66600 27.64600
C  37.22800 46.96400 27.70900
C  38.81200 44.13700 25.75500
C  37.95100 45.15300 29.01400
O  38.45100 44.12400 29.42700
C  37.36400 46.28500 29.97000
C  36.29900 45.71200 30.76400
O  35.31900 45.12600 30.29600
O  36.50200 45.77100 32.13700
C  35.42400 45.24200 32.93400
H  34.54200 52.43100 28.97000
H  34.96100 51.74900 22.58900
H  37.69800 45.90100 23.58500
H  35.67300 48.35400 31.37600
H  35.42200 51.24800 30.89800
H  33.08700 51.07200 30.53400
H  33.37300 49.86600 31.78300
H  33.29500 49.35600 30.08900
H  37.70700 50.69200 31.34600
H  38.20500 49.20800 30.71900
H  38.65800 49.31900 33.17200
H  37.45500 48.13700 32.90500
H  34.00300 55.13600 27.03700
H  33.26200 53.92800 28.15000
H  32.42800 54.25200 26.71800
H  33.34900 55.89100 23.26800
H  34.26900 55.64700 24.84500
H  32.45400 55.31900 24.59500
H  36.78000 49.80800 21.24300
H  36.06400 46.86700 21.75400
H  34.47400 48.14200 20.58400
H  34.78200 49.94700 20.18600
H  33.79700 49.39200 21.54500
H  38.03100 47.65400 20.29700
H  38.39700 46.44500 21.53700
H  39.55800 48.85000 20.80900
H  40.08100 47.94900 22.13900
H  38.99800 49.09500 22.57900
H  38.94600 44.24100 24.67800
H  38.12300 43.32500 25.98800
H  39.76800 44.04600 26.27100
H  38.16800 46.68800 30.58700
H  35.31400 44.17300 32.75400
H  34.48200 45.67600 32.59800
H  35.58500 45.43400 33.99500

