158

Mg -2.21000 17.01200 26.14300
C  -2.65000 14.91200 28.88600
C  -2.60200 19.72400 28.24200
C  -1.90100 19.08000 23.55800
C  -2.03500 14.23400 24.01700
N  -2.59900 17.27400 28.35200
C  -2.69500 16.24300 29.27700
C  -2.87700 16.79700 30.69000
C  -3.02100 18.30000 30.41500
C  -2.70500 18.45900 28.90700
C  -4.43200 18.84600 30.74000
C  -1.68700 16.56800 31.69300
C  -1.63800 17.27900 33.00700
H  -1.06100 16.44200 34.12500
N  -2.41000 19.08900 25.91100
C  -2.38600 20.00500 26.90800
C  -2.35600 21.29900 26.27400
C  -2.25700 21.18400 24.90100
C  -2.14200 19.73100 24.75900
C  -2.44400 22.60800 27.03900
C  -2.15900 22.15300 23.76400
O  -2.08600 21.71500 22.65300
C  -2.12700 23.70900 23.96500
N  -2.06100 16.73800 24.02500
C  -1.84900 17.73900 23.21200
C  -1.48700 17.21600 21.74700
C  -1.30400 15.64600 22.01400
C  -1.83600 15.52000 23.46400
C  -2.57500 17.48200 20.65400
C  0.11900 15.18300 22.03900
C  0.74100 15.39500 20.63400
N  -2.26000 14.96100 26.34400
C  -2.29400 13.97700 25.39500
C  -2.48900 12.71700 26.05000
C  -2.59300 13.07200 27.41000
C  -2.48900 14.42700 27.53900
C  -2.56200 11.41000 25.40800
C  -2.68000 12.50600 28.68700
O  -2.72100 11.31600 29.08200
C  -2.82800 13.68000 29.70900
C  -1.79700 13.43300 30.73100
O  -0.57900 13.58500 30.60500
O  -2.39800 12.86300 31.82400
C  -1.45200 12.28900 32.85400
H  -2.68100 20.54800 28.95300
H  -1.83500 19.61300 22.60800
H  -2.00000 13.43400 23.27400
H  -3.79600 16.44000 31.15500
H  -2.29100 18.90500 30.95300
H  -4.34900 19.45500 31.64000
H  -5.20600 18.09400 30.89100
H  -4.86800 19.34200 29.87300
H  -0.80600 16.74400 31.07600
H  -1.77600 15.49300 31.84900
H  -2.66500 17.58300 33.21100
H  -0.94200 18.11600 32.95400
H  -3.06700 23.26600 26.43300
H  -1.45600 23.06700 27.07700
H  -2.76100 22.65300 28.08000
H  -1.43800 24.01200 24.75300
H  -3.08400 24.17700 24.19600
H  -1.74500 23.99900 22.98600
H  -0.54400 17.60700 21.36500
H  -1.86000 15.03400 21.30400
H  -2.31200 18.16200 19.84400
H  -3.41200 17.89100 21.22000
H  -2.84900 16.52000 20.22100
H  0.13100 14.12900 22.32000
H  0.70200 15.64200 22.83700
H  0.59600 16.35200 20.13200
H  0.29400 14.69400 19.92900
H  1.80700 15.17900 20.69800
H  -3.07100 11.52900 24.45200
H  -3.07900 10.67600 26.02600
H  -1.59100 10.95200 25.22300
H  -3.80100 13.59100 30.19100
H  -0.84600 11.42800 32.57000
H  -2.08100 12.09100 33.72200
H  -0.74600 13.06800 33.14100
Mg 9.03200 48.64100 26.16100
C  7.06300 48.72500 29.11200
C  11.58300 49.65500 28.15800
C  10.93900 48.74300 23.42600
C  6.17300 48.32200 24.27000
N  9.21500 49.24300 28.38200
C  8.35100 49.13800 29.45600
C  8.98900 49.39500 30.82100
C  10.41500 49.93300 30.34800
C  10.35500 49.66700 28.83200
C  10.76900 51.41000 30.74500
C  9.12700 48.15800 31.75800
C  8.40100 48.30300 33.07800
H  8.45100 47.02500 34.01600
N  11.07400 48.98500 25.90200
C  12.00400 49.38700 26.80000
C  13.33400 49.39100 26.18200
C  13.10800 49.02700 24.81800
C  11.64100 48.92100 24.66600
C  14.61200 49.63700 26.98100
C  14.13900 48.68700 23.67400
O  13.89100 48.19700 22.55800
C  15.58200 48.96500 23.92100
N  8.60100 48.76700 24.16900
C  9.57300 48.60600 23.17500
C  8.99800 48.22200 21.74200
C  7.46600 48.14300 22.07800
C  7.41500 48.37000 23.57700
C  9.39600 49.09300 20.52900
C  6.78800 46.78500 21.74600
C  7.01900 46.31600 20.37200
N  7.00500 48.61500 26.49000
C  5.96200 48.43100 25.64900
C  4.73900 48.49700 26.38000
C  5.10100 48.47300 27.73100
C  6.54000 48.55800 27.75800
C  3.41600 48.47900 25.79000
C  4.64100 48.43400 29.07000
O  3.45200 48.45900 29.46300
C  5.92100 48.37600 30.05100
C  5.93100 46.96500 30.58100
O  6.21500 45.95400 29.91500
O  5.39000 46.90000 31.80700
C  5.50100 45.62300 32.54100
H  12.45200 49.89600 28.77500
H  11.50900 48.55900 22.51300
H  5.28200 48.43300 23.64800
H  8.45900 50.20200 31.32600
H  11.24400 49.32600 30.71100
H  11.73200 51.42900 31.25400
H  9.95500 51.81200 31.34800
H  10.76100 51.98700 29.82000
H  10.18900 47.99300 31.94100
H  8.68600 47.31200 31.23100
H  7.32300 48.45600 33.01900
H  8.78100 49.10900 33.70500
H  14.35500 49.48500 28.03000
H  14.99700 50.60800 26.67100
H  15.34700 48.86200 26.76600
H  15.67500 49.84600 24.55600
H  16.12500 49.11300 22.98700
H  15.88800 48.02300 24.37400
H  9.45200 47.25300 21.53400
H  6.82700 48.86800 21.57500
H  9.53700 48.31900 19.77400
H  10.33400 49.61200 20.73000
H  8.57200 49.79000 20.37700
H  5.72100 46.86900 21.95200
H  7.22900 46.03100 22.39600
H  6.22800 45.78800 19.83900
H  7.82200 45.58000 20.32700
H  7.24400 47.20400 19.78200
H  3.00000 47.52200 25.47800
H  3.28900 49.24900 25.02900
H  2.79500 48.73500 26.64800
H  5.71300 48.94200 30.96000
H  5.56400 45.90900 33.59100
H  6.35200 45.00000 32.26800
H  4.55800 45.08700 32.43100

