158

Mg 41.09600 9.00900 29.35900
C  42.88500 10.09600 32.20600
C  38.78100 7.57900 31.36900
C  39.54800 7.94800 26.56000
C  43.72100 10.21100 27.39100
N  40.88400 8.84400 31.63100
C  41.68600 9.41400 32.59900
C  41.12600 9.19300 34.02200
C  39.91800 8.25700 33.69500
C  39.86700 8.15000 32.15800
C  40.15000 6.88200 34.34600
C  40.70600 10.54400 34.73700
C  40.33700 10.37700 36.19500
H  41.02700 11.26300 37.25100
N  39.38300 7.89500 28.99200
C  38.52000 7.46200 29.98400
C  37.41600 6.82100 29.31900
C  37.58300 6.90400 27.85200
C  38.88300 7.65400 27.72200
C  36.32400 6.15100 30.09300
C  36.72700 6.44900 26.69600
O  36.93800 6.59000 25.52600
C  35.49300 5.84000 27.01800
N  41.67200 8.96100 27.35300
C  40.82400 8.53000 26.36800
C  41.38400 8.70700 24.90000
C  42.62800 9.64700 25.19600
C  42.70000 9.55200 26.76200
C  41.58100 7.44400 24.04900
C  42.55600 11.06100 24.60000
C  41.61400 11.98400 25.40400
N  42.96600 9.85400 29.74200
C  43.89300 10.41200 28.79200
C  44.85600 11.14000 29.45200
C  44.54900 11.00100 30.83700
C  43.38900 10.23700 30.88900
C  46.10900 11.83000 28.90200
C  45.05700 11.32100 32.12700
O  46.07400 11.91300 32.48900
C  43.89000 10.86400 33.12700
C  44.45300 9.94900 34.18100
O  45.33100 9.17700 34.04500
O  43.76700 10.16300 35.39200
C  44.03200 9.10800 36.42300
H  38.07600 7.19200 32.10800
H  39.05200 7.73500 25.61100
H  44.42300 10.75900 26.75900
H  41.77100 8.54600 34.61700
H  38.96400 8.63400 34.06300
H  40.33100 6.19200 33.52200
H  39.29600 6.55300 34.93800
H  40.95000 6.76700 35.07900
H  39.78000 10.81800 34.23100
H  41.43800 11.34000 34.60500
H  40.56600 9.33500 36.41700
H  39.27500 10.61900 36.23800
H  36.47000 5.09300 29.87700
H  35.32100 6.44800 29.78700
H  36.37100 6.38300 31.15700
H  34.87100 6.59600 27.49800
H  35.70600 4.99100 27.66600
H  35.01200 5.52800 26.09100
H  40.53400 9.22400 24.45400
H  43.59000 9.17800 24.98900
H  42.60500 7.46000 23.67600
H  40.93400 7.46900 23.17200
H  41.27500 6.54600 24.58600
H  42.10200 10.85900 23.63000
H  43.55500 11.44600 24.39500
H  41.63200 11.81600 26.48100
H  40.58100 11.85300 25.08200
H  41.78200 13.01600 25.09300
H  45.87400 12.22900 27.91500
H  46.96800 11.17400 29.04200
H  46.25900 12.66500 29.58500
H  43.28700 11.70800 33.46000
H  45.09800 9.20200 36.62800
H  43.88500 8.06700 36.13700
H  43.54800 9.40800 37.35300
Mg -2.18700 35.03200 27.48600
C  -3.71500 33.17300 29.98600
C  -1.21100 37.33000 29.78600
C  -0.81500 36.80900 25.03800
C  -3.43600 32.75300 25.18200
N  -2.48000 35.27200 29.70500
C  -3.06800 34.33300 30.49200
C  -2.92500 34.75400 31.97300
C  -2.16400 36.08500 31.84100
C  -1.90500 36.26300 30.38300
C  -2.88100 37.32100 32.54200
C  -2.21200 33.64500 32.86500
C  -2.97200 33.23100 34.11400
H  -2.05700 33.07400 35.28700
N  -1.12200 36.77000 27.45200
C  -0.82000 37.60000 28.47200
C  -0.22600 38.82900 27.98300
C  0.12100 38.61800 26.64700
C  -0.61100 37.38200 26.31200
C  0.22700 39.99000 28.90100
C  0.89000 39.55900 25.65600
O  1.00200 39.32700 24.46400
C  1.51300 40.93700 26.13200
N  -2.29600 34.91900 25.36200
C  -1.42700 35.60000 24.67900
C  -1.17300 34.89200 23.25000
C  -1.78200 33.43400 23.48300
C  -2.63300 33.72000 24.70800
C  -1.99600 35.62300 22.07200
C  -0.66700 32.38100 23.63700
C  -0.26500 31.60900 22.30000
N  -3.33400 33.38600 27.47400
C  -3.74500 32.56600 26.52400
C  -4.49500 31.44500 27.06400
C  -4.65100 31.70900 28.41200
C  -3.84700 32.83800 28.63600
C  -5.10000 30.36300 26.27700
C  -5.24900 31.20700 29.68700
O  -6.08200 30.36500 29.87000
C  -4.59000 32.22600 30.74700
C  -5.74600 32.71200 31.58000
O  -6.48100 33.59000 31.18500
O  -5.82500 32.01100 32.82900
C  -6.75500 32.55800 33.82200
H  -0.80700 38.00800 30.54000
H  -0.28400 37.23500 24.18400
H  -3.60800 31.87700 24.55300
H  -3.94300 34.80800 32.35800
H  -1.19200 35.93600 32.31100
H  -2.91700 38.24000 31.95700
H  -2.42100 37.57800 33.49600
H  -3.92200 37.05400 32.72400
H  -1.20400 33.99700 33.08200
H  -2.20500 32.71900 32.29000
H  -3.28200 32.19000 34.02700
H  -3.77100 33.90800 34.41600
H  1.27100 40.26800 28.75700
H  -0.06300 39.76800 29.92800
H  -0.30800 40.89000 28.59800
H  2.14600 40.73000 26.99500
H  0.69600 41.61900 26.36800
H  2.16200 41.45400 25.42600
H  -0.10100 34.94700 23.05800
H  -2.46500 33.12500 22.69100
H  -1.58900 35.42200 21.08100
H  -2.14000 36.69600 22.19800
H  -3.01800 35.24500 22.08400
H  -1.12200 31.62600 24.27800
H  0.22600 32.73600 24.15100
H  -0.59900 31.98100 21.33200
H  -0.76900 30.64300 22.30300
H  0.82200 31.58900 22.22400
H  -6.08100 30.73700 25.98300
H  -5.35500 29.44900 26.81400
H  -4.55600 30.05700 25.38400
H  -4.01800 31.67100 31.49100
H  -7.42600 31.82900 34.27500
H  -7.48600 33.22800 33.37000
H  -6.32100 33.08800 34.67000

