158

Mg 48.52700 34.39000 27.12800
C  46.67700 33.23400 29.95700
C  48.98500 37.30000 29.06200
C  49.96400 35.81700 24.46300
C  47.53600 31.71300 25.38700
N  47.92000 35.13000 29.34800
C  47.35900 34.43000 30.33000
C  47.56500 35.10400 31.73100
C  47.70900 36.58800 31.30300
C  48.24000 36.36700 29.82800
C  46.34600 37.36000 31.43400
C  48.77600 34.47000 32.44300
C  48.65700 34.16900 33.96000
H  47.69500 35.06900 34.75700
N  49.33000 36.29700 26.79900
C  49.45700 37.35000 27.73400
C  50.24500 38.44800 27.18400
C  50.54100 38.00800 25.76800
C  49.96000 36.65600 25.60400
C  50.78900 39.56900 27.92900
C  51.35100 38.75800 24.72200
O  51.50600 38.27100 23.62900
C  52.03000 40.02300 25.00000
N  48.63100 33.88300 25.13400
C  49.40800 34.51800 24.28900
C  49.50500 33.73000 22.98000
C  48.73100 32.41200 23.29700
C  48.27100 32.68700 24.73300
C  48.92900 34.39100 21.76900
C  49.63500 31.15200 23.22100
C  50.72500 31.06200 24.38300
N  47.25600 32.88900 27.49900
C  47.06300 31.79300 26.72100
C  46.29600 30.79300 27.49500
C  46.07500 31.38300 28.71700
C  46.69200 32.65300 28.70400
C  45.88600 29.45300 26.99000
C  45.47600 31.16100 30.01200
O  44.87700 30.22400 30.44600
C  45.65400 32.43600 30.79400
C  46.01500 32.02500 32.19000
O  47.12200 31.59300 32.50500
O  44.98900 32.28500 33.08100
C  45.06400 32.00900 34.49000
H  49.29200 38.21600 29.57100
H  50.36000 36.25900 23.54700
H  47.44400 30.82700 24.75600
H  46.60100 34.88100 32.18800
H  48.56600 37.02400 31.81600
H  45.64400 36.89000 32.12300
H  45.94400 37.55800 30.44100
H  46.51300 38.35400 31.84900
H  49.65800 35.07400 32.23100
H  48.96800 33.52900 31.92800
H  49.69700 34.18800 34.28800
H  48.29200 33.17000 34.19900
H  50.47900 39.74300 28.96000
H  50.68800 40.45900 27.30800
H  51.86700 39.41000 27.95800
H  52.56000 40.34600 24.10400
H  52.74600 39.95500 25.81900
H  51.19200 40.66900 25.26500
H  50.48700 33.28300 22.82400
H  47.78200 32.28200 22.77600
H  48.91100 35.46400 21.96400
H  48.01300 33.97700 21.34600
H  49.66700 34.16100 21.00100
H  50.11800 31.23700 22.24800
H  48.98800 30.27800 23.29700
H  50.38400 30.29400 25.07800
H  50.90700 31.91700 25.03500
H  51.62500 30.70800 23.88100
H  46.32200 29.22600 26.01700
H  44.82000 29.56000 26.79400
H  46.19300 28.67900 27.69300
H  44.62600 32.79300 30.85400
H  44.16500 31.53300 34.88300
H  45.27200 32.95600 34.99000
H  45.91200 31.35500 34.69400
Mg 6.87000 53.01100 41.37700
C  6.22200 49.58500 41.35300
C  10.13500 52.49200 40.60600
C  7.28100 56.45300 40.88500
C  3.41600 53.66300 41.67900
N  8.00000 51.26100 41.04000
C  7.57600 49.93700 41.00300
C  8.81300 49.06400 40.63100
C  10.06600 49.90100 40.73900
C  9.36900 51.31600 40.82100
C  11.03500 49.81200 41.98400
C  8.73500 48.25100 39.34500
C  8.73800 48.99000 38.05100
H  7.64900 48.73400 37.00100
N  8.48500 54.33200 40.92500
C  9.78200 53.89800 40.68100
C  10.68700 55.01400 40.39700
C  9.86800 56.17600 40.36700
C  8.46400 55.71400 40.72400
C  12.16800 54.90100 40.18000
C  10.35900 57.59900 40.09100
O  11.54600 57.78100 39.93200
C  9.38800 58.82400 39.89300
N  5.57600 54.81900 41.43800
C  6.01500 56.11800 41.16200
C  4.84100 57.09400 41.49500
C  3.67400 56.20600 41.38000
C  4.24400 54.75800 41.56200
C  4.90900 57.95200 42.78400
C  2.86500 56.31300 40.09300
C  1.45100 55.79900 40.28700
N  5.13800 51.89300 41.71700
C  3.82300 52.28700 41.83500
C  3.06100 51.08400 42.07000
C  3.96500 50.01500 41.84600
C  5.25900 50.54900 41.63500
C  1.54500 51.01300 42.19600
C  3.99700 48.54600 41.73600
O  3.09600 47.69200 41.80400
C  5.49900 48.24500 41.48000
C  5.63200 47.44700 40.22200
O  5.45800 47.93200 39.16200
O  5.88700 46.10000 40.45700
C  5.61700 45.29600 39.30700
H  11.18100 52.34700 40.32800
H  7.35900 57.53600 40.76400
H  2.34600 53.81200 41.83600
H  8.97500 48.37700 41.46200
H  10.78900 49.80900 39.92800
H  11.13700 50.67600 42.64200
H  11.96100 49.45700 41.53400
H  10.70700 48.99300 42.62400
H  7.92000 47.52900 39.31500
H  9.64300 47.65100 39.41000
H  9.59300 48.57000 37.52000
H  8.92000 50.06100 38.14700
H  12.72000 55.70500 40.66500
H  12.35700 54.80100 39.11100
H  12.43600 53.96800 40.67600
H  8.65900 58.51100 39.14500
H  9.93000 59.71900 39.58800
H  8.91300 58.96800 40.86400
H  4.80000 57.72700 40.60900
H  3.07600 56.40600 42.27000
H  5.55900 58.80700 42.59800
H  5.39900 57.23000 43.43700
H  3.88600 58.20100 43.06600
H  3.35700 55.67300 39.36000
H  2.79800 57.33000 39.70600
H  1.35600 54.99400 39.55800
H  0.72000 56.53400 39.95000
H  1.26300 55.49700 41.31800
H  1.23200 51.02900 43.24000
H  1.16200 50.25700 41.51000
H  1.13100 51.94600 41.81500
H  5.87700 47.70500 42.34800
H  5.70300 44.25900 39.63300
H  6.30600 45.38400 38.46700
H  4.58200 45.57700 39.11200

