158

Mg 36.17600 49.33200 24.95000
C  36.29300 47.62200 27.96400
C  34.70900 52.04300 26.55900
C  35.87100 50.78600 21.94200
C  37.27400 46.34500 23.34900
N  35.60800 49.76400 27.04900
C  35.80600 48.92200 28.18200
C  35.47300 49.67300 29.48000
C  34.84100 51.02600 28.96100
C  35.05400 50.90600 27.39900
C  33.37800 51.33800 29.41300
C  36.84600 49.85600 30.29500
C  36.77800 49.30300 31.69600
H  36.30700 50.31400 32.71700
N  35.45900 51.15100 24.32300
C  34.97400 52.15000 25.12300
C  34.54200 53.29200 24.32400
C  34.95000 52.97400 22.98100
C  35.43400 51.59700 23.03000
C  34.09500 54.64500 24.92600
C  34.98300 53.80700 21.73000
O  35.42300 53.44500 20.62900
C  34.63100 55.27000 21.90100
N  36.48300 48.63800 22.95800
C  36.26300 49.44600 21.86400
C  36.76600 48.72600 20.51400
C  37.61000 47.58200 21.16100
C  37.04700 47.45600 22.60300
C  35.45700 48.24800 19.72400
C  39.17000 47.83600 21.16000
C  39.92500 47.25300 20.00700
N  36.75600 47.37800 25.49700
C  37.16400 46.26200 24.77500
C  37.44000 45.11600 25.65200
C  37.16800 45.62700 26.87500
C  36.73100 46.97900 26.75400
C  37.79200 43.68800 25.30400
C  37.26700 45.24000 28.29500
O  37.64700 44.20500 28.79300
C  36.68600 46.52500 29.05700
C  35.65200 46.12900 30.02900
O  34.41600 46.33200 29.97500
O  36.30400 45.52600 31.10900
C  35.34900 45.16700 32.20200
H  34.14700 52.77800 27.13900
H  35.56100 51.13700 20.95500
H  37.78600 45.60100 22.73600
H  34.77800 49.02200 30.01000
H  35.48800 51.84000 29.28700
H  32.65800 51.25800 28.59900
H  33.35700 52.33400 29.85600
H  32.96700 50.66500 30.16600
H  37.11800 50.90500 30.41100
H  37.61800 49.37100 29.69800
H  37.69600 48.74800 31.89100
H  36.05200 48.49000 31.67300
H  34.80500 55.39800 24.58500
H  34.01200 54.59700 26.01200
H  33.09200 54.87300 24.56300
H  33.64700 55.45000 22.33300
H  34.77000 55.67900 20.90000
H  35.37000 55.77000 22.52600
H  37.33200 49.41400 19.88700
H  37.44100 46.66900 20.58900
H  35.58300 47.19200 19.48200
H  35.15800 48.78000 18.82100
H  34.59400 48.23300 20.39000
H  39.68400 47.61200 22.09500
H  39.29700 48.90500 20.98900
H  39.36800 46.91700 19.13300
H  40.35900 46.32100 20.37000
H  40.64600 48.03300 19.76200
H  37.77200 43.60500 24.21700
H  37.14800 43.05100 25.90900
H  38.81400 43.51300 25.64100
H  37.50400 46.92300 29.65700
H  35.93900 45.18100 33.11900
H  34.80600 44.22200 32.20700
H  34.67800 45.99900 32.41600
Mg 27.15400 50.41100 26.40600
C  25.33000 51.66400 29.29300
C  29.60500 49.29900 28.53700
C  29.04300 49.80700 23.62400
C  24.83100 52.12300 24.42800
N  27.42500 50.53800 28.67800
C  26.51700 51.01900 29.66900
C  27.04800 50.72300 31.03100
C  28.50100 50.05400 30.74400
C  28.57400 49.99400 29.19700
C  29.76500 50.74900 31.32200
C  26.04400 49.84500 31.82600
C  25.63600 50.26700 33.22200
H  26.70300 50.62000 34.31700
N  28.99900 49.50800 26.07900
C  29.83500 49.12400 27.09600
C  31.02500 48.56600 26.55800
C  30.98100 48.75500 25.10900
C  29.67900 49.38300 24.86200
C  32.16800 48.06900 27.38000
C  31.97400 48.44500 24.02900
O  31.79200 48.55800 22.79300
C  33.33100 47.74200 24.47300
N  27.05600 51.04300 24.35700
C  27.83300 50.48400 23.36100
C  27.44600 51.02100 22.00800
C  26.10000 51.67300 22.29200
C  25.97700 51.57700 23.79700
C  28.44400 51.96800 21.28400
C  24.89100 51.02700 21.50400
C  24.16400 49.90500 22.13800
N  25.47900 51.68900 26.70300
C  24.66700 52.29300 25.79500
C  23.60600 53.05800 26.46200
C  23.80300 52.78200 27.84000
C  24.96400 51.98200 27.94300
C  22.55600 53.94100 25.82100
C  23.31100 53.02900 29.19100
O  22.27100 53.62900 29.52600
C  24.30300 52.34200 30.23000
C  24.92600 53.37500 31.17300
O  25.94100 54.06100 30.95200
O  24.21200 53.41900 32.27700
C  24.74700 54.19900 33.40600
H  30.41300 48.83200 29.10500
H  29.52500 49.66200 22.65500
H  24.12700 52.69600 23.82100
H  27.09600 51.68600 31.54000
H  28.53300 49.02300 31.09700
H  30.38000 51.02300 30.46400
H  30.33900 50.13500 32.01700
H  29.44400 51.63300 31.87200
H  26.46800 48.85200 31.97500
H  25.11600 49.75800 31.26100
H  25.01400 49.46300 33.61500
H  25.15200 51.24100 33.16300
H  31.76600 47.69300 28.32100
H  32.80600 48.88600 27.71600
H  32.75400 47.22900 27.00800
H  33.75800 47.94000 25.45700
H  33.96800 47.78100 23.58900
H  33.23200 46.66000 24.56200
H  27.31600 50.19100 21.31400
H  26.10200 52.75500 22.15400
H  29.48900 51.98800 21.59500
H  28.06100 52.98900 21.30700
H  28.35200 51.69600 20.23300
H  25.27000 50.68500 20.54100
H  24.25000 51.87700 21.27000
H  23.14300 50.14100 22.43900
H  24.63000 49.48800 23.03000
H  24.25800 49.10200 21.40700
H  21.68900 53.84600 26.47600
H  22.30600 53.63200 24.80600
H  23.01000 54.93200 25.81800
H  23.70800 51.56100 30.70300
H  24.63600 55.20500 33.00100
H  25.73600 53.81800 33.65800
H  24.13300 54.16000 34.30600

