158

Mg 0.26700 7.93200 26.81100
C  1.20800 9.92900 29.56600
C  -0.26600 5.44100 29.06300
C  -0.46300 6.00600 24.15700
C  0.77900 10.60800 24.67200
N  0.44900 7.74500 29.06700
C  0.75000 8.70100 29.98900
C  0.71500 8.08700 31.42600
C  0.57100 6.52400 31.15900
C  0.12600 6.57500 29.67500
C  1.83500 5.68900 31.40200
C  -0.39600 8.70100 32.40800
C  0.08500 8.59400 33.88200
H  -0.59000 7.46100 34.76800
N  -0.26800 6.02100 26.66300
C  -0.38000 5.11700 27.66900
C  -0.75100 3.84000 27.09800
C  -0.73400 3.94300 25.66500
C  -0.41700 5.38300 25.42300
C  -1.15300 2.74200 27.99200
C  -1.05200 2.93400 24.61700
O  -0.97400 3.21400 23.41900
C  -1.49000 1.53200 24.92800
N  0.33600 8.28300 24.69000
C  -0.17100 7.30700 23.82800
C  -0.34100 7.85600 22.36500
C  -0.13000 9.37000 22.65100
C  0.43900 9.43300 24.09300
C  0.68900 7.30400 21.43600
C  -1.40400 10.18500 22.37600
C  -1.52500 10.66100 20.90100
N  1.03800 9.82000 27.00700
C  1.19600 10.83400 26.03100
C  1.68800 12.02200 26.68700
C  1.84800 11.72600 28.08800
C  1.31300 10.41700 28.21200
C  1.90700 13.46300 26.02800
C  2.12600 12.23200 29.38800
O  2.56500 13.34900 29.70600
C  1.67100 11.17600 30.41700
C  2.75900 10.89400 31.37900
O  3.75200 10.27800 31.15500
O  2.43700 11.40700 32.57900
C  3.25100 11.13700 33.70800
H  -0.49200 4.54800 29.65000
H  -0.72500 5.51000 23.22000
H  0.77500 11.46300 23.99200
H  1.68900 8.34100 31.84500
H  -0.24500 6.11000 31.75100
H  1.51400 4.84200 32.00900
H  2.63100 6.17900 31.96400
H  2.24500 5.31800 30.46300
H  -1.30100 8.10800 32.27500
H  -0.66200 9.72600 32.15100
H  0.01600 9.61600 34.25600
H  1.15600 8.45800 34.03000
H  -2.19500 2.93300 28.25200
H  -0.52900 2.71500 28.88600
H  -1.24700 1.72000 27.62700
H  -1.70600 1.03100 23.98400
H  -2.41800 1.65100 25.48700
H  -0.69100 1.11100 25.53900
H  -1.31300 7.72600 21.88900
H  0.71600 9.65700 22.02600
H  0.94700 8.09700 20.73400
H  0.31000 6.51000 20.79200
H  1.56300 7.04800 22.03500
H  -1.43400 10.98900 23.11200
H  -2.27100 9.53300 22.48800
H  -2.37800 10.12500 20.48400
H  -0.59200 10.52200 20.35500
H  -1.81900 11.70700 20.81900
H  1.01100 14.06700 25.88500
H  2.33100 13.34400 25.03000
H  2.59300 14.06200 26.62600
H  0.82400 11.46700 31.03700
H  3.93400 10.29700 33.57700
H  2.54600 10.80000 34.46800
H  3.79000 12.05200 33.95600
Mg 6.00400 54.09200 40.75400
C  5.40500 50.77700 40.19200
C  9.25800 53.70400 39.69500
C  6.33800 57.43600 40.77300
C  2.62900 54.45100 41.79800
N  7.12300 52.44900 39.80900
C  6.72600 51.17700 39.81500
C  7.86900 50.28500 39.19400
C  9.12600 51.15000 39.58500
C  8.46300 52.52600 39.68700
C  9.85300 50.78600 40.91300
C  7.65500 50.16100 37.65400
C  7.75500 48.85600 36.94000
H  6.75000 48.62200 35.79300
N  7.55300 55.38200 40.21400
C  8.78100 55.02200 39.81700
C  9.59800 56.21600 39.55700
C  8.77600 57.33700 39.86200
C  7.49400 56.76900 40.26200
C  11.06800 56.13300 39.17200
C  9.20000 58.81600 39.87600
O  10.30000 59.13300 39.42700
C  8.36700 59.96500 40.24000
N  4.63500 55.66400 41.09300
C  5.02800 56.97800 41.07800
C  3.91100 57.93100 41.57800
C  2.75100 56.97700 41.86600
C  3.33000 55.63800 41.52500
C  4.43400 58.91700 42.73900
C  1.29500 57.29200 41.14600
C  0.20200 58.03700 41.98600
N  4.20700 52.91300 40.97500
C  3.02100 53.12900 41.56500
C  2.32000 51.87700 41.62900
C  3.18100 50.98900 41.10000
C  4.36000 51.61300 40.76200
C  0.97800 51.57800 42.36600
C  3.32900 49.55700 40.83200
O  2.53200 48.66600 41.06800
C  4.85700 49.37000 40.35900
C  4.93800 48.50500 39.10900
O  4.11300 48.31400 38.17400
O  5.87700 47.49000 39.46000
C  5.64600 46.14600 39.00800
H  10.31200 53.43300 39.61200
H  6.46500 58.51900 40.82600
H  1.59600 54.55700 42.13600
H  7.73800 49.32100 39.68600
H  9.79500 51.20100 38.72600
H  9.33400 50.00100 41.46300
H  10.05500 51.56600 41.64700
H  10.82400 50.40100 40.60100
H  8.51600 50.63200 37.18100
H  6.74500 50.63700 37.28900
H  7.65300 48.07300 37.69200
H  8.73600 48.73400 36.48100
H  11.69200 55.30700 39.51400
H  11.67900 57.01400 39.36700
H  10.97900 56.15700 38.08600
H  8.95700 60.87700 40.32800
H  8.18400 59.81900 41.30500
H  7.57200 60.00100 39.49600
H  3.67900 58.64900 40.79200
H  2.56900 57.00000 42.94000
H  3.76100 58.75700 43.58200
H  4.28000 59.97700 42.53600
H  5.48200 58.72700 42.96700
H  0.98700 56.27000 40.92200
H  1.52000 57.73600 40.17700
H  0.26100 57.88100 43.06400
H  -0.78900 57.70100 41.68000
H  0.28000 59.12200 41.90800
H  0.90700 50.61000 42.86200
H  0.11400 51.82500 41.75000
H  0.84200 52.17100 43.27100
H  5.25300 48.83900 41.22500
H  4.71200 45.82200 39.46700
H  6.45500 45.53600 39.40900
H  5.48100 46.10000 37.93100

