158

Mg 6.58800 54.32700 41.41200
C  6.23200 50.81700 41.14600
C  9.72100 53.84900 39.84400
C  6.66600 57.50100 40.89800
C  3.19200 54.51200 42.15800
N  7.72500 52.50000 40.39300
C  7.40200 51.19800 40.48200
C  8.62100 50.37100 40.01800
C  9.81300 51.38500 39.97300
C  9.04800 52.64600 40.07200
C  10.95900 51.13400 40.96300
C  8.34200 49.49300 38.74900
C  7.15700 49.85700 37.80000
H  6.40700 48.79600 37.05900
N  7.98700 55.51900 40.51200
C  9.15500 55.17300 39.99900
C  9.98800 56.37800 39.87900
C  9.15700 57.50000 40.12000
C  7.88400 56.86000 40.55500
C  11.44200 56.42800 39.49100
C  9.57700 58.95900 40.05500
O  10.71700 59.31800 39.77100
C  8.60100 60.11400 40.30900
N  5.09500 55.73000 41.27400
C  5.41800 56.97900 41.26000
C  4.28100 57.92600 41.63600
C  3.09200 56.97300 41.63800
C  3.84800 55.63100 41.72000
C  4.54700 58.66200 42.99900
C  2.37000 57.02800 40.24700
C  0.80200 57.15300 40.36700
N  5.08600 53.00900 41.89500
C  3.84000 53.24100 42.34400
C  3.29300 52.01200 42.82200
C  4.21200 51.01100 42.43100
C  5.30000 51.70100 41.80700
C  2.01500 51.79300 43.54500
C  4.53600 49.61700 42.45100
O  3.88900 48.70900 42.97700
C  5.72500 49.40500 41.58700
C  5.29200 48.50800 40.45500
O  4.50200 48.79500 39.54600
O  5.92000 47.27900 40.61200
C  5.44100 46.12800 39.84000
H  10.69400 53.74100 39.36000
H  6.58700 58.57400 41.08200
H  2.16200 54.58700 42.51200
H  8.81800 49.72500 40.87300
H  10.28300 51.42700 38.99000
H  10.67600 50.32100 41.63100
H  11.12600 52.01000 41.59000
H  11.90200 50.88200 40.47900
H  8.20600 48.44000 38.99500
H  9.23600 49.66200 38.14800
H  7.65800 50.52200 37.09700
H  6.52800 50.57200 38.33000
H  11.90100 57.21400 38.89300
H  11.72100 55.45300 39.09000
H  12.06000 56.36800 40.38700
H  8.44000 60.12300 41.38700
H  7.70900 60.00400 39.69200
H  9.11400 61.01000 39.95800
H  4.12400 58.75900 40.95000
H  2.42500 56.99800 42.49900
H  5.62200 58.76900 43.14400
H  3.92500 58.32300 43.82800
H  4.23100 59.67200 42.73900
H  2.41100 55.99800 39.89300
H  2.75500 57.75200 39.52800
H  0.57700 58.21900 40.34300
H  0.48700 56.75500 41.33100
H  0.33500 56.71300 39.48600
H  1.43000 51.02300 43.04100
H  1.37600 52.67400 43.48800
H  2.37400 51.42200 44.50500
H  6.48300 48.97000 42.23800
H  6.07200 45.26800 40.06400
H  5.39100 46.21800 38.75500
H  4.48900 45.85700 40.29500
Mg 0.08100 43.58900 26.16400
C  2.34700 42.88700 28.81300
C  -2.31100 42.17400 28.24800
C  -2.11500 43.54400 23.72100
C  2.70700 44.19600 23.99600
N  0.09100 42.76300 28.30100
C  1.07000 42.79600 29.27700
C  0.50700 42.31600 30.58600
C  -0.95300 41.94200 30.29100
C  -1.09100 42.32600 28.85600
C  -1.46000 40.48100 30.65300
C  0.47400 43.57500 31.57500
C  -0.19600 43.45000 32.97300
H  -0.55100 42.07100 33.54400
N  -2.05800 43.08600 26.01600
C  -2.79100 42.49000 26.95500
C  -4.18100 42.25500 26.49200
C  -4.14900 42.61500 25.14000
C  -2.76900 43.11900 24.90400
C  -5.24800 41.79900 27.41300
C  -5.32300 42.66400 24.11200
O  -5.22100 42.94000 22.93700
C  -6.70300 42.36400 24.56500
N  0.27400 43.91700 24.19100
C  -0.80200 43.95400 23.38700
C  -0.42900 44.21500 21.85000
C  1.05800 44.53400 22.02100
C  1.39600 44.21100 23.49800
C  -0.68700 42.97100 20.91600
C  1.53200 45.92800 21.69500
C  1.26100 47.14000 22.57900
N  2.16000 43.67800 26.34600
C  3.08900 43.92500 25.31900
C  4.43800 43.72400 25.95500
C  4.13500 43.42900 27.30300
C  2.77900 43.28900 27.47600
C  5.74300 43.93400 25.21400
C  4.86400 43.06200 28.49700
O  6.02200 42.94600 28.75200
C  3.63200 42.89500 29.62000
C  3.85600 41.74600 30.56500
O  3.68400 40.64700 30.20100
O  4.10200 42.16200 31.91800
C  4.29600 40.95800 32.83400
H  -3.06500 41.81100 28.95000
H  -2.75200 43.43800 22.84100
H  3.42800 44.58500 23.27500
H  1.11900 41.47900 30.92200
H  -1.55400 42.60100 30.91900
H  -0.71900 39.94600 31.24600
H  -1.77000 39.80100 29.85900
H  -2.32500 40.49900 31.31700
H  -0.05900 44.32500 30.99100
H  1.47800 43.96300 31.74800
H  -1.10600 44.03300 33.11200
H  0.54900 43.92900 33.60800
H  -5.64000 42.74000 27.79900
H  -4.95900 41.08100 28.18000
H  -6.11300 41.40000 26.88300
H  -6.95600 42.82400 25.52000
H  -6.71200 41.27800 24.66100
H  -7.48400 42.67600 23.87200
H  -1.02400 45.03500 21.44800
H  1.60800 43.84700 21.37800
H  0.23500 42.70600 20.39700
H  -1.55400 43.16700 20.28500
H  -0.95200 42.11100 21.53200
H  1.11600 46.24400 20.73800
H  2.60000 45.86500 21.48800
H  0.95500 47.95900 21.92900
H  2.23800 47.40200 22.98700
H  0.63100 46.95900 23.45100
H  5.50000 44.78600 24.57900
H  6.17800 43.16700 24.57300
H  6.50400 44.16700 25.95900
H  3.66300 43.79100 30.24000
H  3.68900 40.07100 32.65600
H  4.24300 41.24300 33.88500
H  5.32300 40.60700 32.73800

