158

Mg 24.65000 -4.43400 46.21700
C  26.94000 -2.23300 44.78100
C  22.28900 -3.40700 43.97200
C  22.84900 -7.21300 46.91500
C  27.36400 -5.83800 48.19400
N  24.72800 -3.05200 44.48100
C  25.68800 -2.18400 44.08700
C  25.22600 -1.19700 42.98300
C  23.66700 -1.42200 43.09600
C  23.55400 -2.71700 43.90600
C  22.83600 -0.27800 43.73700
C  25.76300 -1.59600 41.59300
C  26.05000 -0.41600 40.64600
H  25.58800 -0.54400 39.16900
N  22.74500 -5.18500 45.63400
C  21.98000 -4.67200 44.61100
C  20.77600 -5.51600 44.47300
C  20.85900 -6.65200 45.34100
C  22.19500 -6.33300 46.03100
C  19.67800 -5.14600 43.57200
C  19.87600 -7.80400 45.44400
O  18.91500 -7.97300 44.68800
C  20.07600 -8.88700 46.50300
N  25.01900 -6.16600 47.53600
C  24.09300 -7.08500 47.61700
C  24.54200 -8.28900 48.48400
C  25.96700 -7.76700 49.01200
C  26.13200 -6.50000 48.17500
C  23.54100 -8.95000 49.47600
C  27.10500 -8.74100 48.96500
C  28.26800 -8.55900 49.92200
N  26.69000 -4.08700 46.58400
C  27.62400 -4.69300 47.46200
C  28.88600 -3.96300 47.25600
C  28.63200 -2.91100 46.33600
C  27.29400 -3.07700 45.85400
C  30.15300 -4.27400 48.00900
C  29.29600 -1.78100 45.62000
O  30.45000 -1.43000 45.71000
C  28.26000 -1.33500 44.61700
C  28.02100 0.11400 44.89400
O  27.41200 0.60800 45.85400
O  28.51100 0.76400 43.81300
C  28.29000 2.22700 43.62000
H  21.55700 -2.99000 43.27700
H  22.42700 -8.20100 47.11300
H  28.22500 -6.12400 48.80300
H  25.43200 -0.19300 43.35400
H  23.30300 -1.73000 42.11600
H  21.82600 -0.27100 43.32500
H  23.14000 0.74800 43.53200
H  22.79100 -0.52200 44.79800
H  25.05700 -2.06600 40.90800
H  26.67600 -2.16900 41.75400
H  27.12600 -0.26300 40.73000
H  25.49600 0.43700 41.03800
H  19.74100 -4.05900 43.59900
H  18.70300 -5.40000 43.98900
H  19.78900 -5.61800 42.59500
H  20.18600 -8.45000 47.49500
H  20.96300 -9.43400 46.18200
H  19.18600 -9.51600 46.52600
H  24.72500 -9.15500 47.84800
H  26.03200 -7.43400 50.04800
H  22.59800 -8.40500 49.43500
H  23.94400 -8.88300 50.48700
H  23.29000 -10.00200 49.34300
H  27.51000 -8.74100 47.95300
H  26.78700 -9.77900 49.06500
H  28.49700 -9.52700 50.36700
H  28.26300 -7.80900 50.71300
H  29.08500 -8.31200 49.24400
H  30.63500 -5.17800 47.63600
H  29.95300 -4.33100 49.07900
H  30.88600 -3.47000 47.95300
H  28.73700 -1.40400 43.64000
H  29.17700 2.78400 43.32000
H  27.82000 2.70000 44.48200
H  27.68400 2.39700 42.73100
Mg 35.50900 48.36200 25.36200
C  35.84000 46.32600 28.18200
C  34.44700 51.05000 27.47700
C  34.53900 49.97900 22.78500
C  36.02000 45.44400 23.51100
N  35.25700 48.64300 27.59100
C  35.37300 47.66700 28.48700
C  35.02100 48.14000 29.93200
C  34.52400 49.60000 29.68200
C  34.80200 49.78100 28.16300
C  33.01800 49.81600 29.92700
C  36.16400 48.12400 30.98200
C  35.78400 47.78300 32.39300
H  35.52100 48.84700 33.44700
N  34.61500 50.31100 25.17800
C  34.28900 51.29100 26.07000
C  33.92500 52.51600 25.41600
C  33.94100 52.26400 24.03900
C  34.39900 50.85200 23.89100
C  33.47400 53.76500 26.15200
C  33.69800 53.21500 22.77700
O  33.94500 52.85500 21.61600
C  33.21200 54.60200 22.97700
N  35.26600 47.73700 23.43500
C  34.98100 48.63100 22.54500
C  34.80600 47.95000 21.10600
C  35.49200 46.62700 21.33400
C  35.63500 46.59000 22.85900
C  33.28900 47.91200 20.76700
C  36.86100 46.48500 20.51800
C  38.16700 47.21300 21.01600
N  36.09000 46.33100 25.70600
C  36.28100 45.25300 24.86100
C  36.63000 44.11100 25.55700
C  36.42300 44.44900 26.85600
C  36.13300 45.85000 26.88700
C  36.82800 42.73500 24.89000
C  36.48800 43.95500 28.26600
O  36.77600 42.86700 28.73700
C  36.13300 45.16100 29.13000
C  34.96700 44.80000 29.95200
O  33.84000 44.70800 29.57400
O  35.36900 44.57900 31.26400
C  34.27400 44.27900 32.13400
H  34.20900 51.85600 28.17400
H  34.34600 50.49500 21.84200
H  36.10200 44.59800 22.82700
H  34.29300 47.38200 30.22100
H  35.11400 50.34400 30.21700
H  32.77100 50.70600 30.50500
H  32.65700 48.89200 30.37900
H  32.55800 49.95300 28.94900
H  36.55500 49.14200 30.97800
H  36.99500 47.48500 30.68400
H  36.56800 47.15200 32.81100
H  34.82400 47.26700 32.41500
H  34.08900 54.61900 25.86900
H  33.59900 53.55400 27.21400
H  32.41300 54.00600 26.21500
H  33.04900 54.96400 21.96200
H  33.98500 55.15200 23.51400
H  32.27600 54.47300 23.52100
H  35.33700 48.57800 20.39000
H  34.92000 45.75700 21.01100
H  32.96900 46.96100 20.34100
H  33.02500 48.67600 20.03600
H  32.71800 48.07000 21.68100
H  36.56400 46.77100 19.50900
H  37.12000 45.42600 20.54000
H  38.86000 46.40900 21.26500
H  37.89900 47.89100 21.82600
H  38.57200 47.82300 20.20800
H  35.97800 42.08100 25.08300
H  37.65400 42.19900 25.35700
H  36.92100 42.89700 23.81600
H  37.00200 45.29500 29.77500
H  33.78900 43.31600 31.97600
H  33.58700 45.12500 32.09400
H  34.83100 44.37400 33.06600

