158

Mg -11.74900 15.55500 41.88600
C  -8.54200 14.50800 41.14300
C  -10.85100 18.75900 40.66900
C  -15.02000 16.35500 41.74900
C  -12.65800 12.29100 42.70500
N  -9.90600 16.42100 40.87000
C  -8.69100 15.80600 40.77900
C  -7.62300 16.75100 40.29500
C  -8.33100 18.19600 40.43000
C  -9.80400 17.73800 40.66500
C  -7.76400 19.14100 41.59300
C  -7.12500 16.51000 38.77400
C  -5.66400 16.14600 38.61000
H  -4.96000 16.67200 37.33200
N  -12.79600 17.30600 41.30300
C  -12.21400 18.52000 40.88700
C  -13.27400 19.39400 40.47100
C  -14.52800 18.75100 40.72300
C  -14.16600 17.43200 41.31900
C  -13.04000 20.77500 40.00100
C  -15.86200 19.32500 40.44000
O  -15.94500 20.52500 40.08100
C  -17.26300 18.67300 40.60200
N  -13.61200 14.42700 42.00400
C  -14.77100 15.11100 42.23400
C  -15.99100 14.20200 42.74500
C  -15.12900 12.94300 43.13600
C  -13.71200 13.17800 42.51800
C  -16.92300 14.83400 43.90600
C  -15.79900 11.60500 43.00000
C  -16.52600 11.18300 44.32300
N  -10.83000 13.69900 42.04700
C  -11.31500 12.49800 42.45300
C  -10.30800 11.47800 42.36100
C  -9.18000 12.25600 41.90600
C  -9.56600 13.59700 41.69900
C  -10.32400 10.03100 42.62100
C  -7.75900 12.17700 41.61200
O  -6.99500 11.18000 41.63000
C  -7.33700 13.62800 41.17600
C  -6.36800 14.17100 42.11000
O  -6.53500 14.28600 43.33300
O  -5.13300 14.35800 41.54900
C  -3.93100 14.72200 42.40800
H  -10.54800 19.74300 40.30600
H  -16.08700 16.55200 41.63200
H  -12.90200 11.36500 43.23100
H  -6.76600 16.64500 40.96000
H  -8.23200 18.72900 39.48400
H  -7.10700 18.42300 42.08400
H  -8.54300 19.54400 42.24000
H  -7.20400 20.00700 41.23900
H  -7.37300 17.27100 38.03400
H  -7.71600 15.61900 38.56600
H  -5.73100 15.05900 38.58500
H  -5.07500 16.26000 39.52000
H  -13.42500 20.84100 38.98400
H  -12.04100 21.21200 40.03500
H  -13.61700 21.47900 40.60100
H  -18.13600 19.13200 40.13900
H  -17.42800 18.62300 41.67800
H  -17.23100 17.66100 40.19900
H  -16.53200 13.84800 41.86800
H  -14.89000 13.05900 44.19300
H  -17.93400 14.68300 43.52500
H  -16.79100 15.91400 43.96100
H  -16.75500 14.29800 44.84000
H  -15.11100 10.83100 42.65900
H  -16.51000 11.54800 42.17600
H  -17.57600 11.24500 44.03800
H  -16.33300 11.72800 45.24700
H  -16.37500 10.11700 44.49500
H  -9.32900 9.62600 42.80500
H  -10.79800 9.49600 41.79800
H  -10.85600 9.84100 43.55300
H  -6.90100 13.59300 40.17800
H  -3.01700 14.23300 42.07100
H  -4.06600 14.54300 43.47400
H  -3.76700 15.79500 42.31500
Mg -4.88400 26.08000 25.80500
C  -3.15700 27.30700 28.65000
C  -6.38700 23.78800 28.12200
C  -5.98700 24.37600 23.28000
C  -2.92600 28.10500 23.87000
N  -4.88200 25.64900 28.06000
C  -4.14000 26.35000 28.96600
C  -4.55100 25.98500 30.41000
C  -5.35000 24.65100 30.25200
C  -5.60400 24.69600 28.72600
C  -4.62700 23.32200 30.78700
C  -5.31700 27.11300 31.14500
C  -5.08300 27.22800 32.70600
H  -4.90100 25.97000 33.56200
N  -6.16900 24.42000 25.69300
C  -6.69400 23.68400 26.75000
C  -7.59100 22.72100 26.20000
C  -7.54700 22.86800 24.78400
C  -6.55300 23.95400 24.50500
C  -8.33500 21.74800 27.14600
C  -8.32100 22.08500 23.73700
O  -8.18100 22.17300 22.51900
C  -9.54600 21.23200 24.13100
N  -4.43800 26.23800 23.80900
C  -5.02400 25.33400 22.96200
C  -4.69300 25.65700 21.49500
C  -3.84400 26.95700 21.67300
C  -3.80800 27.21900 23.21700
C  -3.84300 24.53200 20.77200
C  -4.41200 28.33400 21.05100
C  -3.49600 29.00100 19.99700
N  -3.35700 27.37600 26.12700
C  -2.67300 28.25200 25.25900
C  -1.95100 29.26400 25.92000
C  -2.06100 28.88900 27.26700
C  -2.87400 27.73400 27.36500
C  -1.09600 30.34000 25.31500
C  -1.58100 29.21000 28.59300
O  -0.85000 30.13300 28.96700
C  -2.31600 28.18500 29.60400
C  -1.14700 27.44900 30.20300
O  -0.35300 26.83100 29.55300
O  -1.06000 27.51200 31.56900
C  0.06800 26.81600 32.15000
H  -6.87100 23.18400 28.89200
H  -6.37900 23.87700 22.39100
H  -2.29100 28.66400 23.18000
H  -3.65400 25.75000 30.98300
H  -6.31200 24.73900 30.75800
H  -4.74700 23.31000 31.87000
H  -3.64800 23.48800 30.33600
H  -4.96400 22.39100 30.33100
H  -6.37800 26.90800 30.99600
H  -5.22400 27.99400 30.51100
H  -5.94000 27.75200 33.12800
H  -4.15100 27.79300 32.70800
H  -9.25100 22.21000 27.51400
H  -7.77800 21.50700 28.05100
H  -8.42200 20.78400 26.64400
H  -10.16000 21.01300 23.25800
H  -10.14400 21.73900 24.88800
H  -9.22300 20.24100 24.45200
H  -5.62700 25.94400 21.01100
H  -2.77900 26.82400 21.48200
H  -3.22300 25.00700 20.01200
H  -4.59800 23.82500 20.43000
H  -3.19800 24.10200 21.53900
H  -4.56500 29.02100 21.88200
H  -5.35100 28.26100 20.50200
H  -3.92800 29.14600 19.00600
H  -2.64600 28.34400 19.81500
H  -3.12100 29.91100 20.46400
H  -1.21500 30.19600 24.24100
H  -0.04100 30.10200 25.45300
H  -1.39300 31.32900 25.66400
H  -2.93400 28.80000 30.25800
H  -0.14300 25.83400 32.57200
H  0.34800 27.61200 32.84100
H  0.97700 26.80400 31.54900

