158

Mg 0.96500 7.60000 26.93600
C  1.26200 9.67500 29.67000
C  0.86100 4.87400 29.17800
C  0.27400 5.45800 24.30100
C  1.00200 10.16400 24.87800
N  1.13600 7.28000 29.18300
C  1.13600 8.36700 30.07500
C  1.11700 7.86400 31.48400
C  1.16200 6.31200 31.32100
C  1.03700 6.08200 29.80700
C  2.42600 5.57100 31.94300
C  -0.15300 8.30900 32.31700
C  -0.14300 8.36200 33.82600
H  1.11100 7.97400 34.61800
N  0.69300 5.52900 26.80200
C  0.64500 4.54600 27.79000
C  0.45700 3.25300 27.21100
C  0.26300 3.45400 25.84900
C  0.41400 4.86000 25.56800
C  0.54600 2.02800 28.16200
C  -0.11200 2.43300 24.76600
O  -0.24300 2.59100 23.60100
C  -0.43400 1.05400 25.24200
N  0.94900 7.71300 24.88800
C  0.53700 6.77500 23.99600
C  0.46200 7.31700 22.53300
C  0.35600 8.84400 22.86500
C  0.78200 8.94400 24.25700
C  1.70900 7.14000 21.58400
C  -1.07800 9.47300 22.89200
C  -1.50100 10.01300 21.51400
N  1.05400 9.53200 27.18200
C  1.08400 10.49100 26.21800
C  1.33000 11.75500 26.78700
C  1.40000 11.53200 28.17800
C  1.17000 10.15800 28.36500
C  1.46400 13.03000 25.95600
C  1.63000 12.12600 29.46700
O  1.95000 13.27900 29.78000
C  1.41300 10.89100 30.47900
C  2.55200 10.83100 31.47700
O  3.68300 10.64900 31.14300
O  2.08100 11.37900 32.67300
C  2.95600 11.84100 33.74100
H  0.52800 4.10200 29.87500
H  0.03800 4.88700 23.40000
H  1.07600 10.91600 24.09000
H  2.00700 8.13200 32.05400
H  0.31800 5.79800 31.78100
H  2.21000 5.36800 32.99200
H  3.26800 6.24700 31.79600
H  2.68200 4.65100 31.41800
H  -1.00300 7.68000 32.05100
H  -0.42500 9.31900 32.00900
H  -0.92800 7.69300 34.17900
H  -0.45800 9.39600 33.96600
H  -0.47900 1.78100 28.44000
H  1.01900 2.31900 29.10000
H  1.09700 1.19600 27.72300
H  0.48400 0.52000 25.48700
H  -0.76500 0.46200 24.38900
H  -1.17700 1.06300 26.04000
H  -0.50200 7.03200 22.11300
H  1.02800 9.46300 22.27000
H  2.22300 6.22400 21.87700
H  2.47900 7.90700 21.50000
H  1.19900 7.02800 20.62800
H  -1.13600 10.26900 23.63500
H  -1.89400 8.81800 23.19600
H  -2.42000 9.50600 21.22100
H  -0.73000 9.81600 20.76900
H  -1.63400 11.09400 21.48200
H  1.22300 13.78500 26.70500
H  0.75400 13.15200 25.13800
H  2.48000 13.14200 25.57800
H  0.50500 10.99700 31.07300
H  3.71200 12.45100 33.24700
H  3.33600 11.11900 34.46400
H  2.37500 12.62000 34.23500
Mg 42.60300 41.59600 26.76800
C  41.28900 43.61700 29.34100
C  43.28700 39.20700 29.18600
C  43.90800 39.69900 24.38100
C  42.05000 44.15400 24.44000
N  42.43300 41.50800 29.03400
C  41.76000 42.39000 29.86500
C  41.76400 41.98100 31.28800
C  42.36900 40.48600 31.20500
C  42.76500 40.41200 29.71100
C  43.55800 40.39300 32.24800
C  40.41100 41.97000 32.00100
C  40.19300 42.91500 33.22600
H  39.57800 42.19800 34.53800
N  43.48500 39.77900 26.77900
C  43.60400 38.89100 27.85300
C  44.28400 37.71300 27.34500
C  44.24300 37.74400 25.96800
C  43.85000 39.11300 25.65000
C  44.54200 36.56200 28.33100
C  44.61900 36.63700 24.96900
O  44.59600 36.76800 23.72200
C  44.94800 35.29200 25.44400
N  43.17500 41.98100 24.72300
C  43.60000 40.96000 23.92500
C  43.61600 41.25800 22.34600
C  42.96900 42.71300 22.55600
C  42.66000 42.94100 24.02800
C  45.07400 41.18000 21.81000
C  42.00400 43.16100 21.46300
C  40.52900 42.84100 21.69000
N  41.79900 43.47500 26.78400
C  41.64600 44.41500 25.78300
C  40.96000 45.59300 26.25700
C  40.82600 45.38800 27.66900
C  41.34500 44.02000 27.96900
C  40.70100 46.73200 25.45200
C  40.40700 45.99300 28.90600
O  39.97700 47.08300 29.20700
C  40.66500 44.84000 30.00900
C  41.56500 45.47000 30.98600
O  42.83100 45.52300 30.87800
O  40.91400 45.95200 32.08600
C  41.51400 46.92800 32.99300
H  43.44700 38.42800 29.93400
H  44.24900 39.09300 23.53900
H  41.89900 44.97200 23.73100
H  42.48700 42.68000 31.70800
H  41.62700 39.71200 31.40100
H  44.45100 40.94900 31.96500
H  43.76300 39.34300 32.45900
H  43.28400 40.81700 33.21400
H  40.05800 41.02900 32.42500
H  39.67000 42.31200 31.27900
H  39.59400 43.75000 32.86500
H  41.16900 43.26400 33.56100
H  43.57300 36.16200 28.62800
H  44.96200 36.90400 29.27700
H  45.30100 35.85100 28.00600
H  45.93900 35.30100 25.89800
H  45.06400 34.65500 24.56700
H  44.16400 34.85000 26.05900
H  42.91400 40.60500 21.82800
H  43.86300 43.33600 22.55200
H  45.38700 42.11200 21.34000
H  45.09300 40.47800 20.97700
H  45.86000 40.76600 22.44200
H  42.24800 42.74700 20.48400
H  42.12900 44.23900 21.36000
H  40.19300 42.55300 20.69400
H  40.07200 43.78300 21.99500
H  40.35700 42.09800 22.46900
H  40.06200 46.29200 24.68700
H  41.58900 47.09600 24.93500
H  40.25900 47.44500 26.14900
H  39.71200 44.55800 30.45600
H  42.35900 47.51000 32.62500
H  41.92900 46.39300 33.84700
H  40.77300 47.65600 33.32300

