158

Mg 1.86900 7.96300 25.97700
C  2.36100 9.92700 28.84800
C  2.17400 5.15800 28.05500
C  1.68400 6.10600 23.32100
C  2.05000 10.86800 24.02300
N  2.17100 7.60600 28.22800
C  2.30000 8.60900 29.16900
C  2.42000 8.00000 30.60100
C  2.40100 6.48100 30.36500
C  2.26700 6.36300 28.81100
C  3.58900 5.64600 30.89100
C  1.14000 8.49700 31.52200
C  1.40600 8.68800 33.04900
H  2.58200 8.02700 33.76400
N  1.73000 5.92900 25.70700
C  1.84700 4.97600 26.65000
C  1.73100 3.66100 26.06300
C  1.53900 3.93400 24.69300
C  1.71700 5.38000 24.47200
C  1.90900 2.41400 26.79300
C  1.09600 2.88100 23.67900
O  1.10600 3.21500 22.48100
C  0.71300 1.54300 24.02500
N  1.91700 8.48400 23.92900
C  1.74300 7.51300 23.07700
C  1.61300 8.09100 21.65600
C  1.67000 9.66400 21.85400
C  1.77500 9.70400 23.36100
C  2.73000 7.55000 20.66700
C  0.39900 10.46700 21.41700
C  0.71700 11.80100 20.67400
N  2.15900 9.97600 26.30400
C  2.15900 11.06600 25.41100
C  2.19500 12.35200 26.16300
C  2.28200 11.91500 27.48900
C  2.19400 10.49800 27.53000
C  2.31200 13.69300 25.51500
C  2.54100 12.37500 28.89500
O  2.68600 13.48400 29.35400
C  2.55100 11.11700 29.76200
C  3.90400 11.15900 30.35500
O  4.89000 10.54700 29.98300
O  3.81000 11.71200 31.63200
C  4.94700 11.74300 32.54000
H  2.25100 4.28300 28.70500
H  1.49900 5.53400 22.40900
H  2.22500 11.74200 23.39100
H  3.38900 8.21100 31.05300
H  1.56400 5.99000 30.86200
H  4.24900 5.34400 30.07700
H  3.22800 4.76900 31.42700
H  4.17200 6.12800 31.67500
H  0.35500 7.76300 31.34100
H  0.82400 9.43500 31.06500
H  0.50800 8.34800 33.56400
H  1.49200 9.77300 33.10800
H  1.17200 2.17900 27.56000
H  2.89200 2.32600 27.25700
H  2.02500 1.60300 26.07400
H  1.60600 0.91700 24.03500
H  0.01000 1.25300 23.24400
H  0.19300 1.41500 24.97500
H  0.64300 7.75800 21.28600
H  2.49600 10.17400 21.35900
H  3.72500 7.48400 21.10700
H  2.88500 8.13800 19.76300
H  2.47000 6.52800 20.39100
H  -0.17800 10.91500 22.22500
H  -0.41700 9.96000 20.90200
H  1.35300 12.51700 21.19500
H  -0.08600 12.41500 20.26700
H  1.35900 11.60500 19.81600
H  1.43700 14.27100 25.81000
H  2.34000 13.51800 24.43900
H  3.24600 14.04400 25.95300
H  1.83300 11.19200 30.57900
H  5.36800 12.74800 32.56200
H  5.69600 10.97400 32.35200
H  4.49900 11.56500 33.51800
Mg 43.53500 2.99100 46.77200
C  42.88700 6.24900 45.52700
C  40.32100 2.18200 45.88000
C  44.34700 -0.26200 47.44500
C  47.01800 3.93200 47.04100
N  41.88900 4.02100 45.75000
C  41.81400 5.37300 45.43400
C  40.37500 5.79900 44.94800
C  39.60500 4.49300 45.19000
C  40.65000 3.55600 45.75100
C  38.32900 4.67100 46.02800
C  40.49400 6.12400 43.45100
C  39.73800 7.30500 42.93100
H  38.73500 7.09900 41.73800
N  42.53900 1.16300 46.72000
C  41.21700 1.05700 46.28500
C  40.88200 -0.31800 46.26400
C  41.94800 -1.08300 46.69700
C  43.01500 -0.08900 47.03300
C  39.70100 -0.88400 45.57100
C  42.02000 -2.57500 46.76000
O  40.98500 -3.18900 46.60000
C  43.25400 -3.22700 47.10500
N  45.34900 2.00100 47.16000
C  45.39200 0.63500 47.52500
C  46.69800 0.27900 48.13100
C  47.62600 1.53700 47.84000
C  46.63300 2.60000 47.35500
C  46.59500 -0.06700 49.64100
C  48.81300 1.24900 46.88400
C  48.65200 0.44200 45.59600
N  44.79100 4.70500 46.36700
C  46.12200 4.91500 46.51400
C  46.35800 6.33000 46.15400
C  45.10900 6.92700 45.91400
C  44.21400 5.88400 45.96700
C  47.69600 6.99400 45.97900
C  44.47700 8.19700 45.58200
O  44.96600 9.28900 45.40100
C  42.98800 7.76200 45.27700
C  42.13900 8.49000 46.25900
O  41.90300 8.09700 47.37300
O  41.74800 9.67100 45.73500
C  40.79700 10.44300 46.51300
H  39.26600 1.93900 45.74000
H  44.88300 -1.20400 47.57300
H  48.04700 4.29400 47.07600
H  40.02100 6.67000 45.49900
H  39.25100 4.11700 44.23100
H  37.45200 4.79100 45.39200
H  38.32600 5.53600 46.69000
H  38.12800 3.78000 46.62300
H  40.08900 5.31500 42.84300
H  41.54000 6.29700 43.19900
H  40.45800 8.07000 42.63900
H  39.09600 7.78600 43.66900
H  38.96900 -1.36100 46.22400
H  39.98900 -1.50100 44.71900
H  39.02900 -0.11300 45.19300
H  43.30100 -3.17600 48.19300
H  44.07800 -2.78400 46.54600
H  43.24700 -4.25200 46.73300
H  47.11200 -0.59600 47.63000
H  48.00700 1.93300 48.78100
H  45.62700 0.23700 50.03900
H  47.40900 0.45200 50.14600
H  46.76700 -1.13800 49.75600
H  49.66900 0.85900 47.43400
H  49.11100 2.25900 46.60200
H  49.11500 0.87400 44.70800
H  47.59300 0.58800 45.38200
H  49.05200 -0.56100 45.74100
H  48.29500 6.82900 46.87400
H  47.56900 8.05400 45.75700
H  48.22200 6.60800 45.10600
H  42.82300 8.11300 44.25800
H  41.23200 11.09200 47.27300
H  40.06900 9.78300 46.98600
H  40.16400 11.00500 45.82700

