158

Mg 40.81000 9.09400 29.33400
C  42.70700 10.25800 32.16400
C  38.66500 7.76900 31.72500
C  39.24500 7.80200 26.80500
C  43.48700 10.17400 27.33800
N  40.70600 8.96900 31.73600
C  41.49000 9.72700 32.56800
C  40.87700 9.61000 34.00200
C  39.51700 8.82400 33.84100
C  39.64500 8.44600 32.34700
C  39.42800 7.58300 34.81900
C  40.72800 11.07400 34.70200
C  41.03800 11.08300 36.19400
H  41.37000 12.44400 36.88800
N  39.12900 8.05200 29.23700
C  38.36300 7.57000 30.30800
C  37.18800 6.97900 29.73800
C  37.28300 7.07000 28.31100
C  38.58100 7.67000 28.05500
C  36.03900 6.49300 30.61700
C  36.30100 6.74400 27.20300
O  36.43400 6.86700 26.04000
C  34.99100 6.41900 27.70500
N  41.44500 8.89200 27.34800
C  40.53600 8.35600 26.46100
C  40.98400 8.61300 25.01100
C  42.37500 9.33500 25.15400
C  42.43800 9.56400 26.65700
C  41.11100 7.34200 24.09800
C  42.65400 10.59600 24.28300
C  42.20200 11.95500 24.80300
N  42.74100 9.98700 29.67200
C  43.66900 10.34600 28.74900
C  44.90000 10.77200 29.42100
C  44.51000 10.81000 30.72000
C  43.21000 10.31700 30.81800
C  46.16600 11.20500 28.84100
C  44.92000 11.18400 32.06300
O  45.91200 11.76900 32.36000
C  43.77400 11.00900 33.01600
C  44.18800 10.24700 34.22600
O  44.51000 9.04800 34.20300
O  44.26700 11.07600 35.35000
C  44.60900 10.37400 36.58500
H  37.90200 7.30300 32.35200
H  38.77500 7.43900 25.88800
H  44.35200 10.43900 26.72700
H  41.72600 9.02300 34.35500
H  38.65700 9.48900 33.92000
H  38.37600 7.63200 35.09700
H  40.01200 7.75600 35.72300
H  39.66600 6.62300 34.36200
H  39.70700 11.45200 34.64500
H  41.37400 11.77300 34.17000
H  41.79600 10.32200 36.38400
H  40.11400 10.79900 36.69800
H  36.30100 6.37700 31.66900
H  35.87300 5.49400 30.21300
H  35.12500 7.02000 30.34200
H  34.20700 6.44000 26.94800
H  34.86800 7.34600 28.26400
H  34.87300 5.58700 28.40000
H  40.30500 9.34800 24.57800
H  43.25300 8.70100 25.02700
H  40.42200 6.58100 24.46500
H  42.10600 6.90400 24.01500
H  40.84100 7.50500 23.05500
H  42.00100 10.48300 23.41700
H  43.66600 10.64300 23.88200
H  42.97300 12.69700 25.01400
H  41.56700 11.87800 25.68500
H  41.58400 12.38900 24.01700
H  46.26700 12.29000 28.81900
H  46.19100 10.75700 27.84700
H  46.97000 10.84100 29.48000
H  43.46200 12.02700 33.24900
H  44.56800 9.28700 36.65200
H  44.03100 10.85900 37.37200
H  45.61900 10.72400 36.80000
Mg -10.97800 38.51700 41.84700
C  -8.77200 35.83600 41.04700
C  -8.63300 40.65100 40.29700
C  -13.13600 40.90200 42.15700
C  -13.36100 36.07400 43.08600
N  -8.90100 38.25300 40.75300
C  -8.29500 37.04700 40.48600
C  -7.03100 37.22800 39.65600
C  -6.93900 38.78800 39.59600
C  -8.21700 39.31500 40.29600
C  -5.61900 39.35400 40.08300
C  -7.01700 36.45000 38.32000
C  -5.76500 35.61300 37.97400
H  -5.13800 35.85300 36.60400
N  -10.81300 40.56800 41.48500
C  -9.79000 41.27400 40.87200
C  -10.17400 42.68200 40.81400
C  -11.44100 42.78800 41.36700
C  -11.82600 41.43000 41.73400
C  -9.42400 43.71600 39.94200
C  -12.30000 44.05100 41.60200
O  -11.86600 45.12100 41.14600
C  -13.59200 44.13200 42.28800
N  -12.98100 38.50600 42.44700
C  -13.67900 39.66300 42.49700
C  -15.11600 39.41100 42.94100
C  -15.24200 37.86500 43.10000
C  -13.76800 37.44200 42.81400
C  -15.42900 40.12600 44.20600
C  -16.34400 37.08000 42.31000
C  -17.45100 36.38200 43.15800
N  -11.13700 36.31700 42.06000
C  -12.09600 35.52900 42.71100
C  -11.49400 34.19900 42.91800
C  -10.20800 34.24900 42.27900
C  -10.05100 35.57800 41.77700
C  -12.06500 33.07500 43.66000
C  -9.00300 33.50600 41.95100
O  -8.67000 32.36200 42.23800
C  -8.02400 34.52000 41.11200
C  -6.72600 34.56700 41.84500
O  -5.70100 34.03900 41.57900
O  -6.82100 35.42200 42.94600
C  -5.51800 35.84000 43.63000
H  -7.91500 41.31300 39.80900
H  -13.89500 41.68600 42.12800
H  -14.03500 35.38800 43.60300
H  -6.30900 36.83300 40.37000
H  -7.01100 39.17800 38.58100
H  -5.68500 39.91800 41.01300
H  -5.02500 40.02600 39.46400
H  -4.95000 38.49400 40.11300
H  -7.23300 37.13100 37.49700
H  -7.91700 35.83900 38.25100
H  -6.05100 34.56300 38.03600
H  -4.97000 35.85600 38.67900
H  -8.40900 43.34300 39.80800
H  -9.31400 44.61500 40.54800
H  -9.87400 44.14300 39.04500
H  -13.37700 43.63700 43.23600
H  -14.31800 43.60400 41.67000
H  -13.98000 45.14600 42.38200
H  -15.82600 39.75400 42.18800
H  -15.54600 37.73500 44.13900
H  -14.46400 40.19100 44.70900
H  -16.08800 39.54700 44.85300
H  -15.90900 41.08300 44.00400
H  -15.89400 36.32200 41.66800
H  -16.94500 37.78100 41.73100
H  -17.71300 35.46600 42.62900
H  -18.34300 37.00200 43.24400
H  -17.10100 36.06700 44.14100
H  -11.58500 32.12500 43.42300
H  -13.14900 33.16900 43.60300
H  -11.84200 33.32000 44.69800
H  -7.90300 34.07200 40.12600
H  -5.73500 36.29400 44.59700
H  -4.98800 36.57700 43.02700
H  -4.88100 34.96600 43.76600

