158

Mg 25.65100 -0.74000 29.28900
C  27.68000 -0.62600 32.12700
C  23.03400 0.21800 31.19900
C  23.76500 -0.52000 26.51700
C  28.39100 -1.74700 27.33200
N  25.43900 -0.36200 31.48900
C  26.40100 -0.14000 32.44400
C  25.88700 0.38600 33.78500
C  24.28900 0.45800 33.41900
C  24.20800 0.07400 31.93300
C  23.41700 -0.54300 34.30900
C  26.63200 1.69400 34.11000
C  27.59300 1.70700 35.31600
H  27.14800 2.64200 36.53500
N  23.62600 -0.27300 28.89900
C  22.74800 0.12500 29.87000
C  21.50100 0.42100 29.19000
C  21.73700 0.32800 27.80500
C  23.08600 -0.17100 27.69400
C  20.17300 0.72100 29.91100
C  20.91600 0.68400 26.62700
O  21.22100 0.50100 25.46900
C  19.54500 1.34900 26.86500
N  26.02900 -1.21400 27.20200
C  25.08700 -0.95900 26.19700
C  25.81400 -1.07500 24.81300
C  27.30200 -1.30000 25.14900
C  27.21500 -1.49800 26.64500
C  25.24500 -2.07000 23.75500
C  28.28000 -0.18200 24.62100
C  28.53000 1.06700 25.44200
N  27.61600 -1.23000 29.60800
C  28.56700 -1.69300 28.73600
C  29.72500 -1.98100 29.47200
C  29.51400 -1.50900 30.78100
C  28.15600 -1.13300 30.86600
C  31.04000 -2.45400 28.94100
C  30.12900 -1.28700 32.04400
O  31.26400 -1.52700 32.43100
C  29.02100 -0.61800 32.92500
C  29.04600 -1.33600 34.26800
O  28.43100 -2.34100 34.55000
O  29.74300 -0.54400 35.10900
C  29.90100 -1.14700 36.47300
H  22.20100 0.37400 31.88800
H  23.24700 -0.34200 25.57200
H  29.33300 -1.87700 26.79500
H  25.97200 -0.38900 34.54700
H  23.88300 1.46400 33.53100
H  24.04700 -0.97300 35.08700
H  22.74300 -1.24300 33.81600
H  22.69700 0.02200 34.90300
H  25.85200 2.43800 34.26900
H  27.21800 2.00100 33.24400
H  28.57000 2.08600 35.01600
H  27.73200 0.69400 35.69400
H  19.95400 1.78800 29.94000
H  20.30400 0.51600 30.97400
H  19.38700 0.08800 29.50000
H  19.45900 2.12600 27.62500
H  18.76400 0.63400 27.12300
H  19.20900 1.76000 25.91300
H  25.67100 -0.06500 24.42700
H  27.64100 -2.25200 24.74000
H  24.79400 -1.39900 23.02400
H  24.62000 -2.84800 24.19300
H  26.05600 -2.53700 23.19500
H  27.93400 0.08600 23.62300
H  29.30400 -0.54300 24.52600
H  27.94100 1.05300 26.35900
H  28.35300 1.96400 24.84800
H  29.58900 1.15300 25.68600
H  31.27400 -1.93100 28.01400
H  31.09500 -3.54100 28.88200
H  31.67300 -2.05500 29.73500
H  29.28800 0.42800 33.07700
H  29.17700 -0.69100 37.14800
H  30.92200 -1.05400 36.84300
H  29.79400 -2.22900 36.53900
Mg 44.83400 2.31000 46.89400
C  42.69500 5.07200 46.87300
C  42.06300 0.33800 46.66600
C  46.89900 -0.26500 46.60900
C  47.63500 4.60000 46.66900
N  42.53700 2.78100 46.47900
C  41.95500 3.92600 46.74000
C  40.40300 3.72600 46.87000
C  40.27000 2.17200 47.00800
C  41.71500 1.66800 46.65600
C  39.82300 1.65800 48.37800
C  39.46100 4.33200 45.71100
C  39.68300 3.72200 44.33400
H  40.42200 4.74800 43.50000
N  44.48800 0.28400 46.58000
C  43.29100 -0.34900 46.54200
C  43.51800 -1.76100 46.44600
C  44.88300 -1.96100 46.61000
C  45.50000 -0.60300 46.59900
C  42.44200 -2.80800 46.49600
C  45.61100 -3.27200 46.82700
O  45.01200 -4.35800 46.99400
C  47.09100 -3.49000 47.12000
N  46.97500 2.19600 46.72200
C  47.59100 0.96000 46.67900
C  49.09200 1.06300 46.73500
C  49.40500 2.56300 46.41300
C  47.94500 3.22100 46.64400
C  49.60500 0.45800 48.07900
C  49.89000 2.83200 44.99300
C  51.44900 3.16000 44.82600
N  45.18800 4.46400 46.77300
C  46.35600 5.20500 46.78700
C  45.98000 6.61500 46.83900
C  44.62100 6.63700 46.91900
C  44.12500 5.26300 46.88500
C  46.99000 7.78700 47.02700
C  43.39400 7.47300 46.99400
O  43.28900 8.70600 46.99600
C  42.18200 6.51000 46.88800
C  41.33400 6.81900 48.07300
O  41.29300 6.13400 49.08100
O  40.43700 7.82300 47.78100
C  39.68800 8.16500 48.99800
H  41.10600 -0.18700 46.68100
H  47.64300 -1.05500 46.48400
H  48.52600 5.23200 46.65700
H  39.91700 4.05500 47.78900
H  39.63200 1.77500 46.21800
H  40.70000 1.29000 48.91100
H  39.13700 0.81700 48.27800
H  39.40400 2.34000 49.11800
H  39.70800 5.39000 45.61300
H  38.44000 4.29500 46.09100
H  38.74000 3.41000 43.88300
H  40.25700 2.79700 44.38800
H  42.56200 -3.70400 47.10500
H  42.28600 -3.08900 45.45400
H  41.54200 -2.34100 46.89500
H  47.50700 -3.34400 46.12400
H  47.27000 -4.49100 47.51300
H  47.39500 -2.71500 47.82400
H  49.38700 0.42700 45.89900
H  49.99100 3.13600 47.13100
H  50.36900 1.06800 48.56100
H  50.03600 -0.51300 47.83900
H  48.72800 0.26200 48.69500
H  49.28900 3.65300 44.60200
H  49.57500 1.97300 44.40100
H  51.88400 2.67500 43.95200
H  51.87800 2.76400 45.74600
H  51.53300 4.23000 44.63600
H  46.37100 8.68200 46.96000
H  47.74800 7.83700 46.24500
H  47.49500 7.83300 47.99200
H  41.61600 6.72700 45.98200
H  38.75100 7.60700 48.99300
H  39.44800 9.22800 48.98300
H  40.16800 7.94200 49.95000

