158

Mg 25.47200 1.28900 29.95300
C  27.61600 0.77400 32.70100
C  22.82300 1.37000 32.06500
C  23.53300 1.57600 27.27900
C  28.20900 0.24100 27.83800
N  25.29300 0.98400 32.18900
C  26.29700 1.05500 33.10100
C  25.80300 1.38900 34.49200
C  24.23300 1.39600 34.25400
C  24.07600 1.27600 32.74500
C  23.50400 0.19200 34.92500
C  26.40600 2.73000 34.89600
C  27.23100 2.77800 36.17700
H  26.79800 3.83300 37.19600
N  23.47100 1.48100 29.76100
C  22.54400 1.46500 30.73400
C  21.24000 1.70600 30.12000
C  21.39500 1.65000 28.74000
C  22.82800 1.57000 28.47100
C  19.95100 1.63300 30.90000
C  20.42100 1.64400 27.54500
O  20.74400 1.78300 26.37600
C  18.98300 1.28400 27.93200
N  25.91000 1.00400 27.84400
C  24.88900 1.25700 26.96200
C  25.34800 0.95800 25.48100
C  26.88300 0.60000 25.74600
C  27.00900 0.60100 27.23100
C  24.65600 -0.20800 24.62000
C  27.92400 1.57000 25.08000
C  27.83000 3.03400 25.51900
N  27.56500 0.68700 30.20500
C  28.52100 0.28900 29.25500
C  29.77900 -0.07300 29.96400
C  29.44700 0.19100 31.29700
C  28.10600 0.53400 31.38400
C  31.08100 -0.46300 29.35800
C  29.94400 0.26800 32.64800
O  31.07300 0.03200 33.14700
C  28.75600 0.65600 33.61600
C  28.73300 -0.27700 34.81200
O  27.98500 -1.26200 34.83600
O  29.44300 0.24900 35.82100
C  29.19000 -0.24900 37.18000
H  22.02400 1.53900 32.79100
H  23.03100 1.65500 26.31300
H  29.04100 -0.02200 27.18200
H  26.09400 0.58000 35.16300
H  23.76900 2.31400 34.61400
H  23.09600 0.47100 35.89600
H  24.28300 -0.56700 34.99900
H  22.73200 -0.16800 34.24500
H  25.58200 3.42600 35.05400
H  27.04900 3.07900 34.08800
H  28.28200 2.88500 35.90900
H  27.15600 1.79800 36.64700
H  19.22700 2.31300 30.45200
H  20.16000 1.92400 31.92900
H  19.41000 0.68700 30.87100
H  18.37800 0.92200 27.10100
H  18.51000 2.20800 28.26700
H  18.88000 0.50400 28.68600
H  25.28500 1.90100 24.93800
H  27.13400 -0.40100 25.39600
H  25.45300 -0.72700 24.08700
H  24.09300 0.29700 23.83600
H  24.05300 -0.82800 25.28300
H  27.59500 1.49700 24.04400
H  28.97500 1.28000 25.07300
H  27.41000 3.09400 26.52300
H  27.22300 3.60200 24.81400
H  28.79800 3.53500 25.49300
H  31.17300 -1.52600 29.13800
H  31.94700 -0.26100 29.98800
H  31.12200 0.04800 28.39600
H  28.95200 1.66900 33.96800
H  28.47400 -1.07100 37.20800
H  28.84200 0.56200 37.82000
H  30.15200 -0.64700 37.50100
Mg 48.78300 45.62900 42.72300
C  45.53400 46.19800 41.81400
C  48.42600 42.45300 41.13800
C  52.20000 45.29800 42.64500
C  49.28000 48.99100 43.41000
N  47.25200 44.55100 41.45800
C  45.96300 45.01800 41.20000
C  45.16100 44.09400 40.25800
C  45.94400 42.77000 40.51700
C  47.27700 43.26400 41.07000
C  45.26000 41.70900 41.47000
C  45.15100 44.60600 38.77300
C  43.76500 44.55100 38.10000
H  43.70300 44.30800 36.61700
N  50.14500 43.98700 42.24100
C  49.73300 42.80300 41.64600
C  50.90100 41.96800 41.60400
C  52.02100 42.68100 42.10900
C  51.46100 44.07200 42.38200
C  50.81300 40.59000 41.18900
C  53.44900 42.30100 42.23200
O  53.69100 41.15800 41.92500
C  54.57000 43.18200 42.88400
N  50.47200 46.94900 43.08800
C  51.80100 46.55700 42.95900
C  52.78200 47.70500 43.01300
C  51.80300 48.87900 43.33200
C  50.44500 48.27300 43.21400
C  53.96300 47.54500 43.98100
C  51.97300 50.16500 42.49200
C  51.54500 51.45100 43.22300
N  47.65100 47.22000 42.88500
C  47.92400 48.53700 43.30400
C  46.69200 49.27200 43.45800
C  45.73700 48.36400 42.82500
C  46.36500 47.16500 42.54300
C  46.51600 50.55800 43.80500
C  44.32100 48.21200 42.46600
O  43.36400 49.00700 42.72700
C  44.17300 46.83500 41.75900
C  42.99400 46.08100 42.21900
O  42.19500 45.61000 41.40100
O  42.93600 45.94600 43.53300
C  41.68700 45.24800 43.97300
H  48.16000 41.44800 40.80300
H  53.28900 45.22800 42.62500
H  49.36200 50.06300 43.60300
H  44.14700 43.85700 40.58100
H  46.11100 42.30800 39.54400
H  44.78500 40.96400 40.83100
H  44.55400 42.22300 42.12300
H  45.96200 41.24700 42.16500
H  45.70600 43.94100 38.11200
H  45.50700 45.63700 38.76800
H  43.43700 45.55900 38.35200
H  43.11400 43.81300 38.57000
H  51.29700 40.44800 40.22300
H  49.82400 40.17600 40.99100
H  51.29400 40.01900 41.98300
H  54.92700 43.94300 42.19000
H  55.39400 42.50200 43.10000
H  54.22100 43.63900 43.81000
H  53.15700 48.08300 42.06300
H  51.83700 49.26100 44.35200
H  54.02100 46.63000 44.57000
H  54.14200 48.45700 44.55100
H  54.87300 47.51200 43.38100
H  51.33500 50.25500 41.61300
H  53.00500 50.37500 42.21400
H  50.73400 51.93000 42.67300
H  52.30200 52.23100 43.31000
H  51.15600 51.25900 44.22300
H  46.46400 50.52900 44.89400
H  45.49100 50.84500 43.56900
H  47.28200 51.16900 43.32700
H  43.92900 47.18500 40.75600
H  41.39800 44.43400 43.30800
H  40.87300 45.97200 43.94300
H  41.78800 44.79700 44.96000

