158

Mg 16.89800 -2.41200 28.18200
C  16.01800 -0.32100 30.86400
C  18.69900 -4.29200 30.32500
C  18.03300 -3.99100 25.43700
C  15.29000 -0.00800 26.03700
N  17.27500 -2.20600 30.32700
C  16.78200 -1.37400 31.29600
C  17.37100 -1.67900 32.66800
C  18.39200 -2.84200 32.32600
C  18.04700 -3.17800 30.89400
C  19.91400 -2.46700 32.46800
C  16.32300 -1.99200 33.72100
C  16.58000 -1.51400 35.16600
H  18.01000 -1.63900 35.71300
N  18.06000 -4.08100 27.92300
C  18.70900 -4.70700 28.97100
C  19.39900 -5.86300 28.40200
C  19.20500 -5.79400 26.92400
C  18.38500 -4.58400 26.69700
C  20.10200 -6.79400 29.35900
C  19.75800 -6.67400 25.86400
O  19.54500 -6.63300 24.63800
C  20.71700 -7.66000 26.24600
N  16.67700 -2.06600 26.01500
C  17.35100 -2.79700 25.07400
C  17.06500 -2.27600 23.66600
C  16.20800 -1.07700 23.92100
C  16.06400 -1.02800 25.42700
C  18.33100 -1.90500 22.80100
C  14.86100 -1.05600 23.05400
C  13.45800 -1.47600 23.49900
N  15.84400 -0.62500 28.29100
C  15.16000 0.18100 27.42200
C  14.42900 1.18200 28.11700
C  14.79200 1.06600 29.45100
C  15.63500 -0.01700 29.53600
C  13.51100 2.17400 27.50000
C  14.62300 1.71400 30.72400
O  13.99600 2.70500 30.99400
C  15.40700 0.78100 31.72500
C  16.48700 1.61600 32.38900
O  17.66200 1.72100 32.11500
O  15.87900 2.46300 33.26100
C  16.75400 3.51300 33.82400
H  19.17300 -4.90100 31.09700
H  18.51700 -4.50000 24.60100
H  14.80700 0.74100 25.40500
H  17.86600 -0.77600 33.02600
H  18.20000 -3.67100 33.00700
H  20.03200 -1.42600 32.76900
H  20.31500 -2.56300 31.45900
H  20.44100 -3.15300 33.13200
H  16.10300 -3.05700 33.64500
H  15.39200 -1.51900 33.41100
H  15.90100 -2.21500 35.65100
H  16.09700 -0.54700 35.30700
H  19.45000 -7.27700 30.08700
H  20.91900 -6.25900 29.84400
H  20.49100 -7.65600 28.81700
H  21.10000 -8.13300 25.34200
H  20.14700 -8.39200 26.81800
H  21.59800 -7.33600 26.79900
H  16.49200 -2.98300 23.06700
H  16.72600 -0.12000 23.85800
H  18.26800 -2.67800 22.03500
H  19.21500 -2.15300 23.38800
H  18.36000 -0.88400 22.42000
H  15.06900 -1.58000 22.12100
H  14.78600 -0.00800 22.76300
H  12.84600 -0.58400 23.63300
H  13.58100 -1.98200 24.45600
H  13.03100 -2.14900 22.75500
H  12.82400 1.62800 26.85500
H  14.10400 2.90500 26.95000
H  13.04100 2.80400 28.25600
H  14.75700 0.28900 32.45000
H  17.67000 3.13600 34.27800
H  16.30900 4.09300 34.63200
H  17.18000 4.22400 33.11600
Mg -10.19800 40.17500 42.80300
C  -9.39200 36.70200 42.19700
C  -7.14700 40.99200 41.09800
C  -11.16400 43.26800 42.49900
C  -13.47000 39.10500 43.66600
N  -8.56300 38.93900 41.70100
C  -8.47400 37.55400 41.71600
C  -7.15500 37.14100 41.15800
C  -6.33000 38.51000 41.09200
C  -7.43000 39.56400 41.27700
C  -5.34800 38.58600 42.28600
C  -7.30000 36.29700 39.87400
C  -6.15400 35.32800 39.55000
H  -5.04700 35.89700 38.52600
N  -9.25300 41.94500 42.01900
C  -8.07300 42.04900 41.42100
C  -7.77800 43.47500 41.18700
C  -8.95700 44.19300 41.39000
C  -9.86500 43.12000 41.95500
C  -6.49600 43.96700 40.50000
C  -9.14000 45.73000 41.22700
O  -8.24400 46.41800 40.75200
C  -10.39000 46.52500 41.57300
N  -12.08500 41.04200 42.97100
C  -12.15700 42.43000 43.01100
C  -13.58800 42.83200 43.49100
C  -14.30200 41.53500 43.91100
C  -13.26900 40.46300 43.42900
C  -13.65500 43.99000 44.56300
C  -15.72900 41.38200 43.15400
C  -16.73400 42.48600 43.38500
N  -11.28400 38.33000 43.01900
C  -12.53300 38.06600 43.36700
C  -12.82300 36.62800 43.39200
C  -11.60300 36.06800 42.94600
C  -10.73600 37.13700 42.69900
C  -14.16800 35.91400 43.55000
C  -10.92400 34.84000 42.58800
O  -11.30900 33.71700 42.67300
C  -9.39700 35.20200 42.27700
C  -8.51900 34.58200 43.38200
O  -9.03700 34.33900 44.45000
O  -7.23400 34.42100 43.05000
C  -6.35300 33.73100 44.00900
H  -6.21400 41.21300 40.57600
H  -11.54400 44.28300 42.36100
H  -14.38900 38.75400 44.13800
H  -6.88400 36.43500 41.94200
H  -5.78900 38.59100 40.15000
H  -5.55300 37.81300 43.02700
H  -5.48800 39.53700 42.79900
H  -4.31100 38.58700 41.95200
H  -7.28700 37.06900 39.10500
H  -8.23800 35.74500 39.82000
H  -6.60900 34.43700 39.11700
H  -5.64100 35.15200 40.49500
H  -6.79600 44.36200 39.52900
H  -5.75600 43.18300 40.33700
H  -5.90300 44.70700 41.03800
H  -10.31500 47.53300 41.16400
H  -10.57400 46.51700 42.64700
H  -11.28700 46.02500 41.20800
H  -14.00800 43.09500 42.52000
H  -14.38500 41.47600 44.99600
H  -12.73800 44.57500 44.48600
H  -13.76600 43.64700 45.59100
H  -14.48000 44.64600 44.28200
H  -16.16600 40.51900 43.65400
H  -15.72600 41.15900 42.08700
H  -17.78600 42.20300 43.41000
H  -16.55000 43.34300 42.73700
H  -16.57300 42.82500 44.40800
H  -14.18200 34.93300 43.07600
H  -14.82500 36.60800 43.02600
H  -14.49100 35.97800 44.58900
H  -9.15800 34.69700 41.34100
H  -6.62300 32.67600 44.06000
H  -6.49500 34.14500 45.00700
H  -5.34800 33.79400 43.59200

