158

Mg 26.20300 0.89700 28.98800
C  28.28600 0.74900 31.98600
C  23.48700 0.70200 31.24600
C  24.34600 0.93300 26.44300
C  29.02600 0.26900 27.11500
N  26.01900 0.80100 31.34900
C  26.93700 0.90900 32.31000
C  26.38100 0.98300 33.74700
C  24.81600 0.87700 33.48300
C  24.72000 0.91300 31.94800
C  24.04400 -0.32300 34.24200
C  26.83000 2.16300 34.60000
C  27.38400 1.93300 35.97100
H  27.05800 2.89100 37.13900
N  24.19200 0.86400 28.83400
C  23.22000 0.78200 29.87000
C  21.96700 1.02000 29.24900
C  22.13900 1.10200 27.84100
C  23.57600 0.91000 27.62800
C  20.66800 1.17900 30.00600
C  21.05300 1.44100 26.70100
O  21.42100 1.25500 25.57600
C  19.61700 1.76800 26.96500
N  26.65700 0.52400 27.09300
C  25.70400 0.72300 26.16200
C  26.27500 0.83700 24.73200
C  27.74000 0.51700 24.91800
C  27.84400 0.40600 26.45500
C  25.64800 -0.09800 23.61600
C  28.73900 1.55500 24.36100
C  28.76400 1.63000 22.88500
N  28.29700 0.55000 29.38000
C  29.30300 0.23800 28.50100
C  30.51400 0.13800 29.21500
C  30.25000 0.35100 30.56100
C  28.85700 0.64000 30.64000
C  31.79900 -0.25300 28.73900
C  30.79600 0.48000 31.91800
O  31.94900 0.31500 32.29200
C  29.53000 0.69800 32.93100
C  29.39500 -0.33400 33.96800
O  28.91800 -1.44000 33.85800
O  29.95100 0.08400 35.15800
C  29.97100 -0.81800 36.37400
H  22.59900 0.64300 31.87900
H  23.68800 0.94900 25.57200
H  29.90600 0.14600 26.48100
H  26.70500 0.13700 34.35400
H  24.30400 1.75200 33.88100
H  22.98500 -0.06900 34.27800
H  24.49000 -0.45500 35.22800
H  24.05100 -1.30400 33.76500
H  25.99000 2.82700 34.80200
H  27.53000 2.78300 34.04100
H  28.45500 1.74100 35.90400
H  26.91800 0.98000 36.22100
H  19.97200 0.37300 29.77300
H  20.20700 2.09300 29.63100
H  20.63800 1.34800 31.08300
H  19.46800 2.66200 27.57000
H  19.16300 0.86800 27.38000
H  19.10400 1.96400 26.02300
H  26.18900 1.88000 24.42600
H  27.95500 -0.45600 24.47700
H  24.96000 -0.69500 24.21500
H  26.32400 -0.83800 23.19000
H  25.07100 0.46800 22.88400
H  29.76700 1.39600 24.68700
H  28.45100 2.56600 24.65100
H  28.40000 2.59900 22.54600
H  28.13200 0.88300 22.40500
H  29.76700 1.42400 22.50900
H  31.68800 -1.32900 28.60400
H  32.56400 0.02800 29.46300
H  32.19600 0.22700 27.84500
H  29.67300 1.65100 33.44100
H  29.41000 -0.35100 37.18300
H  31.01200 -0.94900 36.67100
H  29.53200 -1.78800 36.13800
Mg -10.56500 40.04800 39.96900
C  -9.00800 36.94500 39.16200
C  -7.78600 41.66100 38.93700
C  -12.32100 42.97100 39.65500
C  -13.68800 38.21800 40.30200
N  -8.67000 39.39100 39.16100
C  -8.23100 38.08300 38.81600
C  -6.92200 38.11200 38.08400
C  -6.45200 39.58700 38.38100
C  -7.75200 40.27600 38.81000
C  -5.34500 39.78200 39.46600
C  -7.04000 37.71900 36.55600
C  -6.22000 36.53500 35.94100
H  -6.87700 35.93000 34.65500
N  -10.02900 42.06100 39.69600
C  -8.80400 42.53800 39.31400
C  -8.74000 44.01300 39.42600
C  -10.11000 44.40200 39.70700
C  -10.89000 43.13600 39.74800
C  -7.48200 44.85700 39.23100
C  -10.57600 45.80600 39.91800
O  -9.77900 46.73600 39.80500
C  -12.00900 46.07700 40.34100
N  -12.68900 40.56800 39.98200
C  -13.10500 41.82300 39.69900
C  -14.64500 41.98000 39.68100
C  -15.10000 40.46600 39.98900
C  -13.75100 39.63900 40.12300
C  -15.07600 43.05600 40.65600
C  -16.01500 39.75100 38.83800
C  -17.29300 38.98500 39.16700
N  -11.25700 38.08000 39.89200
C  -12.48600 37.48000 40.16400
C  -12.34000 36.00100 40.25400
C  -11.02800 35.79000 39.93200
C  -10.40600 37.03600 39.68100
C  -13.46900 35.06900 40.55100
C  -10.04000 34.80100 39.57100
O  -10.12200 33.59000 39.49200
C  -8.74900 35.49900 39.11200
C  -7.62200 35.02200 39.98200
O  -7.63000 35.03800 41.19000
O  -6.57200 34.62500 39.17500
C  -5.60300 33.81800 39.80500
H  -6.88700 42.21900 38.66700
H  -12.97400 43.83900 39.54000
H  -14.64800 37.73100 40.48700
H  -6.18200 37.53600 38.63900
H  -6.10300 40.10300 37.48700
H  -5.71800 40.18800 40.40600
H  -4.66200 40.54000 39.08100
H  -4.69900 38.95300 39.75500
H  -6.73400 38.60800 36.00300
H  -8.09500 37.60700 36.30400
H  -6.34300 35.77600 36.71400
H  -5.17900 36.84200 35.84000
H  -7.31600 45.13800 38.19100
H  -6.59000 44.31100 39.53700
H  -7.63600 45.76000 39.82200
H  -12.07100 47.11400 40.66900
H  -12.18100 45.34400 41.13000
H  -12.66500 46.01800 39.47300
H  -14.98900 42.21500 38.67400
H  -15.56600 40.38200 40.97100
H  -14.78900 44.07600 40.40000
H  -14.50500 42.90200 41.57100
H  -16.16100 43.07300 40.76400
H  -15.45600 39.06000 38.20600
H  -16.26300 40.50700 38.09300
H  -18.18700 39.35600 38.66400
H  -17.50000 39.01600 40.23700
H  -17.17700 37.95400 38.83100
H  -14.02100 35.36500 41.44300
H  -13.03600 34.09700 40.79000
H  -14.21100 35.04500 39.75400
H  -8.59600 35.11500 38.10400
H  -5.53100 33.77000 40.89200
H  -4.60900 34.20700 39.58300
H  -5.47700 32.80600 39.41900

