158

Mg 35.95700 1.37800 29.60300
C  33.79300 2.11500 32.22200
C  38.58600 1.30700 31.82800
C  38.06500 0.73200 27.10400
C  33.36900 1.99200 27.47400
N  36.12600 1.54500 31.83500
C  35.08200 1.84600 32.70500
C  35.61700 2.03100 34.05300
C  37.15800 2.07000 33.85800
C  37.34000 1.64100 32.39900
C  37.84500 3.35000 34.21300
C  35.09900 0.92000 35.05000
C  34.82300 1.35500 36.50700
H  35.57000 2.42200 37.25100
N  38.03800 0.92700 29.47800
C  38.89300 0.87100 30.55400
C  40.25100 0.37000 30.06600
C  40.12900 0.30000 28.63000
C  38.69200 0.59800 28.35900
C  41.44300 0.20400 31.00500
C  41.25700 -0.05600 27.60600
O  41.12000 0.00400 26.40900
C  42.62000 -0.50700 28.20300
N  35.70300 1.19500 27.61800
C  36.71900 1.00500 26.74800
C  36.25300 0.94200 25.27400
C  34.72500 1.20300 25.42200
C  34.57000 1.48200 26.97200
C  36.97900 1.90700 24.27400
C  33.88700 0.06300 24.81700
C  33.17100 -0.97400 25.69900
N  34.00700 2.00100 29.75200
C  33.05200 2.20600 28.78000
C  31.73200 2.48100 29.34800
C  32.03100 2.49700 30.72500
C  33.35500 2.22800 30.88700
C  30.52900 2.63000 28.64200
C  31.45300 2.73200 32.03400
O  30.31000 3.11800 32.26000
C  32.55100 2.50800 33.04000
C  32.72200 3.70300 33.93300
O  33.07300 4.76500 33.52000
O  32.23000 3.43200 35.20800
C  32.17200 4.60500 36.09200
H  39.35700 1.24000 32.59800
H  38.84800 0.56300 26.36100
H  32.54100 2.12400 26.77400
H  35.16600 2.92600 34.48200
H  37.58700 1.33500 34.53900
H  38.57600 3.21500 35.01000
H  37.26100 4.14500 34.67500
H  38.33800 3.73600 33.32100
H  35.71500 0.02200 35.00300
H  34.10800 0.62800 34.70400
H  34.95200 0.41400 37.04200
H  33.81100 1.75900 36.49500
H  42.12100 0.91100 30.52800
H  41.88100 -0.79100 30.92700
H  41.13700 0.61400 31.96800
H  43.12000 0.38000 28.59200
H  43.25500 -0.92600 27.42300
H  42.54600 -1.23500 29.01100
H  36.32300 -0.08400 24.91400
H  34.43100 2.13500 24.94000
H  37.92500 2.29500 24.65100
H  36.45700 2.84600 24.09200
H  37.21100 1.29600 23.40200
H  34.52400 -0.42300 24.07900
H  33.05100 0.62600 24.40000
H  32.12100 -0.83000 25.44300
H  33.41100 -0.88100 26.75800
H  33.32800 -2.03500 25.50900
H  30.39200 1.84300 27.90000
H  30.41800 3.53500 28.04400
H  29.79500 2.54600 29.44300
H  32.22600 1.77800 33.78100
H  31.18800 4.65900 36.55800
H  32.33300 5.52700 35.53300
H  32.97100 4.55300 36.83100
Mg 41.51200 8.28600 28.96600
C  43.27400 9.75700 31.51100
C  39.24700 6.95700 31.11600
C  39.70400 6.87400 26.27200
C  43.92000 9.37100 26.71000
N  41.33000 8.36700 31.04200
C  42.17200 8.95800 31.95600
C  41.65900 8.90500 33.35300
C  40.38000 8.03800 33.17400
C  40.27700 7.80600 31.71400
C  40.44600 6.73000 33.94400
C  41.44700 10.19600 34.29700
C  41.10700 9.95900 35.75500
H  41.50800 11.07800 36.70500
N  39.65400 7.12500 28.71900
C  38.93100 6.69600 29.73900
C  37.86500 5.91600 29.29200
C  37.88800 5.92800 27.88700
C  39.07100 6.67800 27.57100
C  36.72500 5.34800 30.22300
C  36.96100 5.27800 26.96600
O  37.26700 5.12700 25.78700
C  35.56600 4.76500 27.38100
N  41.82300 7.94500 26.80300
C  40.85900 7.50200 25.92400
C  41.35100 7.64900 24.44100
C  42.49200 8.76200 24.64800
C  42.85500 8.57400 26.14700
C  41.89100 6.34300 23.85300
C  42.03400 10.18800 24.34500
C  40.56900 10.57400 24.52800
N  43.32100 9.23500 29.08000
C  44.19800 9.62800 28.10500
C  45.26200 10.41900 28.63800
C  44.92300 10.58800 30.02700
C  43.76400 9.85500 30.19800
C  46.36800 11.06300 27.87200
C  45.31500 11.08900 31.28200
O  46.17000 11.87200 31.55500
C  44.22600 10.50100 32.33000
C  44.82400 9.62500 33.32900
O  45.33000 8.49100 33.19900
O  44.62600 10.17200 34.61200
C  45.05600 9.31000 35.68700
H  38.52400 6.61300 31.85900
H  39.09800 6.58800 25.41000
H  44.53100 9.81800 25.92300
H  42.39500 8.30600 33.89000
H  39.47000 8.53000 33.51700
H  39.46500 6.54600 34.38300
H  41.25400 6.82400 34.67000
H  40.65100 5.94900 33.21100
H  40.54300 10.67600 33.92000
H  42.29000 10.88600 34.27000
H  41.60500 9.02600 36.01900
H  40.01800 9.92600 35.72500
H  35.79100 5.85400 29.97800
H  37.00700 5.35300 31.27600
H  36.70800 4.30000 29.92400
H  34.97100 5.49600 27.92900
H  35.87400 3.93600 28.01900
H  35.06100 4.35000 26.50900
H  40.60800 8.04500 23.74900
H  43.26800 8.51500 23.92300
H  42.97500 6.31600 23.74300
H  41.37800 6.33300 22.89200
H  41.53900 5.63600 24.60500
H  42.28500 10.28900 23.28900
H  42.60100 10.95000 24.88100
H  40.41400 11.56400 24.95600
H  39.97400 9.95600 25.20100
H  40.02500 10.66100 23.58700
H  46.11200 11.27600 26.83400
H  47.18400 10.34600 27.95700
H  46.65300 11.93500 28.46100
H  43.62800 11.28700 32.79100
H  44.77900 9.93900 36.53200
H  46.14300 9.22700 35.72800
H  44.51300 8.37400 35.55900

