158

Mg 2.39100 -2.24600 43.92000
C  5.83200 -1.71200 43.71700
C  1.93700 0.35900 41.89500
C  -0.82600 -2.92800 44.01000
C  3.04900 -5.46800 45.33000
N  3.76000 -0.95800 42.69400
C  5.11100 -0.84100 42.91400
C  5.62200 0.32300 42.03100
C  4.30400 1.10600 41.64900
C  3.25300 0.07800 42.06900
C  4.21700 2.42800 42.41100
C  6.33100 -0.31400 40.72500
C  7.67800 0.40400 40.35200
H  8.13000 0.48500 38.85500
N  0.69000 -1.41800 43.05300
C  0.75800 -0.24500 42.35200
C  -0.62800 0.12000 42.11700
C  -1.50000 -0.82000 42.74100
C  -0.59000 -1.76200 43.28900
C  -1.02400 1.43000 41.45800
C  -3.03900 -0.77300 42.80200
O  -3.67700 0.07200 42.11200
C  -3.96700 -1.76400 43.50500
N  1.25000 -3.99400 44.55600
C  -0.09000 -3.98500 44.51000
C  -0.65500 -5.34400 44.93400
C  0.61100 -6.25400 45.36100
C  1.77100 -5.17300 45.05700
C  -1.78800 -5.36500 45.91300
C  0.88100 -7.67800 44.67500
C  1.52100 -8.81100 45.59700
N  4.09600 -3.41900 44.46400
C  4.21800 -4.59000 45.14700
C  5.65000 -4.79500 45.45100
C  6.36900 -3.63800 45.01300
C  5.34700 -2.88000 44.35300
C  6.24400 -5.92200 46.21000
C  7.63000 -2.95600 44.98400
O  8.71400 -3.15200 45.50700
C  7.37800 -1.68400 44.13600
C  7.64500 -0.49500 45.04300
O  7.22200 -0.25200 46.15200
O  8.34700 0.40600 44.23800
C  8.48900 1.75400 44.74100
H  1.70600 1.20300 41.24200
H  -1.89800 -3.13500 43.99600
H  3.38200 -6.40700 45.77700
H  6.37900 0.81500 42.64200
H  4.11600 1.35100 40.60400
H  3.32500 3.03900 42.26700
H  5.09700 3.03000 42.18300
H  4.31900 2.18000 43.46700
H  5.63100 -0.19800 39.89800
H  6.48900 -1.38500 40.84800
H  8.46200 -0.07900 40.93500
H  7.59600 1.40300 40.77800
H  -1.62100 2.06100 42.11600
H  -1.59500 1.28100 40.54100
H  -0.14600 2.00600 41.16600
H  -4.00100 -2.73000 43.00200
H  -4.93200 -1.27300 43.63400
H  -3.44300 -1.87300 44.45500
H  -1.10300 -5.63500 43.98500
H  0.48600 -6.42400 46.43100
H  -1.79900 -4.54900 46.63500
H  -1.90500 -6.39300 46.25600
H  -2.67100 -5.10300 45.33000
H  1.52300 -7.44000 43.82600
H  -0.03900 -8.10900 44.27900
H  2.28300 -9.34600 45.03000
H  0.76700 -9.56500 45.81900
H  1.99400 -8.48700 46.52400
H  6.50200 -6.69400 45.48400
H  5.48500 -6.31000 46.89000
H  7.13800 -5.61800 46.75500
H  8.01800 -1.73000 43.25400
H  8.40800 1.83400 45.82500
H  7.78800 2.49400 44.35500
H  9.44100 2.13000 44.36800
Mg 47.40000 25.75500 29.18800
C  48.24100 28.04600 31.67500
C  46.12000 23.77000 31.67400
C  46.85300 23.48100 26.85500
C  49.06300 27.65300 26.78500
N  47.01800 26.09200 31.40100
C  47.45400 27.08400 32.21400
C  47.13300 26.92100 33.69900
C  46.81500 25.35900 33.67500
C  46.57900 25.07700 32.16100
C  47.67400 24.40300 34.52800
C  45.91600 27.77300 34.25000
C  46.21400 28.50400 35.47700
H  45.35300 28.19100 36.76300
N  46.49200 23.91600 29.22600
C  46.05900 23.32300 30.31100
C  45.47200 22.06700 29.91900
C  45.58000 21.96600 28.50800
C  46.33100 23.12900 28.12800
C  44.80700 21.16200 30.92700
C  45.08000 20.94200 27.53200
O  45.24900 20.95100 26.30200
C  44.34700 19.85800 28.13500
N  47.98100 25.54500 27.12800
C  47.63400 24.48700 26.43300
C  48.08700 24.53800 25.00100
C  48.41800 26.04400 24.85500
C  48.47800 26.45500 26.33000
C  49.21000 23.51500 24.63200
C  47.26100 26.82500 24.14700
C  47.72300 28.33800 23.88200
N  48.60200 27.45400 29.22000
C  49.24300 28.07500 28.20000
C  49.81800 29.29200 28.69900
C  49.47000 29.32200 30.06400
C  48.71000 28.16000 30.32600
C  50.56000 30.27300 27.89900
C  49.65600 30.01300 31.30700
O  50.20300 31.05700 31.45200
C  48.79700 29.25700 32.35400
C  49.61600 29.05600 33.58000
O  50.31800 28.07800 33.74800
O  49.47500 30.10300 34.46200
C  50.09400 29.93300 35.75300
H  45.95500 22.98100 32.41000
H  46.53000 22.89900 25.98900
H  49.37800 28.27600 25.94500
H  47.96700 27.02500 34.39300
H  45.84500 25.16700 34.13200
H  48.05400 23.63100 33.85800
H  47.04600 23.84800 35.22600
H  48.41200 24.89500 35.16200
H  45.06000 27.15600 34.52300
H  45.51600 28.47200 33.51500
H  46.07800 29.51400 35.09100
H  47.26400 28.38800 35.74700
H  43.89300 20.74600 30.50400
H  44.51400 21.49300 31.92300
H  45.36000 20.22600 31.01200
H  44.98200 19.55300 28.96700
H  44.19900 19.08000 27.38600
H  43.36500 20.20000 28.46300
H  47.30100 24.44100 24.25200
H  49.43200 26.20800 24.49000
H  49.22600 22.96900 25.57600
H  50.20200 23.94800 24.51000
H  48.98000 22.86900 23.78500
H  46.45200 26.88600 24.87600
H  46.89800 26.49000 23.17500
H  47.37700 28.86200 24.77300
H  47.15400 28.84800 23.10500
H  48.78100 28.31500 23.62100
H  51.43200 29.75400 27.50000
H  50.89800 31.03300 28.60300
H  49.95300 30.64000 27.07200
H  47.94700 29.91700 32.53100
H  51.16600 29.90000 35.55800
H  49.90000 28.99300 36.27000
H  50.02300 30.82500 36.37500

