158

Mg 35.20800 1.44400 29.70000
C  32.67900 2.30600 32.00600
C  37.59600 1.65900 32.14700
C  37.40600 0.81700 27.25100
C  32.56300 1.39100 27.12800
N  35.10900 2.05700 31.77300
C  34.03100 2.31600 32.55900
C  34.41600 2.50700 34.03500
C  36.00800 2.52800 34.03700
C  36.31500 2.02900 32.60900
C  36.74000 3.85300 34.28800
C  33.88500 1.26600 34.91200
C  33.36700 1.60500 36.36800
H  34.09100 2.67500 37.23300
N  37.26200 1.20000 29.75300
C  38.06300 1.25500 30.86700
C  39.40400 1.13100 30.42300
C  39.40800 1.05300 28.92500
C  38.00500 1.08800 28.59000
C  40.57200 1.05900 31.30400
C  40.58500 1.03700 27.95000
O  40.53700 1.13700 26.75000
C  41.99500 0.90200 28.41200
N  34.97400 1.34200 27.48200
C  36.09900 1.00800 26.78600
C  35.70100 0.83400 25.27000
C  34.15900 0.58300 25.35100
C  33.82300 1.15100 26.75300
C  36.10400 2.12200 24.52500
C  33.74100 -0.88300 25.16600
C  32.88500 -1.15200 23.88400
N  33.03900 1.70700 29.52800
C  32.17700 1.72300 28.47300
C  30.87000 2.18200 28.94600
C  31.09200 2.42400 30.31600
C  32.34100 2.09900 30.63500
C  29.65500 2.37200 28.11000
C  30.40000 2.85000 31.51300
O  29.19100 3.07900 31.75800
C  31.42700 2.72500 32.71300
C  31.48000 4.07300 33.45100
O  31.95800 5.12100 32.98700
O  31.02400 3.84800 34.73700
C  30.77600 4.98900 35.63000
H  38.46900 1.83300 32.78100
H  38.19700 0.61700 26.52500
H  31.81600 1.22100 26.35000
H  33.95800 3.43500 34.37600
H  36.38300 1.73200 34.68100
H  37.16100 4.24200 33.36100
H  37.59800 3.65900 34.93200
H  36.13600 4.65800 34.70700
H  34.71200 0.57700 35.08300
H  33.15200 0.61500 34.43500
H  33.43100 0.71800 36.99800
H  32.35300 2.00600 36.37700
H  41.46900 0.54600 30.95600
H  40.27900 0.67000 32.27900
H  40.89700 2.08800 31.45700
H  42.18200 -0.09800 28.80200
H  42.13200 1.74200 29.09300
H  42.63100 0.90900 27.52700
H  36.20300 -0.05000 24.87600
H  33.67100 1.21200 24.60700
H  36.70600 2.81600 25.11200
H  35.27700 2.73900 24.17300
H  36.70700 1.72700 23.70700
H  33.19300 -1.19400 26.05500
H  34.66400 -1.46300 25.15400
H  33.04600 -0.43500 23.08000
H  31.82800 -1.24800 24.13500
H  33.20300 -2.14700 23.57300
H  29.75400 1.99900 27.09100
H  29.18800 3.35500 28.05500
H  28.91200 1.67000 28.48900
H  31.02500 1.92200 33.33000
H  30.56100 4.73200 36.66700
H  30.03200 5.64400 35.17600
H  31.70800 5.54300 35.74300
Mg 47.31500 24.47700 28.45000
C  48.10600 26.84800 31.01200
C  46.39800 22.34600 31.06500
C  47.11400 22.10000 26.23500
C  48.51300 26.74000 26.12100
N  47.29900 24.63600 30.75100
C  47.48100 25.68300 31.58700
C  47.12100 25.47800 33.11300
C  46.69600 23.99400 33.00900
C  46.77500 23.62500 31.48100
C  47.70500 23.09900 33.88300
C  46.10300 26.48900 33.64600
C  46.46900 27.18000 34.98100
H  45.34100 27.43800 36.05600
N  46.77300 22.49400 28.58600
C  46.40200 21.84300 29.74300
C  45.89600 20.57000 29.35400
C  46.14400 20.38500 27.99500
C  46.70200 21.66900 27.55200
C  45.23800 19.55300 30.32600
C  45.85100 19.16500 27.12700
O  46.11000 19.09400 25.93200
C  45.16700 17.98000 27.68800
N  47.76500 24.40300 26.42000
C  47.58500 23.28100 25.71100
C  47.72600 23.60800 24.21700
C  48.03600 25.13200 24.28300
C  48.14800 25.44300 25.68300
C  48.89200 22.77500 23.63700
C  47.00100 25.99300 23.55400
C  45.49500 25.70500 23.76700
N  48.09500 26.40800 28.48000
C  48.53300 27.20000 27.41600
C  48.92200 28.43700 27.92400
C  48.76700 28.41600 29.35900
C  48.29700 27.07600 29.62600
C  49.46100 29.52500 27.00800
C  48.94200 29.06900 30.59700
O  49.33200 30.22000 30.80800
C  48.52600 28.09100 31.72600
C  49.70300 27.86600 32.69300
O  50.64400 27.11800 32.39600
O  49.49900 28.45400 33.95600
C  50.68000 28.58700 34.82700
H  46.07200 21.60100 31.79400
H  47.05600 21.29400 25.50100
H  48.66700 27.46000 25.31500
H  48.04000 25.51500 33.69800
H  45.68000 23.86900 33.38400
H  47.93900 23.64500 34.79700
H  48.64300 22.99100 33.33900
H  47.24000 22.13700 34.09800
H  45.11900 26.02800 33.73200
H  45.97500 27.30600 32.93700
H  46.90600 28.13300 34.68000
H  47.28300 26.69700 35.52200
H  44.93700 20.05600 31.24500
H  45.87700 18.72200 30.62500
H  44.27600 19.11200 30.06300
H  45.61100 17.64700 28.62600
H  45.13700 17.17400 26.95500
H  44.10700 18.19500 27.81700
H  46.85100 23.23600 23.68400
H  48.98200 25.26000 23.75700
H  48.32100 22.03600 23.07400
H  49.63900 22.39600 24.33500
H  49.49100 23.35600 22.93700
H  47.33000 25.75900 22.54200
H  47.07000 27.06500 23.74000
H  44.97700 25.23900 22.92900
H  44.93100 26.62100 23.94600
H  45.51000 25.10700 24.67800
H  49.34200 30.48500 27.51200
H  48.90400 29.56000 26.07200
H  50.49500 29.28700 26.76000
H  47.82200 28.66700 32.32600
H  50.64700 27.71800 35.48500
H  50.88600 29.46200 35.44300
H  51.52900 28.39600 34.17100

