158

Mg 16.56300 -1.91200 28.41600
C  15.38600 0.09700 31.12000
C  18.92700 -3.27100 30.67800
C  17.99600 -3.45900 25.86800
C  14.47200 -0.18600 26.30900
N  17.12200 -1.52800 30.63000
C  16.36600 -0.83400 31.47800
C  16.76200 -1.15500 32.91700
C  18.09500 -1.98100 32.84600
C  18.04500 -2.29700 31.30200
C  19.39500 -1.22600 33.25000
C  15.58800 -1.83900 33.67800
C  15.60200 -1.68300 35.19800
H  16.85200 -1.36200 35.99900
N  18.09800 -3.29300 28.33700
C  18.93600 -3.71700 29.31400
C  19.73500 -4.84000 28.76700
C  19.50100 -4.90300 27.39700
C  18.44700 -3.91200 27.11900
C  20.75200 -5.55700 29.56700
C  20.13900 -5.91200 26.31300
O  19.83000 -5.78000 25.17100
C  21.10700 -6.98000 26.69000
N  16.37800 -1.69100 26.44100
C  17.04500 -2.49300 25.51500
C  16.63000 -2.23700 24.03500
C  15.42500 -1.41100 24.31100
C  15.39000 -1.11400 25.81200
C  17.77200 -1.63700 23.17800
C  14.04300 -1.87900 23.71100
C  13.09800 -0.89800 22.94900
N  15.19900 -0.27700 28.59400
C  14.33000 0.17800 27.68800
C  13.44500 1.16000 28.26900
C  13.82800 1.17500 29.67500
C  14.96900 0.31400 29.77100
C  12.36800 1.92500 27.54400
C  13.49400 1.68500 30.99100
O  12.59200 2.43700 31.34600
C  14.54800 1.05900 31.97600
C  15.33200 2.09400 32.75100
O  16.06200 3.00500 32.24300
O  15.16500 2.05900 34.16000
C  15.91900 2.99700 35.07200
H  19.71800 -3.66800 31.31700
H  18.34300 -3.98400 24.97500
H  13.80400 0.28000 25.58100
H  16.93900 -0.19600 33.40400
H  17.92500 -2.93700 33.34100
H  20.06400 -1.53500 32.44700
H  19.55700 -1.70300 34.21600
H  19.33200 -0.14000 33.18500
H  15.73100 -2.89000 33.42600
H  14.72100 -1.56300 33.07900
H  15.21300 -2.57400 35.69100
H  14.89800 -0.87600 35.39800
H  20.89900 -5.18500 30.58100
H  21.76700 -5.58300 29.17100
H  20.32300 -6.53600 29.78000
H  21.26400 -7.61800 25.82100
H  20.60900 -7.66500 27.37600
H  22.06600 -6.55200 26.98300
H  16.39500 -3.23400 23.66100
H  15.59300 -0.39700 23.94700
H  17.71000 -0.55000 23.22800
H  17.60100 -1.84800 22.12300
H  18.78300 -1.89000 23.49900
H  13.50700 -2.21800 24.59800
H  14.26200 -2.70100 23.02900
H  12.04900 -0.91200 23.24400
H  13.09500 -1.15500 21.89000
H  13.56500 0.07800 23.08000
H  12.02600 1.40900 26.64700
H  12.73300 2.88800 27.18900
H  11.60100 2.01800 28.31300
H  14.02200 0.53400 32.77400
H  16.35300 2.42300 35.89000
H  15.16200 3.71600 35.38700
H  16.74600 3.53600 34.61100
Mg 27.04200 51.64300 26.03200
C  24.70400 52.76100 28.68000
C  29.14900 50.65800 28.52800
C  29.03500 50.85300 23.67300
C  24.58600 53.00600 23.74500
N  26.91400 51.76700 28.39900
C  25.82500 52.02300 29.19000
C  26.14200 51.56300 30.59900
C  27.70000 51.30000 30.56000
C  27.94600 51.21600 29.05900
C  28.63300 52.32500 31.13200
C  25.23400 50.31600 31.11100
C  24.67400 50.48000 32.49300
H  25.24900 51.38200 33.59600
N  28.86000 50.84200 26.10500
C  29.59500 50.51900 27.21200
C  30.91500 49.90900 26.75700
C  30.87400 49.93300 25.30000
C  29.59400 50.57100 24.94700
C  31.94700 49.38100 27.74300
C  31.91700 49.55500 24.26800
O  31.69200 49.70900 23.06900
C  33.18400 48.92900 24.75800
N  26.79300 51.83100 24.01800
C  27.80300 51.34700 23.24300
C  27.46200 51.48000 21.79000
C  25.98300 52.09000 21.82600
C  25.78400 52.35000 23.29400
C  28.48200 52.44200 21.10200
C  24.81000 51.28200 21.22100
C  24.37400 50.07800 22.02500
N  25.11000 52.72800 26.09000
C  24.28600 53.13600 25.07900
C  23.07700 53.75600 25.69700
C  23.25300 53.67200 27.07600
C  24.46600 52.97600 27.27700
C  21.96000 54.39500 24.88200
C  22.73500 54.00700 28.38500
O  21.77400 54.69900 28.74500
C  23.56300 53.21900 29.48300
C  23.89500 54.23700 30.53200
O  24.82400 55.04400 30.60100
O  22.92500 54.27400 31.45500
C  23.24400 55.06500 32.65300
H  29.86700 50.23100 29.23200
H  29.59800 50.58500 22.77700
H  23.84800 53.38400 23.03400
H  25.97800 52.44800 31.21400
H  27.90300 50.32100 30.99500
H  29.06000 52.81400 30.25700
H  29.46700 51.94300 31.72200
H  28.10500 53.00800 31.79800
H  25.86100 49.44200 30.93200
H  24.42300 50.23300 30.38700
H  24.50600 49.51700 32.97400
H  23.73800 51.00500 32.29700
H  32.50000 50.24100 28.11900
H  32.60600 48.56900 27.43400
H  31.50400 48.91800 28.62500
H  33.68200 48.52400 23.87800
H  33.04000 48.12200 25.47600
H  33.84600 49.68000 25.18900
H  27.44500 50.47200 21.37500
H  26.08300 53.09000 21.40600
H  29.17100 52.80900 21.86300
H  27.98100 53.30800 20.66900
H  29.03400 51.86400 20.36100
H  25.11700 50.98400 20.21900
H  23.93600 51.92500 21.11500
H  25.02800 49.25400 21.74000
H  23.32400 49.95700 21.76000
H  24.40800 50.10400 23.11500
H  22.20700 54.64100 23.84900
H  21.62000 55.36600 25.24400
H  21.11200 53.72100 24.75700
H  22.97300 52.40500 29.90400
H  22.42400 54.96100 33.36300
H  23.34200 56.09800 32.31900
H  24.12500 54.70800 33.18600

