158

Mg 1.04700 7.87100 26.14400
C  1.77500 9.77900 28.88700
C  1.34000 5.02300 28.12800
C  0.44100 5.94200 23.37900
C  1.53300 10.61800 23.96400
N  1.39600 7.53000 28.25500
C  1.61400 8.41800 29.24400
C  1.75800 7.79900 30.62400
C  2.02200 6.30400 30.26700
C  1.57900 6.27700 28.78200
C  3.38300 5.63500 30.68200
C  0.44200 8.06800 31.42700
C  0.61000 8.18200 32.91900
H  1.68300 7.40800 33.65500
N  0.75200 5.78300 25.82800
C  0.91600 4.79500 26.76600
C  0.52600 3.55800 26.17300
C  0.25900 3.76800 24.74000
C  0.49200 5.23300 24.63300
C  0.46800 2.27200 27.00800
C  -0.16800 2.73800 23.65200
O  -0.50900 3.12600 22.54800
C  -0.21600 1.29000 23.91400
N  0.92100 8.23600 23.94600
C  0.65900 7.25700 23.02500
C  0.59300 7.87000 21.61800
C  0.63100 9.37200 21.89800
C  1.00000 9.48600 23.37600
C  1.79500 7.45900 20.70400
C  -0.68300 10.13300 21.57800
C  -1.03700 10.47000 20.15400
N  1.57300 9.79400 26.34000
C  1.80200 10.78300 25.30300
C  1.89700 12.04600 26.09900
C  1.96300 11.76400 27.43500
C  1.77100 10.34800 27.58900
C  1.96300 13.47000 25.57400
C  2.11300 12.30400 28.77100
O  2.25100 13.44200 29.21000
C  1.98300 11.02500 29.76500
C  3.10900 10.92200 30.82500
O  4.22900 10.42500 30.78500
O  2.62200 11.57200 31.92300
C  3.46800 11.57200 33.12500
H  1.32900 4.15700 28.79400
H  0.13800 5.39700 22.48200
H  1.52500 11.49100 23.30900
H  2.61700 8.28800 31.08200
H  1.30600 5.78100 30.90100
H  4.09700 5.47000 29.87600
H  3.10300 4.69900 31.16600
H  3.91900 6.26000 31.39600
H  -0.30100 7.37800 31.02700
H  0.02400 9.02900 31.12700
H  -0.37000 8.10600 33.39100
H  0.78400 9.23500 33.14000
H  -0.02500 1.44400 26.49900
H  -0.20400 2.40500 27.85600
H  1.39900 2.00100 27.50600
H  -0.98300 1.09800 24.66400
H  0.69700 0.87600 24.34300
H  -0.52400 0.75900 23.01300
H  -0.35900 7.55000 21.19600
H  1.43700 9.93700 21.42900
H  2.19100 6.49700 21.02800
H  2.61700 8.17100 20.78300
H  1.50200 7.55700 19.65900
H  -0.65100 11.02800 22.20000
H  -1.53300 9.61000 22.01500
H  -0.14500 10.20900 19.58500
H  -1.12600 11.55000 20.03300
H  -1.87400 9.89500 19.75800
H  1.55500 14.12700 26.34200
H  1.31100 13.39300 24.70400
H  2.97000 13.71600 25.23500
H  1.03200 11.27400 30.23600
H  4.45400 12.01700 32.99300
H  3.55600 10.53400 33.44400
H  2.90900 12.19700 33.82100
Mg 8.77500 2.71700 27.42500
C  10.18300 1.34100 30.26600
C  7.24900 5.01000 29.65600
C  7.01700 3.99200 24.85800
C  9.68900 0.07200 25.54300
N  8.65500 3.12400 29.74500
C  9.34600 2.40400 30.65200
C  9.11700 2.85900 32.08400
C  7.99800 4.04500 31.88200
C  7.83400 4.01800 30.35400
C  6.68500 3.87800 32.68600
C  10.46200 3.23600 32.82700
C  10.63200 2.77300 34.28000
H  10.79100 3.84700 35.29600
N  7.45400 4.36800 27.25700
C  7.03400 5.18100 28.28700
C  6.16900 6.22900 27.72900
C  5.96600 5.86000 26.40100
C  6.82400 4.74400 26.12200
C  5.62200 7.40900 28.46000
C  5.07800 6.47200 25.30000
O  4.89600 6.01500 24.14000
C  4.32700 7.70300 25.66700
N  8.34500 2.13200 25.45600
C  7.70700 2.85900 24.56900
C  7.79000 2.22700 23.15400
C  8.57200 0.93500 23.45700
C  8.87500 1.03500 24.95100
C  6.32100 1.96700 22.62100
C  9.96000 0.86300 22.59700
C  11.23700 1.53600 23.16700
N  9.84600 1.12500 27.75600
C  10.16100 0.07300 26.85300
C  10.97400 -0.88700 27.58500
C  10.95900 -0.47000 28.88400
C  10.29500 0.77100 28.98100
C  11.73100 -2.11400 26.96700
C  11.42800 -0.74000 30.26000
O  11.96700 -1.70300 30.73700
C  10.93500 0.42600 31.20700
C  10.13100 -0.17200 32.34500
O  8.92900 -0.47200 32.27900
O  10.91300 -0.31800 33.47500
C  10.19800 -0.63700 34.72700
H  6.85800 5.78900 30.31500
H  6.64600 4.41600 23.92200
H  10.04200 -0.84300 25.06100
H  8.79300 1.99500 32.66400
H  8.44400 5.02300 32.06600
H  6.90000 3.56700 33.70900
H  5.98200 3.25400 32.13300
H  6.21500 4.86100 32.65200
H  10.56900 4.31900 32.88700
H  11.32400 2.97300 32.21400
H  11.58400 2.24800 34.35900
H  9.71400 2.23500 34.51700
H  5.98800 8.27100 27.90300
H  5.92200 7.45100 29.50700
H  4.53300 7.36700 28.43300
H  3.85800 8.04000 24.74300
H  4.99500 8.48300 26.03400
H  3.55500 7.36200 26.35600
H  8.33500 2.99800 22.61000
H  7.98800 0.01500 23.44100
H  5.51300 2.48100 23.14200
H  5.97700 0.93700 22.71800
H  6.19400 2.22200 21.56900
H  9.81100 1.23800 21.58500
H  10.20800 -0.19800 22.57800
H  11.02800 2.08500 24.08600
H  11.74100 2.09200 22.37600
H  11.95000 0.77600 23.48400
H  11.65200 -2.21600 25.88400
H  11.45700 -3.02400 27.50200
H  12.80700 -1.99700 27.10000
H  11.90400 0.76700 31.57200
H  9.29900 -0.02200 34.77700
H  10.90200 -0.35700 35.51000
H  9.96600 -1.69300 34.86800

