158

Mg 42.76400 41.37500 26.36300
C  41.83000 43.55600 29.10700
C  44.07000 39.22800 28.94000
C  43.71700 39.29400 24.07500
C  42.01600 43.78600 24.09800
N  42.90900 41.33400 28.80800
C  42.43800 42.38000 29.61900
C  42.50000 41.81800 31.12600
C  43.54000 40.62500 30.97700
C  43.54900 40.44000 29.52900
C  44.98900 40.86200 31.47000
C  41.03700 41.57800 31.76300
C  40.71800 41.41900 33.33500
H  41.82900 41.32000 34.31700
N  43.65200 39.46600 26.45900
C  44.15500 38.79300 27.56700
C  44.64000 37.53400 27.07700
C  44.44400 37.46000 25.63700
C  43.99100 38.76900 25.31300
C  45.18400 36.45800 28.01200
C  44.52800 36.33400 24.65000
O  44.37700 36.48600 23.43900
C  44.88200 34.91500 25.16300
N  42.81700 41.52300 24.37700
C  43.30900 40.57400 23.60900
C  43.31200 40.97400 22.10800
C  42.57200 42.30900 22.08500
C  42.40400 42.56200 23.64000
C  44.66900 41.12800 21.35900
C  41.27300 42.29900 21.40000
C  40.26600 41.17500 21.62500
N  41.99000 43.24000 26.47000
C  41.72900 44.18700 25.45700
C  41.30300 45.37900 26.04600
C  41.32000 45.19500 27.44500
C  41.70200 43.81900 27.65700
C  40.98900 46.64100 25.25800
C  41.11700 45.88900 28.71100
O  40.77500 47.05100 28.95700
C  41.23600 44.76400 29.87400
C  42.02400 45.34300 30.90300
O  43.05800 45.91700 30.68400
O  41.54000 44.92200 32.12700
C  42.58900 45.05500 33.13600
H  44.54700 38.62100 29.71100
H  43.97800 38.71600 23.18600
H  41.79300 44.58500 23.38700
H  42.93800 42.60100 31.74500
H  43.18600 39.63900 31.27700
H  45.26600 41.89500 31.68100
H  45.69500 40.47700 30.73500
H  45.08000 40.22900 32.35300
H  40.75500 40.64500 31.27500
H  40.44200 42.35300 31.27900
H  40.32300 40.42200 33.53000
H  39.93400 42.14500 33.55200
H  45.36600 36.81900 29.02500
H  46.15600 36.10900 27.66500
H  44.56800 35.56100 27.94000
H  44.01200 34.51600 25.68500
H  45.74300 34.89200 25.83100
H  45.14800 34.22700 24.36100
H  42.73100 40.22900 21.56400
H  43.14300 43.04800 21.52200
H  44.82600 42.08900 20.86900
H  44.59700 40.40000 20.55100
H  45.55000 40.96700 21.98000
H  41.52500 42.36700 20.34200
H  40.77000 43.24500 21.60000
H  40.67300 40.37500 22.24200
H  39.98400 40.63300 20.72300
H  39.41100 41.63100 22.12500
H  40.50400 46.43300 24.30400
H  41.95200 47.15100 25.29700
H  40.30700 47.22400 25.87700
H  40.23900 44.49300 30.22000
H  42.89800 46.10000 33.15600
H  43.43700 44.39600 32.94800
H  42.18000 44.88200 34.13100
Mg 36.78000 49.16000 25.28100
C  37.02200 47.09000 28.21800
C  35.47900 51.57600 27.27000
C  36.41200 50.90500 22.51200
C  37.79100 46.34100 23.51800
N  36.40700 49.31300 27.48700
C  36.53700 48.38300 28.49800
C  36.36400 49.03000 29.84800
C  35.73900 50.43600 29.45100
C  35.86900 50.46000 27.94200
C  34.29300 50.69600 29.96800
C  37.69700 49.14100 30.61900
C  37.59700 48.44600 32.05300
H  36.29200 48.60700 32.82000
N  36.04700 51.00800 24.94900
C  35.57200 51.89600 25.90200
C  35.18100 53.15300 25.22500
C  35.38300 52.90700 23.77700
C  35.89600 51.58800 23.68600
C  34.50900 54.27900 26.00700
C  35.06100 53.76700 22.62100
O  35.19400 53.45400 21.42700
C  34.72900 55.22800 22.85900
N  37.08800 48.73300 23.31100
C  36.85100 49.59800 22.31000
C  37.09200 48.88600 20.95400
C  37.70000 47.50400 21.28600
C  37.60200 47.56600 22.83100
C  35.75000 48.76500 20.15600
C  39.18900 47.40800 20.83500
C  40.27900 48.34100 21.32800
N  37.29200 47.10700 25.71500
C  37.68000 46.06900 24.89100
C  37.92900 44.84000 25.59000
C  37.61800 45.25500 26.89200
C  37.28600 46.64800 26.93200
C  38.44100 43.46900 25.18300
C  37.63900 44.74800 28.26200
O  37.94100 43.69300 28.68100
C  37.25400 45.91400 29.19300
C  36.00100 45.59600 29.90800
O  34.89600 45.84000 29.53400
O  36.28200 44.98500 31.13300
C  35.14500 44.56000 31.96300
H  35.02400 52.41400 27.80300
H  36.36500 51.39100 21.53500
H  38.04000 45.39500 23.03300
H  35.63000 48.33300 30.25400
H  36.30500 51.28700 29.83100
H  33.87200 49.83400 30.48500
H  33.56400 50.98200 29.20900
H  34.34400 51.61600 30.55100
H  37.99900 50.17000 30.81300
H  38.37800 48.58000 29.97800
H  38.34500 48.92200 32.68600
H  37.81800 47.38000 31.98400
H  34.59200 55.29900 25.63100
H  34.95600 54.41300 26.99200
H  33.52300 53.88000 26.24600
H  35.42700 55.67500 23.56700
H  33.73900 55.32000 23.30600
H  34.72300 55.68900 21.87200
H  37.76200 49.53400 20.39000
H  37.09300 46.66600 20.94300
H  34.99600 49.42900 20.57900
H  35.39500 47.74000 20.04700
H  35.86900 49.22200 19.17400
H  39.10500 47.41400 19.74800
H  39.63800 46.44800 21.08600
H  39.78600 49.23600 21.70600
H  40.97600 48.43000 20.49500
H  40.91700 47.89200 22.09000
H  38.80700 43.50000 24.15600
H  37.48100 42.95800 25.27000
H  39.17900 43.02600 25.85200
H  38.00000 46.05300 29.97600
H  34.18300 45.05200 31.82300
H  35.44200 44.86500 32.96600
H  35.12100 43.47100 31.92400

