158

Mg 0.42600 7.59000 25.81300
C  1.42400 9.63700 28.57700
C  0.31300 4.93900 28.04500
C  0.05700 5.60500 23.16800
C  0.93500 10.33600 23.77400
N  0.90700 7.32100 28.03400
C  1.19000 8.29800 28.94600
C  1.21400 7.83700 30.35200
C  1.14300 6.22400 30.08800
C  0.62800 6.12600 28.65300
C  2.46900 5.42600 30.39200
C  -0.01200 8.45200 31.15300
C  0.29000 9.02200 32.55700
H  1.30200 8.25900 33.40400
N  0.08700 5.51500 25.62900
C  0.04600 4.59200 26.66400
C  -0.29600 3.27900 26.09800
C  -0.33800 3.43800 24.67100
C  -0.01500 4.86500 24.40100
C  -0.36600 2.07900 26.99400
C  -0.49700 2.39100 23.49000
O  -0.46500 2.70200 22.32800
C  -0.76400 0.91800 23.88200
N  0.48500 7.89700 23.79600
C  0.13700 6.97600 22.88200
C  0.05100 7.55900 21.46200
C  0.32600 9.04700 21.69100
C  0.62700 9.14300 23.19000
C  0.94800 6.91700 20.47600
C  -0.73600 10.18000 21.20200
C  -0.22800 11.23900 20.18800
N  1.09800 9.56200 26.01300
C  1.16900 10.60100 25.12200
C  1.51400 11.92200 25.78300
C  1.57900 11.48400 27.12300
C  1.33800 10.13300 27.25800
C  1.67000 13.33800 25.18400
C  1.90400 11.98300 28.42400
O  2.26000 13.14400 28.71200
C  1.76400 10.83000 29.43400
C  2.93800 10.71800 30.34800
O  3.97500 10.13000 30.18300
O  2.63900 11.55000 31.37800
C  3.79100 11.74200 32.33800
H  0.19300 4.13400 28.77400
H  -0.06500 5.06800 22.22500
H  0.94600 11.17300 23.07300
H  2.16000 8.07200 30.84000
H  0.42600 5.91100 30.84800
H  2.72600 4.76900 29.56200
H  2.23900 4.69200 31.16500
H  3.27400 6.06900 30.75000
H  -0.78200 7.68800 31.25400
H  -0.56900 9.11700 30.49300
H  -0.68100 8.91700 33.04200
H  0.62900 10.05700 32.51400
H  -1.37000 1.85400 27.35500
H  0.26900 2.37100 27.83000
H  0.07300 1.26400 26.41800
H  -0.86700 0.37600 22.94200
H  -1.72000 0.90100 24.40500
H  0.12900 0.57200 24.40400
H  -0.93800 7.32800 21.06500
H  1.27800 9.28200 21.21500
H  1.89900 6.56200 20.87400
H  1.32000 7.56900 19.68500
H  0.36500 6.21300 19.88200
H  -1.01800 10.89100 21.97800
H  -1.55400 9.58300 20.79800
H  -0.49000 10.82200 19.21600
H  0.85800 11.17200 20.25500
H  -0.44700 12.26300 20.49200
H  1.54200 13.41500 24.10400
H  2.64600 13.74600 25.44800
H  0.89900 13.98100 25.60800
H  0.89400 11.12700 30.02100
H  4.69400 11.39700 31.83400
H  3.68500 11.12600 33.23100
H  3.91900 12.79400 32.59200
Mg -0.26900 43.42500 26.85700
C  1.71800 43.35700 29.77200
C  -2.95100 42.27700 28.76100
C  -2.17100 43.55600 24.09500
C  2.57600 44.06300 24.90200
N  -0.55600 42.93100 29.04400
C  0.35600 43.00700 30.04100
C  -0.27200 42.76800 31.35600
C  -1.63600 42.05700 30.96800
C  -1.74800 42.47100 29.50600
C  -1.60700 40.50200 31.00000
C  -0.39600 44.10900 32.15700
C  0.17800 44.11800 33.66200
H  -0.20100 42.89300 34.58600
N  -2.31100 43.01200 26.46100
C  -3.16400 42.54200 27.40600
C  -4.46100 42.40600 26.71600
C  -4.30600 42.82100 25.34700
C  -2.90200 43.23100 25.26400
C  -5.72400 41.87400 27.43000
C  -5.28000 42.87000 24.24300
O  -4.99400 43.26900 23.10200
C  -6.64600 42.36900 24.37600
N  0.08700 43.75700 24.75300
C  -0.85600 43.78000 23.83100
C  -0.32300 44.41000 22.46800
C  1.15800 44.50300 22.83300
C  1.29500 44.04200 24.28100
C  -0.53100 43.49900 21.26900
C  1.76000 45.86500 22.39900
C  1.73600 47.02400 23.45700
N  1.74900 43.71900 27.18000
C  2.81700 43.90300 26.29700
C  4.02500 44.03200 27.07600
C  3.65100 43.80500 28.39100
C  2.26700 43.58400 28.43200
C  5.39700 44.37500 26.50900
C  4.12900 43.69300 29.77200
O  5.27200 43.68700 30.21800
C  2.87300 43.51600 30.71100
C  3.23900 42.35300 31.60500
O  2.93300 41.16700 31.39700
O  3.88900 42.77800 32.72200
C  4.37300 41.77800 33.64400
H  -3.68700 41.66300 29.28400
H  -2.80600 43.77100 23.23300
H  3.46400 44.46200 24.40700
H  0.32700 42.06700 31.93800
H  -2.47900 42.37600 31.58100
H  -2.07200 40.11500 31.90700
H  -0.57600 40.15200 30.95100
H  -2.16300 40.09600 30.15500
H  -1.41400 44.49600 32.19900
H  0.08400 44.83200 31.49700
H  -0.15800 45.03100 34.15400
H  1.25800 44.25700 33.61300
H  -6.59600 42.52400 27.35900
H  -5.46500 41.62800 28.46000
H  -5.76100 40.95100 26.85100
H  -6.46600 41.36500 24.75900
H  -7.29300 42.63400 23.54000
H  -7.06000 42.92700 25.21600
H  -0.83800 45.36700 22.38500
H  1.64000 43.73000 22.23500
H  -1.59600 43.49700 21.03900
H  -0.29200 42.46200 21.50600
H  0.01000 43.72100 20.35000
H  1.28400 46.22700 21.48800
H  2.75100 45.60700 22.02400
H  1.38700 47.90700 22.92200
H  2.80200 47.16100 23.64000
H  1.15800 46.81300 24.35700
H  5.90700 43.41100 26.52300
H  5.91400 45.03600 27.20500
H  5.32600 44.83800 25.52500
H  2.70400 44.42900 31.28100
H  3.58900 41.41000 34.30500
H  5.19300 42.20700 34.22100
H  4.82900 40.96200 33.08300

