158

Mg 54.83700 25.16800 44.56900
C  51.85700 27.00500 43.79200
C  53.28700 22.39600 43.70000
C  57.75400 23.77200 44.65800
C  56.27500 28.29400 45.54000
N  52.94300 24.82200 43.46500
C  51.84000 25.65400 43.47200
C  50.54900 24.90600 42.97300
C  50.97900 23.41800 43.33000
C  52.54000 23.51700 43.49600
C  50.26800 22.64300 44.43900
C  50.41800 25.03400 41.46600
C  48.92500 24.92600 41.06000
H  48.55300 24.58500 39.63300
N  55.49000 23.35200 44.04000
C  54.67300 22.28400 43.75800
C  55.53600 21.12900 43.61100
C  56.90800 21.52300 43.76200
C  56.76100 22.94300 44.21600
C  54.93900 19.75400 43.20700
C  58.13900 20.62800 43.51800
O  58.03900 19.40400 43.40800
C  59.51100 21.26500 43.43100
N  56.71700 25.94300 45.08800
C  57.76000 25.09900 45.03100
C  59.03500 25.83200 45.16800
C  58.67800 27.36400 45.44800
C  57.16700 27.21700 45.31300
C  60.08800 25.39000 46.23900
C  59.16500 28.32000 44.39300
C  59.35100 29.75600 44.90900
N  54.23300 27.27300 44.75800
C  54.89300 28.35800 45.27300
C  53.90100 29.37500 45.55800
C  52.74600 28.98900 44.80000
C  52.97000 27.66700 44.41000
C  54.13000 30.51200 46.33600
C  51.37100 29.36000 44.26100
O  50.85600 30.45600 44.35700
C  50.84200 28.15000 43.57700
C  50.61000 28.53200 42.18200
O  51.40700 29.01000 41.43600
O  49.29400 28.31100 41.91500
C  48.85200 28.48600 40.52200
H  52.77700 21.43500 43.60600
H  58.76100 23.35400 44.71700
H  56.74500 29.27000 45.67600
H  49.68800 25.22400 43.56100
H  50.77400 22.97900 42.35400
H  49.65700 23.39400 44.93900
H  50.94600 22.10600 45.10200
H  49.50500 21.94400 44.09600
H  51.03200 24.34300 40.88900
H  50.83600 25.97700 41.11300
H  48.41000 25.88000 41.17900
H  48.39500 24.20000 41.67500
H  54.02400 19.61900 43.78300
H  55.47900 19.00400 43.78500
H  54.95400 19.58300 42.13000
H  59.49800 22.33400 43.21300
H  60.02200 20.75300 42.61500
H  60.01900 21.10800 44.38200
H  59.57300 25.92000 44.22400
H  58.86400 27.74300 46.45300
H  61.06300 25.13800 45.82300
H  59.68400 24.58000 46.84700
H  60.35200 26.15900 46.96500
H  58.60600 28.30100 43.45700
H  60.18500 28.07700 44.09500
H  59.07700 30.50400 44.16600
H  60.39700 29.88800 45.18400
H  58.67100 29.92500 45.74400
H  54.80600 31.22100 45.86000
H  54.59600 30.13300 47.24600
H  53.22300 31.05700 46.59800
H  49.89700 27.92600 44.07400
H  48.55600 29.52800 40.40500
H  48.03400 27.78500 40.35600
H  49.60200 28.14800 39.80700
Mg 0.64900 43.01000 25.34700
C  2.56000 43.08700 28.27400
C  -2.13800 42.81900 27.26600
C  -1.11400 42.72600 22.57000
C  3.58000 43.48200 23.41700
N  0.29900 43.02200 27.52400
C  1.19200 43.01000 28.63000
C  0.56100 42.87600 29.99800
C  -0.95200 42.68500 29.54400
C  -0.93200 42.89700 28.02900
C  -1.53400 41.29100 29.91400
C  0.90200 44.03000 30.94700
C  1.11800 43.72200 32.44100
H  0.75700 42.27900 32.85600
N  -1.34000 42.65300 24.98600
C  -2.33000 42.72600 25.91200
C  -3.58400 42.73800 25.21600
C  -3.43300 42.58800 23.79200
C  -1.92700 42.59700 23.73000
C  -4.91500 42.68800 25.95500
C  -4.41800 42.42000 22.67700
O  -4.09600 42.18300 21.51800
C  -5.87800 42.56400 23.02600
N  1.10000 43.17600 23.26700
C  0.21200 42.96800 22.32400
C  0.74500 43.31500 20.88000
C  2.20300 43.73600 21.22300
C  2.33300 43.46700 22.75300
C  0.71100 42.03700 19.93500
C  2.44900 45.22300 20.85800
C  3.76900 45.51000 20.09400
N  2.65400 43.26400 25.76200
C  3.71600 43.41800 24.84800
C  4.94800 43.54500 25.63500
C  4.57700 43.32800 27.02200
C  3.16300 43.20700 26.96300
C  6.36100 43.63100 25.08100
C  5.08300 43.10600 28.33000
O  6.21000 43.10600 28.77400
C  3.81300 42.94900 29.21400
C  3.88000 41.77000 30.13200
O  3.57600 40.65100 29.76100
O  4.51200 42.01700 31.33300
C  5.03600 40.89000 32.10600
H  -2.96600 42.63700 27.95500
H  -1.72500 42.77600 21.66600
H  4.41800 43.55300 22.72000
H  0.87700 41.90700 30.38700
H  -1.57800 43.45000 30.00400
H  -2.42300 41.40700 30.53300
H  -0.85900 40.78000 30.60000
H  -1.70100 40.64100 29.05500
H  0.12000 44.78300 30.84800
H  1.75500 44.58800 30.56000
H  0.44700 44.36000 33.01500
H  2.15000 44.03100 32.60700
H  -5.43500 43.41000 25.32500
H  -4.94200 43.01900 26.99300
H  -5.31500 41.69300 25.76100
H  -6.20700 41.96200 23.87400
H  -6.46000 42.17700 22.19000
H  -6.24600 43.58900 23.07300
H  0.09600 44.10200 20.49700
H  2.94500 43.04300 20.82600
H  0.30000 41.17600 20.46200
H  1.65700 41.84500 19.42900
H  -0.09000 42.20200 19.21500
H  2.42300 45.85400 21.74600
H  1.75200 45.69800 20.16600
H  4.38500 44.62100 20.23200
H  4.25000 46.39500 20.50900
H  3.56900 45.69700 19.03900
H  6.81100 44.60200 25.28500
H  6.38700 43.39600 24.01700
H  6.91400 42.78900 25.49700
H  3.85100 43.81500 29.87500
H  6.10200 41.03800 32.28200
H  4.82400 39.91700 31.66300
H  4.53400 40.93700 33.07200

