158

Mg 36.38900 2.45600 30.54600
C  34.02800 3.63500 32.71900
C  38.62000 2.24000 33.01700
C  38.78800 1.64800 28.14100
C  34.03100 2.61200 27.84600
N  36.38000 3.09400 32.62700
C  35.25200 3.38800 33.35600
C  35.44400 3.22500 34.83400
C  37.02900 3.05200 34.88800
C  37.39500 2.77700 33.44500
C  37.91700 4.16100 35.59200
C  34.68400 2.00000 35.44900
C  34.12500 2.29100 36.84200
H  34.64000 3.48700 37.64300
N  38.42000 1.95100 30.63200
C  39.14900 1.84500 31.74800
C  40.44100 1.34400 31.42200
C  40.55700 1.17600 30.05200
C  39.22700 1.67200 29.53600
C  41.36600 1.02800 32.59400
C  41.78600 0.65000 29.25900
O  41.81900 0.67300 28.00800
C  43.00400 0.06800 30.04700
N  36.39300 2.26100 28.19300
C  37.51000 1.92800 27.53400
C  37.21700 1.78400 26.07900
C  35.63200 1.98300 25.97800
C  35.27000 2.28900 27.40300
C  38.14600 2.81800 25.23500
C  34.86700 0.87100 25.16900
C  34.72700 -0.46700 25.91800
N  34.42000 2.98400 30.27800
C  33.60000 2.96300 29.20100
C  32.21800 3.24300 29.59900
C  32.44000 3.51300 31.00300
C  33.78600 3.42900 31.32800
C  31.01300 3.23400 28.68500
C  31.70900 3.93100 32.16400
O  30.49200 4.14100 32.25500
C  32.69000 3.98700 33.29400
C  32.72600 5.29700 34.00700
O  33.24300 6.32800 33.54200
O  32.09500 5.14400 35.21900
C  32.19700 6.42600 35.92500
H  39.25900 2.10200 33.89200
H  39.62200 1.36500 27.49600
H  33.29200 2.63400 27.04200
H  35.11700 4.19700 35.20500
H  37.18500 2.08600 35.36800
H  38.90000 4.20400 35.12200
H  38.01100 3.79700 36.61500
H  37.37000 5.10400 35.60100
H  35.24700 1.07400 35.56400
H  33.86100 1.67600 34.81200
H  34.40500 1.41600 37.42900
H  33.06600 2.40300 36.61100
H  41.11800 1.36600 33.60000
H  42.33400 1.38400 32.24000
H  41.23200 -0.05200 32.66500
H  43.39600 1.04900 30.31600
H  43.50900 -0.56400 29.31700
H  42.63800 -0.59400 30.83200
H  37.41600 0.80300 25.64600
H  35.33800 2.90300 25.47200
H  38.99800 2.25100 24.86000
H  38.49900 3.73800 25.70000
H  37.49700 3.15100 24.42500
H  35.33700 0.68400 24.20300
H  33.95400 1.40900 24.91400
H  34.74800 -1.20100 25.11300
H  33.80600 -0.55400 26.49400
H  35.60400 -0.78500 26.48300
H  30.04900 3.15900 29.18900
H  31.13000 2.43800 27.95000
H  31.03300 4.19500 28.17100
H  32.37500 3.26500 34.04700
H  31.72900 7.28200 35.43800
H  33.25400 6.59300 36.13400
H  31.74300 6.25500 36.90100
Mg 40.91900 9.29100 29.73200
C  42.94800 10.75200 32.13000
C  38.85600 8.17100 32.08500
C  39.33900 7.77400 27.18700
C  43.55900 10.01200 27.18700
N  40.88700 9.57200 31.86600
C  41.73600 10.27500 32.64600
C  41.32600 10.32300 34.12900
C  40.06900 9.33900 34.15100
C  39.97000 8.98000 32.59800
C  40.27100 8.11000 34.99600
C  41.19000 11.84100 34.61300
C  40.31500 12.12200 35.90400
H  40.90200 13.00300 37.04200
N  39.29500 8.19500 29.67600
C  38.50700 7.95400 30.72300
C  37.25700 7.25700 30.22100
C  37.37600 7.14100 28.75200
C  38.75900 7.66500 28.43400
C  36.04400 6.90100 31.20000
C  36.44200 6.54900 27.73000
O  36.62600 6.58700 26.53000
C  35.14100 5.95300 28.07000
N  41.45100 9.05000 27.33100
C  40.55000 8.32700 26.65500
C  40.93700 8.40700 25.11500
C  42.32300 9.18300 25.14400
C  42.50700 9.31500 26.62400
C  41.02600 6.97100 24.46400
C  42.43000 10.51400 24.36800
C  41.71800 11.74900 24.94700
N  42.82300 10.17400 29.61900
C  43.73900 10.31800 28.54900
C  44.85800 11.04100 29.05500
C  44.57700 11.26600 30.43700
C  43.39300 10.61600 30.78500
C  46.04300 11.43800 28.17900
C  45.13400 11.83800 31.63200
O  46.19500 12.45400 31.72800
C  44.07200 11.53700 32.80200
C  44.75500 10.92200 33.96500
O  45.16700 9.76700 33.89200
O  44.66800 11.79400 34.92900
C  45.09900 11.38100 36.28900
H  38.15900 7.80700 32.84300
H  38.77600 7.10600 26.53100
H  44.36600 10.27200 26.49900
H  42.10500 9.95600 34.79800
H  39.08900 9.76900 34.36200
H  40.40700 7.20400 34.40400
H  39.31700 8.00800 35.51200
H  41.18100 8.18100 35.59200
H  40.79800 12.27100 33.69200
H  42.16600 12.28200 34.81800
H  39.96200 11.13300 36.19700
H  39.42300 12.65200 35.57100
H  36.26000 7.01700 32.26200
H  35.75500 5.88900 30.91800
H  35.24000 7.57700 30.90700
H  34.52600 6.65200 28.63800
H  35.24300 5.08900 28.72700
H  34.69600 5.63100 27.12900
H  40.26800 9.04100 24.53300
H  43.19100 8.60000 24.83900
H  40.72600 6.16400 25.13100
H  41.97000 6.67600 24.00500
H  40.26800 7.11000 23.69200
H  42.10000 10.27500 23.35800
H  43.51900 10.56500 24.36400
H  41.20000 11.64300 25.90000
H  41.02700 12.02500 24.15100
H  42.36900 12.61700 25.05700
H  46.58700 12.19600 28.74400
H  45.67800 11.96900 27.30000
H  46.70500 10.64200 27.83800
H  43.67700 12.51300 33.08500
H  45.07000 10.29200 36.32000
H  44.25600 11.83700 36.80800
H  46.09400 11.74800 36.54200

