158

Mg 47.00200 17.52400 28.50800
C  45.33800 16.81600 31.55100
C  49.59800 18.83900 30.31600
C  48.29400 18.32500 25.64800
C  44.25800 16.06600 26.82900
N  47.37900 17.91100 30.74200
C  46.56100 17.60000 31.76400
C  47.22300 17.96600 33.05700
C  48.42700 18.86000 32.56300
C  48.44800 18.54600 31.12000
C  48.35400 20.42200 32.78100
C  47.58100 16.77900 34.01400
C  47.27600 16.85000 35.52700
H  46.96700 18.13900 36.18300
N  48.82900 18.43800 28.06300
C  49.84200 18.75700 28.92100
C  50.99600 18.95300 28.14700
C  50.58700 19.02800 26.78700
C  49.17400 18.60200 26.75500
C  52.32600 19.24300 28.77300
C  51.44000 19.37300 25.54900
O  51.02700 19.28300 24.36100
C  52.83200 19.86400 25.73100
N  46.40500 17.20600 26.48000
C  47.10800 17.69500 25.45100
C  46.44600 17.38000 24.09000
C  45.18500 16.54700 24.46600
C  45.28100 16.53700 25.98800
C  46.17200 18.47300 23.06300
C  45.16400 15.09200 23.83100
C  44.69600 14.98400 22.37200
N  45.14600 16.72200 29.01500
C  44.18200 16.02900 28.21700
C  43.12600 15.48000 29.00400
C  43.54700 15.81700 30.31100
C  44.81300 16.48600 30.27200
C  42.02800 14.58100 28.60900
C  43.25800 15.59200 31.77000
O  42.29800 14.95300 32.32300
C  44.37100 16.35400 32.57200
C  43.66900 17.45400 33.33800
O  43.68100 18.64700 33.06600
O  43.16300 16.94600 34.50000
C  42.66400 17.99600 35.45300
H  50.43300 19.25100 30.88600
H  48.76400 18.63600 24.71300
H  43.45800 15.74400 26.15900
H  46.48900 18.58900 33.56800
H  49.29800 18.42000 33.04800
H  47.92300 20.87300 31.88700
H  49.33400 20.75100 33.12700
H  47.63900 20.49900 33.60000
H  48.64500 16.58400 33.87800
H  47.01200 15.93600 33.62200
H  48.14900 16.37100 35.97000
H  46.45100 16.20200 35.82100
H  52.20700 19.11300 29.84900
H  52.58600 20.29200 28.62900
H  53.07400 18.52400 28.43900
H  52.86000 20.77500 26.32800
H  53.13800 20.28700 24.77400
H  53.57200 19.10100 25.97500
H  47.12800 16.71800 23.55900
H  44.24100 16.97000 24.12300
H  46.40100 17.95600 22.13100
H  46.74900 19.38000 23.24400
H  45.09800 18.65700 23.07500
H  44.63100 14.37500 24.45600
H  46.13400 14.64100 24.03800
H  45.45900 14.43400 21.82000
H  44.59900 15.98900 21.96200
H  43.70900 14.55700 22.19500
H  41.92300 13.82200 29.38400
H  42.32300 14.22700 27.62100
H  41.11700 15.17500 28.54100
H  44.83100 15.78700 33.38100
H  42.54200 17.48500 36.40800
H  41.80100 18.58900 35.15200
H  43.45100 18.73200 35.61900
Mg 28.70500 58.64300 41.58800
C  26.01900 56.49700 40.23900
C  30.88200 56.64400 39.80500
C  30.96000 61.08900 42.00800
C  26.17300 60.90800 42.66100
N  28.44400 56.77400 40.12900
C  27.28100 56.07500 39.82700
C  27.63900 54.98400 38.75200
C  29.19500 54.89900 38.77700
C  29.55600 56.21000 39.61000
C  29.74900 53.55200 39.35700
C  26.99500 55.31700 37.40200
C  26.50000 54.13900 36.51900
H  27.30500 53.86600 35.24900
N  30.70500 58.70000 41.15400
C  31.41200 57.81000 40.35000
C  32.80300 58.33500 40.14600
C  32.81200 59.45800 41.05400
C  31.49300 59.83700 41.43800
C  33.90700 57.66300 39.25500
C  34.11400 60.15200 41.43900
O  35.20600 59.60000 41.22100
C  34.14200 61.47100 42.25100
N  28.58200 60.67900 42.24300
C  29.65800 61.50700 42.29900
C  29.37000 62.90200 42.85500
C  27.83300 62.77600 43.20400
C  27.42700 61.40200 42.60800
C  30.15500 63.26200 44.13100
C  27.05000 64.04900 42.66000
C  26.38600 64.99700 43.72300
N  26.56200 58.70000 41.51600
C  25.73200 59.63900 42.06100
C  24.42400 59.17500 41.96700
C  24.43500 57.95600 41.28700
C  25.78700 57.73100 40.95300
C  23.23000 59.94500 42.44900
C  23.64500 56.80900 40.73200
O  22.43000 56.64000 40.76400
C  24.63900 55.91500 40.01200
C  24.46200 54.55500 40.50400
O  24.57800 54.19700 41.66200
O  24.38400 53.77200 39.42600
C  24.04600 52.36000 39.59500
H  31.49500 56.00500 39.16700
H  31.68300 61.84900 42.31200
H  25.43900 61.63200 43.02000
H  27.21200 54.03600 39.08000
H  29.60600 54.98700 37.77100
H  30.09600 52.84300 38.60500
H  28.98200 52.96700 39.86500
H  30.58400 53.81700 40.00400
H  27.67800 55.84600 36.73700
H  26.17100 56.02100 37.51900
H  25.46100 54.30400 36.23500
H  26.67500 53.22400 37.08400
H  34.41400 56.99400 39.95000
H  34.69700 58.35600 38.96400
H  33.42400 57.08700 38.46600
H  33.82400 62.30400 41.62300
H  35.12700 61.61800 42.69500
H  33.46900 61.36800 43.10100
H  29.76600 63.58800 42.10600
H  27.71600 62.51300 44.25500
H  29.55000 63.63500 44.95800
H  30.75800 64.13500 43.88100
H  30.80200 62.41900 44.37200
H  26.23200 63.81100 41.98100
H  27.63400 64.72000 42.02900
H  26.75100 66.01700 43.60400
H  26.66700 64.71900 44.73900
H  25.30300 64.98100 43.60100
H  22.95900 60.76600 41.78400
H  23.56200 60.54500 43.29600
H  22.42400 59.27400 42.74500
H  24.30000 55.88500 38.97600
H  24.19300 52.07200 40.63600
H  24.57300 51.67300 38.93200
H  22.99700 52.29000 39.30800

