158

Mg 45.98100 25.81300 27.78200
C  47.12800 28.11500 30.27600
C  45.32900 23.64700 30.17100
C  45.73300 23.51100 25.35300
C  47.55100 27.91100 25.38200
N  46.11000 25.96100 30.01900
C  46.42100 27.00200 30.77800
C  46.01300 26.75600 32.30400
C  45.52700 25.19300 32.25100
C  45.61100 24.92500 30.73400
C  46.41000 24.14400 33.03600
C  44.85700 27.65600 32.80300
C  45.28500 28.65000 33.89500
H  44.41600 28.77200 35.17100
N  45.39400 23.93100 27.82000
C  45.15400 23.17600 28.86900
C  44.57400 21.90600 28.51400
C  44.70200 21.84200 27.08600
C  45.26900 23.15700 26.67000
C  44.06100 20.86700 29.51500
C  44.18400 20.73800 26.15600
O  44.18400 20.85800 24.94500
C  43.74400 19.39400 26.71500
N  46.55800 25.80100 25.54900
C  46.33200 24.64000 24.80400
C  46.57300 24.99400 23.29200
C  47.10600 26.44700 23.34000
C  47.04200 26.76200 24.81500
C  47.45700 24.09200 22.56100
C  46.36200 27.46600 22.41400
C  47.33300 28.13400 21.40600
N  47.00700 27.72300 27.78000
C  47.57600 28.41500 26.74700
C  48.28200 29.51200 27.27800
C  48.14100 29.47400 28.65500
C  47.37200 28.32400 28.92600
C  49.13700 30.55200 26.50200
C  48.35200 30.16500 29.89700
O  48.90400 31.23500 30.13200
C  47.78000 29.24700 31.02500
C  48.85600 28.90800 31.95600
O  49.82300 28.17900 31.75800
O  48.61400 29.62400 33.11400
C  49.50700 29.30200 34.23400
H  45.32200 22.86300 30.93000
H  45.55800 22.80300 24.54000
H  48.07000 28.51700 24.63600
H  46.92500 26.91000 32.88100
H  44.49500 25.18900 32.60000
H  45.70600 23.73300 33.76000
H  47.22600 24.61200 33.58700
H  46.91700 23.40000 32.42200
H  44.08400 26.98300 33.17300
H  44.39700 28.21400 31.98700
H  45.30900 29.67600 33.52800
H  46.32200 28.45000 34.16200
H  44.71500 19.99500 29.54000
H  43.07500 20.53600 29.18800
H  43.88300 21.34300 30.47900
H  44.38400 19.03100 27.51800
H  43.79000 18.66400 25.90700
H  42.72500 19.42600 27.10200
H  45.55500 24.80900 22.94700
H  48.17000 26.31100 23.14800
H  48.18500 23.63200 23.23000
H  47.91300 24.66000 21.75000
H  46.89700 23.27900 22.09800
H  45.87900 28.16500 23.09800
H  45.57900 26.85900 21.95800
H  46.86800 28.15400 20.42000
H  48.24300 27.53800 21.47500
H  47.51800 29.19000 21.60100
H  48.79900 30.52000 25.46600
H  50.12600 30.09300 26.50200
H  49.12900 31.58100 26.86200
H  47.00200 29.81200 31.53800
H  50.54100 29.30100 33.88900
H  49.38800 28.35200 34.75600
H  49.43300 30.18100 34.87500
Mg 16.86100 52.55300 26.52800
C  18.80200 50.95000 28.92600
C  14.45100 53.13400 28.77000
C  15.18700 54.35600 24.07000
C  19.14000 51.39700 24.04000
N  16.67900 52.05700 28.55500
C  17.63600 51.49800 29.46900
C  17.21300 51.61300 30.94400
C  15.74100 52.13400 30.74500
C  15.59900 52.44100 29.25900
C  14.71900 51.21500 31.34400
C  18.27500 52.47300 31.69900
C  18.66000 51.86900 33.12100
H  17.94200 52.29300 34.43200
N  15.07000 53.63600 26.44800
C  14.20000 53.76500 27.48600
C  13.07400 54.56900 27.07700
C  13.26400 54.93400 25.70900
C  14.56400 54.28900 25.35000
C  11.96500 54.93200 28.04800
C  12.34100 55.75000 24.82000
O  12.59600 55.89900 23.58800
C  11.18800 56.57700 25.33100
N  17.02800 52.71600 24.36600
C  16.28900 53.58300 23.62600
C  16.61200 53.46600 22.16100
C  18.01600 52.71200 22.18600
C  18.05200 52.16500 23.61800
C  15.38600 52.81600 21.42600
C  19.20700 53.49500 21.66700
C  20.01700 52.86500 20.54200
N  18.58100 51.36600 26.36600
C  19.38700 50.97900 25.33900
C  20.46000 50.15400 25.79800
C  20.31000 50.21400 27.14300
C  19.12700 50.91300 27.47800
C  21.66100 49.59000 24.98200
C  20.97500 49.74500 28.41900
O  21.99400 49.08600 28.62500
C  20.05300 50.29300 29.59800
C  19.75600 49.09500 30.46400
O  19.10100 48.11500 30.14500
O  20.59200 49.19400 31.59600
C  20.56600 48.10500 32.55600
H  13.64900 53.34000 29.48200
H  14.81400 55.00700 23.27700
H  19.90800 51.17800 23.29600
H  17.22800 50.60400 31.35500
H  15.60300 53.10100 31.22900
H  15.15400 50.25000 31.60400
H  13.99400 51.03100 30.55100
H  14.16000 51.56900 32.21000
H  18.04800 53.50600 31.96500
H  19.24000 52.39300 31.19700
H  19.67700 52.20200 33.32300
H  18.64500 50.77900 33.12900
H  10.99800 54.70800 27.59700
H  11.87600 56.00000 28.24400
H  11.91500 54.35500 28.97100
H  11.52800 57.38200 25.98300
H  10.42900 55.91900 25.75300
H  10.68800 56.97900 24.44900
H  16.68400 54.48100 21.77100
H  17.89200 51.93700 21.42900
H  15.71400 52.13300 20.64300
H  14.71500 53.53800 20.96100
H  14.90200 52.10500 22.09600
H  19.82600 53.55500 22.56200
H  19.01300 54.51300 21.33000
H  20.27300 53.57400 19.75400
H  19.37400 52.18400 19.98500
H  20.86900 52.28400 20.89600
H  21.29200 48.76800 24.36900
H  22.45900 49.30200 25.66600
H  22.04000 50.34300 24.29100
H  20.69400 50.91500 30.22300
H  19.66700 48.02700 33.16600
H  21.44800 48.32000 33.16000
H  20.76700 47.19700 31.98700

