158

Mg 35.47600 2.45000 29.19700
C  33.55800 3.80800 31.94700
C  38.20500 2.48200 31.15800
C  37.21500 1.77500 26.44700
C  32.56300 2.99900 27.22500
N  35.80600 3.10600 31.32900
C  34.85400 3.38900 32.27900
C  35.56700 3.41500 33.67200
C  37.09500 3.15200 33.38500
C  37.05400 2.91400 31.82000
C  38.14200 4.19700 33.77000
C  34.88800 2.59700 34.87200
C  35.66500 1.63400 35.78500
H  36.65300 2.19300 36.76300
N  37.48400 1.97500 28.91100
C  38.45300 2.03100 29.81300
C  39.67100 1.52100 29.24600
C  39.46000 1.32500 27.83600
C  38.00600 1.71300 27.65900
C  40.85500 1.25500 30.06200
C  40.27000 1.01000 26.66300
O  39.95100 0.99700 25.50100
C  41.66500 0.67900 26.96400
N  34.95900 2.43000 27.16000
C  35.81000 1.99700 26.24500
C  35.19100 1.90300 24.89100
C  33.68600 2.00000 25.16400
C  33.72300 2.48400 26.61700
C  35.76300 2.87900 23.86700
C  32.93900 0.62100 25.12700
C  32.99100 -0.36700 23.90800
N  33.41100 3.16000 29.50700
C  32.44800 3.42300 28.57600
C  31.25100 3.97700 29.27900
C  31.71000 4.13800 30.67000
C  32.99600 3.61900 30.73100
C  29.83700 4.33600 28.74100
C  31.26500 4.43100 31.96000
O  30.17000 4.77700 32.28800
C  32.42800 4.17300 32.88900
C  32.66000 5.39300 33.73000
O  33.44900 6.26200 33.53600
O  31.71500 5.39900 34.75100
C  31.58400 6.70400 35.40200
H  39.09000 2.32100 31.77800
H  37.66000 1.49000 25.49200
H  31.71700 3.04900 26.53600
H  35.57800 4.44700 34.02500
H  37.52900 2.28700 33.88500
H  38.51900 4.80400 32.94700
H  39.04200 3.66000 34.07100
H  37.76900 4.79400 34.60200
H  34.17800 1.97400 34.32700
H  34.21300 3.16700 35.51000
H  36.09300 0.84000 35.17300
H  34.94400 1.06400 36.37200
H  41.00600 0.17800 30.13200
H  40.76900 1.58200 31.09800
H  41.74800 1.71400 29.63600
H  41.79800 -0.10200 27.71300
H  42.21100 1.59600 27.18500
H  42.05200 0.24100 26.04400
H  35.40400 0.90700 24.50300
H  33.18200 2.81300 24.64000
H  36.74800 3.25200 24.14800
H  35.22600 3.82300 23.76500
H  35.99100 2.40900 22.91000
H  31.96000 1.06700 24.95300
H  33.10100 0.09900 26.07000
H  31.98900 -0.76500 23.74400
H  33.66700 -1.18600 24.15400
H  33.45400 0.15400 23.07100
H  29.28400 3.44500 28.44400
H  30.02200 4.94500 27.85700
H  29.21900 4.79000 29.51600
H  32.23400 3.27300 33.47300
H  31.12400 7.30100 34.61500
H  32.45500 7.10200 35.92300
H  30.86800 6.67500 36.22300
Mg 36.15400 49.40400 25.30800
C  36.58600 47.91500 28.52900
C  34.72600 52.18500 26.96600
C  35.56900 50.86200 22.23000
C  37.39300 46.62100 23.80300
N  35.68900 49.97600 27.47800
C  36.08900 49.24700 28.58300
C  35.74800 50.01500 29.84600
C  35.20100 51.32900 29.39800
C  35.08500 51.15200 27.80900
C  33.94700 51.81100 30.17000
C  36.87300 50.08100 30.96900
C  36.52000 49.79700 32.39500
H  35.09400 49.48500 32.87100
N  35.30200 51.31500 24.68900
C  34.80200 52.29600 25.55000
C  34.31700 53.43000 24.74400
C  34.58100 53.04500 23.38500
C  35.19900 51.69100 23.41700
C  33.74100 54.60100 25.38700
C  34.25400 53.81600 22.18900
O  34.41300 53.30100 21.08900
C  33.83100 55.22700 22.27800
N  36.30400 48.79000 23.35500
C  36.13900 49.55200 22.22000
C  36.41000 48.78200 20.91100
C  37.07100 47.48500 21.44800
C  36.91000 47.66400 22.99200
C  35.18500 48.55700 20.04100
C  38.57800 47.43500 21.04100
C  39.69900 48.17100 21.86300
N  36.81100 47.63800 25.95400
C  37.35200 46.58200 25.18500
C  37.71300 45.53700 26.09500
C  37.41400 45.94900 27.41100
C  36.88300 47.28400 27.24900
C  38.32200 44.20400 25.66400
C  37.47500 45.58900 28.77900
O  37.88300 44.57200 29.25100
C  36.85100 46.81400 29.55900
C  35.64800 46.23500 30.24200
O  34.52800 46.16300 29.78600
O  35.90200 45.64300 31.52400
C  34.80800 45.19200 32.41300
H  34.31900 53.00500 27.56000
H  35.35300 51.22700 21.22300
H  37.92700 45.82700 23.27700
H  34.92000 49.39700 30.19600
H  35.91700 52.13100 29.57100
H  33.37200 51.05600 30.70500
H  33.24500 52.30700 29.50000
H  34.14700 52.52100 30.97400
H  37.41700 51.01400 30.82000
H  37.50200 49.21800 30.75000
H  36.86500 50.71200 32.87500
H  37.18500 49.08300 32.88100
H  32.74400 54.71300 24.96100
H  34.25400 55.44700 24.92800
H  33.74900 54.68200 26.47400
H  34.66000 55.76600 22.73600
H  32.92600 55.33300 22.87500
H  33.77900 55.54400 21.23600
H  37.13800 49.40000 20.38600
H  36.62200 46.54400 21.13000
H  34.24100 48.88900 20.47300
H  35.04900 47.47900 19.96300
H  35.33600 49.02600 19.06800
H  38.54600 47.71100 19.98700
H  38.93900 46.40800 20.97800
H  40.18400 48.77800 21.09800
H  40.36100 47.45000 22.34200
H  39.33100 48.77300 22.69400
H  38.56600 44.13700 24.60400
H  37.63800 43.36800 25.81500
H  39.21900 44.04700 26.26400
H  37.60500 47.12700 30.28000
H  34.75700 44.10300 32.42200
H  33.82800 45.61400 32.18900
H  35.04400 45.44700 33.44600

