158

Mg 1.61300 -1.44700 43.68500
C  4.86600 -0.82100 43.21700
C  0.72600 1.22300 41.49700
C  -1.67700 -2.35200 43.77400
C  2.51200 -4.71100 44.86100
N  2.63800 -0.01000 42.40400
C  4.06200 0.12300 42.49200
C  4.50200 1.39000 41.76000
C  3.17200 2.07800 41.29200
C  2.08600 1.06300 41.80600
C  2.94900 3.51500 41.82300
C  5.30200 1.00800 40.47400
C  6.35000 2.03200 40.01400
H  6.22400 2.61800 38.61500
N  -0.18800 -0.57000 42.92800
C  -0.31100 0.43700 42.05800
C  -1.76800 0.57500 41.69600
C  -2.45300 -0.26900 42.58200
C  -1.39600 -1.13200 43.18100
C  -2.26600 1.48300 40.66500
C  -3.98200 -0.42700 42.75500
O  -4.75700 0.12900 42.02300
C  -4.60800 -0.99500 43.98200
N  0.55700 -3.40100 44.05200
C  -0.77600 -3.33700 44.25900
C  -1.19300 -4.57900 44.92100
C  0.03200 -5.53000 44.97800
C  1.13500 -4.47900 44.69100
C  -1.79400 -4.24700 46.28200
C  0.00000 -6.69300 43.90500
C  -0.05500 -8.17900 44.34100
N  3.36400 -2.53900 44.10400
C  3.60700 -3.75200 44.56000
C  5.01300 -3.90600 44.80600
C  5.56800 -2.74600 44.34400
C  4.49700 -1.98700 43.84000
C  5.58700 -5.08300 45.47300
C  6.74600 -2.02500 44.19900
O  7.87200 -2.34800 44.42600
C  6.36200 -0.76900 43.44800
C  6.78700 0.32300 44.33000
O  6.35400 0.61500 45.42700
O  7.72000 1.11800 43.68900
C  8.10900 2.25800 44.51600
H  0.40600 1.98200 40.78000
H  -2.74900 -2.54100 43.86900
H  2.85200 -5.64100 45.32100
H  5.09800 2.04500 42.39600
H  3.21400 2.11900 40.20400
H  2.30800 3.45700 42.70300
H  2.56600 4.14300 41.01900
H  3.91200 3.95500 42.07800
H  4.62700 0.78500 39.64800
H  5.80700 0.04200 40.48400
H  7.33600 1.57500 40.10400
H  6.37000 2.88800 40.68800
H  -2.97300 1.04900 39.95800
H  -1.49900 1.86700 39.99200
H  -2.64400 2.36500 41.18100
H  -5.02100 -1.99100 43.82400
H  -5.43400 -0.32300 44.21600
H  -3.82000 -0.93900 44.73300
H  -1.96300 -4.96300 44.25200
H  0.26800 -5.88200 45.98200
H  -2.67200 -3.63800 46.06600
H  -1.20800 -3.63500 46.96800
H  -2.22800 -5.19200 46.60900
H  0.90700 -6.58000 43.31200
H  -0.79800 -6.58500 43.17100
H  -0.56100 -8.20300 45.30700
H  0.93800 -8.58700 44.53000
H  -0.64200 -8.78500 43.65100
H  5.04600 -5.91500 45.02100
H  5.45800 -4.98500 46.55100
H  6.61200 -5.24700 45.14100
H  6.94000 -0.74100 42.52400
H  9.02000 2.71500 44.12800
H  8.35800 2.04200 45.55500
H  7.30400 2.98700 44.61200
Mg 42.34900 40.67300 26.44600
C  41.49900 43.13600 28.69700
C  43.22700 38.63200 29.01400
C  43.16600 38.35000 24.13000
C  41.98500 42.95800 23.70800
N  42.53600 40.99300 28.62400
C  41.81000 41.91100 29.30600
C  41.72300 41.58600 30.79000
C  42.52900 40.20400 30.91000
C  42.86800 39.96100 29.43600
C  43.84700 40.19900 31.77000
C  40.26500 41.55700 31.40300
C  40.08000 42.49200 32.60100
H  39.41300 42.03100 33.87400
N  43.09800 38.73700 26.56900
C  43.43600 38.08500 27.72600
C  43.94100 36.78800 27.42200
C  43.81500 36.62500 25.96000
C  43.32800 37.94700 25.48100
C  44.28400 35.81900 28.56600
C  44.10900 35.44300 25.13800
O  43.91500 35.44000 23.91300
C  44.60500 34.12400 25.76200
N  42.66600 40.66300 24.19400
C  42.86300 39.53200 23.50800
C  42.64900 39.72400 21.94400
C  42.42300 41.28100 21.84300
C  42.28300 41.63800 23.32300
C  43.86000 39.19500 21.20300
C  41.10300 41.59000 20.90800
C  41.30900 42.85800 20.08600
N  41.91700 42.59300 26.26700
C  41.82000 43.40900 25.08600
C  41.39300 44.74400 25.46200
C  41.15100 44.68900 26.86700
C  41.61800 43.38300 27.32000
C  41.16400 45.97700 24.68500
C  40.87400 45.47700 28.08700
O  40.49100 46.61800 28.21000
C  40.90800 44.48000 29.26500
C  41.74800 45.15600 30.38800
O  42.93900 44.98700 30.51200
O  40.92000 45.70200 31.32400
C  41.48100 45.93400 32.61000
H  43.39800 37.94000 29.84100
H  43.23900 37.61300 23.32700
H  41.89400 43.73100 22.94300
H  42.27900 42.30800 31.38900
H  41.81000 39.44300 31.21500
H  44.68200 40.04700 31.08700
H  43.81900 39.40800 32.51900
H  43.93600 41.13400 32.32400
H  39.84800 40.56000 31.54100
H  39.62500 41.93000 30.60400
H  39.48500 43.31700 32.21000
H  41.00100 42.99000 32.90400
H  44.47100 34.78400 28.28000
H  43.43200 35.68700 29.23300
H  45.06800 36.28300 29.16600
H  45.55200 34.28700 26.27600
H  44.70700 33.27900 25.08100
H  43.86000 33.79400 26.48600
H  41.75300 39.23300 21.56200
H  43.31800 41.68900 21.37300
H  44.59200 38.88600 21.94900
H  44.36700 39.87200 20.51500
H  43.60300 38.33600 20.58400
H  40.27000 41.77900 21.58600
H  41.02800 40.70600 20.27500
H  40.48100 43.08500 19.41500
H  42.21700 42.89900 19.48400
H  41.45300 43.70400 20.75800
H  41.32000 46.90700 25.23200
H  40.12000 45.84300 24.40300
H  41.76600 45.90300 23.77900
H  39.89800 44.24000 29.59800
H  42.55000 45.74400 32.69600
H  40.96300 45.33100 33.35600
H  41.41700 46.99200 32.86400

