158

Mg 45.60200 4.41200 47.37000
C  43.44100 7.11500 46.70600
C  43.05100 2.30200 46.79500
C  47.85100 1.76600 47.14800
C  48.36000 6.56700 47.09600
N  43.48700 4.69900 46.76100
C  42.77300 5.88600 46.67100
C  41.31200 5.62500 46.28300
C  41.14800 4.16900 46.68400
C  42.66100 3.66800 46.72000
C  40.30100 4.09100 47.94600
C  41.01900 5.98100 44.77000
C  39.96400 7.13200 44.65800
H  40.24600 8.23600 43.56300
N  45.45600 2.26200 47.22800
C  44.31000 1.62100 46.99100
C  44.54800 0.26300 47.02100
C  45.94200 0.05100 47.17100
C  46.49800 1.42800 47.17200
C  43.39500 -0.70700 47.10000
C  46.67900 -1.38000 47.17600
O  45.94200 -2.41100 47.04100
C  48.19600 -1.64100 47.40400
N  47.83700 4.13900 46.75500
C  48.46600 2.98200 47.08300
C  50.02700 3.16800 47.18700
C  50.10800 4.68400 47.06900
C  48.69700 5.21400 46.92400
C  50.83000 2.55500 48.36500
C  50.83000 5.09700 45.72300
C  52.38000 5.04900 45.62200
N  45.91700 6.35500 47.06200
C  47.06500 7.14100 47.02000
C  46.74300 8.54300 46.92200
C  45.30600 8.56900 46.86800
C  44.82900 7.17900 46.96100
C  47.76100 9.61600 46.64400
C  44.23900 9.47000 46.65200
O  44.17800 10.71600 46.49600
C  42.89300 8.55000 46.51500
C  41.98600 8.90200 47.64800
O  42.11600 8.47900 48.79400
O  40.85200 9.45000 47.03600
C  39.78200 9.85500 47.98400
H  42.31000 1.51200 46.65800
H  48.46900 0.87000 47.05800
H  49.21100 7.19800 47.36100
H  40.79100 6.30000 46.96200
H  40.55600 3.54500 46.01400
H  41.02200 3.89700 48.73900
H  39.63900 3.22500 47.95900
H  39.68900 4.93100 48.27600
H  40.85300 5.08700 44.16900
H  41.93600 6.37400 44.33200
H  39.73400 7.50100 45.65800
H  39.04600 6.63400 44.34800
H  43.37100 -1.27300 46.16900
H  42.42400 -0.30200 47.38500
H  43.68600 -1.30300 47.96500
H  48.48100 -1.16700 48.34300
H  48.65000 -1.24700 46.49400
H  48.34200 -2.71400 47.52900
H  50.30600 2.65900 46.26500
H  50.74600 5.11700 47.84000
H  50.10300 2.32100 49.14200
H  51.63700 3.10800 48.84600
H  51.22300 1.59900 48.01800
H  50.54900 6.13000 45.51900
H  50.37400 4.59200 44.87100
H  52.52800 4.18100 44.98100
H  52.77500 4.89700 46.62700
H  52.71900 5.94700 45.10600
H  48.76700 9.21400 46.52000
H  47.73800 10.29800 47.49400
H  47.56300 10.20400 45.74700
H  42.48600 8.69300 45.51400
H  40.07800 9.81500 49.03200
H  38.80600 9.41600 47.77700
H  39.59600 10.92100 47.85000
Mg 47.28000 17.02400 28.18100
C  45.39500 16.69800 31.19300
C  49.66800 18.39200 30.01700
C  48.92900 17.27500 25.36900
C  44.58000 15.72800 26.44300
N  47.50400 17.45900 30.33300
C  46.65000 17.32700 31.40000
C  47.30600 17.80400 32.71200
C  48.54400 18.63000 32.21200
C  48.51900 18.18300 30.76300
C  48.38800 20.18300 32.36200
C  47.72900 16.63300 33.57300
C  48.19100 16.92700 35.06200
H  47.78500 18.26300 35.78400
N  49.06100 17.65500 27.81900
C  49.97000 18.08600 28.65600
C  51.23700 18.39300 27.92300
C  51.03600 18.03200 26.57000
C  49.65100 17.56900 26.57500
C  52.39100 18.87300 28.69800
C  51.96700 18.03700 25.44600
O  51.67400 17.67300 24.30000
C  53.40600 18.56300 25.59800
N  46.92400 16.21900 26.22000
C  47.72400 16.63500 25.22000
C  47.00700 16.49100 23.81800
C  45.56900 15.95300 24.28200
C  45.68200 16.04600 25.71600
C  46.79400 17.84600 23.04800
C  45.14000 14.54500 23.86400
C  45.55500 14.24200 22.45000
N  45.45900 16.30600 28.70100
C  44.47500 15.71100 27.87300
C  43.37800 15.32500 28.70700
C  43.67300 15.66600 30.01100
C  44.94300 16.28800 29.95500
C  42.10800 14.68500 28.13000
C  43.18500 15.54800 31.39500
O  42.10300 15.15100 31.89200
C  44.32900 16.17700 32.23700
C  43.63100 17.24500 33.05700
O  43.51700 18.47500 32.79400
O  43.15700 16.57200 34.18400
C  42.71300 17.58500 35.15100
H  50.41100 18.91200 30.62700
H  49.40000 17.50800 24.41100
H  43.69000 15.40500 25.89900
H  46.63400 18.50000 33.21400
H  49.45600 18.37400 32.75200
H  49.32000 20.47800 32.84400
H  47.63300 20.48900 33.08600
H  48.15900 20.58200 31.37300
H  48.68300 16.30300 33.16200
H  47.04900 15.78400 33.63700
H  49.27800 16.87100 35.12300
H  47.81500 16.12400 35.69500
H  52.13700 18.70500 29.74500
H  52.68400 19.91700 28.58200
H  53.29600 18.34200 28.40200
H  54.02200 17.82700 26.11300
H  53.42200 19.52500 26.11000
H  53.79800 18.66900 24.58600
H  47.56400 15.84900 23.13500
H  44.71800 16.61800 24.13700
H  45.73800 18.09700 22.94800
H  47.23200 17.90800 22.05200
H  47.14100 18.70900 23.61700
H  44.09500 14.24600 23.77900
H  45.63600 13.79600 24.48100
H  46.47600 13.69600 22.65300
H  45.63900 15.08900 21.76900
H  44.94800 13.49900 21.93200
H  41.34000 15.44600 28.26800
H  41.82900 13.75800 28.63100
H  42.28900 14.28900 27.13100
H  44.64100 15.44700 32.98300
H  43.47600 18.33900 35.34900
H  42.56800 17.07400 36.10300
H  41.74400 17.97100 34.83600

