158

Mg 8.80700 3.39800 27.87800
C  10.21800 1.72200 30.68400
C  7.02400 5.43000 29.82600
C  7.42700 4.70100 25.07300
C  10.04800 0.64200 25.94800
N  8.56500 3.50000 29.95100
C  9.36300 2.80600 30.96100
C  9.08200 3.44200 32.36800
C  7.81300 4.35700 32.05200
C  7.80400 4.47700 30.53500
C  6.48500 3.71500 32.48000
C  10.34600 4.25700 32.84700
C  11.20600 3.59200 33.99400
H  11.27000 4.31800 35.34600
N  7.40900 4.90100 27.47100
C  6.81100 5.63700 28.45000
C  6.09100 6.76000 27.84100
C  6.25400 6.58800 26.44000
C  7.03900 5.31700 26.25200
C  5.25600 7.73000 28.64800
C  5.58400 7.43500 25.25900
O  5.85600 7.26600 24.04900
C  4.77800 8.60800 25.66700
N  8.53700 2.65100 25.82600
C  8.02400 3.47800 24.82600
C  8.37200 2.88600 23.44000
C  9.25000 1.61800 23.74500
C  9.30400 1.58000 25.24600
C  7.02100 2.51900 22.66200
C  10.76400 1.74400 23.27100
C  11.60000 0.39500 22.94000
N  9.93500 1.59400 28.18200
C  10.29600 0.63100 27.32300
C  11.18800 -0.34800 27.90500
C  11.18000 -0.01200 29.27600
C  10.37000 1.18300 29.37100
C  11.90100 -1.46600 27.21500
C  11.63300 -0.25800 30.60100
O  12.47400 -1.08700 30.96100
C  10.94000 0.78500 31.62500
C  10.05400 0.03500 32.62400
O  8.95800 -0.41400 32.35900
O  10.71800 -0.07200 33.79800
C  9.97000 -0.51400 35.01700
H  6.66100 6.12600 30.58500
H  7.06500 5.14300 24.14300
H  10.52400 -0.14800 25.36300
H  8.84800 2.58500 33.00000
H  7.91300 5.27400 32.63300
H  5.86200 3.36200 31.65800
H  5.94900 4.50800 33.00000
H  6.70900 2.94800 33.22100
H  10.08600 5.24500 33.22600
H  10.96600 4.43300 31.96800
H  12.26700 3.55700 33.74800
H  10.85500 2.57200 34.14800
H  5.73700 8.70400 28.73700
H  5.14400 7.50900 29.71000
H  4.22500 7.77900 28.29800
H  3.85200 8.47900 26.22700
H  4.69100 9.23900 24.78300
H  5.47900 9.17700 26.27900
H  8.93100 3.57300 22.80300
H  8.84400 0.65300 23.44100
H  6.15100 2.75700 23.27300
H  6.90400 1.43900 22.57200
H  6.98000 2.82100 21.61600
H  11.30500 2.33000 24.01300
H  10.75600 2.32000 22.34600
H  10.89700 -0.43100 23.04800
H  12.29400 0.23300 23.76500
H  12.07800 0.42100 21.96100
H  12.77500 -0.96800 26.79500
H  11.27900 -1.93700 26.45400
H  12.17600 -2.09000 28.06600
H  11.64200 1.37200 32.21800
H  9.86400 0.29000 35.74400
H  10.51400 -1.38400 35.38600
H  8.99500 -0.88600 34.70300
Mg 0.87000 43.04100 26.03400
C  3.14500 43.38200 28.68800
C  -1.65600 42.46400 28.20400
C  -0.93800 42.06200 23.38700
C  3.65100 43.46900 23.78500
N  0.82000 42.78800 28.22200
C  1.84700 43.13000 29.10300
C  1.34000 43.00500 30.56300
C  -0.16500 42.58900 30.35100
C  -0.39000 42.69700 28.86500
C  -0.48100 41.24200 30.96000
C  1.48500 44.35100 31.33600
C  1.41000 44.28600 32.88900
H  1.32000 42.97400 33.72100
N  -1.05700 42.32800 25.82700
C  -2.02000 42.26300 26.86400
C  -3.28800 41.87600 26.29000
C  -3.08200 41.83300 24.86600
C  -1.65300 42.05400 24.63300
C  -4.51800 41.55900 27.15900
C  -4.12200 41.43400 23.77500
O  -3.83200 41.38900 22.58800
C  -5.56200 41.12600 24.12700
N  1.22700 42.88100 23.92400
C  0.38000 42.46500 23.04400
C  0.88900 42.45700 21.56100
C  2.24900 43.23900 21.79700
C  2.38300 43.27500 23.29100
C  0.94800 41.07600 20.81300
C  2.22500 44.65300 21.07000
C  1.74000 45.84700 22.02700
N  2.92800 43.52400 26.08700
C  3.90600 43.60900 25.10300
C  5.16900 43.84600 25.76000
C  4.92800 43.65800 27.13700
C  3.54000 43.51400 27.33400
C  6.48800 43.96800 25.04300
C  5.53200 43.57700 28.47600
O  6.70700 43.55800 28.70900
C  4.34800 43.50900 29.57400
C  4.55000 42.40300 30.53500
O  4.17800 41.29800 30.41100
O  5.14200 42.88500 31.62400
C  5.28900 41.97300 32.80300
H  -2.47300 42.38400 28.92400
H  -1.55500 41.89600 22.50100
H  4.47000 43.56700 23.06900
H  1.85800 42.19100 31.07100
H  -0.89600 43.22000 30.85700
H  -1.29100 40.79400 30.38500
H  -0.74100 41.30300 32.01700
H  0.39700 40.59700 30.94100
H  0.64700 44.97200 31.02100
H  2.35000 44.85300 30.90300
H  0.55200 44.91500 33.12900
H  2.33300 44.76200 33.21900
H  -4.72600 40.49400 27.25600
H  -5.42100 42.05400 26.80200
H  -4.34100 42.05700 28.11300
H  -6.18900 41.00300 23.24400
H  -5.97300 41.96400 24.69000
H  -5.65800 40.18000 24.66000
H  0.19500 42.98200 20.90500
H  3.02100 42.60100 21.36800
H  0.59200 40.30300 21.49300
H  2.00400 40.84500 20.67200
H  0.35100 40.99800 19.90500
H  1.71400 44.59700 20.10900
H  3.22800 45.05300 20.92000
H  2.57200 45.97500 22.72000
H  0.87900 45.62500 22.65700
H  1.46600 46.76300 21.50300
H  6.32700 44.08300 23.97100
H  7.10000 43.06800 25.10400
H  7.02800 44.88500 25.28100
H  4.43600 44.43300 30.14600
H  4.74100 41.03100 32.79800
H  4.94300 42.54600 33.66300
H  6.35300 41.74700 32.88100

