158

Mg 29.93400 58.72600 40.44900
C  26.89000 57.00000 39.78900
C  31.63900 56.15200 39.13700
C  32.61000 60.77100 40.45300
C  27.97700 61.53700 41.44000
N  29.30000 56.81400 39.51700
C  28.03000 56.35400 39.28900
C  28.05200 55.00200 38.59000
C  29.61200 54.57900 38.57500
C  30.26600 55.94400 39.11700
C  30.02400 53.27500 39.42100
C  27.36000 55.00500 37.18100
C  27.49600 56.19700 36.24700
H  28.09800 55.94100 34.79700
N  31.85900 58.43800 40.03700
C  32.41900 57.31300 39.57100
C  33.80300 57.33100 39.49900
C  34.14700 58.69200 39.86900
C  32.87600 59.39700 40.22900
C  34.74200 56.16700 39.13900
C  35.59800 59.20500 39.80000
O  36.54100 58.50300 39.38900
C  35.84600 60.64200 40.24100
N  30.23200 60.85700 40.85700
C  31.47300 61.43200 40.79900
C  31.50900 62.92200 41.22000
C  30.02400 63.11200 41.66600
C  29.34200 61.75200 41.32100
C  32.54800 63.04500 42.42600
C  29.41400 64.39900 40.91200
C  28.69100 65.43500 41.70500
N  27.86800 59.24400 40.56700
C  27.22900 60.40100 41.05800
C  25.82000 60.23600 40.99600
C  25.57000 58.87200 40.69600
C  26.88400 58.33100 40.37300
C  24.82400 61.26600 41.37600
C  24.53600 57.84900 40.45300
O  23.35000 57.87300 40.47300
C  25.36700 56.57200 39.81600
C  25.11900 55.28500 40.69100
O  25.03900 55.23500 41.91700
O  25.01000 54.14300 39.81900
C  24.88100 52.87100 40.54200
H  32.11700 55.28800 38.67000
H  33.43700 61.47500 40.33500
H  27.36600 62.38100 41.76500
H  27.50100 54.30700 39.22400
H  29.93900 54.39400 37.55200
H  29.06500 52.93700 39.81300
H  30.76800 53.37000 40.21300
H  30.56500 52.53100 38.83600
H  26.29600 54.78200 37.25600
H  27.63200 54.08500 36.66300
H  28.08700 57.01900 36.65000
H  26.51100 56.66300 36.19500
H  35.40200 55.81900 39.93400
H  35.43900 56.51700 38.37700
H  34.29600 55.37100 38.54300
H  35.26600 61.19600 39.50200
H  36.88100 60.98100 40.28900
H  35.42400 60.74800 41.24000
H  31.83100 63.53600 40.37900
H  29.98800 63.29600 42.74000
H  32.80700 62.03800 42.75100
H  32.04500 63.50600 43.27600
H  33.37400 63.66900 42.08400
H  28.72400 63.98300 40.17800
H  30.13400 64.96000 40.31700
H  27.62600 65.43400 41.47100
H  29.09600 66.43900 41.57500
H  28.70700 65.20700 42.77100
H  24.77300 61.83100 40.44500
H  25.03300 61.88000 42.25200
H  23.81300 60.87300 41.48500
H  24.99100 56.27800 38.83600
H  25.84900 52.37300 40.47600
H  24.23800 52.28000 39.88900
H  24.44600 53.01600 41.53000
Mg 2.21300 42.04400 25.23800
C  3.66100 42.04000 28.40700
C  -0.64000 40.62300 26.58900
C  0.95500 41.59400 22.11400
C  5.34000 42.81400 23.92700
N  1.57900 41.37300 27.26200
C  2.35100 41.58600 28.40400
C  1.53700 41.13800 29.66700
C  0.14800 40.57400 29.03400
C  0.39200 40.74400 27.52100
C  -0.20800 39.05600 29.42400
C  1.20600 42.31300 30.64200
C  1.76300 42.25700 32.11300
H  0.79800 42.52000 33.23800
N  0.32900 41.45400 24.48200
C  -0.67600 40.89300 25.19700
C  -1.79100 40.60300 24.30800
C  -1.37200 41.06100 22.98100
C  -0.00700 41.43200 23.14400
C  -3.09000 40.00800 24.80100
C  -2.16200 41.14500 21.74000
O  -1.73700 41.55700 20.67800
C  -3.63500 40.80300 21.68500
N  3.06000 42.24100 23.37500
C  2.33100 41.88700 22.27900
C  3.16700 42.18600 20.98100
C  4.49200 42.69900 21.63500
C  4.30000 42.52800 23.06600
C  3.35600 41.01700 20.03300
C  4.85300 44.15600 21.32400
C  5.03400 44.53700 19.87600
N  4.14000 42.42000 25.93700
C  5.26500 42.85000 25.32700
C  6.25700 43.15100 26.27800
C  5.71200 42.82700 27.50200
C  4.41900 42.36100 27.27900
C  7.56800 43.69800 26.08300
C  5.90200 42.90600 28.91700
O  6.85300 43.36300 29.48300
C  4.67100 42.29400 29.59100
C  4.99000 41.18300 30.47300
O  5.25300 40.01500 30.13400
O  5.07500 41.61900 31.74700
C  5.20900 40.63000 32.82800
H  -1.57900 40.24000 26.99400
H  0.61300 41.58900 21.07700
H  6.23600 43.16500 23.41100
H  2.01000 40.27200 30.12900
H  -0.77000 41.08200 29.33000
H  -0.00000 38.31800 28.65000
H  -1.21600 38.89200 29.80700
H  0.39800 38.76100 30.28100
H  0.12300 42.39500 30.73600
H  1.57500 43.25800 30.24400
H  2.55600 43.00500 32.11400
H  2.25600 41.33300 32.41400
H  -3.88600 40.75200 24.80800
H  -2.96400 39.51700 25.76600
H  -3.26800 39.17700 24.11800
H  -3.62200 39.79000 21.28100
H  -4.31200 41.41100 21.08600
H  -3.99800 40.75600 22.71100
H  2.64300 43.00900 20.49700
H  5.36600 42.08600 21.41600
H  3.05400 40.04200 20.41700
H  4.39200 40.83500 19.74600
H  2.90900 41.15500 19.04900
H  5.86900 44.25400 21.70700
H  4.22400 44.80100 21.93800
H  4.62400 43.75500 19.23700
H  6.10300 44.62800 19.68100
H  4.53500 45.49100 19.70800
H  8.29500 42.88900 26.01300
H  7.68000 44.39300 26.91500
H  7.72100 44.26900 25.16700
H  4.20100 43.04500 30.22700
H  6.14100 40.07500 32.72100
H  4.42000 39.87700 32.81100
H  4.97700 41.11800 33.77500

