158

Mg 16.96500 -1.68200 28.12200
C  15.96700 0.79500 30.36500
C  18.89200 -3.11800 30.52000
C  18.49600 -3.47200 25.66000
C  15.44500 0.28800 25.46700
N  17.22400 -1.26000 30.24700
C  16.62500 -0.25800 30.95000
C  16.91500 -0.42800 32.48800
C  18.15000 -1.43500 32.41500
C  18.06500 -2.01000 30.97600
C  19.57400 -0.78900 32.67000
C  15.72500 -1.00000 33.32400
C  15.78100 -0.56400 34.83500
H  17.09000 -0.10900 35.50200
N  18.31100 -3.23200 28.11100
C  18.99700 -3.65500 29.21600
C  19.87400 -4.67600 28.75500
C  19.71600 -4.87600 27.35400
C  18.84900 -3.80000 26.97100
C  20.83200 -5.42600 29.67400
C  20.37100 -5.89000 26.36900
O  20.27900 -5.88500 25.16700
C  21.14700 -7.02900 26.95300
N  16.95500 -1.57800 25.92900
C  17.66700 -2.45100 25.17700
C  17.44200 -2.20700 23.68600
C  16.31400 -1.12700 23.70000
C  16.22700 -0.79000 25.17800
C  18.74500 -1.74400 22.95900
C  14.99400 -1.60500 23.04500
C  14.02200 -2.28400 23.99300
N  15.84900 0.15500 27.87300
C  15.23800 0.77200 26.78800
C  14.48200 1.95000 27.25600
C  14.82800 2.01200 28.65900
C  15.61100 0.91400 28.98600
C  13.76300 2.80200 26.29200
C  14.64400 2.74800 29.83400
O  14.09800 3.86400 29.99600
C  15.15900 1.85900 31.06000
C  15.96400 2.82800 31.79200
O  16.86300 3.43900 31.28800
O  15.39200 3.04700 33.09000
C  16.12400 3.92700 33.95400
H  19.46100 -3.57200 31.33500
H  19.04600 -3.95700 24.85100
H  15.04700 0.90300 24.65700
H  17.25600 0.47700 32.99100
H  18.05800 -2.20000 33.18600
H  20.09900 -1.56200 33.23100
H  19.53700 0.16700 33.19200
H  20.10700 -0.69000 31.72500
H  15.71800 -2.08300 33.19900
H  14.82000 -0.56600 32.89700
H  15.43800 -1.46100 35.34900
H  15.05900 0.23200 35.01800
H  21.86300 -5.33800 29.33000
H  20.62600 -6.47900 29.86600
H  20.79100 -4.93100 30.64400
H  20.48700 -7.56400 27.63600
H  22.02000 -6.62700 27.46800
H  21.40500 -7.73700 26.16500
H  17.04500 -3.15100 23.31300
H  16.63500 -0.22600 23.17700
H  18.56500 -1.28300 21.98800
H  19.41400 -2.59100 22.81000
H  19.21900 -0.87200 23.41100
H  15.31300 -2.27700 22.24900
H  14.48800 -0.73200 22.63200
H  13.24300 -1.58200 24.29100
H  14.52600 -2.66000 24.88300
H  13.61700 -3.14600 23.46300
H  13.72900 2.47300 25.25400
H  14.45100 3.64600 26.25600
H  12.81300 3.13900 26.70800
H  14.36300 1.53000 31.72800
H  16.18800 3.49000 34.95000
H  15.59100 4.87700 34.00600
H  17.13200 4.12500 33.59000
Mg 16.81500 51.75500 26.79700
C  18.88200 50.48200 29.22400
C  14.58000 52.78500 29.17200
C  14.74800 52.61000 24.25600
C  19.01300 50.40800 24.38600
N  16.69500 51.49500 28.82800
C  17.72800 51.08800 29.74200
C  17.34500 51.31500 31.15900
C  15.84400 51.74600 31.14100
C  15.70100 52.00700 29.62700
C  14.86000 50.72600 31.79100
C  18.25300 52.45000 31.77900
C  18.40200 52.46200 33.31100
H  17.44400 51.51600 34.18200
N  15.00000 52.73200 26.67000
C  14.25200 53.04500 27.84200
C  13.13800 53.85200 27.38500
C  13.17600 53.85400 25.90200
C  14.37300 53.03100 25.55000
C  12.11100 54.44400 28.38600
C  12.19300 54.54700 24.92300
O  12.36700 54.50300 23.70900
C  11.01300 55.29800 25.42500
N  16.89600 51.43700 24.62400
C  15.90000 51.93800 23.86100
C  16.17800 51.65000 22.35900
C  17.62900 50.99700 22.37000
C  17.88800 50.92700 23.87400
C  15.15900 50.67600 21.84400
C  18.73900 51.85200 21.58400
C  19.04600 53.21300 22.07800
N  18.54900 50.65900 26.78700
C  19.33000 50.25400 25.74600
C  20.47700 49.52100 26.25500
C  20.34600 49.66100 27.60600
C  19.16200 50.34700 27.89500
C  21.59200 48.81700 25.49700
C  21.01000 49.32500 28.89400
O  22.05800 48.76500 29.07400
C  20.01800 49.80900 30.04600
C  19.47500 48.67300 30.83000
O  18.77300 47.83500 30.34400
O  19.96800 48.65000 32.11100
C  19.54700 47.53200 32.86900
H  13.95600 53.08000 30.01800
H  14.11000 52.84200 23.40100
H  19.64200 49.89300 23.65600
H  17.54600 50.39700 31.71000
H  15.67400 52.71500 31.61000
H  15.46700 49.97700 32.29900
H  14.29600 50.21600 31.00900
H  14.17900 51.22500 32.48100
H  17.80900 53.40400 31.49500
H  19.28400 52.34400 31.44000
H  18.04800 53.45400 33.59100
H  19.43000 52.25100 33.60400
H  12.58800 55.26000 28.92900
H  11.96900 53.69000 29.15900
H  11.14200 54.71700 27.96800
H  10.22400 54.57300 25.62700
H  10.72300 55.97400 24.62100
H  11.40500 55.99900 26.16100
H  16.18900 52.54800 21.74100
H  17.55700 49.95300 22.06500
H  14.58500 51.32200 21.17900
H  14.48700 50.11500 22.49300
H  15.72000 49.99200 21.20700
H  18.52100 52.01200 20.52800
H  19.63300 51.23500 21.67700
H  18.20300 53.67800 22.59100
H  19.28800 53.85200 21.22900
H  19.94900 53.21900 22.68900
H  22.60900 49.14300 25.72100
H  21.45100 48.97800 24.42900
H  21.64400 47.78100 25.83100
H  20.52400 50.54300 30.67300
H  18.46300 47.54400 32.98200
H  19.98600 47.49600 33.86600
H  19.70300 46.52100 32.49300

