158

Mg 47.61100 25.11700 27.84600
C  48.41000 27.27000 30.46700
C  46.94600 22.70600 30.27100
C  47.31200 22.95900 25.35400
C  49.11400 27.38300 25.61200
N  47.34700 25.09000 30.11800
C  47.81000 26.10600 30.95500
C  47.55900 25.78400 32.41300
C  47.01600 24.34900 32.28600
C  47.09500 24.00200 30.82900
C  47.60200 23.21400 33.20200
C  46.41200 26.73000 32.90900
C  45.83900 26.30000 34.28300
H  45.47200 27.38300 35.34000
N  47.20300 23.12700 27.77500
C  46.89600 22.28900 28.88900
C  46.61800 20.92500 28.43300
C  46.73300 21.02400 26.97900
C  47.16900 22.40700 26.61200
C  46.17400 19.71400 29.26900
C  46.34800 20.02100 25.96700
O  46.50100 20.20300 24.78200
C  45.67500 18.66000 26.24200
N  48.19700 25.20600 25.84500
C  47.85700 24.17300 24.98900
C  48.03900 24.59900 23.50700
C  48.32200 26.09700 23.60700
C  48.63700 26.21200 25.07300
C  49.19200 23.78300 22.73100
C  47.07100 27.00500 23.16700
C  47.44200 28.00600 22.06200
N  48.54800 26.98800 27.94600
C  49.15600 27.80600 26.94000
C  49.69200 28.95100 27.61700
C  49.44800 28.84200 28.99200
C  48.68700 27.62100 29.14400
C  50.43500 30.04900 26.90800
C  49.69300 29.37300 30.26400
O  50.28800 30.41700 30.59400
C  49.11100 28.38700 31.23200
C  50.22700 27.93400 32.17000
O  50.87800 26.95900 31.92300
O  50.27100 28.68700 33.32500
C  51.41700 28.34800 34.16200
H  46.78200 21.82400 30.89400
H  47.04500 22.35100 24.48800
H  49.46100 28.00000 24.78100
H  48.45700 25.94900 33.00900
H  45.99000 24.27700 32.64500
H  47.93400 22.30100 32.70700
H  47.03800 22.89700 34.07900
H  48.58900 23.55600 33.51600
H  45.59000 26.75400 32.19300
H  46.74700 27.76200 33.01400
H  46.51000 25.62800 34.81600
H  44.89900 25.80300 34.04400
H  46.61900 18.77600 28.93600
H  45.09500 19.68400 29.12400
H  46.49000 19.83400 30.30500
H  45.27900 18.12600 25.37900
H  44.81700 18.81200 26.89700
H  46.49300 18.06400 26.64800
H  47.08700 24.46300 22.99400
H  49.19600 26.37700 23.01800
H  50.12300 24.34100 22.62900
H  48.89200 23.65600 21.69100
H  49.34800 22.82900 23.23600
H  46.70700 27.50500 24.06500
H  46.27900 26.34600 22.81200
H  47.00500 27.62400 21.13900
H  48.52600 28.04800 21.95700
H  47.13300 29.00300 22.37600
H  50.96900 30.67300 27.62500
H  49.76800 30.69800 26.34000
H  51.20600 29.65900 26.24300
H  48.43100 28.87500 31.93100
H  52.28700 28.37800 33.50800
H  51.27500 27.37700 34.63600
H  51.53600 29.02400 35.00900
Mg 35.92300 48.46100 24.97200
C  35.46700 46.53100 27.83300
C  34.63900 51.23600 26.81900
C  35.68000 50.23000 22.21600
C  36.78300 45.70200 23.20800
N  35.07700 48.70200 27.05000
C  35.23100 47.87100 28.13200
C  35.04600 48.56100 29.51000
C  34.67800 50.03800 29.06000
C  34.82300 50.02100 27.52900
C  33.27000 50.54500 29.57000
C  36.34400 48.56200 30.39600
C  36.16800 48.42900 31.98400
H  34.77000 48.66300 32.59600
N  35.17500 50.43400 24.59100
C  34.71200 51.38800 25.43300
C  34.38800 52.60200 24.69500
C  34.46400 52.28900 23.29200
C  35.10800 50.90100 23.31500
C  33.75600 53.83700 25.31800
C  34.04900 52.99900 22.04600
O  34.28500 52.54300 20.90600
C  33.46400 54.37300 22.05900
N  36.02900 48.04100 22.93300
C  36.12700 49.00400 22.03500
C  36.45300 48.44400 20.70000
C  37.16200 47.03700 21.06200
C  36.63200 46.87500 22.51800
C  35.25000 48.35400 19.73200
C  38.73900 47.00200 21.08600
C  39.49100 46.98100 19.76500
N  36.05100 46.51200 25.37200
C  36.49100 45.48700 24.57600
C  36.64900 44.23700 25.28600
C  36.22000 44.61200 26.58300
C  35.78500 45.95800 26.55500
C  37.11900 42.91300 24.80200
C  36.07600 44.11200 27.97900
O  36.16600 42.96300 28.43200
C  35.69600 45.42800 28.82900
C  34.60000 45.04100 29.78600
O  33.38700 44.97000 29.56500
O  35.18000 44.87300 31.04800
C  34.23000 44.44000 32.10100
H  34.45500 52.14000 27.40400
H  35.74100 50.88100 21.34200
H  37.28900 44.91400 22.64600
H  34.19800 48.11300 30.02800
H  35.39900 50.75100 29.45900
H  32.65000 51.04700 28.82700
H  33.54500 51.19600 30.40000
H  32.66700 49.73700 29.98500
H  36.86000 49.51300 30.27300
H  37.10500 47.82300 30.14500
H  36.80800 49.11000 32.54600
H  36.46400 47.38700 32.10400
H  32.67200 53.72400 25.27400
H  34.07900 54.77400 24.86500
H  33.94100 53.88400 26.39200
H  32.62000 54.30600 22.74600
H  33.22300 54.79300 21.08300
H  34.21700 55.02200 22.50700
H  37.09600 49.22500 20.29300
H  36.80400 46.28800 20.35700
H  35.35500 47.44300 19.14300
H  35.16600 49.17100 19.01600
H  34.31400 48.26300 20.28300
H  39.03200 46.08100 21.59000
H  39.17800 47.82600 21.64900
H  40.22700 47.78000 19.85400
H  38.79400 47.07400 18.93200
H  39.89200 45.97900 19.61200
H  37.09000 42.79000 23.71900
H  36.43800 42.19200 25.25400
H  38.17800 42.77700 25.02300
H  36.55300 45.76800 29.40900
H  34.40300 43.49700 32.61900
H  33.16700 44.43500 31.85900
H  34.21500 45.15900 32.92100

