158

Mg 8.62400 3.70800 26.97600
C  9.85600 2.35200 29.86600
C  6.88700 6.09900 28.70500
C  7.00900 4.61000 24.06200
C  9.85900 0.81300 25.20800
N  8.57100 4.25300 29.02200
C  9.13700 3.56200 30.06900
C  8.88600 4.22000 31.39700
C  7.76700 5.26600 31.01200
C  7.73800 5.25100 29.48100
C  6.38000 4.83800 31.47000
C  10.27900 4.77700 31.96500
C  10.82800 4.19500 33.29900
H  11.08500 5.10000 34.35700
N  7.31000 5.17600 26.45500
C  6.72600 6.09100 27.30700
C  5.95500 7.06200 26.54500
C  6.03200 6.71900 25.18500
C  6.81800 5.47700 25.14500
C  5.40100 8.22800 27.25800
C  5.35000 7.52000 24.01300
O  5.47100 7.12800 22.82800
C  4.54900 8.72000 24.24600
N  8.64300 2.90700 24.89600
C  7.94100 3.49500 23.90400
C  7.95100 2.76100 22.56000
C  8.95600 1.60600 22.88900
C  9.16500 1.73500 24.39800
C  6.52800 2.26300 22.10000
C  10.28300 1.78500 22.15900
C  10.33900 1.20300 20.77200
N  9.72100 1.98300 27.38600
C  10.10400 0.86500 26.60700
C  10.77200 -0.17200 27.37300
C  10.68300 0.47400 28.67300
C  10.04900 1.72400 28.62400
C  11.29600 -1.60400 26.92100
C  11.06600 0.27000 30.12900
O  11.54800 -0.67800 30.68200
C  10.55700 1.49400 30.93800
C  9.58300 0.92900 31.97000
O  8.37800 0.76300 31.79300
O  10.20100 0.83400 33.22100
C  9.39400 0.50400 34.42000
H  6.33700 6.86200 29.26000
H  6.50600 4.91100 23.14000
H  10.22700 0.00100 24.57600
H  8.55900 3.42300 32.06500
H  8.04200 6.26400 31.35200
H  6.13900 5.27800 32.43700
H  6.42400 3.76100 31.63500
H  5.58600 5.07000 30.76000
H  10.07700 5.84300 32.07100
H  11.03100 4.74400 31.17600
H  11.74100 3.67600 33.00600
H  10.21200 3.33800 33.57300
H  5.81200 9.13200 26.80900
H  5.41600 8.30200 28.34600
H  4.37300 8.19200 26.90000
H  3.96800 8.99500 23.36600
H  5.13900 9.49200 24.74000
H  3.76900 8.55200 24.98900
H  8.31100 3.46600 21.81000
H  8.65000 0.58200 22.67500
H  6.48600 1.25900 21.67700
H  6.10300 3.02900 21.45200
H  5.78500 2.19000 22.89500
H  11.10500 1.36300 22.73700
H  10.45800 2.85800 22.08500
H  11.00500 0.34300 20.70800
H  10.67100 1.97800 20.08100
H  9.35400 0.82900 20.49400
H  12.37400 -1.70000 27.04300
H  11.09800 -1.87000 25.88300
H  10.86200 -2.32600 27.61300
H  11.44200 1.99000 31.33800
H  9.37200 -0.56200 34.19300
H  8.42900 1.01100 34.42100
H  10.00600 0.79400 35.27400
Mg 30.12700 58.90300 38.56300
C  27.24100 57.05100 37.76800
C  32.05000 56.28700 37.64800
C  32.88700 60.95100 38.52100
C  28.01900 61.76600 38.85100
N  29.63100 57.04400 37.64500
C  28.41000 56.37000 37.47400
C  28.52400 54.96000 37.04300
C  30.09000 54.68300 37.36700
C  30.65700 56.11000 37.60100
C  30.39900 53.77000 38.56500
C  28.24200 54.78700 35.49800
C  26.87500 54.17900 35.05400
H  26.18100 55.06100 33.94200
N  32.21000 58.59900 38.30700
C  32.78000 57.46800 37.93400
C  34.24500 57.63300 37.88000
C  34.46000 58.97100 38.24700
C  33.16000 59.54700 38.39400
C  35.19900 56.55400 37.50000
C  35.81300 59.62100 38.50100
O  36.91900 59.08200 38.24400
C  35.92400 60.86800 39.22900
N  30.40600 61.01400 38.63800
C  31.63700 61.60900 38.56500
C  31.45700 63.11800 38.67300
C  29.93500 63.37900 38.87100
C  29.40600 61.95200 38.68800
C  32.44300 63.95500 39.59000
C  29.40200 64.42900 37.81600
C  28.45000 65.49400 38.32900
N  28.09000 59.39200 38.36900
C  27.38700 60.55600 38.66400
C  25.93700 60.35800 38.53700
C  25.83100 59.00600 38.18400
C  27.14200 58.46300 38.14300
C  24.86300 61.42700 38.75200
C  24.94200 57.90400 37.97500
O  23.69800 57.86300 38.06800
C  25.75000 56.64300 37.57700
C  25.30100 55.61000 38.44400
O  25.76100 55.44000 39.56900
O  24.33500 54.80300 37.87600
C  23.66300 53.85900 38.73500
H  32.66400 55.38500 37.60200
H  33.68800 61.65900 38.30000
H  27.35300 62.58100 39.14100
H  27.92700 54.35300 37.72400
H  30.55500 54.19600 36.51000
H  31.09400 52.94400 38.40900
H  29.52900 53.13800 38.74600
H  30.62800 54.17000 39.55200
H  29.02200 54.24700 34.96100
H  28.47000 55.79400 35.14700
H  26.34200 53.90600 35.96500
H  27.15200 53.20800 34.64200
H  35.97000 56.59400 38.27000
H  35.69000 56.90100 36.59000
H  34.75000 55.56600 37.40000
H  36.92700 61.13400 39.56400
H  35.17100 60.99300 40.00700
H  35.63400 61.60000 38.47500
H  31.78300 63.42700 37.67900
H  29.68000 63.69200 39.88400
H  31.83300 64.24500 40.44600
H  32.92400 64.82000 39.13300
H  33.19200 63.21800 39.87900
H  28.88300 64.05100 36.93600
H  30.30400 64.96800 37.52600
H  28.90600 66.42600 38.66300
H  27.85900 65.18400 39.19100
H  27.65700 65.83300 37.66300
H  23.95900 61.04900 38.27500
H  25.06800 62.44700 38.42700
H  24.80100 61.41400 39.84000
H  25.62400 56.37700 36.52800
H  23.27000 54.40000 39.59600
H  24.30700 53.08700 39.15600
H  22.96800 53.26500 38.14200

