158

Mg -2.25400 17.36400 27.53400
C  -2.95800 15.11500 30.31100
C  -2.85600 19.93500 29.62300
C  -2.44200 19.39300 24.86800
C  -2.42800 14.62700 25.51700
N  -2.83300 17.47300 29.70800
C  -3.01400 16.50800 30.68300
C  -3.22600 17.09700 32.08200
C  -3.09800 18.61600 31.72600
C  -2.93800 18.70500 30.20500
C  -4.25800 19.53900 32.33600
C  -2.17400 16.54900 33.07600
C  -1.68700 17.43700 34.28800
H  -1.64700 16.83200 35.71300
N  -2.33700 19.40200 27.23800
C  -2.60200 20.32400 28.24100
C  -2.50000 21.64400 27.68600
C  -2.42600 21.51600 26.27700
C  -2.38200 20.05300 26.11000
C  -2.52200 22.91200 28.60700
C  -2.30400 22.53700 25.25300
O  -2.21700 22.28000 24.06100
C  -2.20700 24.03700 25.74200
N  -2.58100 17.07100 25.50200
C  -2.48000 18.07100 24.58400
C  -2.54400 17.52900 23.15300
C  -2.46200 15.98300 23.36900
C  -2.37900 15.88200 24.87700
C  -3.78400 17.96800 22.24100
C  -1.29900 15.32300 22.63500
C  0.18800 15.48100 23.22900
N  -2.54400 15.24500 27.85800
C  -2.49800 14.28000 26.89400
C  -2.59300 12.97400 27.49200
C  -2.79900 13.27100 28.85400
C  -2.83300 14.65200 28.98600
C  -2.40100 11.63400 26.91800
C  -3.00400 12.65900 30.13100
O  -3.03000 11.49800 30.46000
C  -3.15300 13.85500 31.09500
C  -2.04000 13.61800 32.03300
O  -0.87000 13.80700 31.76300
O  -2.52700 13.02300 33.11600
C  -1.49700 12.69300 34.12300
H  -2.88500 20.72500 30.37700
H  -2.25600 19.99000 23.97300
H  -2.41300 13.81600 24.78700
H  -4.23900 16.85800 32.40500
H  -2.11500 18.91500 32.09000
H  -3.85200 20.24700 33.05800
H  -5.07100 18.95400 32.76500
H  -4.82100 20.00600 31.52700
H  -1.24300 16.36400 32.54000
H  -2.57300 15.71500 33.65400
H  -2.11300 18.44000 34.25300
H  -0.63800 17.69600 34.14400
H  -2.63100 22.64300 29.65800
H  -3.38200 23.53200 28.35400
H  -1.66800 23.51300 28.29400
H  -2.13400 24.71100 24.88800
H  -1.26400 24.11000 26.28400
H  -3.18200 24.17300 26.20900
H  -1.58100 17.86300 22.76700
H  -3.39300 15.58500 22.96500
H  -4.43400 17.15700 21.91300
H  -3.46800 18.47300 21.32700
H  -4.43100 18.69200 22.73500
H  -1.42400 15.72800 21.63100
H  -1.63000 14.30200 22.44200
H  0.78500 15.92600 22.43300
H  0.48100 14.47200 23.51900
H  0.30300 16.13300 24.09400
H  -3.25800 10.96000 26.95500
H  -1.61500 11.24800 27.56700
H  -2.04400 11.78400 25.89900
H  -4.12200 13.76600 31.58600
H  -2.05300 12.70100 35.06000
H  -0.65300 13.36700 34.27200
H  -1.07900 11.69100 34.02100
Mg 7.94300 3.31200 27.49000
C  9.25900 1.84900 30.42700
C  6.00100 5.45200 29.44500
C  6.71600 4.71500 24.67500
C  9.50700 0.76700 25.51900
N  7.62700 3.48700 29.68500
C  8.46700 2.94200 30.66200
C  8.30300 3.75000 31.99700
C  7.09500 4.68000 31.68700
C  6.89300 4.55500 30.16200
C  5.81100 4.31900 32.36900
C  9.58200 4.42400 32.61000
C  9.47100 5.03100 34.04500
H  10.30000 4.53300 35.16900
N  6.49400 4.72800 27.12000
C  5.85000 5.51900 28.00600
C  4.94500 6.45900 27.26600
C  5.21400 6.35400 25.88300
C  6.26000 5.28100 25.84900
C  3.96500 7.37600 28.02100
C  4.75500 7.20100 24.69100
O  5.07400 7.01400 23.54000
C  3.99800 8.49900 24.95900
N  8.04800 2.85400 25.38200
C  7.47800 3.56400 24.41800
C  7.57300 3.04300 22.95300
C  8.54000 1.80400 23.31900
C  8.77300 1.79500 24.83700
C  6.12900 2.75700 22.38100
C  9.81300 1.73000 22.43500
C  10.10800 0.52500 21.50600
N  9.14700 1.68200 27.81500
C  9.60000 0.71100 26.90300
C  10.34900 -0.29400 27.70200
C  10.23300 0.10800 29.02300
C  9.47700 1.33300 29.09400
C  11.04200 -1.44300 27.14600
C  10.65300 -0.22900 30.41500
O  11.30700 -1.15300 30.90600
C  10.07700 0.96600 31.32400
C  9.15700 0.27600 32.28400
O  8.00600 0.02400 32.12800
O  9.77500 0.09300 33.42000
C  8.98200 -0.09500 34.66900
H  5.58000 6.25400 30.05500
H  6.41300 5.23100 23.76200
H  9.83300 -0.05900 24.88300
H  8.08600 3.03000 32.78500
H  7.42900 5.69500 31.90600
H  5.11900 5.14200 32.55100
H  6.06000 3.94300 33.36200
H  5.36200 3.49100 31.82000
H  10.03800 5.11800 31.90400
H  10.35400 3.65900 32.68800
H  8.44300 4.99500 34.40800
H  9.81200 6.04800 33.85100
H  3.54700 6.68100 28.74900
H  3.13800 7.77300 27.43200
H  4.45800 8.21200 28.51700
H  4.54700 9.18000 25.60800
H  3.07100 8.09600 25.36800
H  3.79600 8.96100 23.99300
H  8.02500 3.80400 22.31600
H  7.90300 0.97600 23.00800
H  5.30400 3.06200 23.02400
H  6.09300 1.70800 22.08800
H  5.90700 3.31200 21.46900
H  10.55800 1.64600 23.22700
H  10.00100 2.52300 21.71200
H  10.75400 0.69600 20.64500
H  9.18000 0.02600 21.22700
H  10.62900 -0.22300 22.10300
H  11.87300 -1.10000 26.53000
H  10.40600 -2.04800 26.50000
H  11.47200 -2.08700 27.91300
H  10.94000 1.45000 31.78200
H  9.67100 0.05300 35.50100
H  8.54300 -1.09200 34.63100
H  8.17200 0.63400 34.65000

