158

Mg 45.70400 3.50500 48.53600
C  43.76700 6.24300 47.39500
C  42.85600 1.55700 47.85200
C  47.54800 0.74200 48.88400
C  48.42700 5.53500 48.80600
N  43.47200 3.89500 47.66600
C  42.97200 5.06600 47.35100
C  41.53100 4.92800 46.84800
C  41.31800 3.43100 46.98400
C  42.62700 2.88700 47.59100
C  40.07300 3.03800 47.84600
C  41.17900 5.53100 45.43400
C  39.85100 6.26000 45.29600
H  39.07400 6.01300 43.98700
N  45.29000 1.37900 48.34400
C  44.04900 0.83000 48.12200
C  44.21000 -0.64100 48.13000
C  45.59600 -0.89800 48.43700
C  46.23200 0.42200 48.62600
C  43.06500 -1.64600 47.89100
C  46.18100 -2.28800 48.57000
O  45.54300 -3.33800 48.32100
C  47.54300 -2.55300 49.00700
N  47.75300 3.16200 48.65000
C  48.26000 1.92700 48.87100
C  49.74400 2.04900 49.24400
C  50.03800 3.65400 49.26400
C  48.72700 4.16100 48.88600
C  50.21700 1.28500 50.53400
C  51.04600 4.17400 48.22700
C  52.31200 4.96200 48.68900
N  46.11800 5.46300 48.22500
C  47.28500 6.22600 48.41500
C  47.07500 7.54800 48.27000
C  45.67900 7.58200 47.89300
C  45.10600 6.31000 47.88600
C  47.96500 8.68500 48.26300
C  44.59600 8.55400 47.53700
O  44.60900 9.79000 47.42100
C  43.36200 7.68500 47.31800
C  42.22500 8.01300 48.23000
O  41.79900 7.34700 49.17600
O  41.57600 9.23300 47.86500
C  40.44100 9.82900 48.59100
H  42.01500 0.93200 47.54500
H  48.21200 -0.12000 48.96700
H  49.22500 6.25200 49.00600
H  40.97000 5.50000 47.58600
H  41.28200 2.83700 46.07000
H  39.41400 3.90200 47.76100
H  40.45700 2.86200 48.85000
H  39.57900 2.18300 47.38300
H  41.14600 4.75000 44.67400
H  41.98800 6.16200 45.06500
H  40.08100 7.30400 45.50600
H  39.27500 6.09700 46.20700
H  42.50000 -1.36900 47.00100
H  42.34900 -1.63700 48.71300
H  43.40400 -2.67800 47.80000
H  48.27100 -2.19100 48.28100
H  47.59800 -3.63700 49.10400
H  47.76900 -2.04500 49.94500
H  50.30300 1.67200 48.38700
H  50.16300 3.98300 50.29600
H  50.67200 2.01200 51.20700
H  50.96500 0.51100 50.36200
H  49.28200 0.99800 51.01700
H  50.53700 4.73700 47.44500
H  51.60300 3.40100 47.69700
H  52.45200 5.03600 49.76800
H  52.15400 5.96000 48.28000
H  53.25200 4.58000 48.29000
H  47.56300 9.41200 47.55800
H  48.96700 8.38300 47.95800
H  47.97000 9.12400 49.26100
H  43.07300 7.78900 46.27200
H  40.28600 9.21700 49.48100
H  39.49700 9.79100 48.04600
H  40.69900 10.85100 48.86700
Mg 35.48800 3.08600 29.54100
C  33.02000 4.21600 31.72900
C  37.70600 3.39700 32.23100
C  37.90900 2.01300 27.43700
C  33.21300 3.17100 26.90900
N  35.29500 3.74800 31.67600
C  34.17900 3.97500 32.37500
C  34.42200 4.03800 33.88600
C  36.03900 4.00900 33.98400
C  36.37300 3.71500 32.55400
C  36.66300 5.24800 34.54000
C  33.78100 2.98900 34.78800
C  33.72500 3.23000 36.28500
H  34.72500 4.19000 37.01100
N  37.62200 2.78400 29.80300
C  38.24200 2.81900 31.02100
C  39.55900 2.20600 30.89500
C  39.59300 1.74500 29.50000
C  38.35600 2.17900 28.85300
C  40.48400 1.94400 32.10000
C  40.74600 1.00100 28.81100
O  40.61400 0.59700 27.62200
C  42.00600 0.54300 29.63300
N  35.56300 2.77600 27.48200
C  36.68400 2.42500 26.84000
C  36.41500 2.21000 25.33800
C  34.86500 2.28400 25.24300
C  34.47400 2.68400 26.60400
C  37.23700 3.17800 24.44700
C  34.22200 0.87000 24.90600
C  33.88000 0.70700 23.39200
N  33.51100 3.67500 29.30400
C  32.76400 3.71000 28.12200
C  31.39000 4.21600 28.53000
C  31.48000 4.43700 29.91500
C  32.80200 4.10000 30.35800
C  30.20100 4.35500 27.64900
C  30.71900 4.83200 31.04500
O  29.57800 5.25200 31.03400
C  31.63000 4.53700 32.27700
C  31.54000 5.73100 33.28800
O  31.89200 6.84900 33.12900
O  30.87300 5.20500 34.33600
C  30.80800 5.95900 35.56200
H  38.36700 3.38500 33.10100
H  38.69900 1.55900 26.83500
H  32.65700 3.41000 25.99900
H  33.95200 4.93900 34.27900
H  36.30500 3.25900 34.73000
H  35.90200 6.01100 34.69700
H  37.41700 5.69800 33.89400
H  37.08400 4.96100 35.50400
H  34.29100 2.03300 34.66200
H  32.79900 2.76200 34.37200
H  33.71700 2.22800 36.71400
H  32.70800 3.57700 36.47000
H  40.51300 2.79500 32.78100
H  41.50600 1.61300 31.91700
H  39.93800 1.30300 32.79200
H  42.64800 0.05400 28.90000
H  41.72100 -0.10000 30.46500
H  42.52800 1.36200 30.12700
H  36.80000 1.20000 25.19800
H  34.62100 2.98700 24.44600
H  36.75900 3.88900 23.77300
H  37.99300 2.69300 23.82900
H  37.68900 3.83200 25.19300
H  33.23700 0.82900 25.37100
H  34.80200 0.01300 25.24800
H  34.27300 1.45200 22.70100
H  32.80600 0.88400 23.33300
H  34.09300 -0.29400 23.01500
H  29.77600 5.33000 27.88800
H  29.73500 3.44200 28.01900
H  30.33000 4.19200 26.57900
H  31.13000 3.69500 32.75600
H  29.91300 5.74000 36.14300
H  30.87400 7.04400 35.47300
H  31.70700 5.65800 36.10000

