158

Mg 0.60100 43.26900 25.60500
C  1.85400 43.19100 28.90500
C  -2.47600 42.42000 26.89300
C  -0.63000 42.98200 22.46500
C  3.75600 43.66300 24.37800
N  -0.21900 43.02200 27.71700
C  0.46400 43.14100 28.90000
C  -0.40200 42.85100 30.06800
C  -1.75500 42.41000 29.40200
C  -1.50300 42.61200 27.92900
C  -2.28900 40.98500 29.71700
C  -0.54100 44.09100 31.00100
C  -0.02600 43.94800 32.44900
H  -1.17600 43.87900 33.46700
N  -1.30500 42.86100 24.72100
C  -2.40500 42.50000 25.49100
C  -3.48200 42.10500 24.56300
C  -3.03400 42.30000 23.22600
C  -1.62200 42.77500 23.40900
C  -4.75500 41.48200 24.95200
C  -3.65600 42.00400 21.90900
O  -3.00500 42.04100 20.85400
C  -5.03000 41.58000 21.70300
N  1.48000 43.13600 23.71800
C  0.72700 43.14900 22.56300
C  1.58800 43.35900 21.25100
C  2.93000 43.73800 21.91900
C  2.76600 43.42700 23.45200
C  1.57600 41.99800 20.48000
C  3.18300 45.21500 21.74600
C  3.51600 45.72700 20.29300
N  2.42500 43.33700 26.46900
C  3.70000 43.64400 25.81800
C  4.64000 43.65900 26.88000
C  4.00900 43.38900 28.06700
C  2.63000 43.26100 27.79000
C  6.22400 43.77900 26.72700
C  4.23000 43.23500 29.49100
O  5.32400 43.23600 30.08600
C  2.79300 43.03400 30.10800
C  2.68000 41.72500 30.71500
O  2.23600 40.68500 30.25800
O  2.98600 41.81900 32.04600
C  2.31500 40.90600 33.00300
H  -3.49400 42.06900 27.07500
H  -1.10600 43.16900 21.50000
H  4.76600 43.73500 23.97100
H  0.04900 42.04100 30.64100
H  -2.54600 43.10600 29.68300
H  -2.48700 40.49800 28.76200
H  -3.15700 40.94300 30.37600
H  -1.47800 40.42100 30.17800
H  -1.61800 44.22500 31.10000
H  -0.10300 44.96200 30.51300
H  0.65600 44.75300 32.72400
H  0.48300 42.98500 32.48900
H  -5.12300 40.88000 24.12200
H  -5.27100 42.41900 25.15800
H  -4.54500 40.82800 25.79800
H  -5.72100 41.95300 22.45800
H  -4.95600 40.49300 21.68200
H  -5.48200 42.05700 20.83300
H  1.30300 44.15300 20.56100
H  3.78700 43.35200 21.36600
H  1.20200 42.13500 19.46500
H  0.92300 41.29400 20.99500
H  2.60100 41.64900 20.35400
H  4.15100 45.39200 22.21600
H  2.41500 45.87100 22.15500
H  3.24900 44.91900 19.61200
H  4.58700 45.92500 20.33600
H  2.89400 46.57300 20.00200
H  6.58200 44.08200 25.74300
H  6.68500 42.81600 26.94600
H  6.49900 44.46000 27.53300
H  2.62400 43.83100 30.83200
H  3.11700 40.43400 33.57000
H  1.71000 40.11600 32.55700
H  1.64800 41.54800 33.57800
Mg -12.38200 17.46400 41.64100
C  -9.73400 15.16000 41.17500
C  -10.33600 19.88400 40.24700
C  -15.04300 19.39600 41.44100
C  -14.46600 14.63700 42.67900
N  -10.34400 17.39600 40.72400
C  -9.38800 16.46800 40.79500
C  -7.97800 17.02300 40.35800
C  -8.17600 18.54900 40.26700
C  -9.77900 18.63300 40.45800
C  -7.46800 19.44100 41.36100
C  -7.78800 16.41500 38.94900
C  -6.31600 16.02700 38.67600
H  -5.62800 16.77800 37.50000
N  -12.65300 19.44800 41.00100
C  -11.69500 20.22000 40.34700
C  -12.28600 21.41200 39.93400
C  -13.71300 21.38400 40.31200
C  -13.88100 20.00800 40.95800
C  -11.39500 22.53200 39.34400
C  -14.67900 22.45500 40.03400
O  -14.27400 23.42400 39.40200
C  -16.15600 22.38100 40.41200
N  -14.47100 17.01800 42.00800
C  -15.36600 18.08600 41.97300
C  -16.81600 17.57400 42.18400
C  -16.64000 16.10600 42.66400
C  -15.08100 15.91600 42.54900
C  -17.63500 18.45200 43.17500
C  -17.42300 15.02400 41.86100
C  -18.97300 15.11700 41.84700
N  -12.16600 15.31500 41.94600
C  -13.03800 14.34700 42.43200
C  -12.35400 13.05500 42.42400
C  -11.05900 13.28000 41.95700
C  -11.01000 14.69600 41.67500
C  -13.03500 11.78300 42.82600
C  -9.75300 12.67100 41.74000
O  -9.30200 11.55300 41.84100
C  -8.85600 13.87600 41.27700
C  -7.61200 14.14400 42.15800
O  -7.62500 14.24800 43.37400
O  -6.48800 14.20200 41.33600
C  -5.22500 14.49200 42.11400
H  -9.60600 20.60600 39.87600
H  -15.90600 20.06400 41.40200
H  -15.10000 13.85500 43.10300
H  -7.29200 16.68000 41.13300
H  -7.81600 18.97900 39.33200
H  -6.73800 18.86800 41.93100
H  -8.17900 20.01200 41.95900
H  -7.00600 20.19600 40.72600
H  -8.15400 17.11700 38.19900
H  -8.43800 15.59200 38.65000
H  -6.45300 14.96400 38.47400
H  -5.69500 16.13600 39.56600
H  -11.30100 22.33100 38.27700
H  -10.49100 22.46500 39.94800
H  -11.84200 23.49800 39.58000
H  -16.38700 22.26100 41.47100
H  -16.67700 21.62400 39.82600
H  -16.60100 23.28900 40.00400
H  -17.33700 17.58500 41.22700
H  -16.94800 16.02500 43.70600
H  -18.58000 18.64200 42.66700
H  -17.04000 19.33700 43.39900
H  -17.87700 17.98500 44.12900
H  -17.10900 14.08100 42.30800
H  -17.09300 15.02500 40.82300
H  -19.46400 15.28800 42.80500
H  -19.37700 14.23900 41.34400
H  -19.44000 15.86400 41.20500
H  -13.42800 11.87500 43.83800
H  -12.27800 11.01600 42.66600
H  -13.87300 11.43000 42.22600
H  -8.47700 13.61000 40.29000
H  -5.11100 15.57500 42.13800
H  -4.32000 14.24000 41.56200
H  -5.21800 13.99200 43.08300

