158

Mg 0.98500 7.13700 25.99600
C  1.86900 8.94700 28.90000
C  0.96500 4.30100 27.92100
C  0.62700 5.35200 23.13500
C  1.44500 10.06800 24.19000
N  1.27000 6.69300 28.18400
C  1.51400 7.55400 29.18400
C  1.68600 6.89600 30.53100
C  1.58600 5.37300 30.23900
C  1.29000 5.43500 28.69400
C  2.91300 4.54500 30.55100
C  0.71400 7.45500 31.57100
C  1.20800 7.85800 32.99100
H  2.18300 6.93300 33.70100
N  0.75400 5.04900 25.59200
C  0.77800 4.03300 26.52800
C  0.60400 2.81200 25.78900
C  0.32300 3.10800 24.42700
C  0.64200 4.55200 24.33200
C  0.66500 1.43000 26.50200
C  -0.19500 2.26000 23.34200
O  -0.60000 2.70800 22.25500
C  -0.23900 0.83500 23.56800
N  1.14500 7.56400 23.97300
C  0.83900 6.71100 22.94700
C  0.80700 7.40400 21.60600
C  0.91300 8.87500 22.05900
C  1.35600 8.85100 23.45800
C  1.92200 6.99200 20.69600
C  -0.42200 9.65600 21.85100
C  -0.28400 11.06600 21.44500
N  1.47100 9.10500 26.40700
C  1.56500 10.19600 25.56600
C  1.78900 11.43300 26.29200
C  2.00000 10.94500 27.62700
C  1.85400 9.53700 27.64000
C  1.84500 12.90100 25.89800
C  2.23500 11.36200 28.98000
O  2.42800 12.49700 29.42200
C  2.03700 10.10400 29.87100
C  3.14000 10.03700 30.90000
O  4.19800 9.44400 30.67900
O  2.84100 10.72900 32.03700
C  3.75400 10.76200 33.18000
H  0.89500 3.47800 28.63500
H  0.36100 4.81300 22.22300
H  1.49700 10.98900 23.60600
H  2.68300 7.10000 30.92200
H  0.74800 4.93800 30.78400
H  3.79300 5.02400 30.98000
H  3.30500 3.95400 29.72300
H  2.57900 3.83300 31.30600
H  -0.05800 6.70300 31.72900
H  0.09800 8.27600 31.20300
H  0.41200 7.84300 33.73500
H  1.66500 8.83600 32.84100
H  1.16000 0.66400 25.90500
H  -0.31500 1.03800 26.77200
H  1.18100 1.64500 27.43700
H  -0.81700 0.28600 22.82400
H  -0.78600 0.57100 24.47300
H  0.72200 0.38700 23.82100
H  -0.14200 7.15800 21.12900
H  1.77800 9.27400 21.52900
H  2.63600 7.77500 20.44300
H  1.38300 6.79600 19.76800
H  2.45500 6.09700 21.01500
H  -1.08900 9.52700 22.70300
H  -0.94700 9.09800 21.07600
H  0.74900 11.27800 21.16900
H  -0.53200 11.66500 22.32100
H  -1.01400 11.32400 20.67700
H  2.27100 12.96600 24.89700
H  2.38900 13.42200 26.68600
H  0.83600 13.31100 25.84600
H  1.07800 10.26200 30.36500
H  4.78100 11.03600 32.93800
H  3.80000 9.86000 33.79100
H  3.40000 11.50400 33.89500
Mg 30.75700 59.28800 38.83100
C  27.83200 57.37600 38.10700
C  32.59600 56.52000 38.17600
C  33.37700 61.18900 38.79700
C  28.62600 62.03200 39.26200
N  30.21800 57.26800 37.91700
C  28.94700 56.66700 37.92200
C  29.09500 55.21200 37.43400
C  30.55000 54.86800 37.99900
C  31.20900 56.31700 38.04800
C  30.54700 54.41400 39.48400
C  28.77300 55.14400 35.85600
C  27.55500 54.34100 35.46500
H  26.71100 55.03300 34.33600
N  32.65200 58.98300 38.28100
C  33.23500 57.71900 38.10500
C  34.64400 57.84200 37.82200
C  34.94800 59.26500 38.03000
C  33.62900 59.90500 38.40000
C  35.57900 56.71500 37.53200
C  36.34400 59.90800 37.93600
O  37.23200 59.11700 37.63500
C  36.69800 61.37000 38.26600
N  31.00300 61.32900 38.98300
C  32.19300 61.87000 39.11300
C  32.11000 63.35200 39.43500
C  30.58700 63.60100 39.67700
C  30.02300 62.23600 39.27400
C  33.06200 63.73600 40.64100
C  29.98000 64.73600 38.80900
C  28.87600 65.62400 39.43000
N  28.66200 59.66400 38.83500
C  27.97200 60.80900 39.06200
C  26.58300 60.56300 38.87200
C  26.40400 59.25600 38.51500
C  27.73300 58.72300 38.52300
C  25.43000 61.48900 39.06200
C  25.42800 58.26200 38.09700
O  24.17200 58.28000 38.12100
C  26.37600 56.97300 37.81100
C  26.02000 55.82900 38.67100
O  26.29000 55.71500 39.84800
O  25.23400 54.90400 38.02200
C  24.37200 54.13900 38.90400
H  33.16600 55.58900 38.19700
H  34.20400 61.90000 38.83900
H  27.99900 62.89300 39.50300
H  28.41100 54.60700 38.02900
H  31.11700 54.24200 37.31000
H  29.61900 53.91800 39.76700
H  30.64400 55.30500 40.10400
H  31.39800 53.73800 39.56900
H  29.73200 54.79700 35.47200
H  28.61200 56.11400 35.38600
H  27.00800 54.18900 36.39500
H  27.97500 53.43200 35.03500
H  35.13000 55.80300 37.14000
H  36.19900 56.39100 38.36800
H  36.24500 57.01300 36.72200
H  37.75000 61.47600 37.99900
H  36.51400 61.74600 39.27200
H  36.07800 61.92400 37.56100
H  32.44200 63.94600 38.58400
H  30.32000 63.75500 40.72300
H  34.02600 64.04300 40.23500
H  33.25800 62.89700 41.30900
H  32.59400 64.50200 41.25800
H  29.58700 64.30100 37.89000
H  30.74800 65.44700 38.50500
H  29.16900 66.59100 39.84000
H  28.34400 65.09800 40.22200
H  28.27700 65.83100 38.54300
H  24.87900 61.72700 38.15200
H  25.64700 62.24200 39.81900
H  24.72500 60.83600 39.57500
H  26.27500 56.68900 36.76300
H  23.99900 53.29600 38.32300
H  23.44800 54.70700 39.01400
H  24.72800 53.73100 39.84900

