158

Mg 15.92500 51.21800 25.60700
C  17.57600 50.12500 28.52800
C  13.33400 52.43400 27.53500
C  14.37100 51.89300 22.84100
C  18.63000 49.72700 23.67600
N  15.58600 51.33700 27.83000
C  16.38400 50.83400 28.80200
C  15.80200 51.20700 30.18700
C  14.35400 51.79300 29.82700
C  14.36700 51.81600 28.27600
C  13.24000 50.80500 30.33000
C  16.69600 52.18700 30.92800
C  16.86200 52.05600 32.50800
H  15.98900 51.17900 33.43400
N  14.14500 52.13200 25.26100
C  13.21400 52.63400 26.13400
C  12.13200 53.23800 25.43400
C  12.53500 53.25000 24.03400
C  13.72000 52.35700 24.00700
C  10.93000 53.83200 26.13900
C  11.91000 53.90300 22.85900
O  12.43600 53.77400 21.74200
C  10.85400 54.73800 23.07400
N  16.46800 50.85300 23.56400
C  15.52000 51.11700 22.66400
C  15.93900 50.74900 21.26000
C  17.34400 50.14300 21.45800
C  17.53700 50.28600 22.99200
C  14.89400 49.83900 20.47200
C  18.58300 50.61200 20.64100
C  19.40800 49.50400 19.95200
N  17.67400 50.05500 25.95900
C  18.69500 49.52300 25.06500
C  19.79600 49.05700 25.89100
C  19.38500 49.24500 27.25300
C  18.11200 49.88100 27.25900
C  21.07400 48.42200 25.39500
C  19.74700 48.97100 28.59300
O  20.74100 48.41000 29.05200
C  18.63600 49.60900 29.53100
C  18.13600 48.44300 30.35300
O  17.31400 47.58000 30.05100
O  18.88100 48.42600 31.50800
C  18.52800 47.22800 32.33800
H  12.59400 52.88000 28.20200
H  13.89900 51.98100 21.86000
H  19.48200 49.25300 23.18300
H  15.79200 50.29200 30.77900
H  14.23100 52.80100 30.22300
H  13.54800 50.15100 31.14600
H  12.85000 50.21200 29.50300
H  12.35700 51.37600 30.61900
H  16.43400 53.23300 30.76800
H  17.71700 52.04800 30.57300
H  16.93500 53.06500 32.91300
H  17.90300 51.73900 32.57300
H  10.65200 53.27000 27.03000
H  10.05100 53.85300 25.49500
H  11.21900 54.83300 26.46000
H  10.00500 54.07900 23.25500
H  10.49000 55.31200 22.22200
H  11.14200 55.34300 23.93400
H  16.01400 51.68300 20.70400
H  17.35700 49.05400 21.48000
H  14.90600 48.75000 20.53100
H  14.95300 50.12200 19.42100
H  13.84800 50.01400 20.72500
H  19.28600 51.16500 21.26400
H  18.18300 51.28500 19.88200
H  20.30000 49.41100 20.57000
H  19.61800 49.90000 18.95800
H  18.92600 48.52700 19.91400
H  21.00600 47.33700 25.32300
H  21.82600 48.39900 26.18300
H  21.59200 48.75600 24.49700
H  19.16700 50.38800 30.07900
H  17.49300 47.17500 32.67600
H  19.27600 47.31500 33.12600
H  18.78400 46.30100 31.82500
Mg -2.30900 35.37100 27.29500
C  -3.57700 33.43900 29.82500
C  -1.11000 37.59100 29.53900
C  -1.24600 37.05200 24.68700
C  -3.48400 32.87300 25.01200
N  -2.48300 35.54200 29.38200
C  -2.98900 34.64300 30.26800
C  -2.61500 34.94900 31.75600
C  -2.04200 36.42000 31.58200
C  -1.88100 36.55800 30.07600
C  -2.92800 37.54600 32.16600
C  -1.63100 33.97400 32.34400
C  -2.09200 33.11800 33.56000
H  -1.23100 32.97900 34.70500
N  -1.34200 37.12900 27.05500
C  -0.85800 37.85000 28.14200
C  -0.14900 38.99300 27.58700
C  -0.30100 38.91900 26.13100
C  -1.01800 37.68100 25.90500
C  0.61600 40.07500 28.43100
C  0.16600 39.90400 25.08500
O  -0.05500 39.79200 23.82200
C  0.93500 41.20000 25.60000
N  -2.52400 35.06900 25.16100
C  -1.84100 35.84800 24.29300
C  -1.97100 35.42800 22.82400
C  -2.45900 33.93400 22.96200
C  -2.92000 33.94000 24.41300
C  -2.82300 36.29700 21.86200
C  -1.44300 32.85800 22.61200
C  -0.36700 32.62100 23.71200
N  -3.38500 33.53000 27.37100
C  -3.86000 32.71500 26.32600
C  -4.58800 31.60800 26.96800
C  -4.39700 31.81100 28.38000
C  -3.79800 33.05600 28.55000
C  -5.26400 30.61400 26.15500
C  -4.69000 31.29200 29.69100
O  -5.28600 30.25900 29.97000
C  -4.09600 32.28200 30.68600
C  -5.17800 32.75100 31.59200
O  -6.11100 33.51800 31.39500
O  -5.06200 32.01200 32.69800
C  -5.89100 32.33600 33.90200
H  -0.70800 38.24400 30.31700
H  -0.91400 37.65000 23.83600
H  -3.70900 32.04100 24.34000
H  -3.42900 35.11000 32.46300
H  -1.08100 36.56500 32.07400
H  -3.93800 37.21000 32.40300
H  -3.00300 38.43500 31.54000
H  -2.51700 37.72900 33.15900
H  -0.71200 34.48100 32.63600
H  -1.44700 33.18600 31.61400
H  -2.17800 32.10800 33.16000
H  -3.08300 33.35800 33.94600
H  1.68200 39.91800 28.26000
H  0.36300 39.97800 29.48700
H  0.33000 41.09300 28.16800
H  1.83600 41.01500 26.18500
H  0.30700 41.87600 26.18100
H  1.16600 41.76900 24.69900
H  -0.92100 35.37500 22.53600
H  -3.39400 33.68300 22.46200
H  -3.28500 35.64400 21.12100
H  -2.06800 36.91300 21.37300
H  -3.55000 36.99200 22.28400
H  -0.97100 33.23000 21.70200
H  -1.97900 31.97200 22.27000
H  -0.66700 32.71000 24.75600
H  0.60400 33.07900 23.52500
H  -0.00600 31.59900 23.59600
H  -6.21800 30.98200 25.77800
H  -5.62700 29.79500 26.77700
H  -4.70400 30.04500 25.41300
H  -3.22500 31.79600 31.12500
H  -6.81000 32.87900 33.68300
H  -5.31200 32.91200 34.62300
H  -6.09700 31.33900 34.29200

