158

Mg 34.79800 3.25300 29.52500
C  32.55300 3.84300 32.15400
C  37.35500 3.53300 32.00300
C  37.13700 2.68600 27.20200
C  32.36300 3.80700 27.26100
N  34.96000 3.77900 31.81500
C  33.89400 3.89900 32.62900
C  34.33000 3.96900 34.07400
C  35.90700 4.27200 33.97500
C  36.14500 3.85000 32.48800
C  36.38700 5.78500 34.33000
C  33.87900 2.83100 34.93900
C  33.72200 3.12300 36.46300
H  34.47100 4.33100 37.06200
N  36.91800 2.88800 29.67100
C  37.81900 3.11800 30.75300
C  39.13100 2.74300 30.33500
C  39.01200 2.25100 28.97700
C  37.66200 2.63600 28.52500
C  40.26200 2.85100 31.18900
C  40.02400 1.49400 28.12200
O  39.81500 1.26300 26.92000
C  41.48100 0.96000 28.64400
N  34.88700 3.44700 27.53500
C  35.87600 3.02100 26.74300
C  35.50700 3.32700 25.24400
C  33.95700 3.52300 25.27400
C  33.69200 3.63500 26.76200
C  36.29300 4.60500 24.64700
C  33.17400 2.42300 24.57500
C  32.55800 1.26200 25.39300
N  32.78900 3.69300 29.58300
C  31.90200 3.75100 28.60700
C  30.53100 3.81600 29.07100
C  30.77200 3.89700 30.49900
C  32.16800 3.79200 30.75100
C  29.24600 3.92200 28.27300
C  30.11000 4.01100 31.81500
O  28.95000 4.04500 32.14800
C  31.27000 4.07700 32.91000
C  31.18700 5.39700 33.56300
O  31.23100 6.49200 32.99800
O  31.04000 5.20400 34.91000
C  31.14200 6.51500 35.65900
H  38.11800 3.57500 32.78300
H  37.89300 2.47900 26.44200
H  31.62100 3.80400 26.45900
H  33.95000 4.92900 34.42200
H  36.39400 3.52500 34.60100
H  35.64900 6.56200 34.52900
H  36.99400 6.04200 33.46100
H  37.02700 5.73500 35.21100
H  34.61700 2.03000 34.93100
H  32.99700 2.39200 34.47300
H  34.12200 2.19500 36.87300
H  32.66600 3.30100 36.66500
H  40.14300 3.72400 31.83100
H  41.13300 2.80200 30.53500
H  40.23100 1.96100 31.81700
H  41.92900 0.26200 27.93600
H  41.23300 0.49500 29.59800
H  42.02800 1.89000 28.79400
H  35.83200 2.50300 24.60700
H  33.63700 4.49300 24.89400
H  35.68000 5.50700 24.64700
H  36.66700 4.40400 23.64400
H  37.16300 4.72300 25.29300
H  33.82100 2.03900 23.78600
H  32.41500 2.98500 24.03100
H  31.51900 1.28600 25.72000
H  33.27800 1.09300 26.19400
H  32.72900 0.27200 24.97100
H  29.31200 3.96300 27.18600
H  28.69200 4.79400 28.62200
H  28.55400 3.11300 28.50600
H  31.29800 3.38000 33.74700
H  30.67300 7.33400 35.11400
H  32.20200 6.74300 35.77400
H  30.56100 6.32200 36.56000
Mg 48.39200 25.59500 27.62200
C  49.15200 27.71400 30.26200
C  47.32600 23.39500 29.96300
C  48.08200 23.46300 25.09300
C  50.50700 27.73600 25.52100
N  48.32200 25.53000 29.83800
C  48.54300 26.55700 30.73900
C  48.25100 26.22800 32.21500
C  47.59500 24.82900 32.05900
C  47.82100 24.51900 30.51600
C  48.14600 23.67600 32.91100
C  47.21100 27.16800 32.93300
C  46.48400 26.76700 34.19100
H  46.50100 27.75800 35.30900
N  47.66500 23.75300 27.52600
C  47.29100 23.00900 28.57700
C  46.61400 21.81300 28.03400
C  47.01500 21.75800 26.68000
C  47.58800 23.03400 26.36800
C  45.83500 20.88100 28.90500
C  46.85400 20.58200 25.77000
O  47.41600 20.54100 24.69300
C  45.95700 19.47700 26.12100
N  49.26000 25.60600 25.51400
C  48.94300 24.54300 24.69300
C  49.31100 24.89600 23.22800
C  50.14900 26.22300 23.38200
C  49.94800 26.58900 24.85300
C  50.09000 23.73300 22.63000
C  49.65500 27.38600 22.38900
C  50.75300 27.96800 21.43100
N  49.49900 27.34900 27.75000
C  50.33800 28.05700 26.90200
C  50.77700 29.33100 27.51000
C  50.25800 29.26700 28.84900
C  49.60200 27.97700 28.97100
C  51.45700 30.43900 26.94400
C  50.26800 29.91900 30.13700
O  50.62100 30.96900 30.57000
C  49.46700 28.97600 31.08400
C  50.41500 28.66300 32.16700
O  51.47300 28.03100 32.07300
O  49.88500 29.05800 33.43100
C  50.80100 28.65000 34.51000
H  46.99600 22.73600 30.76900
H  47.96300 22.76700 24.26000
H  51.04200 28.41800 24.85600
H  49.24100 26.17900 32.66800
H  46.52200 24.88300 32.24000
H  47.33500 23.15900 33.42400
H  48.91300 23.99300 33.61800
H  48.77700 22.91600 32.45000
H  46.39300 27.37200 32.24200
H  47.69800 28.10900 33.19200
H  46.81800 25.82100 34.61700
H  45.44200 26.61200 33.90900
H  46.38100 19.94000 28.96300
H  44.94500 20.48600 28.41500
H  45.56500 21.16200 29.92400
H  46.42000 19.00800 26.98900
H  45.83400 18.73200 25.33500
H  45.01500 20.00900 26.25500
H  48.34900 24.97800 22.72200
H  51.20600 25.95800 23.36800
H  50.32800 22.99800 23.39800
H  51.05800 24.07500 22.26300
H  49.49100 23.30800 21.82500
H  49.51400 28.28500 22.98900
H  48.75400 27.06500 21.86700
H  50.77300 29.04700 21.58500
H  50.36500 27.71500 20.44400
H  51.76600 27.58600 21.55500
H  51.53000 31.21200 27.70900
H  50.81900 30.93300 26.21100
H  52.39800 30.14500 26.48000
H  48.58300 29.53100 31.40000
H  50.50400 27.64500 34.80900
H  50.57200 29.39100 35.27600
H  51.86400 28.52000 34.30700

