158

Mg 35.18000 2.95600 30.80200
C  32.85300 4.24100 33.30400
C  37.65000 3.36200 33.38000
C  37.52600 2.15200 28.46400
C  32.75100 3.08300 28.51900
N  35.28400 3.76700 33.07400
C  34.14600 3.97300 33.88100
C  34.54500 4.09700 35.38800
C  36.11500 4.12300 35.33800
C  36.38500 3.71700 33.87700
C  36.83100 5.47300 35.82200
C  33.87600 2.93300 36.22900
C  32.99700 3.38600 37.43200
H  33.36100 4.74300 38.05700
N  37.31900 2.76700 30.89700
C  38.08300 2.97400 31.99900
C  39.43200 2.55500 31.67800
C  39.49600 2.23700 30.27400
C  38.08400 2.36200 29.76100
C  40.53400 2.54300 32.71400
C  40.65200 1.69800 29.37400
O  40.63300 1.64700 28.13200
C  41.87700 1.20100 30.06200
N  35.18100 2.79900 28.77700
C  36.23700 2.41500 27.97300
C  35.77000 2.20600 26.52200
C  34.30800 2.57600 26.52300
C  34.01500 2.70100 28.09300
C  36.59400 2.96100 25.40700
C  33.52500 1.41800 25.76300
C  32.18500 1.88000 25.06400
N  33.11300 3.52600 30.87000
C  32.33700 3.59400 29.78600
C  31.03900 4.02000 30.24000
C  31.20000 4.27200 31.63400
C  32.56800 4.03000 31.93200
C  29.74500 4.20600 29.49100
C  30.52500 4.74200 32.78900
O  29.36600 5.07700 32.96100
C  31.56100 4.62700 33.94700
C  31.57500 5.92300 34.79200
O  32.24900 6.94200 34.54500
O  30.63000 5.83700 35.78800
C  30.39100 7.08700 36.60100
H  38.36500 3.20200 34.18900
H  38.21600 1.88400 27.66200
H  32.16100 3.32200 27.63200
H  34.18400 5.08200 35.68400
H  36.54900 3.45200 36.07900
H  37.20300 5.42400 36.84500
H  36.07700 6.25900 35.87100
H  37.52700 5.79000 35.04600
H  34.70700 2.31300 36.56500
H  33.36500 2.22000 35.58200
H  33.28100 2.67100 38.20400
H  31.93500 3.36500 37.18400
H  40.91600 1.52700 32.81300
H  40.17100 2.94200 33.66100
H  41.35700 3.19800 32.43000
H  42.67000 0.96300 29.35300
H  41.50100 0.39800 30.69500
H  42.36800 1.87500 30.76400
H  35.93900 1.14700 26.32600
H  34.19300 3.58300 26.12200
H  36.39100 4.02300 25.27100
H  36.49200 2.45500 24.44600
H  37.65500 2.84100 25.62600
H  33.36400 0.64500 26.51400
H  34.19000 1.13600 24.94700
H  32.14600 1.52400 24.03500
H  31.96400 2.94400 24.97200
H  31.47400 1.36400 25.70900
H  29.97400 3.88700 28.47400
H  29.54700 5.27800 29.50900
H  28.98100 3.64900 30.03200
H  31.39300 3.80400 34.64200
H  31.14500 7.30900 37.35700
H  29.41200 6.95700 37.06200
H  30.17000 7.96300 35.99100
Mg -3.00000 34.22700 26.42800
C  -4.76900 32.73800 29.11900
C  -2.18500 36.79700 28.67500
C  -1.20300 35.45700 24.10300
C  -4.23200 31.75900 24.30100
N  -3.55200 34.71500 28.64700
C  -4.15600 33.92000 29.53000
C  -4.13600 34.54900 30.92800
C  -3.43200 35.92900 30.69300
C  -3.07800 35.88300 29.21700
C  -4.16400 37.24900 31.17500
C  -3.35600 33.65800 32.04700
C  -3.18300 34.34800 33.35300
H  -3.49300 33.67900 34.69600
N  -1.79000 35.86700 26.43700
C  -1.61800 36.78400 27.36300
C  -0.71400 37.71000 26.89000
C  -0.30800 37.33500 25.61400
C  -1.15500 36.16600 25.33600
C  -0.26800 38.84300 27.71100
C  0.77600 38.04000 24.73700
O  1.03500 37.63700 23.65300
C  1.51700 39.24400 25.26700
N  -2.63600 33.66400 24.56300
C  -1.82000 34.25900 23.74400
C  -1.65200 33.60300 22.33600
C  -2.71600 32.53100 22.34700
C  -3.21400 32.61800 23.88800
C  -1.65400 34.63200 21.14800
C  -2.24000 31.18600 21.82400
C  -3.13600 30.56800 20.73200
N  -4.23200 32.64300 26.64500
C  -4.71600 31.71300 25.63700
C  -5.63600 30.76800 26.26000
C  -5.63800 31.15000 27.61300
C  -4.78500 32.29900 27.75800
C  -6.48200 29.68800 25.61100
C  -6.20200 30.74100 28.93300
O  -6.99300 29.88000 29.26100
C  -5.58400 31.75500 29.94400
C  -6.70400 32.36200 30.66400
O  -7.57600 32.99400 30.14100
O  -6.47900 32.34100 32.01800
C  -7.36800 33.05100 32.96100
H  -1.73800 37.38700 29.47800
H  -0.48000 35.86700 23.39500
H  -4.73300 31.08000 23.60900
H  -5.15800 34.80500 31.20700
H  -2.47500 35.95800 31.21300
H  -5.17100 37.01000 31.51600
H  -4.31000 37.93900 30.34400
H  -3.55800 37.77300 31.91400
H  -2.39400 33.34400 31.64200
H  -3.86600 32.71000 32.21900
H  -3.68100 35.31700 33.38900
H  -2.12100 34.57900 33.44300
H  -0.48600 39.73200 27.11800
H  0.77600 38.77900 28.01800
H  -0.75600 39.03100 28.66700
H  2.27100 39.49900 24.52300
H  1.94800 39.00800 26.24000
H  0.85300 40.10900 25.25200
H  -0.66600 33.15900 22.47400
H  -3.53900 32.80400 21.68700
H  -2.19000 35.49100 21.55000
H  -2.22100 34.24300 20.30100
H  -0.63400 34.95200 20.93200
H  -2.26600 30.45300 22.63000
H  -1.19300 31.20500 21.52400
H  -3.20300 29.48700 20.85500
H  -2.83600 30.76500 19.70300
H  -4.12300 31.01200 20.86200
H  -5.98400 29.25100 24.74600
H  -7.41000 30.13500 25.25700
H  -6.71900 28.90700 26.33400
H  -4.90300 31.16500 30.55500
H  -6.99600 34.06400 33.11200
H  -7.38200 32.46000 33.87700
H  -8.41900 33.06700 32.67300

