158

Mg 49.29900 35.00700 28.11000
C  47.03300 33.75700 30.57400
C  49.56000 37.89000 29.93100
C  51.15400 36.31700 25.71700
C  48.60700 32.18900 26.28900
N  48.32700 35.77600 30.03100
C  47.52300 35.01400 30.85600
C  47.23300 35.77900 32.23600
C  47.81500 37.20600 31.85800
C  48.69300 36.98300 30.55200
C  46.75800 38.36400 31.72600
C  47.94700 35.04100 33.43000
C  48.90500 35.78600 34.40000
H  48.22200 36.75400 35.39000
N  50.18500 36.92500 27.85600
C  50.19000 37.93800 28.71300
C  51.04100 39.02400 28.25700
C  51.71600 38.51400 27.10100
C  51.04800 37.22700 26.85000
C  51.26500 40.35400 29.06400
C  52.95000 39.06400 26.40000
O  53.42000 38.44300 25.45900
C  53.50600 40.45500 26.70700
N  49.63200 34.45300 26.28500
C  50.43200 35.17600 25.44300
C  50.65900 34.36000 24.15300
C  50.15100 32.91400 24.40800
C  49.43900 33.18600 25.71500
C  50.08100 34.97500 22.90600
C  51.15300 31.79800 24.56600
C  51.00500 30.57400 23.57200
N  48.20200 33.23900 28.43300
C  47.94600 32.22100 27.50700
C  47.04800 31.26900 28.08300
C  46.66800 31.84000 29.28000
C  47.36100 33.05000 29.45800
C  46.63100 30.00500 27.38200
C  45.74600 31.61900 30.37200
O  44.99500 30.69800 30.68400
C  46.03400 32.76600 31.32500
C  46.39000 32.19200 32.67200
O  47.45500 31.63000 32.97000
O  45.30800 32.42700 33.47900
C  45.74100 32.34500 34.91500
H  49.56400 38.78600 30.55500
H  51.81300 36.67700 24.92500
H  48.51700 31.23000 25.77400
H  46.15200 35.78900 32.37200
H  48.49700 37.59300 32.61400
H  47.05300 39.16800 32.40100
H  45.72000 38.05700 31.85800
H  46.82400 38.69100 30.68800
H  48.44400 34.11200 33.15100
H  47.14800 34.66700 34.07100
H  49.60700 36.30000 33.74400
H  49.40000 34.91300 34.82600
H  52.15400 40.20700 29.67700
H  50.46800 40.43700 29.80400
H  51.31700 41.23600 28.42600
H  52.56600 41.00500 26.68000
H  54.25400 40.65700 25.94100
H  53.91500 40.40600 27.71700
H  51.74500 34.30500 24.08500
H  49.41100 32.75100 23.62500
H  50.86800 35.46300 22.33000
H  49.31800 35.69700 23.19600
H  49.76200 34.25200 22.15600
H  51.17200 31.35400 25.56100
H  52.15800 32.17500 24.37800
H  50.39900 30.79600 22.69400
H  50.38600 29.85500 24.10800
H  52.03700 30.41200 23.26000
H  45.73400 30.22600 26.80300
H  46.42800 29.26400 28.15500
H  47.43800 29.70500 26.71400
H  45.03800 33.19700 31.43200
H  46.68600 32.86600 35.06600
H  45.80900 31.30800 35.24100
H  44.99200 32.81400 35.55400
Mg 36.43200 49.03900 24.91200
C  36.72400 47.52900 28.01200
C  34.54900 51.62000 26.52600
C  35.64400 50.34000 21.97500
C  37.94200 46.42100 23.38700
N  35.59800 49.47300 26.99300
C  36.04000 48.74200 28.12000
C  35.74200 49.53200 29.38100
C  34.91700 50.80100 28.86600
C  35.01700 50.61600 27.39400
C  33.52200 50.97300 29.49000
C  36.95500 50.02300 30.25400
C  36.89500 49.82500 31.73900
H  35.51400 49.58800 32.39400
N  35.23100 50.72100 24.32500
C  34.65000 51.71900 25.10300
C  34.04100 52.68900 24.26300
C  34.54100 52.35400 22.95700
C  35.16000 51.12400 23.02300
C  33.33300 53.97100 24.78700
C  34.44800 53.14700 21.69600
O  34.85800 52.76200 20.55500
C  33.86700 54.56200 21.68300
N  36.45000 48.27100 22.93900
C  36.18500 49.04900 21.89200
C  36.55200 48.39800 20.58100
C  37.47000 47.23800 21.06200
C  37.31200 47.32900 22.57200
C  35.34700 47.84400 19.74200
C  38.98700 47.46800 20.61300
C  39.33400 46.52900 19.46200
N  37.36600 47.36400 25.54700
C  37.93200 46.34800 24.81500
C  38.58100 45.34900 25.69200
C  38.06800 45.76200 26.99300
C  37.36500 46.97200 26.84800
C  39.32600 44.06700 25.38000
C  37.97800 45.42200 28.38300
O  38.50200 44.46700 29.05500
C  37.09600 46.58200 29.06100
C  35.95600 46.07700 29.84200
O  34.89700 45.79000 29.44500
O  36.44000 45.70800 31.06500
C  35.59500 44.94700 32.01900
H  33.96600 52.42000 26.98700
H  35.60900 50.75400 20.96500
H  38.54600 45.63200 22.93500
H  35.16800 48.78700 29.93400
H  35.49100 51.70900 29.04900
H  33.22300 50.11900 30.09700
H  32.71400 50.99700 28.75900
H  33.35200 51.86000 30.10100
H  37.18100 51.08900 30.22600
H  37.82900 49.45300 29.94100
H  37.35000 50.69400 32.21500
H  37.47500 48.93400 31.97800
H  34.03800 54.80200 24.79200
H  32.89000 53.69600 25.74500
H  32.56100 54.15700 24.04100
H  33.88900 54.91600 20.65200
H  34.25300 55.36200 22.31400
H  32.78500 54.48700 21.79100
H  36.99600 49.17700 19.96100
H  37.03700 46.27200 20.80200
H  34.43800 47.99200 20.32500
H  35.47300 46.79400 19.47600
H  35.31500 48.43100 18.82500
H  39.75200 47.20300 21.34300
H  39.08500 48.53300 20.40500
H  40.20100 45.96700 19.81100
H  39.54100 46.97700 18.49000
H  38.49500 45.84700 19.32600
H  38.78600 43.39700 24.71100
H  39.52900 43.65400 26.36800
H  40.20700 44.37800 24.81900
H  37.80700 47.09500 29.70800
H  36.15800 44.08400 32.37200
H  34.59100 44.65500 31.71000
H  35.52900 45.65200 32.84800

