158

Mg 46.64200 16.91700 28.45500
C  44.47300 16.34200 31.34800
C  48.75600 18.57700 30.53700
C  48.28800 17.80600 25.74600
C  44.13900 15.48000 26.45100
N  46.65900 17.31100 30.64200
C  45.70600 17.01700 31.61800
C  46.22400 17.39400 32.95400
C  47.39000 18.34200 32.65400
C  47.65700 18.08300 31.18000
C  47.13000 19.81600 33.02600
C  46.61500 16.20700 33.73200
C  47.12200 16.40900 35.19000
H  46.79500 17.73400 35.84700
N  48.35200 17.96900 28.16600
C  49.13000 18.54900 29.16600
C  50.27700 19.14500 28.54400
C  50.24800 18.76400 27.16300
C  48.88500 18.20800 26.95900
C  51.25200 19.94200 29.29500
C  51.28900 18.84300 26.00200
O  51.11800 18.39600 24.87200
C  52.70500 19.35300 26.33300
N  46.27800 16.56000 26.45400
C  47.13000 17.06600 25.46200
C  46.57500 16.84300 24.05900
C  45.40500 15.87800 24.26300
C  45.21900 15.96200 25.79400
C  46.38400 18.14600 23.23700
C  45.59700 14.38800 23.83400
C  46.45600 13.47600 24.66900
N  44.68600 16.11000 28.77400
C  43.81000 15.45600 27.85500
C  42.67600 14.88700 28.55000
C  42.85200 15.29900 29.87500
C  44.13000 15.94900 29.96200
C  41.49600 14.17900 27.92700
C  42.27100 15.37100 31.17500
O  41.13200 15.00100 31.58100
C  43.28600 15.91200 32.17200
C  42.70000 16.98800 32.93000
O  42.12700 17.96500 32.46900
O  43.15200 16.90700 34.25000
C  42.67300 18.04200 35.02100
H  49.56200 19.03600 31.11300
H  48.92800 18.10200 24.91100
H  43.44800 15.04500 25.72600
H  45.39700 17.94400 33.40300
H  48.31900 18.12400 33.18200
H  46.51000 20.17500 32.20400
H  48.07600 20.35700 33.03300
H  46.73300 19.86200 34.04000
H  47.50200 15.81800 33.23300
H  45.89900 15.38600 33.67600
H  48.19800 16.24200 35.15400
H  46.59400 15.69900 35.82700
H  51.49000 20.75600 28.61000
H  52.21100 19.43000 29.38100
H  50.93800 20.24100 30.29500
H  53.42800 19.40000 25.51900
H  53.12300 18.90500 27.23500
H  52.36200 20.36800 26.53000
H  47.38400 16.26100 23.61800
H  44.49900 16.29900 23.82600
H  45.31700 18.23700 23.03600
H  46.96500 18.00800 22.32500
H  46.82000 18.97800 23.79000
H  46.10800 14.39400 22.87100
H  44.59900 13.95900 23.74300
H  45.93600 13.35900 25.62000
H  47.36100 13.97700 25.01000
H  46.74700 12.48700 24.31600
H  41.84300 13.25300 27.46800
H  41.21600 14.99000 27.25400
H  40.66800 13.95200 28.59900
H  43.63200 15.18600 32.90800
H  41.59600 18.11500 34.86600
H  43.14300 18.96200 34.67400
H  42.78000 17.78500 36.07500
Mg 0.43400 42.49200 25.96400
C  2.28400 42.68700 29.05200
C  -2.23300 41.34800 27.80000
C  -0.99200 41.84500 23.12500
C  3.36200 43.40700 24.36000
N  0.08600 42.17500 28.26300
C  0.97000 42.32700 29.31000
C  0.16100 42.37900 30.57500
C  -1.31800 41.87700 30.19500
C  -1.15400 41.84400 28.63000
C  -1.73900 40.42800 30.70500
C  0.28300 43.64900 31.38000
C  0.58300 43.56800 32.87600
H  0.36100 42.29400 33.62000
N  -1.34500 41.76100 25.52800
C  -2.31600 41.24900 26.37500
C  -3.48400 40.77800 25.66600
C  -3.09200 40.84000 24.25700
C  -1.75200 41.49800 24.26100
C  -4.73400 40.28400 26.31900
C  -4.02500 40.48200 23.09900
O  -3.54600 40.42000 21.94100
C  -5.39700 39.91300 23.26200
N  1.14700 42.59700 24.02600
C  0.31900 42.38000 23.01400
C  1.00500 42.65600 21.64200
C  2.23900 43.46400 22.08500
C  2.27800 43.13800 23.55500
C  1.35200 41.44800 20.76600
C  2.17000 44.98600 21.95300
C  3.19000 45.60500 20.97200
N  2.43300 42.89400 26.47600
C  3.48900 43.19700 25.71100
C  4.71600 43.36900 26.42000
C  4.27000 43.13000 27.76700
C  2.88400 42.86500 27.75900
C  6.06100 43.71300 25.92600
C  4.71100 43.05600 29.09600
O  5.87600 42.98500 29.54900
C  3.40400 42.82600 30.01700
C  3.56400 41.59800 30.86900
O  3.70800 40.46200 30.46900
O  3.85700 42.08400 32.14800
C  4.38200 40.98300 33.04500
H  -3.10100 41.02800 28.38100
H  -1.42800 41.69400 22.13600
H  4.22200 43.77800 23.79800
H  0.67600 41.58600 31.11800
H  -2.17100 42.54500 30.31600
H  -1.19100 40.17000 31.61100
H  -1.42000 39.77800 29.89000
H  -2.81200 40.32100 30.86700
H  -0.67100 44.15300 31.22600
H  1.08500 44.34800 31.14100
H  -0.02400 44.30800 33.39800
H  1.60100 43.94300 32.99000
H  -4.59300 40.15400 27.39200
H  -5.16300 39.38600 25.87500
H  -5.47300 41.07700 26.20100
H  -6.07400 40.60800 23.75800
H  -5.15100 38.99500 23.79600
H  -5.80200 39.70800 22.27100
H  0.37400 43.35600 21.09400
H  3.17800 43.10000 21.66700
H  0.84100 40.57800 21.17800
H  2.43200 41.32100 20.68600
H  0.87200 41.71600 19.82500
H  2.21200 45.55200 22.88300
H  1.13700 45.13000 21.63800
H  2.64900 46.20100 20.23700
H  3.57400 44.80900 20.33300
H  4.10300 46.00700 21.41000
H  6.74100 43.10200 26.51900
H  6.27900 44.78100 25.90800
H  6.16800 43.25600 24.94200
H  3.20600 43.74700 30.56500
H  4.49200 41.24700 34.09600
H  5.35800 40.63900 32.70200
H  3.70400 40.13300 32.96500

