158

Mg 2.04500 0.12000 44.03500
C  5.54800 0.26600 43.03400
C  1.59000 2.62000 41.61700
C  -1.20100 -0.64800 43.96200
C  2.84500 -2.94100 45.69100
N  3.41800 1.27000 42.42100
C  4.80100 1.25300 42.32200
C  5.24200 2.35600 41.35800
C  4.05000 3.35500 41.31800
C  2.94500 2.28300 41.68800
C  4.05400 4.49400 42.37800
C  5.70700 1.84700 39.93300
C  7.07400 2.33800 39.38000
H  7.06600 2.89600 37.96600
N  0.43200 0.81000 42.90900
C  0.45400 1.87100 42.05300
C  -0.94500 2.24800 41.75800
C  -1.78100 1.37800 42.47700
C  -0.91200 0.44000 43.16900
C  -1.33800 3.45700 40.97300
C  -3.31800 1.40000 42.40600
O  -3.89000 2.34100 41.91000
C  -4.18500 0.34400 43.01300
N  1.02600 -1.73100 44.47900
C  -0.31800 -1.58700 44.59600
C  -0.87400 -2.70000 45.39600
C  0.40100 -3.48900 45.93700
C  1.51200 -2.69100 45.31800
C  -1.96700 -2.35800 46.46400
C  0.45600 -5.03000 45.48600
C  -0.36500 -6.00300 46.33700
N  3.76600 -0.99200 44.42800
C  3.90200 -2.17500 45.16800
C  5.24700 -2.61500 45.17400
C  5.97100 -1.65200 44.39100
C  4.98600 -0.70300 43.95000
C  5.87200 -3.77200 45.90000
C  7.26700 -1.29700 43.84400
O  8.37200 -1.85500 43.97500
C  7.03800 -0.05300 42.92000
C  7.78200 1.12200 43.38000
O  7.80400 1.67400 44.53200
O  8.54800 1.55100 42.30700
C  9.41900 2.66900 42.67500
H  1.36300 3.42300 40.91300
H  -2.26500 -0.74700 44.18700
H  3.11000 -3.68700 46.44300
H  6.08400 2.92200 41.75600
H  3.87400 3.81600 40.34500
H  3.11500 4.56000 42.92700
H  4.26500 5.42000 41.84400
H  4.88500 4.34000 43.06700
H  4.88400 2.02300 39.24000
H  5.65000 0.76100 40.00700
H  7.74300 1.49700 39.19500
H  7.52700 3.03800 40.08100
H  -2.15200 3.12800 40.32600
H  -0.55900 3.77400 40.28100
H  -1.69800 4.34000 41.50100
H  -5.24600 0.54000 42.86200
H  -4.05200 0.47200 44.08700
H  -3.84000 -0.60900 42.61000
H  -1.47000 -3.34000 44.74600
H  0.59900 -3.59500 47.00400
H  -2.83100 -3.00700 46.32200
H  -2.36600 -1.34600 46.39900
H  -1.64900 -2.50300 47.49600
H  1.45800 -5.40800 45.68900
H  0.18600 -5.08700 44.43100
H  -0.73100 -5.43900 47.19500
H  0.14100 -6.85700 46.78700
H  -1.19200 -6.37800 45.73500
H  6.88200 -3.95200 45.53200
H  5.34800 -4.69000 45.63300
H  6.04800 -3.73100 46.97500
H  7.37200 -0.29100 41.91000
H  8.84900 3.58800 42.81500
H  9.98700 2.86300 41.76500
H  9.97900 2.48000 43.59100
Mg 30.12100 58.42500 40.56000
C  27.26400 56.46500 39.97200
C  31.91600 55.54300 39.97100
C  32.82700 60.34800 40.40300
C  28.04000 61.27100 40.69300
N  29.49600 56.24100 40.04200
C  28.36400 55.68300 39.82000
C  28.53700 54.17600 39.39000
C  29.99300 53.86100 39.84400
C  30.52000 55.28700 39.94000
C  30.12600 52.97200 41.10300
C  28.27200 54.06200 37.82500
C  26.96800 53.51300 37.38600
H  26.14100 54.33100 36.38900
N  32.10000 57.98200 40.40200
C  32.66500 56.73200 40.22900
C  34.12900 56.90200 40.29900
C  34.39100 58.28500 40.62100
C  33.05700 58.97800 40.54300
C  35.13500 55.87200 39.91100
C  35.73900 58.84700 40.99800
O  36.75700 58.15500 40.97800
C  35.89200 60.32000 41.41600
N  30.38800 60.54300 40.47000
C  31.63700 61.10500 40.42400
C  31.62100 62.65500 40.48900
C  30.06200 62.95300 40.59800
C  29.43000 61.52400 40.68300
C  32.59600 63.28200 41.55600
C  29.47400 63.78500 39.46500
C  28.98400 65.16900 39.83300
N  28.04100 58.85500 40.48700
C  27.33400 60.04500 40.48600
C  25.91900 59.68100 40.35300
C  25.86400 58.31600 40.24800
C  27.18600 57.85200 40.22800
C  24.67400 60.60300 40.36800
C  24.91700 57.23100 40.09700
O  23.72700 57.31100 40.08900
C  25.86200 55.94700 39.89100
C  25.51500 54.99000 40.98700
O  25.31300 55.32500 42.15000
O  25.32100 53.72400 40.48200
C  24.92600 52.86200 41.56200
H  32.61400 54.70600 39.91000
H  33.72600 60.96700 40.39400
H  27.47800 62.18600 40.89200
H  27.78100 53.61800 39.94300
H  30.51800 53.24600 39.11300
H  30.45200 51.94900 40.91600
H  29.12600 52.92400 41.53600
H  30.71900 53.46000 41.87600
H  29.12800 53.47100 37.49800
H  28.32400 55.00900 37.28700
H  26.34300 53.38600 38.27000
H  27.28000 52.57100 36.93500
H  35.92900 56.34900 39.33800
H  34.62300 55.11000 39.32300
H  35.61600 55.44700 40.79300
H  36.86900 60.39100 41.89300
H  35.08800 60.68500 42.05600
H  35.96900 60.94300 40.52500
H  31.99800 62.91000 39.49900
H  29.93500 63.25900 41.63700
H  33.38200 63.87700 41.09000
H  33.15600 62.54800 42.13700
H  32.11300 63.91900 42.29700
H  28.55500 63.31700 39.11000
H  30.19900 63.82600 38.65200
H  29.02800 65.82100 38.95900
H  29.51700 65.63000 40.66400
H  27.95800 65.19800 40.20000
H  24.90600 61.33900 41.13800
H  23.80300 59.99800 40.62000
H  24.45900 61.13300 39.44000
H  25.53800 55.46900 38.96700
H  23.93800 53.16400 41.91000
H  25.59400 53.03300 42.40600
H  24.95100 51.79700 41.33100

