158

Mg 44.44200 4.73900 47.19900
C  42.33800 7.45800 46.91100
C  41.67200 2.66600 46.64000
C  46.51800 2.16800 46.79200
C  47.21500 6.91500 46.89300
N  42.18400 5.02700 46.83700
C  41.55300 6.29400 46.68100
C  39.97000 6.15200 46.61800
C  39.84700 4.57900 46.55100
C  41.31000 4.07900 46.71700
C  38.89100 3.98400 47.67700
C  39.34400 6.82700 45.37600
C  39.82600 6.21800 44.04900
H  40.46800 7.26400 43.14300
N  44.16700 2.65200 46.79100
C  42.95400 2.01000 46.69700
C  43.23300 0.59000 46.62200
C  44.61500 0.36300 46.59100
C  45.19800 1.74500 46.71100
C  42.05600 -0.42400 46.57300
C  45.30100 -1.00300 46.59200
O  44.59400 -2.03300 46.65300
C  46.77600 -1.05200 46.58400
N  46.53500 4.60000 46.74600
C  47.15600 3.43500 46.83000
C  48.63500 3.56700 47.07900
C  48.82700 5.06800 46.78600
C  47.38800 5.58200 46.71000
C  49.10300 3.17300 48.48700
C  49.64900 5.40900 45.50600
C  51.21100 5.35100 45.73700
N  44.78500 6.77000 47.07800
C  45.93400 7.47900 46.99600
C  45.58300 8.91100 46.92200
C  44.16300 8.91900 46.93200
C  43.73800 7.57700 47.04400
C  46.56000 10.02800 46.73000
C  42.98500 9.75100 46.93200
O  42.78400 10.99200 46.94100
C  41.73900 8.78200 47.08000
C  41.01800 8.99900 48.43000
O  41.09500 8.29500 49.40700
O  40.33500 10.20100 48.39400
C  39.70800 10.54800 49.69100
H  40.72900 2.12000 46.56900
H  47.27700 1.40900 46.59100
H  48.01000 7.66200 46.94500
H  39.58700 6.61700 47.52600
H  39.47100 4.12700 45.63300
H  38.09300 4.68700 47.91900
H  39.51300 3.72500 48.53300
H  38.42800 3.06800 47.31000
H  39.46100 7.90900 45.32200
H  38.26100 6.69800 45.36500
H  38.94700 5.85700 43.51500
H  40.54300 5.43500 44.29900
H  42.03400 -0.83300 47.58300
H  42.15000 -1.32100 45.96000
H  41.11700 -0.00300 46.21400
H  47.16800 -2.05000 46.38500
H  47.05300 -0.64900 47.55900
H  47.11700 -0.44600 45.74600
H  49.21800 2.92000 46.42400
H  49.29500 5.61300 47.60500
H  48.24600 2.73900 49.00100
H  49.36100 4.10500 48.99000
H  49.94500 2.48900 48.38300
H  49.44500 6.41900 45.15100
H  49.34600 4.72600 44.71200
H  51.68100 4.98800 44.82300
H  51.47200 4.80700 46.64500
H  51.56000 6.37200 45.88700
H  47.17500 9.79900 45.85900
H  47.24000 10.00900 47.58200
H  46.09500 11.00200 46.57900
H  41.07100 8.99700 46.24700
H  40.31100 11.23900 50.28000
H  39.31000 9.69400 50.23900
H  38.79900 11.00800 49.30500
Mg -10.01800 16.96600 40.44500
C  -6.60900 16.84400 40.54400
C  -9.76700 20.35800 39.57300
C  -13.40000 17.04400 39.95900
C  -10.05800 13.48900 40.44500
N  -8.35200 18.34600 39.96100
C  -7.07600 18.05000 40.10500
C  -6.26500 19.22300 39.53500
C  -7.17000 20.43900 39.74400
C  -8.50400 19.71300 39.75300
C  -6.95000 21.30900 40.98700
C  -5.79100 18.94200 38.07100
C  -4.37800 18.61500 37.66000
H  -4.14500 17.22900 37.01400
N  -11.38200 18.53400 39.92200
C  -11.08300 19.86600 39.54600
C  -12.30800 20.56900 39.28300
C  -13.37600 19.61400 39.44900
C  -12.72100 18.33200 39.82200
C  -12.27700 22.02200 38.99900
C  -14.79100 19.91200 39.36000
O  -15.10400 21.08400 39.13600
C  -15.87000 18.96200 39.59200
N  -11.47900 15.49300 40.18700
C  -12.85600 15.76700 40.06300
C  -13.68500 14.47500 39.98300
C  -12.51000 13.33500 39.95300
C  -11.25600 14.16500 40.19800
C  -14.67100 14.23600 41.10800
C  -12.33000 12.57000 38.58200
C  -12.39500 11.00400 38.63600
N  -8.67500 15.36900 40.57100
C  -8.82700 14.09400 40.64100
C  -7.46200 13.46200 40.98600
C  -6.58300 14.54100 41.06600
C  -7.37000 15.63200 40.70800
C  -7.30300 11.99400 41.20600
C  -5.20900 14.94900 41.25600
O  -4.25700 14.26300 41.66500
C  -5.10900 16.42700 40.82400
C  -4.62600 17.36500 41.93400
O  -5.30200 18.17500 42.53600
O  -3.32900 17.10800 42.24300
C  -2.73800 18.01100 43.24000
H  -9.60500 21.38900 39.25100
H  -14.44700 17.01300 39.65100
H  -10.18500 12.40500 40.47200
H  -5.38000 19.24900 40.17100
H  -7.25700 21.17200 38.94200
H  -6.04800 21.00600 41.51800
H  -7.80200 21.18000 41.65500
H  -6.75600 22.34300 40.70500
H  -6.02300 19.79500 37.43400
H  -6.41600 18.16000 37.64000
H  -3.75500 18.72000 38.54800
H  -4.14500 19.32500 36.86700
H  -12.25200 22.59300 39.92700
H  -13.03100 22.25300 38.24700
H  -11.32800 22.28300 38.52900
H  -15.70100 18.51800 40.57300
H  -15.86100 18.20200 38.81000
H  -16.84600 19.44500 39.56600
H  -14.27800 14.46100 39.06800
H  -12.67200 12.64200 40.77900
H  -14.47300 14.93900 41.91700
H  -14.55400 13.20300 41.43400
H  -15.71100 14.48300 40.89200
H  -11.34200 12.78700 38.17400
H  -13.00900 12.91400 37.80200
H  -12.00800 10.70800 39.61100
H  -11.63900 10.58200 37.97300
H  -13.39800 10.62300 38.44500
H  -6.47100 11.66100 41.82700
H  -7.15100 11.46600 40.26500
H  -8.12200 11.51300 41.74100
H  -4.53100 16.53800 39.90700
H  -2.80400 18.98600 42.75700
H  -1.69400 17.91700 43.54100
H  -3.36100 17.99200 44.13400

