158

Mg 41.97600 40.60800 27.00400
C  41.28000 42.93400 29.32300
C  43.17300 38.40700 29.38900
C  42.17000 38.32300 24.57000
C  41.46200 43.03400 24.51300
N  42.13000 40.61000 29.10400
C  41.71600 41.68900 29.85900
C  41.85800 41.30800 31.35200
C  42.66500 39.93900 31.38300
C  42.73500 39.64000 29.87600
C  44.03100 39.92200 32.21800
C  40.50800 41.22200 32.10900
C  40.18000 42.15300 33.22800
H  39.74000 41.71500 34.61900
N  42.53900 38.62000 26.94700
C  42.98800 37.86600 28.05500
C  43.18600 36.51700 27.62100
C  42.92900 36.44500 26.26500
C  42.52100 37.82500 25.85800
C  43.62800 35.46100 28.52500
C  43.10500 35.26300 25.18300
O  42.81500 35.36700 23.95300
C  43.49500 33.90500 25.61600
N  41.98600 40.73000 24.79300
C  41.90200 39.62600 24.05200
C  41.55100 39.92500 22.60000
C  41.34700 41.39100 22.58400
C  41.63800 41.77200 24.01400
C  42.57500 39.38600 21.60400
C  40.02800 41.99500 21.96000
C  40.27600 43.11600 20.89800
N  41.52700 42.56700 26.87900
C  41.30300 43.41400 25.80900
C  40.96400 44.72800 26.30500
C  40.87200 44.58300 27.71700
C  41.27700 43.32600 27.99700
C  40.72500 45.95900 25.54500
C  40.49500 45.27600 28.95400
O  40.09200 46.42200 29.18000
C  40.83800 44.24300 30.04300
C  41.81400 44.71200 31.05700
O  42.99300 44.76800 30.89700
O  41.12600 45.24400 32.09400
C  41.80600 45.55500 33.35100
H  43.39600 37.76200 30.24200
H  42.12000 37.65500 23.70800
H  41.17300 43.68800 23.68700
H  42.40200 42.16000 31.75900
H  42.01000 39.15700 31.76700
H  43.74400 39.20400 32.98700
H  44.30400 40.86900 32.68500
H  44.86300 39.62400 31.57900
H  40.29000 40.19200 32.38800
H  39.83100 41.42800 31.28000
H  39.22000 42.54800 32.89400
H  40.82800 43.02800 33.27100
H  42.96000 34.61700 28.35300
H  43.65800 35.65900 29.59600
H  44.63500 35.17200 28.22500
H  42.70200 33.60300 26.30000
H  44.51100 33.87900 26.00800
H  43.43600 33.25900 24.74000
H  40.57500 39.49300 22.37900
H  42.12700 41.82800 21.96000
H  43.27600 38.71300 22.09900
H  43.08500 40.21900 21.11900
H  41.97000 38.89200 20.84400
H  39.42800 42.32900 22.80700
H  39.46100 41.22200 21.44300
H  39.94100 42.81800 19.90400
H  41.34100 43.32300 20.78800
H  39.53400 43.85700 21.19300
H  39.70000 45.92200 25.17600
H  41.47900 45.96800 24.75900
H  40.80500 46.87200 26.13600
H  39.92500 44.08000 30.61700
H  42.32900 46.51100 33.36800
H  42.45000 44.71800 33.62300
H  40.94000 45.53900 34.01200
Mg 9.60500 47.61800 26.45100
C  7.63500 47.81200 29.21900
C  12.26500 49.11000 27.95600
C  11.26000 47.51300 23.52300
C  6.69500 46.48800 24.57400
N  9.91900 48.40200 28.40600
C  9.00900 48.30500 29.37900
C  9.59200 48.81900 30.71600
C  10.87700 49.64400 30.14200
C  11.05700 49.09600 28.73400
C  10.91400 51.16900 30.31900
C  9.87400 47.72100 31.75000
C  9.35900 47.90600 33.20300
H  9.25200 46.68300 34.05800
N  11.55400 48.15400 25.90800
C  12.54700 48.63700 26.71500
C  13.79400 48.59700 26.07200
C  13.49400 48.18000 24.73600
C  12.06500 47.91000 24.65600
C  15.07600 48.86500 26.74800
C  14.48300 47.91900 23.62300
O  14.16600 47.54200 22.51900
C  15.93100 48.12000 23.81100
N  8.93000 47.07900 24.37900
C  9.88000 47.08600 23.37300
C  9.35800 46.43200 22.09100
C  7.94400 45.89400 22.49700
C  7.84500 46.54300 23.88000
C  9.49200 47.30500 20.81700
C  7.86400 44.33800 22.58500
C  8.85400 43.65400 23.50600
N  7.60000 47.30800 26.83600
C  6.50200 46.82600 25.96100
C  5.31300 46.85400 26.67300
C  5.65700 47.21200 27.99100
C  7.07500 47.39100 28.01900
C  3.93900 46.72000 26.15000
C  5.19600 47.43600 29.35600
O  4.08000 47.42700 29.73100
C  6.44700 47.80700 30.28600
C  6.52600 46.51000 31.17000
O  7.19800 45.54900 30.84700
O  5.68100 46.59600 32.19900
C  5.64100 45.32800 32.98400
H  13.16700 49.51300 28.42200
H  11.89600 47.34100 22.65200
H  5.76400 46.19000 24.08600
H  8.86600 49.50600 31.15200
H  11.61900 49.27400 30.85000
H  9.90500 51.58100 30.34300
H  11.52600 51.65300 29.55800
H  11.31800 51.35100 31.31500
H  10.94700 47.52800 31.73600
H  9.42200 46.77400 31.45700
H  8.38800 48.35800 33.00400
H  9.95400 48.63000 33.76000
H  15.64900 47.96700 26.98100
H  14.89700 49.45900 27.64400
H  15.71500 49.45600 26.09200
H  16.49900 47.47600 24.48200
H  16.19900 49.14600 24.06100
H  16.37900 47.94800 22.83200
H  10.02900 45.60300 21.86600
H  7.13500 46.28500 21.87900
H  9.54600 48.35700 21.09700
H  8.65900 47.34000 20.11500
H  10.34300 47.05500 20.18400
H  8.07700 43.94800 21.58900
H  6.83000 44.09300 22.82800
H  8.22300 43.14300 24.23300
H  9.56000 44.27500 24.05600
H  9.33600 42.84300 22.96000
H  3.95900 46.20100 25.19100
H  3.56700 47.73700 26.02100
H  3.29900 46.12400 26.80000
H  6.33200 48.74100 30.83700
H  5.71600 45.69500 34.00800
H  6.47100 44.63700 32.83500
H  4.69400 44.79000 32.94500

