158

Mg 46.21300 44.25300 43.08100
C  42.90200 43.38000 42.53000
C  46.92400 40.94600 42.69100
C  49.49900 45.07500 42.80300
C  45.38400 47.68900 43.23000
N  45.07000 42.42700 42.64200
C  43.72500 42.27200 42.45600
C  43.21200 40.81500 42.39500
C  44.51300 40.03800 42.57800
C  45.58000 41.22100 42.66800
C  44.42800 39.07300 43.78200
C  42.41900 40.34700 41.18500
C  43.03800 40.93200 39.85800
H  42.57000 40.10700 38.66900
N  47.98200 43.12600 42.84200
C  48.05900 41.79500 42.69700
C  49.53700 41.39200 42.54700
C  50.29600 42.59000 42.75200
C  49.25000 43.66500 42.82500
C  50.01900 39.91500 42.38600
C  51.89000 42.72400 42.84300
O  52.57000 41.73600 42.70100
C  52.63700 43.99200 43.03900
N  47.19400 46.09400 42.86400
C  48.55700 46.13500 42.85500
C  49.09800 47.59100 42.76600
C  47.80300 48.35800 43.05800
C  46.70600 47.34000 43.00200
C  50.29600 47.96400 43.65100
C  47.58000 49.71400 42.27600
C  47.23000 50.92400 43.14900
N  44.48100 45.42300 42.82100
C  44.26500 46.76800 43.07700
C  42.79700 46.95200 42.98900
C  42.22500 45.64800 42.83300
C  43.34700 44.74400 42.71600
C  42.03300 48.23700 42.95200
C  40.96300 44.95200 42.67900
O  39.78500 45.26000 42.65800
C  41.42300 43.42500 42.58100
C  40.62000 42.57900 43.54600
O  40.03700 41.56300 43.26500
O  40.81500 42.95300 44.88600
C  40.32800 41.96300 45.81800
H  47.13900 39.87600 42.73100
H  50.51700 45.42900 42.62400
H  45.09500 48.71700 43.46100
H  42.73000 40.77300 43.37200
H  44.78700 39.43800 41.71000
H  43.42800 38.64500 43.84800
H  44.53600 39.67800 44.68200
H  45.18700 38.29600 43.69300
H  41.39900 40.69600 41.34600
H  42.53600 39.26500 41.25000
H  44.10700 41.13200 39.92700
H  42.50300 41.87300 39.72700
H  51.02800 39.94600 41.97400
H  49.37100 39.37500 41.69600
H  49.95000 39.42500 43.35700
H  52.68900 44.48900 42.07000
H  53.65300 43.81200 43.39000
H  52.20200 44.70200 43.74200
H  49.44500 47.66400 41.73500
H  47.70100 48.60800 44.11400
H  50.74200 47.08000 44.10700
H  49.80400 48.52000 44.44800
H  51.09200 48.49300 43.12600
H  46.71400 49.58600 41.62700
H  48.41400 49.93300 41.60900
H  47.79000 50.86400 44.08300
H  46.15700 50.91500 43.34100
H  47.41600 51.84500 42.59700
H  42.07000 48.43300 41.88100
H  42.48900 49.00100 43.58300
H  41.01200 48.19600 43.33100
H  41.05800 43.05800 41.62200
H  39.24000 41.90600 45.85100
H  40.64100 42.25400 46.82000
H  40.67900 40.94600 45.64300
Mg -1.94000 34.15700 26.81600
C  -3.27500 32.55000 29.65200
C  -0.42200 36.46400 28.89100
C  -1.40600 36.21700 24.16000
C  -4.00400 32.15500 24.83900
N  -1.86300 34.44400 28.96400
C  -2.45600 33.64600 29.94700
C  -1.97200 33.98900 31.33100
C  -1.18200 35.35400 31.02500
C  -1.18900 35.47100 29.53500
C  -1.44800 36.66200 31.87000
C  -1.06600 32.88100 31.92900
C  -0.43400 33.33200 33.27500
H  -0.85200 32.40000 34.41600
N  -0.85800 35.99800 26.56000
C  -0.27300 36.72400 27.51300
C  0.43100 37.85700 26.85100
C  0.16300 37.77500 25.44300
C  -0.69600 36.58600 25.31100
C  1.04300 38.95200 27.64300
C  0.79800 38.56700 24.29000
O  0.65100 38.21400 23.13200
C  1.54300 39.84200 24.54200
N  -2.66800 34.22900 24.83300
C  -2.26500 35.09900 23.94900
C  -2.79200 34.77900 22.55700
C  -3.43500 33.39300 22.71800
C  -3.36500 33.20200 24.22900
C  -3.69400 35.96700 22.05600
C  -2.67700 32.22100 22.01600
C  -1.22700 31.82900 22.47100
N  -3.31200 32.60900 27.15400
C  -4.06900 31.91600 26.22700
C  -4.81100 30.84300 26.93000
C  -4.53000 31.07500 28.28800
C  -3.63900 32.14700 28.31900
C  -5.61600 29.75200 26.36900
C  -4.81100 30.59900 29.62800
O  -5.43900 29.58200 30.07900
C  -4.06800 31.63200 30.57600
C  -4.97400 32.36400 31.46300
O  -5.89400 33.13700 31.11500
O  -4.82200 31.80600 32.74700
C  -5.79500 32.31300 33.80200
H  0.13200 37.16700 29.51600
H  -1.17600 36.62200 23.17200
H  -4.63900 31.51200 24.22600
H  -2.77800 34.32000 31.98500
H  -0.11900 35.15600 31.16100
H  -2.05400 36.71400 32.77500
H  -1.64600 37.43200 31.12500
H  -0.44200 36.88800 32.22200
H  -0.30400 32.61400 31.19700
H  -1.56700 31.92500 32.07700
H  -0.65600 34.33700 33.63400
H  0.65000 33.26300 33.18900
H  0.44300 39.85100 27.50000
H  2.00200 39.17300 27.17400
H  1.06900 38.67900 28.69800
H  1.55500 40.36000 23.58400
H  2.50500 39.60100 24.99500
H  0.97800 40.38800 25.29800
H  -1.91700 34.64200 21.92200
H  -4.46200 33.51400 22.37400
H  -3.61600 36.79400 22.76000
H  -4.72900 35.68800 21.85900
H  -3.27300 36.28300 21.10100
H  -2.67300 32.44700 20.94900
H  -3.28000 31.31300 21.98400
H  -1.10300 30.77900 22.20300
H  -1.05200 32.03300 23.52700
H  -0.47600 32.36800 21.89400
H  -5.92200 29.07800 27.16900
H  -5.03900 29.21900 25.61400
H  -6.44200 30.33000 25.95400
H  -3.31100 31.11600 31.16600
H  -6.17000 31.40200 34.26800
H  -6.66200 32.86900 33.44500
H  -5.18600 32.88200 34.50500

