158

Mg 23.95700 -5.67500 46.08300
C  26.29400 -3.41000 44.58900
C  21.60300 -4.40600 43.94900
C  22.26100 -8.52800 46.46800
C  26.74600 -7.13800 47.82400
N  23.94500 -3.97600 44.68900
C  24.98700 -3.28600 44.18800
C  24.52000 -2.39100 43.05600
C  22.97300 -2.44100 43.11800
C  22.72500 -3.59500 44.04100
C  22.22900 -1.13400 43.66800
C  25.15000 -2.66700 41.67800
C  25.78100 -1.47600 40.89600
H  25.39200 -1.17000 39.47100
N  22.17300 -6.32400 45.37800
C  21.32900 -5.73200 44.45600
C  20.17600 -6.51900 44.15800
C  20.29000 -7.69100 44.98600
C  21.62900 -7.55900 45.69200
C  19.10600 -6.13900 43.15000
C  19.23100 -8.76300 45.08700
O  18.09800 -8.64500 44.59700
C  19.42400 -9.99300 45.80200
N  24.38500 -7.49100 47.22000
C  23.48800 -8.52700 47.19600
C  23.92400 -9.73100 48.07100
C  25.30100 -9.25900 48.61200
C  25.57500 -7.93000 47.85900
C  22.86200 -10.09800 49.14100
C  26.48700 -10.34600 48.72600
C  27.07500 -10.65900 50.11400
N  26.03800 -5.36400 46.26800
C  27.01800 -5.99800 46.99300
C  28.37000 -5.34800 46.76300
C  28.06500 -4.33300 45.83900
C  26.68900 -4.37100 45.59800
C  29.70000 -5.78300 47.29300
C  28.64800 -3.29900 44.97900
O  29.86200 -2.99400 44.79600
C  27.53400 -2.68900 44.13100
C  27.33300 -1.21600 44.41600
O  26.69300 -0.72700 45.32500
O  28.11300 -0.61100 43.50900
C  28.45900 0.84400 43.72300
H  20.85900 -3.92300 43.31200
H  21.71000 -9.47100 46.48800
H  27.61500 -7.65600 48.23600
H  24.80000 -1.41200 43.44500
H  22.52100 -2.79600 42.19200
H  21.80700 -0.44600 42.93500
H  22.94200 -0.69800 44.36800
H  21.36400 -1.47900 44.23400
H  24.33600 -2.91700 40.99800
H  25.86600 -3.48600 41.75000
H  26.84600 -1.64700 41.05100
H  25.71000 -0.48100 41.33600
H  18.62900 -7.00500 42.69200
H  19.57700 -5.53300 42.37500
H  18.43900 -5.66300 43.86800
H  18.51100 -10.58300 45.87600
H  19.57000 -9.58000 46.80000
H  20.25900 -10.64500 45.54300
H  24.02100 -10.69400 47.57000
H  25.10100 -8.95400 49.63900
H  21.95500 -9.49400 49.18200
H  23.31400 -10.00500 50.12800
H  22.66200 -11.16900 49.10900
H  27.32700 -10.20900 48.04500
H  26.14000 -11.28500 48.29500
H  28.15100 -10.48600 50.11700
H  26.98300 -11.71800 50.35500
H  26.53200 -10.12000 50.89100
H  29.75100 -5.62300 48.37000
H  30.50900 -5.27400 46.76900
H  29.83400 -6.85200 47.12200
H  27.70300 -2.65800 43.05400
H  29.05800 0.91600 44.63100
H  27.54900 1.38100 43.99200
H  28.94700 1.36400 42.89900
Mg 15.91600 -2.53700 28.25500
C  15.05600 -0.43700 30.99000
C  17.88400 -4.30500 30.27500
C  17.42500 -3.96200 25.52800
C  14.34400 -0.26500 26.17300
N  16.39800 -2.31000 30.42500
C  15.93500 -1.46300 31.33700
C  16.38500 -1.83100 32.76400
C  17.34900 -3.06800 32.53400
C  17.17400 -3.23500 31.00200
C  18.90400 -2.86000 32.82200
C  15.32000 -2.11000 33.86700
C  15.29700 -1.38700 35.19900
H  16.64800 -0.75500 35.69200
N  17.40300 -4.01100 27.96200
C  18.04500 -4.56000 28.93500
C  18.87300 -5.59300 28.43200
C  18.77300 -5.55900 26.99400
C  17.84700 -4.51000 26.73500
C  19.65300 -6.57700 29.32700
C  19.47100 -6.37700 25.83800
O  19.17600 -6.25100 24.62800
C  20.45000 -7.48200 26.14400
N  15.98600 -2.11000 26.04500
C  16.56500 -2.92100 25.16700
C  16.22200 -2.49500 23.73600
C  15.03100 -1.46900 23.92600
C  15.16600 -1.19300 25.46300
C  17.53000 -1.97400 23.00800
C  13.58400 -1.98100 23.71700
C  12.55000 -0.93800 23.18000
N  14.80500 -0.77900 28.45600
C  14.12700 -0.06000 27.50200
C  13.37200 1.06200 28.20800
C  13.71500 0.96200 29.56000
C  14.62200 -0.16100 29.67500
C  12.59100 2.15100 27.44300
C  13.62900 1.60500 30.81700
O  13.18800 2.69900 31.07400
C  14.34000 0.63700 31.92500
C  15.17700 1.43400 32.90600
O  16.36500 1.74100 32.77500
O  14.30900 1.94500 33.88900
C  14.86600 3.04800 34.68100
H  18.39700 -5.04700 30.89100
H  17.89400 -4.41400 24.65100
H  13.74900 0.42800 25.57500
H  16.88600 -0.93500 33.12900
H  16.97100 -3.96200 33.03000
H  19.47700 -2.71500 31.90600
H  19.24500 -3.75600 33.34100
H  19.31900 -2.04500 33.41500
H  15.24400 -3.16700 34.12200
H  14.37200 -1.77900 33.44300
H  14.90000 -1.97400 36.02700
H  14.63400 -0.52600 35.10700
H  19.68100 -7.44800 28.67300
H  19.13700 -6.87600 30.23900
H  20.67700 -6.20800 29.39100
H  19.91100 -8.34000 26.54600
H  21.14900 -7.07400 26.87500
H  20.84300 -7.85300 25.19800
H  15.92200 -3.35500 23.13700
H  15.20800 -0.66200 23.21500
H  17.49400 -0.88500 22.98600
H  17.63500 -2.43800 22.02700
H  18.45300 -2.21600 23.53600
H  13.16400 -2.37100 24.64400
H  13.68800 -2.82500 23.03600
H  12.01300 -0.67100 24.09000
H  11.88900 -1.42400 22.46200
H  13.15000 -0.11100 22.80100
H  11.62500 2.22900 27.94100
H  12.50700 1.85800 26.39700
H  13.07900 3.11600 27.58200
H  13.55700 0.15000 32.50700
H  15.77100 2.71200 35.18700
H  14.17400 3.25500 35.49700
H  14.95500 3.85000 33.94800

