158

Mg 41.64400 7.44600 29.03800
C  42.96700 9.19800 31.63300
C  39.24100 6.25100 31.18300
C  40.53000 5.43600 26.58100
C  44.25700 8.33600 26.92700
N  41.36200 7.41800 31.31400
C  41.93900 8.41700 32.10600
C  41.25700 8.51600 33.54400
C  39.93200 7.63100 33.26900
C  40.13900 7.04100 31.85800
C  39.61900 6.57000 34.38500
C  40.70700 9.95700 34.03100
C  40.12000 9.89800 35.44600
H  40.46900 11.12700 36.29400
N  40.04500 6.10600 28.84100
C  39.16000 5.79700 29.86600
C  38.04500 5.22200 29.24900
C  38.34800 5.14300 27.86200
C  39.68900 5.52000 27.72300
C  36.79200 4.83800 30.05900
C  37.28000 4.77300 26.80400
O  37.62200 4.49500 25.64100
C  35.71800 4.77900 27.05300
N  42.34700 6.84700 27.09500
C  41.76100 5.93700 26.31200
C  42.33500 5.93700 24.93200
C  43.49400 6.92400 24.95800
C  43.39000 7.37900 26.43300
C  42.67400 4.52200 24.40200
C  43.46600 8.15900 23.95900
C  44.22500 7.81600 22.67600
N  43.28800 8.45300 29.18900
C  44.28600 8.75100 28.30400
C  45.31000 9.61400 28.95400
C  44.77200 9.86500 30.18900
C  43.57700 9.07600 30.32400
C  46.51300 10.12600 28.26500
C  44.97600 10.64000 31.39600
O  45.85500 11.38800 31.77100
C  43.77000 10.22100 32.32400
C  44.38800 9.77000 33.62200
O  44.92700 8.74400 33.80700
O  44.15000 10.70700 34.63400
C  44.63300 10.40100 35.97100
H  38.41000 5.93700 31.81900
H  40.13300 4.79600 25.79000
H  45.12500 8.66300 26.35100
H  41.85600 8.15300 34.37800
H  39.01100 8.21300 33.29200
H  38.74000 6.84000 34.97100
H  40.46300 6.65100 35.07000
H  39.56100 5.56200 33.97400
H  40.04200 10.42900 33.30700
H  41.55900 10.63700 34.02700
H  40.50500 9.04600 36.00700
H  39.04000 9.80100 35.33800
H  36.97100 4.70000 31.12600
H  36.39600 3.89800 29.67400
H  35.95000 5.51800 29.93000
H  35.19000 4.93100 26.11200
H  35.42800 5.59900 27.70900
H  35.69500 3.74900 27.41100
H  41.49700 6.37300 24.38700
H  44.49000 6.48200 24.92200
H  42.66100 3.74100 25.16300
H  43.63900 4.44300 23.90100
H  41.95100 4.30200 23.61700
H  43.87300 9.04200 24.45200
H  42.41400 8.37200 23.76900
H  44.66000 6.82200 22.58000
H  45.18900 8.31800 22.75600
H  43.72300 8.15300 21.76900
H  46.47800 10.21300 27.17900
H  47.35000 9.45200 28.44800
H  46.90000 11.06500 28.66200
H  43.24200 11.16300 32.47200
H  45.71800 10.29400 35.98700
H  44.13700 9.50900 36.35400
H  44.39200 11.29500 36.54600
Mg 25.60200 51.70900 26.55300
C  23.17100 52.53900 29.03500
C  27.72600 50.69500 29.14100
C  28.08400 51.24600 24.41100
C  23.53700 52.94400 24.03800
N  25.49100 51.77400 28.85900
C  24.35600 52.00500 29.56900
C  24.66200 51.60300 30.98500
C  26.13100 51.06500 31.02100
C  26.51800 51.18100 29.57400
C  27.10800 51.72200 32.10800
C  23.67000 50.60100 31.58000
C  22.98700 51.06500 32.83400
H  23.14200 50.25600 34.11600
N  27.63900 51.08300 26.74100
C  28.28300 50.68200 27.89400
C  29.66700 50.35900 27.55100
C  29.80400 50.38200 26.12600
C  28.47000 50.92800 25.72100
C  30.55000 49.66900 28.58700
C  31.01000 49.97900 25.26200
O  31.12100 50.06000 24.00800
C  32.32200 49.40200 25.93600
N  25.75300 52.00800 24.52000
C  26.87600 51.76500 23.94500
C  26.66000 51.89400 22.43500
C  25.23600 52.42600 22.29400
C  24.76100 52.41700 23.67700
C  27.70300 52.82100 21.66000
C  24.36500 51.55000 21.35800
C  23.36100 52.30100 20.48200
N  23.76000 52.53600 26.48800
C  23.06200 53.06700 25.37000
C  21.74300 53.51200 25.88800
C  21.79400 53.33500 27.29100
C  22.97100 52.71600 27.60600
C  20.63800 53.98400 25.06800
C  20.97200 53.42100 28.45000
O  19.80600 53.75200 28.51000
C  21.82400 52.90400 29.62100
C  22.10000 54.01700 30.53300
O  22.56200 55.10300 30.22200
O  21.51300 53.64900 31.71800
C  21.26500 54.87200 32.54900
H  28.40700 50.32700 29.91100
H  28.80400 51.18300 23.59200
H  22.91400 53.41000 23.27200
H  24.63700 52.53200 31.55500
H  26.24100 49.98500 30.92400
H  27.55500 50.93300 32.71300
H  26.51800 52.44100 32.67800
H  27.85500 52.27000 31.53400
H  24.18000 49.66500 31.81000
H  22.94500 50.47400 30.77600
H  21.91700 51.05900 32.62700
H  23.21500 52.11200 33.03100
H  30.59100 48.58600 28.47000
H  30.39500 49.91500 29.63700
H  31.54700 50.02500 28.33000
H  32.05300 48.55500 26.56600
H  32.81000 50.20500 26.48800
H  33.06700 49.05600 25.21800
H  26.73100 50.87600 22.05100
H  25.25500 53.45700 21.94100
H  27.13000 53.55100 21.08800
H  28.41300 52.28300 21.03300
H  28.31500 53.38200 22.36600
H  23.94200 50.77700 22.00000
H  25.01000 51.04300 20.64100
H  23.48400 52.07800 19.42200
H  23.37700 53.37200 20.68600
H  22.36900 51.95100 20.76700
H  19.78800 53.63100 25.65100
H  20.68000 53.55300 24.06800
H  20.44600 55.05300 24.97500
H  21.36100 52.03400 30.08600
H  21.45100 55.84900 32.10300
H  21.70300 54.84700 33.54600
H  20.21800 54.88600 32.84900

