158

Mg 43.52100 3.51400 48.60600
C  41.50800 6.41100 48.10600
C  40.57100 1.65700 48.24100
C  45.37400 0.80200 48.32900
C  46.42900 5.61800 48.33100
N  41.34700 4.01300 48.30900
C  40.75100 5.26700 48.21000
C  39.30000 5.14000 47.85200
C  38.97700 3.63500 48.08300
C  40.40600 3.03300 48.26900
C  37.99000 3.28700 49.19800
C  38.80500 5.66800 46.44200
C  39.83300 5.69500 45.24800
H  39.52300 6.81300 44.27500
N  43.01300 1.51200 48.44100
C  41.78500 0.91900 48.28900
C  41.94100 -0.52800 48.12700
C  43.30800 -0.82400 48.36000
C  43.93400 0.53000 48.37800
C  40.85900 -1.52200 47.90200
C  43.97500 -2.29200 48.49400
O  43.33300 -3.32300 48.32400
C  45.44200 -2.40500 48.86800
N  45.67900 3.25400 48.39300
C  46.16600 1.98300 48.37300
C  47.64300 2.01800 48.42300
C  47.95700 3.51000 48.48800
C  46.64000 4.19300 48.39900
C  48.26600 1.07500 49.46400
C  48.99500 4.06900 47.46700
C  50.22700 4.71900 48.10600
N  43.96700 5.54900 48.27200
C  45.18100 6.25800 48.18900
C  44.83200 7.69900 48.02400
C  43.37600 7.71500 48.00800
C  42.93600 6.43700 48.19900
C  45.70600 8.93500 48.07800
C  42.23400 8.59500 47.79700
O  42.30100 9.80700 47.45700
C  40.98800 7.79600 47.78400
C  39.98500 8.17200 48.82700
O  40.03600 7.93600 50.00400
O  39.02000 8.91400 48.24500
C  38.03800 9.45000 49.15800
H  39.65600 1.11800 47.98500
H  46.04700 -0.05700 48.37100
H  47.36500 6.17200 48.23200
H  38.78100 5.69500 48.63300
H  38.75200 3.26600 47.08200
H  37.51700 4.20900 49.53800
H  38.47600 2.63700 49.92500
H  37.27400 2.69500 48.62800
H  38.55700 6.72100 46.57800
H  37.87000 5.25900 46.05800
H  39.81300 4.80500 44.61900
H  40.80400 5.84300 45.72100
H  41.03200 -2.37300 48.55900
H  40.90600 -1.92800 46.89100
H  39.90800 -1.02400 48.09300
H  45.57700 -1.66800 49.66000
H  46.00600 -2.04600 48.00700
H  45.93900 -3.35300 49.07300
H  47.89200 1.65900 47.42400
H  48.31500 3.69000 49.50100
H  47.46600 0.78100 50.14300
H  49.00500 1.58900 50.07800
H  48.77800 0.19300 49.07800
H  48.50700 4.78300 46.80300
H  49.41700 3.29800 46.82100
H  50.17800 4.84100 49.18800
H  50.28600 5.71600 47.66700
H  51.14900 4.18800 47.87100
H  45.69300 9.56700 47.19000
H  46.72000 8.54600 48.16400
H  45.60500 9.48500 49.01300
H  40.53100 7.85900 46.79700
H  37.30300 8.67800 49.38700
H  37.54400 10.27200 48.64000
H  38.50300 9.90000 50.03500
Mg 30.67400 58.63500 39.76400
C  27.92100 56.54100 38.90000
C  32.74200 56.14000 38.75100
C  33.18000 60.89400 39.86000
C  28.40400 61.29500 40.15400
N  30.31100 56.54100 38.74200
C  29.12600 55.87000 38.71600
C  29.31600 54.41900 38.44000
C  30.87600 54.29100 38.60900
C  31.37600 55.75300 38.67200
C  31.32200 53.26900 39.70600
C  28.80500 53.70200 37.17500
C  29.17500 54.34300 35.82600
H  28.11900 54.93200 34.93600
N  32.66900 58.52700 39.47200
C  33.34100 57.39400 38.97700
C  34.69500 57.71400 38.71700
C  34.94300 59.07200 39.10300
C  33.58800 59.57900 39.51800
C  35.65000 56.79500 38.08200
C  36.32900 59.78000 39.15600
O  37.29100 59.15300 38.67500
C  36.61200 61.14100 39.79300
N  30.83300 60.75800 40.24200
C  31.95800 61.43900 40.26600
C  31.72200 62.91200 40.47500
C  30.15300 63.04500 40.66400
C  29.74300 61.59400 40.24600
C  32.62100 63.47900 41.65200
C  29.50700 64.16400 39.86600
C  28.43000 64.89500 40.62400
N  28.64400 58.93200 39.54100
C  27.86400 60.07700 39.73200
C  26.47600 59.68200 39.57600
C  26.46800 58.34000 39.33100
C  27.78400 57.95500 39.23700
C  25.34800 60.62600 39.89800
C  25.58200 57.18800 39.07100
O  24.37800 57.17800 39.04300
C  26.47000 55.90800 38.84400
C  26.22600 54.90400 39.93200
O  26.85900 54.87400 40.98600
O  25.02700 54.19100 39.72100
C  24.62100 53.55000 40.99000
H  33.43600 55.30300 38.64700
H  33.93100 61.67600 39.73200
H  27.60700 62.02400 40.31300
H  28.65200 54.00600 39.19900
H  31.27500 53.83100 37.70500
H  31.70400 52.32300 39.32300
H  30.42700 53.05000 40.28900
H  32.03200 53.79300 40.34700
H  27.71700 53.67100 37.23800
H  29.26100 52.71500 37.10000
H  29.67300 53.49600 35.35400
H  29.95900 55.06500 36.05700
H  35.80300 57.03400 37.03000
H  35.40500 55.73500 38.01300
H  36.59800 56.86700 38.61400
H  36.02500 61.04600 40.70600
H  36.27500 61.89600 39.08400
H  37.65800 61.31900 40.04200
H  32.13100 63.27900 39.53300
H  29.98800 63.21300 41.72900
H  31.94600 64.06200 42.27800
H  33.33300 64.19300 41.23700
H  33.16000 62.84400 42.35500
H  29.15000 63.80600 38.90000
H  30.34700 64.82600 39.65400
H  28.35900 64.79300 41.70700
H  27.42600 64.73300 40.23100
H  28.60900 65.95900 40.47100
H  25.33700 60.81000 40.97200
H  24.35000 60.26100 39.65700
H  25.67300 61.52900 39.37900
H  26.45300 55.50000 37.83300
H  24.17700 54.33700 41.60000
H  25.48000 53.18300 41.55100
H  24.01900 52.65800 40.82000

