158

Mg 48.84600 47.06800 42.20600
C  45.44900 47.53500 41.42900
C  48.57200 43.92700 40.70100
C  52.00500 46.66600 42.71300
C  49.00000 50.46500 43.25600
N  47.22600 45.97000 41.00400
C  45.93800 46.29500 40.95200
C  45.14200 45.31600 40.11200
C  46.12600 44.14700 40.00400
C  47.40600 44.71000 40.60800
C  45.51200 42.80700 40.64100
C  44.62500 45.98000 38.85100
C  43.12100 45.83700 38.58700
H  42.65200 45.40500 37.27500
N  50.14300 45.49600 41.67700
C  49.86500 44.29300 41.10800
C  51.02400 43.44500 41.13100
C  52.06800 44.19700 41.76600
C  51.43600 45.50200 42.13300
C  51.04300 42.05200 40.58600
C  53.52700 43.73200 42.09900
O  53.85800 42.64100 41.68900
C  54.51400 44.52900 42.80500
N  50.34800 48.45200 42.55500
C  51.54400 47.96500 42.90500
C  52.47000 49.08000 43.21500
C  51.52200 50.30100 43.49200
C  50.20500 49.75100 43.12300
C  53.37700 48.81000 44.40600
C  51.87900 51.63800 42.75700
C  52.27900 52.81500 43.65200
N  47.54100 48.72400 42.38900
C  47.76300 50.00200 42.90400
C  46.44600 50.69400 43.08200
C  45.53100 49.70100 42.55800
C  46.21900 48.58100 42.08100
C  46.28800 52.09600 43.61400
C  44.10400 49.43800 42.23100
O  43.12600 50.09000 42.50000
C  44.06800 48.11100 41.46000
C  43.13700 47.25600 42.21800
O  43.40500 46.85100 43.38500
O  41.97600 46.87600 41.56700
C  41.13200 45.91900 42.29500
H  48.39900 42.90700 40.35000
H  53.03700 46.44300 42.99400
H  48.94000 51.49800 43.60700
H  44.27500 45.07500 40.72800
H  46.43400 43.84300 39.00400
H  44.53600 42.60500 40.20000
H  45.25500 42.89000 41.69700
H  46.09800 41.91900 40.40400
H  44.99900 45.43300 37.98600
H  45.00000 46.99100 38.68800
H  42.68000 46.80400 38.82700
H  42.85800 45.08800 39.33400
H  51.34900 42.05700 39.54000
H  50.04500 41.64500 40.74800
H  51.75100 41.49600 41.20200
H  54.78700 45.42200 42.24300
H  55.44000 43.96100 42.89100
H  54.19300 44.81100 43.80800
H  53.13700 49.19300 42.36100
H  51.60000 50.59500 44.53900
H  53.43400 49.58800 45.16700
H  54.41100 48.75100 44.06600
H  53.00400 47.91600 44.90500
H  51.09600 52.08800 42.14700
H  52.81800 51.46000 42.23100
H  53.35100 53.01700 43.65500
H  52.01100 52.63300 44.69200
H  51.70600 53.68800 43.34100
H  45.28700 52.47500 43.82100
H  46.78400 52.68600 42.84400
H  46.83300 52.16600 44.55600
H  43.61800 48.25700 40.47900
H  40.19000 46.11400 41.78300
H  41.01800 46.08600 43.36600
H  41.37900 44.87200 42.11500
Mg 15.96600 52.60000 26.46400
C  17.90100 50.65700 28.88300
C  13.89500 53.28500 28.95900
C  13.95800 53.58300 24.10800
C  18.01900 51.06100 24.02200
N  15.87400 51.82200 28.71400
C  16.77000 51.28700 29.46300
C  16.49700 51.51100 30.93800
C  14.97800 51.95000 30.90700
C  14.87400 52.32400 29.44500
C  13.97100 50.90200 31.40400
C  17.47300 52.49100 31.54600
C  17.52400 52.70700 33.06400
H  16.72200 51.77400 33.96900
N  14.27900 53.41000 26.55300
C  13.60500 53.78100 27.70400
C  12.53500 54.72900 27.32300
C  12.39400 54.63500 25.92800
C  13.55200 53.83500 25.47700
C  11.79100 55.64600 28.36900
C  11.29000 55.15500 25.09400
O  11.17300 54.80700 23.86700
C  10.13700 55.91800 25.60900
N  16.00400 52.23600 24.26700
C  15.07000 52.86100 23.55400
C  15.43500 52.74100 21.99200
C  16.75300 51.97200 22.04300
C  16.92500 51.76600 23.48900
C  14.35200 52.03300 21.08600
C  17.92700 52.68600 21.24600
C  19.11200 51.76800 20.86300
N  17.63600 51.15100 26.41500
C  18.39100 50.79100 25.31700
C  19.50000 49.97600 25.83100
C  19.34300 49.92200 27.20300
C  18.22500 50.64300 27.51600
C  20.50500 49.17200 25.07800
C  19.96200 49.30800 28.41900
O  20.97700 48.62200 28.60400
C  19.05100 49.90700 29.55300
C  18.64700 48.89300 30.54900
O  17.89600 47.97400 30.28000
O  19.27000 49.20200 31.75900
C  18.94400 48.32800 32.87700
H  13.24500 53.75300 29.70100
H  13.30200 54.00600 23.34400
H  18.68900 50.51700 23.35300
H  16.76300 50.67300 31.58300
H  14.80900 52.82800 31.53000
H  14.39500 49.91200 31.57500
H  13.21400 50.79800 30.62700
H  13.54400 51.33700 32.30700
H  17.42500 53.44800 31.02700
H  18.43400 52.04800 31.28200
H  17.38100 53.78000 33.19500
H  18.54900 52.57400 33.40900
H  11.05500 55.01600 28.86700
H  11.30800 56.54900 27.99300
H  12.55600 55.93800 29.08800
H  9.40400 56.34000 24.92100
H  10.42200 56.80900 26.16700
H  9.48500 55.34400 26.26800
H  15.61800 53.78100 21.71800
H  16.71400 50.92900 21.72800
H  13.51900 51.75000 21.73000
H  14.90100 51.19400 20.65700
H  14.02400 52.70200 20.29100
H  18.24600 53.49200 21.90600
H  17.51500 53.19900 20.37700
H  18.93400 50.75000 21.20800
H  20.07700 52.25900 20.99200
H  18.97300 51.52200 19.81000
H  21.35900 48.98800 25.72900
H  20.82100 49.70100 24.17900
H  20.14800 48.18600 24.78100
H  19.75000 50.61400 30.00100
H  17.87700 48.10900 32.88900
H  19.25900 48.65100 33.86900
H  19.30700 47.30500 32.77400

