158

Mg 35.99400 1.00800 30.24100
C  33.40000 1.86600 32.43600
C  38.21300 1.02900 32.98700
C  38.37600 0.02300 28.08700
C  33.77100 1.40200 27.60800
N  35.77400 1.44400 32.42200
C  34.66800 1.64100 33.10000
C  34.95300 1.66100 34.57800
C  36.45200 1.77000 34.71900
C  36.86100 1.34300 33.30900
C  36.97600 3.19000 35.17100
C  34.21400 0.45600 35.24000
C  33.63600 0.66800 36.69800
H  34.04400 1.89300 37.48500
N  37.96300 0.61100 30.47900
C  38.73200 0.73700 31.64200
C  40.10800 0.24000 31.31800
C  40.17600 -0.00600 29.93600
C  38.77900 0.08900 29.46900
C  41.23200 0.20300 32.39000
C  41.39600 -0.38500 29.10300
O  41.32800 -0.62000 27.89300
C  42.79200 -0.45600 29.67800
N  36.09400 0.80300 28.17800
C  37.17400 0.40100 27.49700
C  36.98900 0.45900 25.95700
C  35.52400 0.97200 25.90300
C  35.05900 1.06000 27.32100
C  38.05300 1.41900 25.22600
C  34.62700 -0.02500 25.04800
C  34.16400 -1.45400 25.48900
N  34.00100 1.60700 30.00200
C  33.16500 1.65700 28.88500
C  31.87900 2.27000 29.25500
C  31.95800 2.39800 30.69600
C  33.22900 1.88600 31.08900
C  30.66200 2.56700 28.39500
C  31.23800 2.75600 31.83000
O  30.05400 3.17100 31.88000
C  32.08900 2.34200 33.03300
C  32.19000 3.40800 34.08700
O  33.05900 4.25200 33.99300
O  31.17200 3.36400 34.95200
C  31.02000 4.50200 35.83100
H  38.88700 1.08300 33.84400
H  39.13100 -0.16900 27.32200
H  33.05700 1.51700 26.79000
H  34.53800 2.63000 34.85300
H  36.77800 1.10300 35.51800
H  36.17700 3.57900 35.80300
H  37.11400 3.89300 34.35000
H  37.84300 3.07700 35.82200
H  34.89600 -0.39300 35.29400
H  33.39900 0.15600 34.58100
H  34.01200 -0.18800 37.25800
H  32.55100 0.65900 36.59100
H  41.87300 -0.67600 32.44700
H  40.92900 0.48100 33.39900
H  41.86600 1.02600 32.06000
H  42.77300 -1.33800 30.31800
H  43.15600 0.45500 30.15300
H  43.48700 -0.63100 28.85700
H  37.01500 -0.52700 25.49200
H  35.37400 1.94400 25.43200
H  37.53800 2.30400 24.85000
H  38.50100 0.96900 24.34000
H  38.81400 1.75700 25.92800
H  35.29700 -0.18600 24.20300
H  33.81700 0.53600 24.58200
H  34.40100 -1.70200 26.52300
H  34.57500 -2.22300 24.83400
H  33.07800 -1.54300 25.51900
H  30.95100 2.71000 27.35400
H  30.11400 3.45100 28.72200
H  30.08400 1.64500 28.47000
H  31.66100 1.53200 33.62300
H  30.81000 5.35900 35.19100
H  31.93100 4.65600 36.41100
H  30.26600 4.28000 36.58600
Mg 25.33700 50.88100 26.43700
C  23.35900 51.99100 29.14400
C  27.51200 49.54500 28.64200
C  27.45900 50.24800 23.88400
C  23.11700 52.39500 24.31300
N  25.57300 51.00100 28.69800
C  24.59400 51.45100 29.57100
C  25.01100 51.15100 31.01900
C  26.40700 50.30500 30.86300
C  26.55200 50.35400 29.30700
C  27.61600 50.77100 31.71300
C  23.84800 50.50300 31.86800
C  24.37000 49.92900 33.20600
H  24.28200 50.79900 34.48300
N  27.11800 49.89500 26.28600
C  27.80700 49.32500 27.31000
C  28.86300 48.49000 26.78900
C  28.87400 48.74100 25.38700
C  27.80100 49.70400 25.11700
C  29.80400 47.70300 27.72100
C  29.64700 48.14700 24.37000
O  29.66700 48.40500 23.14000
C  30.66200 47.11600 24.78800
N  25.36300 51.43800 24.38300
C  26.28400 50.98200 23.56200
C  26.00800 51.38400 22.10900
C  24.55500 51.95100 22.24100
C  24.26500 51.87600 23.71500
C  27.04800 52.36300 21.45800
C  23.58700 51.14500 21.39000
C  23.15800 49.67700 21.81900
N  23.64300 51.97300 26.63600
C  22.78500 52.49300 25.66000
C  21.56000 52.97500 26.19700
C  21.66400 52.67700 27.58100
C  23.03100 52.21300 27.79800
C  20.39800 53.47000 25.42800
C  21.07200 52.92000 28.85100
O  19.94800 53.36300 29.08300
C  22.07300 52.39300 29.94700
C  22.27000 53.50700 30.86600
O  23.29100 54.14900 30.85100
O  21.18100 53.80300 31.64000
C  21.48600 54.76000 32.66300
H  28.14800 49.08200 29.39900
H  28.02300 49.99600 22.98400
H  22.43200 52.82400 23.58000
H  25.17000 52.18400 31.32800
H  26.17700 49.24900 31.00400
H  27.21900 51.55800 32.35400
H  28.35600 51.25500 31.07500
H  28.08100 49.93700 32.23700
H  23.32400 49.72500 31.31400
H  23.13700 51.28200 32.14600
H  25.42900 49.67000 33.22600
H  23.93400 48.93200 33.26000
H  29.64600 46.65100 27.48200
H  29.47900 47.75200 28.76000
H  30.79000 48.04600 27.40700
H  31.42300 47.59800 25.40200
H  31.03400 46.69200 23.85600
H  30.12000 46.29700 25.26200
H  26.09800 50.50100 21.47500
H  24.55500 52.93100 21.76300
H  27.87900 52.53800 22.14100
H  26.71100 53.37500 21.23400
H  27.50400 51.94100 20.56200
H  23.92400 51.13400 20.35300
H  22.65900 51.71300 21.32100
H  22.18900 49.78800 22.30700
H  23.97700 49.34600 22.45700
H  23.17600 49.06400 20.91800
H  19.47800 53.65500 25.98300
H  20.05800 52.70400 24.73100
H  20.63400 54.28300 24.74200
H  21.66000 51.51700 30.44600
H  21.77100 55.73100 32.25800
H  22.28400 54.54100 33.37300
H  20.60500 54.89000 33.29100

