158

Mg 1.06600 -3.08600 44.18700
C  4.25000 -2.13900 43.30700
C  -0.23800 -0.65000 42.12600
C  -2.12300 -4.28200 44.77900
C  2.32200 -6.03800 45.60900
N  1.88400 -1.60900 42.78400
C  3.27800 -1.41300 42.60000
C  3.54000 -0.11100 41.65100
C  2.05200 0.33200 41.44400
C  1.14900 -0.66400 42.14000
C  1.70400 1.83700 41.72900
C  4.19300 -0.49900 40.25800
C  5.49800 0.31100 39.98100
H  5.91500 0.50200 38.51200
N  -0.95300 -2.51600 43.58700
C  -1.21900 -1.37800 42.87800
C  -2.66600 -1.26200 42.76500
C  -3.25100 -2.37100 43.38800
C  -2.08000 -3.08200 43.97900
C  -3.26100 -0.21600 41.85000
C  -4.76400 -2.62900 43.41000
O  -5.54800 -1.94000 42.85100
C  -5.25300 -3.77500 44.02300
N  0.22700 -5.09000 44.81600
C  -1.11600 -5.18600 45.23400
C  -1.39400 -6.48600 45.95900
C  0.05500 -7.13100 46.03500
C  0.97400 -5.96800 45.57100
C  -2.12300 -6.40200 47.33100
C  0.11200 -8.38600 45.25800
C  -0.59600 -9.62300 45.79600
N  2.87600 -3.85100 44.66100
C  3.26600 -5.11500 45.16400
C  4.71800 -5.13500 45.23000
C  5.06800 -3.99100 44.55400
C  3.93800 -3.28000 44.19900
C  5.56800 -6.15700 45.91700
C  6.24000 -3.28000 44.10800
O  7.43500 -3.57400 44.14000
C  5.76700 -2.01200 43.32300
C  6.27200 -0.70700 43.81900
O  6.84600 0.10200 43.11300
O  5.79500 -0.53300 45.07600
C  6.13700 0.81100 45.58300
H  -0.63600 0.17600 41.53200
H  -3.12000 -4.60000 45.09100
H  2.83300 -6.80100 46.20000
H  4.20800 0.57500 42.17300
H  1.85700 0.21500 40.37800
H  0.77700 1.81000 42.30000
H  1.51500 2.30900 40.76500
H  2.43900 2.35600 42.34500
H  3.51900 -0.49900 39.40200
H  4.44800 -1.53600 40.47300
H  6.28900 -0.36000 40.31600
H  5.48000 1.15100 40.67500
H  -4.24700 0.08100 42.20700
H  -3.33400 -0.33300 40.76900
H  -2.72100 0.71500 42.02600
H  -4.78800 -3.63200 44.99900
H  -4.89100 -4.69600 43.56600
H  -6.33700 -3.87200 44.07700
H  -2.06800 -7.05700 45.32000
H  0.31900 -7.28900 47.08100
H  -1.70600 -7.16500 47.98900
H  -3.15900 -6.63400 47.08500
H  -2.11800 -5.38200 47.71500
H  1.16800 -8.65800 45.27200
H  -0.27200 -8.21900 44.25100
H  -1.31900 -10.02600 45.08600
H  -1.15000 -9.51600 46.72800
H  0.21600 -10.33300 45.95400
H  5.30100 -6.40300 46.94500
H  6.58700 -5.77200 45.95800
H  5.71000 -7.01300 45.25800
H  6.13800 -2.19700 42.31500
H  5.89800 0.85700 46.64600
H  5.55000 1.56800 45.06300
H  7.20000 0.97200 45.40100
Mg -6.46000 25.06500 25.93300
C  -4.66400 26.37300 28.62800
C  -8.09400 22.85300 28.09000
C  -7.60000 23.33800 23.28800
C  -4.12600 26.73100 23.77900
N  -6.43800 24.75600 28.03700
C  -5.61600 25.40200 28.96100
C  -6.06500 25.00400 30.37900
C  -7.05100 23.81600 30.22300
C  -7.29200 23.87800 28.67200
C  -6.52400 22.40300 30.81000
C  -6.78600 26.21300 31.09000
C  -6.51900 26.44400 32.56800
H  -6.11500 25.17800 33.50200
N  -7.82700 23.50900 25.72800
C  -8.41000 22.76900 26.73000
C  -9.37500 21.83400 26.16800
C  -9.23000 22.02900 24.74800
C  -8.16100 22.99300 24.54200
C  -10.36100 20.95200 26.96300
C  -9.98500 21.32700 23.68500
O  -9.87800 21.64600 22.49200
C  -11.03500 20.25700 23.97500
N  -6.00200 25.11500 23.84400
C  -6.63200 24.30500 22.92900
C  -6.03300 24.52000 21.44200
C  -5.16200 25.77200 21.67700
C  -5.07700 25.90400 23.18400
C  -5.25700 23.31300 20.92900
C  -5.53200 27.10400 20.93000
C  -4.51600 27.57100 19.92900
N  -4.87200 26.46300 26.11900
C  -4.00500 27.01200 25.17300
C  -2.95600 27.71900 25.83400
C  -3.25200 27.63400 27.22600
C  -4.43700 26.80900 27.32600
C  -1.79400 28.50300 25.33100
C  -2.82500 27.91600 28.61200
O  -1.78800 28.38500 29.02600
C  -3.82700 27.25800 29.55000
C  -3.11100 26.53200 30.51100
O  -2.70500 25.42600 30.33600
O  -2.80200 27.30200 31.60300
C  -2.08100 26.58100 32.66600
H  -8.52500 22.23200 28.87800
H  -7.94500 22.79300 22.40700
H  -3.26900 27.05500 23.18600
H  -5.23700 24.67600 31.00800
H  -7.98900 24.05400 30.72400
H  -5.52800 22.60600 31.20400
H  -6.40100 21.63500 30.04700
H  -7.26700 21.92900 31.45200
H  -7.86900 26.12500 31.00200
H  -6.46100 27.08700 30.52500
H  -7.42000 26.80900 33.06000
H  -5.67200 27.12700 32.64800
H  -10.27800 19.88900 26.73700
H  -11.27300 21.43700 26.61400
H  -10.13000 21.13200 28.01300
H  -10.46600 19.50900 24.52600
H  -11.37700 19.76200 23.06600
H  -11.77000 20.78100 24.58600
H  -6.82200 24.76000 20.73000
H  -4.12200 25.52000 21.46800
H  -4.54200 23.27600 21.75100
H  -4.74200 23.45600 19.97900
H  -5.81300 22.37600 20.91700
H  -5.76400 27.91100 21.62600
H  -6.50100 26.87600 20.48500
H  -4.91500 27.52800 18.91500
H  -3.49400 27.19500 19.89100
H  -4.37700 28.62500 20.17300
H  -1.10400 27.90600 24.73500
H  -1.22400 28.86200 26.18900
H  -2.23700 29.27200 24.69800
H  -4.27000 28.06600 30.13300
H  -1.95900 27.30600 33.47000
H  -1.10400 26.27200 32.29600
H  -2.61400 25.73700 33.10300

