158

Mg 36.22100 49.17500 26.05100
C  36.12700 47.17400 28.79600
C  35.12600 51.82200 27.92100
C  35.79400 51.13200 23.11100
C  36.90100 46.48400 23.95700
N  35.53700 49.46100 28.09100
C  35.70000 48.47400 29.00100
C  35.56400 49.08300 30.45500
C  35.03100 50.52600 30.17000
C  35.28200 50.63800 28.60500
C  33.61700 50.84800 30.62600
C  36.94500 48.96600 31.13500
C  36.94000 48.15200 32.50500
H  35.84800 48.56500 33.50800
N  35.58400 51.24800 25.59300
C  35.16100 52.13900 26.55800
C  34.83000 53.39100 25.91400
C  35.06100 53.20600 24.49100
C  35.51800 51.84700 24.35900
C  34.43600 54.66500 26.71100
C  34.93700 54.18300 23.33700
O  35.37900 53.95400 22.17500
C  34.29600 55.54300 23.52500
N  36.32300 48.85100 23.89700
C  36.12200 49.82300 22.91000
C  36.08000 49.20300 21.48800
C  36.45600 47.69900 21.80600
C  36.62700 47.65100 23.30800
C  34.79900 49.48400 20.67300
C  37.83500 47.30500 21.11300
C  39.20900 47.79000 21.82900
N  36.48300 47.19200 26.29200
C  36.81600 46.21300 25.37300
C  36.97600 44.95500 26.09200
C  36.78400 45.33800 27.46600
C  36.44000 46.62100 27.53300
C  37.28700 43.61700 25.48700
C  36.74700 44.81300 28.75200
O  36.95000 43.68700 29.18800
C  36.37000 46.00700 29.72900
C  35.16800 45.57900 30.47200
O  34.02400 45.67700 30.14200
O  35.54300 45.17600 31.73200
C  34.47900 44.85400 32.72400
H  34.79400 52.61500 28.59400
H  35.64100 51.64900 22.16200
H  37.17500 45.59000 23.39200
H  34.84000 48.47500 30.99600
H  35.74500 51.29200 30.47100
H  32.76800 50.83700 29.94300
H  33.68600 51.85900 31.02700
H  33.34700 50.22500 31.47900
H  37.31700 49.95500 31.40500
H  37.76900 48.52800 30.57200
H  37.84700 48.47300 33.01700
H  37.02400 47.07300 32.37700
H  33.40100 54.53800 27.02700
H  34.56200 55.62800 26.21600
H  35.19600 54.56000 27.48400
H  34.23600 55.89800 22.49700
H  34.95500 56.25300 24.02500
H  33.32700 55.57500 24.02200
H  37.02100 49.62300 21.13100
H  35.69900 47.01300 21.42800
H  33.86200 49.41400 21.22500
H  34.77300 48.61200 20.02000
H  34.90600 50.41300 20.11200
H  37.83300 47.67000 20.08600
H  37.86400 46.21700 21.04300
H  39.85600 48.27100 21.09500
H  39.73100 46.94200 22.27300
H  38.97800 48.51500 22.61000
H  38.37100 43.50800 25.47100
H  37.09300 43.71300 24.41900
H  36.74500 42.74900 25.86400
H  37.24400 46.22600 30.34200
H  34.42100 43.77000 32.82200
H  33.52400 45.27100 32.40600
H  34.64500 45.29500 33.70700
Mg 1.85800 42.52000 26.02600
C  2.96300 43.03400 29.34200
C  -1.07800 41.22500 27.18800
C  0.92600 42.06500 22.74400
C  4.89600 43.76900 24.87600
N  1.00100 42.30000 28.03600
C  1.62800 42.62300 29.23900
C  0.64600 42.43500 30.38900
C  -0.64900 41.78100 29.67500
C  -0.23400 41.69600 28.19400
C  -1.07800 40.41300 30.35000
C  0.30300 43.64800 31.22000
C  0.69200 43.47700 32.78400
H  -0.41400 43.12200 33.75300
N  0.15500 41.80100 25.08200
C  -0.91200 41.22600 25.75400
C  -1.86100 40.67600 24.80600
C  -1.41100 41.06900 23.50400
C  -0.03700 41.73600 23.73100
C  -3.08500 39.93300 25.28600
C  -2.03900 40.84300 22.13800
O  -1.48200 41.14000 21.08400
C  -3.41800 40.11300 22.01400
N  2.86100 42.68000 24.06400
C  2.19000 42.53000 22.89000
C  3.06200 43.06300 21.73800
C  4.39600 43.70100 22.39100
C  4.07500 43.36500 23.85400
C  3.47800 41.91500 20.80800
C  4.50700 45.26600 22.17700
C  5.00000 45.69700 20.76900
N  3.64300 43.13500 26.85800
C  4.76500 43.65300 26.28900
C  5.73200 44.05000 27.28700
C  5.06700 43.72800 28.49500
C  3.78800 43.28000 28.17400
C  7.07700 44.68100 27.04200
C  5.11800 43.74000 29.96600
O  6.09700 44.07000 30.66200
C  3.81200 43.33900 30.60500
C  4.11200 42.15200 31.45400
O  4.45300 41.08800 31.02200
O  3.92900 42.43100 32.77300
C  4.20400 41.35100 33.68400
H  -1.95700 40.83300 27.70500
H  0.62200 41.82200 21.72400
H  5.84400 44.28000 24.69800
H  1.10500 41.69900 31.04800
H  -1.44200 42.52800 29.72400
H  -1.96100 40.60400 30.95900
H  -0.33800 39.81200 30.88000
H  -1.38300 39.80200 29.50000
H  -0.78200 43.74600 31.25800
H  0.79800 44.50100 30.75500
H  1.08500 44.43200 33.13400
H  1.35900 42.65300 33.03700
H  -4.00600 40.33100 24.85800
H  -3.32700 40.12700 26.33100
H  -3.06600 38.86400 25.07600
H  -4.19200 40.87500 22.09900
H  -3.49300 39.42900 22.86000
H  -3.53700 39.55000 21.08800
H  2.56000 43.87300 21.20900
H  5.28000 43.23200 21.95800
H  2.83500 41.03900 20.89300
H  4.41200 41.42200 21.07400
H  3.63100 42.30000 19.79900
H  4.99500 45.71500 23.04200
H  3.51100 45.63500 22.42200
H  4.16600 46.05500 20.16500
H  5.43200 44.87300 20.20100
H  5.72600 46.46100 21.04900
H  7.71700 44.54100 27.91300
H  6.91100 45.71600 26.74200
H  7.50200 44.19800 26.16200
H  3.49100 44.23100 31.14300
H  3.84300 40.38800 33.32200
H  3.69400 41.63700 34.60400
H  5.27900 41.22500 33.80500

