158

Mg 40.93300 8.66700 28.79700
C  42.62800 10.13500 31.45600
C  38.79200 7.24500 31.15500
C  39.23200 6.96000 26.18900
C  43.38200 9.67000 26.67000
N  40.82600 8.66000 31.02100
C  41.47200 9.43500 31.85600
C  40.98600 9.45800 33.29000
C  39.73700 8.55100 33.18300
C  39.75400 8.08700 31.71000
C  39.77600 7.30200 34.17700
C  40.84500 10.92900 33.94600
C  39.81700 11.04800 35.05700
H  40.38900 11.14200 36.50100
N  39.21400 7.34800 28.66900
C  38.45900 6.89000 29.77900
C  37.36500 6.19000 29.31200
C  37.45100 6.14700 27.91600
C  38.67700 6.82200 27.50900
C  36.32300 5.57700 30.20000
C  36.48300 5.45200 26.92800
O  36.71800 5.48000 25.72500
C  35.22400 4.66400 27.39800
N  41.33500 8.13300 26.70400
C  40.48000 7.57100 25.83100
C  40.81400 7.96600 24.42600
C  42.08300 8.90200 24.60600
C  42.28000 8.92500 26.10800
C  40.93400 6.76700 23.48300
C  41.97700 10.28600 23.90700
C  41.45900 11.57500 24.62800
N  42.66700 9.68800 28.94800
C  43.60200 9.98400 28.00800
C  44.75500 10.66600 28.62700
C  44.31000 10.89100 29.92100
C  43.12900 10.17500 30.15000
C  45.91100 11.18300 27.87800
C  44.65800 11.53600 31.19500
O  45.60000 12.16300 31.57800
C  43.61600 11.03300 32.26600
C  44.20500 10.24800 33.35100
O  44.53600 9.06400 33.30100
O  44.40500 10.99200 34.47300
C  44.90600 10.39400 35.67200
H  38.05700 6.95400 31.90800
H  38.71100 6.50000 25.34700
H  44.07600 10.22300 26.03300
H  41.77900 8.95100 33.83900
H  38.82500 9.14600 33.23000
H  40.64700 7.43400 34.82000
H  39.87600 6.40900 33.55900
H  38.92300 7.31100 34.85600
H  40.58400 11.71300 33.23500
H  41.81600 11.29000 34.28500
H  39.35600 10.06000 35.09000
H  39.22800 11.90400 34.72700
H  36.57600 5.68500 31.25400
H  36.38600 4.49900 30.05000
H  35.34900 6.01800 29.98700
H  35.57200 3.77700 27.92700
H  34.62800 4.37600 26.53200
H  34.62100 5.38800 27.94600
H  40.09400 8.63500 23.95700
H  42.87900 8.24700 24.25400
H  41.28600 5.86600 23.98400
H  41.73600 7.18500 22.87500
H  39.97300 6.69900 22.97200
H  41.29500 10.08400 23.08100
H  42.93100 10.59200 23.47800
H  41.19600 11.50600 25.68300
H  40.55100 11.95400 24.15800
H  42.16900 12.38200 24.44700
H  46.86600 11.02000 28.37800
H  45.83000 12.23800 27.61800
H  46.02800 10.59100 26.97100
H  43.03900 11.86500 32.66900
H  45.34700 9.41200 35.50500
H  44.05300 10.30200 36.34400
H  45.58300 11.05800 36.21000
Mg -11.25800 14.86600 41.47700
C  -7.87100 14.32800 41.30400
C  -10.92100 17.83700 39.81300
C  -14.65700 15.02800 41.28600
C  -11.55300 11.53700 42.73800
N  -9.56600 15.88300 40.53400
C  -8.26600 15.50600 40.64800
C  -7.36700 16.36800 39.83300
C  -8.28200 17.54900 39.31300
C  -9.62400 17.11900 39.98200
C  -7.81900 19.01200 39.47000
C  -6.66400 15.53500 38.67100
C  -5.17100 15.71200 38.45500
H  -4.66500 16.38100 37.11500
N  -12.61200 16.20100 40.52400
C  -12.28900 17.45400 40.10200
C  -13.46900 18.12500 39.73200
C  -14.57900 17.31700 40.17200
C  -13.98700 16.12100 40.67600
C  -13.51400 19.51800 39.09900
C  -16.01200 17.77200 40.03200
O  -16.18900 18.83200 39.42000
C  -17.20800 17.02500 40.48700
N  -12.87300 13.45500 41.76100
C  -14.17800 13.79100 41.74700
C  -15.06900 12.66600 42.09000
C  -14.06000 11.54500 42.61600
C  -12.70900 12.17700 42.32100
C  -16.21800 13.06400 43.09200
C  -14.22700 10.10900 42.11000
C  -14.93300 9.00300 43.00100
N  -10.04000 13.27400 42.10000
C  -10.24200 12.02500 42.63500
C  -9.01700 11.36900 42.90500
C  -8.03200 12.24000 42.34600
C  -8.71200 13.35900 41.85500
C  -8.85700 10.10400 43.59300
C  -6.60800 12.42100 42.21100
O  -5.66500 11.68800 42.60100
C  -6.46600 13.80000 41.56600
C  -5.70300 14.69200 42.47900
O  -6.25600 15.31800 43.40700
O  -4.35800 14.75600 42.02800
C  -3.61400 15.81600 42.74700
H  -10.78900 18.74500 39.22100
H  -15.72300 15.08800 41.51500
H  -11.60500 10.63300 43.34800
H  -6.68800 16.75400 40.59300
H  -8.48300 17.37500 38.25600
H  -7.05800 18.92200 40.24500
H  -8.65800 19.58900 39.85800
H  -7.31500 19.33600 38.55900
H  -7.18900 15.82100 37.76000
H  -7.03000 14.50900 38.68200
H  -4.76200 14.70800 38.56700
H  -4.61200 16.41900 39.06900
H  -14.01900 20.30300 39.66200
H  -13.94900 19.54000 38.09900
H  -12.51700 19.92000 38.92200
H  -18.16000 17.55100 40.41500
H  -17.01800 16.71700 41.51500
H  -17.15800 16.02100 40.06800
H  -15.39400 12.34100 41.10100
H  -14.05700 11.52600 43.70600
H  -17.20400 12.99600 42.63400
H  -16.06100 14.07400 43.47000
H  -16.27200 12.49200 44.01800
H  -13.28000 9.69200 41.76500
H  -14.80800 9.99900 41.19500
H  -15.47300 8.31200 42.35400
H  -15.66000 9.44400 43.68400
H  -14.15700 8.48200 43.56100
H  -9.60600 10.13900 44.38400
H  -7.84200 9.86200 43.91000
H  -9.13000 9.29900 42.91100
H  -5.94600 13.81600 40.60900
H  -4.17700 16.73600 42.90300
H  -2.62500 15.95000 42.30800
H  -3.58800 15.59100 43.81300

