158

Mg 47.13900 43.97000 43.33600
C  43.74400 43.27400 43.61100
C  47.79100 40.52000 43.04600
C  50.34000 44.69300 42.51300
C  46.37100 47.44700 43.31800
N  45.89300 42.03100 43.30800
C  44.55900 42.02800 43.48300
C  43.94500 40.64100 43.45000
C  45.28000 39.80200 43.58000
C  46.39800 40.81600 43.24100
C  45.55100 39.03800 44.90400
C  43.08100 40.27100 42.21000
C  43.30100 41.03800 40.87400
H  44.28700 40.49800 39.84800
N  48.88600 42.73600 42.94300
C  48.93600 41.36400 42.94200
C  50.31400 40.99400 42.83100
C  51.04900 42.15100 42.62400
C  50.08900 43.28100 42.69700
C  50.82900 39.60400 42.88100
C  52.49400 42.14600 42.29700
O  53.14800 41.13100 42.29800
C  53.20500 43.38800 42.09800
N  48.17700 45.73300 43.10300
C  49.47500 45.76400 42.69200
C  49.96300 47.23500 42.32000
C  48.75000 48.17900 42.69000
C  47.70100 47.02200 42.98000
C  51.27300 47.65100 43.05800
C  48.18100 49.19700 41.67400
C  48.44600 50.63500 42.18600
N  45.46300 45.14800 43.34000
C  45.24800 46.53600 43.44800
C  43.80800 46.88500 43.55700
C  43.21300 45.61700 43.49900
C  44.23100 44.65100 43.52400
C  43.16500 48.22600 43.43700
C  41.88900 45.03800 43.56900
O  40.74900 45.48300 43.73000
C  42.17600 43.41400 43.71100
C  41.58600 42.92900 45.00100
O  40.43200 42.65900 45.27700
O  42.57100 42.91100 45.97900
C  42.13500 42.63400 47.34100
H  47.94100 39.44500 42.93200
H  51.31800 44.99800 42.13400
H  46.05800 48.48500 43.45000
H  43.29700 40.57700 44.32400
H  45.29200 38.93300 42.92200
H  46.38400 39.58400 45.34800
H  45.89100 38.01900 44.71700
H  44.63900 38.92700 45.48900
H  42.04600 40.41600 42.52100
H  43.13200 39.20200 42.00400
H  43.74300 42.02200 41.02800
H  42.37400 41.26600 40.34800
H  51.79900 39.64900 43.37800
H  50.98100 39.08300 41.93500
H  50.23300 38.92400 43.48900
H  52.99400 43.97600 41.20400
H  54.24500 43.20400 42.36700
H  52.88100 43.95800 42.96900
H  50.11700 47.31700 41.24400
H  48.98000 48.55400 43.68700
H  52.13400 47.63900 42.38900
H  51.65100 46.82700 43.66300
H  51.31600 48.60700 43.57900
H  47.11500 49.24600 41.45100
H  48.60900 48.94400 40.70400
H  48.99000 51.29600 41.51100
H  48.93500 50.76600 43.15200
H  47.51300 51.14900 42.42000
H  42.09400 48.20200 43.63800
H  43.31700 48.54600 42.40600
H  43.62900 49.00700 44.04000
H  41.57100 42.88300 42.97700
H  41.89400 41.57600 47.44000
H  41.36900 43.32400 47.69400
H  43.00000 42.71100 47.99900
Mg 26.34900 50.70500 26.94500
C  24.04200 51.92300 29.32100
C  28.32300 49.72400 29.61400
C  28.65500 49.88200 24.76400
C  24.29500 52.01200 24.43600
N  26.20000 50.83100 29.17100
C  25.12500 51.22200 29.90500
C  25.18100 50.71100 31.35100
C  26.72200 50.28500 31.46100
C  27.10200 50.20200 29.99500
C  27.64800 51.13100 32.35000
C  24.20800 49.61800 31.76000
C  23.98300 49.21100 33.22300
H  24.39700 50.20800 34.40400
N  28.19800 49.92900 27.17500
C  28.87000 49.58000 28.32900
C  30.19000 49.06000 27.90000
C  30.29200 49.06600 26.47200
C  29.00600 49.68900 26.06900
C  31.20800 48.75200 28.95500
C  31.49100 48.68100 25.61000
O  31.58400 48.95600 24.43000
C  32.56200 48.01500 26.26300
N  26.49000 50.97700 24.90200
C  27.51700 50.45400 24.17600
C  27.19000 50.34400 22.67600
C  25.82100 50.98800 22.58700
C  25.51300 51.42000 24.02800
C  28.27300 50.89500 21.73200
C  24.69900 50.06300 21.95600
C  23.66100 50.67700 20.98400
N  24.60900 51.91500 26.80000
C  23.91500 52.42600 25.71400
C  22.81000 53.16400 26.18800
C  22.76900 52.97500 27.57300
C  23.87600 52.20900 27.89600
C  21.86400 53.84300 25.34800
C  22.05100 53.27900 28.83000
O  21.05500 53.94200 28.98100
C  22.84500 52.54700 30.02100
C  23.30700 53.61600 30.94200
O  24.34800 54.26300 30.84500
O  22.43100 53.76400 32.10900
C  22.87000 54.77500 33.06300
H  28.86100 49.46100 30.52800
H  29.34600 49.47600 24.02200
H  23.59200 52.31500 23.65700
H  24.90700 51.54100 32.00100
H  26.85300 49.27700 31.85600
H  27.02600 51.41800 33.19800
H  28.14500 51.97100 31.86400
H  28.45900 50.49100 32.69600
H  24.29600 48.66400 31.24100
H  23.22900 50.04300 31.53700
H  24.61200 48.32400 33.29900
H  22.91300 49.15500 33.42600
H  31.00100 49.46600 29.75200
H  32.22700 49.00200 28.66000
H  31.15800 47.74500 29.37100
H  32.18100 47.20700 26.88700
H  33.22400 48.69700 26.79700
H  33.28600 47.59600 25.56400
H  27.12100 49.27200 22.49100
H  25.87400 51.92500 22.03200
H  28.91700 51.58300 22.28000
H  27.76300 51.38400 20.90200
H  28.85200 50.02900 21.41100
H  24.18900 49.40200 22.65700
H  25.23800 49.37300 21.30700
H  23.55700 49.85300 20.27800
H  24.22400 51.47800 20.50500
H  22.71300 50.98500 21.42500
H  21.98400 54.83600 25.78000
H  20.82500 53.53900 25.47300
H  22.14900 53.84600 24.29600
H  22.22400 51.82000 30.54400
H  23.63200 55.46900 32.70700
H  23.20400 54.19700 33.92500
H  21.99500 55.32000 33.41800

