158

Mg 1.63400 8.26900 27.34700
C  1.92000 10.11800 30.28800
C  1.46900 5.49800 29.26900
C  1.53800 6.47000 24.58400
C  1.84600 11.25900 25.54700
N  1.73700 7.89600 29.58900
C  1.73700 8.78700 30.57900
C  1.41800 8.18800 31.93800
C  1.52600 6.65400 31.55200
C  1.51200 6.64500 30.02600
C  2.75900 6.02200 32.10500
C  -0.02400 8.57200 32.42400
C  -0.35600 8.63800 33.94900
H  0.74900 8.25800 34.98300
N  1.67500 6.22100 26.94300
C  1.47100 5.29800 27.88700
C  1.33700 3.96400 27.29600
C  1.45400 4.25600 25.92000
C  1.62700 5.68700 25.74200
C  1.16900 2.67800 28.13100
C  1.45600 3.33900 24.79400
O  1.63000 3.72600 23.63700
C  1.10800 1.85100 25.03800
N  1.76900 8.76700 25.37400
C  1.71400 7.87400 24.38100
C  1.73900 8.57700 22.96600
C  1.42900 10.03500 23.34600
C  1.75700 10.01100 24.86300
C  3.11800 8.16000 22.32500
C  -0.05300 10.50600 22.99300
C  -0.57000 10.41300 21.47200
N  1.82300 10.35000 27.78900
C  1.95900 11.42500 26.96100
C  2.15100 12.57000 27.68800
C  2.17000 12.17000 29.01600
C  2.03000 10.75900 29.00600
C  2.15100 13.94100 27.12700
C  2.39700 12.57500 30.39200
O  2.73300 13.62700 30.89100
C  2.03500 11.25700 31.21900
C  2.93800 11.24000 32.40900
O  3.99400 10.66700 32.60600
O  2.28800 12.00200 33.35900
C  3.03100 12.05400 34.67800
H  1.37600 4.58400 29.85900
H  1.35900 5.91800 23.65800
H  2.01100 12.07600 24.84200
H  2.11700 8.50500 32.71200
H  0.72000 6.03700 31.94900
H  3.65300 6.47400 31.67400
H  2.81500 5.03600 31.64400
H  2.91700 5.98000 33.18300
H  -0.79400 7.84200 32.17600
H  -0.20300 9.55600 31.99100
H  -1.17500 7.94000 34.12600
H  -0.69000 9.65500 34.15600
H  0.83700 1.75000 27.66600
H  0.47000 2.88700 28.94100
H  2.13100 2.48400 28.60400
H  1.32200 1.31500 24.11300
H  0.10300 1.81900 25.45900
H  1.81800 1.38800 25.72400
H  0.92400 8.04300 22.47800
H  2.19400 10.65000 22.87200
H  3.51700 8.95000 21.69000
H  2.66000 7.42400 21.66400
H  3.89900 7.86100 23.02500
H  -0.06900 11.55300 23.29500
H  -0.82400 10.07500 23.63300
H  0.16400 9.98000 20.79300
H  -1.08500 11.31200 21.13400
H  -1.44300 9.76000 21.47100
H  1.65100 14.10000 26.17100
H  3.19100 14.21200 26.94500
H  1.65000 14.72600 27.69300
H  1.01800 11.51200 31.51700
H  2.43900 12.74600 35.27800
H  4.03400 12.46200 34.55300
H  3.15100 11.09400 35.18100
Mg 17.01000 51.72800 25.63200
C  18.74500 50.57800 28.51800
C  14.44800 52.63600 27.71800
C  15.43600 52.77000 22.95600
C  19.44300 50.18800 23.61600
N  16.70000 51.67300 27.91800
C  17.56600 51.23500 28.90500
C  16.99400 51.52100 30.31600
C  15.46500 51.86500 29.97300
C  15.53200 52.03300 28.41300
C  14.41200 50.79200 30.35400
C  17.81200 52.62000 31.01500
C  18.00200 52.38300 32.50100
H  16.86000 52.93000 33.34600
N  15.21300 52.74500 25.38500
C  14.30200 53.00600 26.34400
C  13.21000 53.76300 25.72200
C  13.39400 53.74600 24.29600
C  14.71100 53.09200 24.12800
C  12.12000 54.34600 26.61600
C  12.49000 54.26000 23.16900
O  12.96900 54.37700 22.05000
C  11.03900 54.64000 23.37500
N  17.32200 51.38600 23.52400
C  16.60500 52.03600 22.64300
C  17.11600 51.87200 21.20800
C  18.59800 51.37900 21.49300
C  18.40400 50.87600 22.93900
C  16.26100 50.93300 20.35700
C  19.75000 52.46000 21.40700
C  20.91400 52.06700 20.47700
N  18.62600 50.52700 25.92100
C  19.52600 49.95800 25.01100
C  20.66200 49.35100 25.69900
C  20.40400 49.55200 27.07700
C  19.17400 50.36200 27.17000
C  21.76500 48.64300 24.92500
C  20.94200 49.35200 28.38600
O  21.90700 48.73300 28.72500
C  19.76500 49.93700 29.38600
C  19.28800 48.79000 30.21600
O  18.81600 47.70300 29.78200
O  19.36300 49.13800 31.58200
C  18.93600 48.14400 32.59800
H  13.52500 52.90200 28.23800
H  14.98200 53.20800 22.06500
H  20.30800 49.96000 22.99000
H  17.12800 50.59600 30.87700
H  15.24000 52.88700 30.27800
H  14.68400 50.44500 31.35100
H  14.35500 49.93400 29.68400
H  13.48500 51.36600 30.37200
H  17.46500 53.65000 30.92700
H  18.83600 52.55800 30.64600
H  19.01900 52.56500 32.84800
H  17.95500 51.29800 32.59400
H  11.20400 53.79200 26.41000
H  12.03800 55.36600 26.24100
H  12.22500 54.24200 27.69600
H  10.63000 53.82900 23.97700
H  10.48100 54.94300 22.48800
H  10.89800 55.53600 23.98000
H  17.23700 52.82200 20.68800
H  18.90900 50.66500 20.73000
H  15.68000 51.53900 19.66100
H  15.66000 50.29300 21.00300
H  16.94600 50.36000 19.73100
H  20.13700 52.72800 22.39000
H  19.40800 53.37700 20.92700
H  20.81200 51.02200 20.18700
H  21.79900 52.17700 21.10300
H  20.96400 52.68100 19.57800
H  22.29600 47.98800 25.61500
H  22.43900 49.34400 24.43300
H  21.33100 47.92300 24.23100
H  20.17200 50.71900 30.02600
H  17.86300 48.33800 32.60600
H  19.39100 48.44100 33.54300
H  19.15000 47.13900 32.23500

