158

Mg 2.30500 -2.44200 43.38800
C  5.46000 -1.05400 42.68200
C  0.85900 0.18200 41.69600
C  -0.62800 -4.06500 43.74500
C  3.96500 -5.18200 44.73600
N  3.13600 -0.73500 42.15800
C  4.41900 -0.31200 42.13800
C  4.63800 0.99700 41.40400
C  3.17600 1.42400 41.25300
C  2.26200 0.26200 41.79600
C  2.71500 2.81100 41.86200
C  5.42700 0.97900 40.06700
C  5.94000 2.38900 39.58700
H  5.87600 2.82800 38.14100
N  0.43200 -2.05100 42.69700
C  -0.00500 -0.85200 42.13800
C  -1.40100 -0.87000 41.86100
C  -1.86000 -2.14300 42.41400
C  -0.70300 -2.81700 43.01500
C  -2.13800 0.27200 41.15400
C  -3.33800 -2.57000 42.52200
O  -4.29400 -1.93400 42.05400
C  -3.69200 -3.83300 43.19400
N  1.77000 -4.52000 43.94000
C  0.46100 -4.85600 44.13700
C  0.33100 -6.17600 44.89300
C  1.81400 -6.53400 45.22000
C  2.56900 -5.32700 44.59000
C  -0.69900 -6.09600 46.09100
C  2.36500 -7.87800 44.78200
C  2.70400 -7.98100 43.32100
N  4.26300 -3.03600 43.67900
C  4.75600 -4.09400 44.35600
C  6.16000 -3.95900 44.52700
C  6.45800 -2.75700 43.92200
C  5.25700 -2.25000 43.38300
C  7.04900 -4.95800 45.26300
C  7.57400 -1.90800 43.63300
O  8.75900 -2.01600 43.92700
C  6.92700 -0.77300 42.89600
C  7.16700 0.38400 43.74900
O  6.57800 0.74400 44.74300
O  8.19300 1.11500 43.19000
C  8.47600 2.45000 43.81600
H  0.42800 1.06900 41.22600
H  -1.47700 -4.73800 43.88600
H  4.52600 -5.93500 45.29300
H  5.15100 1.65200 42.10800
H  3.06400 1.42100 40.16800
H  2.00700 3.32400 41.21200
H  3.57700 3.46100 42.01200
H  2.21200 2.64900 42.81500
H  4.81900 0.60100 39.24600
H  6.39700 0.51300 40.24400
H  7.00900 2.47200 39.78000
H  5.37400 3.08000 40.21100
H  -1.86400 0.28300 40.09900
H  -1.86700 1.26700 41.50800
H  -3.21800 0.24300 41.30200
H  -3.40900 -4.76500 42.70700
H  -4.77600 -3.88000 43.29800
H  -3.37600 -3.80800 44.23700
H  -0.10200 -6.79600 44.10800
H  1.92400 -6.57500 46.30400
H  -0.23500 -6.15600 47.07500
H  -1.17200 -7.07100 45.97700
H  -1.41200 -5.27100 46.06500
H  1.61800 -8.64700 44.97900
H  3.25300 -8.11200 45.36900
H  2.39600 -7.18400 42.64400
H  2.25200 -8.90400 42.95900
H  3.77300 -8.11300 43.15200
H  6.49100 -5.63100 45.91500
H  7.90800 -4.40300 45.64000
H  7.50900 -5.69200 44.60100
H  7.44900 -0.55300 41.96500
H  7.54300 2.99600 43.96000
H  9.03000 2.94900 43.02100
H  9.05400 2.29200 44.72700
Mg 9.67800 47.66200 26.09200
C  7.76300 48.06700 28.91400
C  12.50300 48.42500 27.79900
C  11.45500 47.21400 23.20800
C  6.72600 47.52100 24.23500
N  10.13800 48.22500 28.13700
C  9.18400 48.25300 29.17300
C  9.90700 48.30000 30.50100
C  11.27200 48.78100 30.03800
C  11.35100 48.47900 28.57000
C  11.69100 50.24900 30.24600
C  9.83300 47.01700 31.38100
C  9.67500 47.35200 32.89400
H  9.46400 46.22500 33.94800
N  11.69100 47.70600 25.58800
C  12.71600 48.06700 26.48000
C  13.95600 48.15500 25.79300
C  13.64600 47.87300 24.43600
C  12.23200 47.53200 24.37900
C  15.37500 48.52000 26.42400
C  14.60600 47.84200 23.17700
O  14.16600 47.73800 22.05100
C  16.14500 47.84500 23.44800
N  9.19700 47.34000 24.08300
C  10.09800 47.15600 23.13100
C  9.41400 46.72700 21.81000
C  7.88500 46.75600 22.17200
C  7.92400 47.21300 23.60300
C  9.83000 47.42000 20.45800
C  7.27700 45.35900 22.07100
C  7.49700 44.36200 23.20900
N  7.61300 48.00200 26.39900
C  6.52900 47.92300 25.55300
C  5.26000 47.98800 26.30100
C  5.70000 47.98300 27.63700
C  7.12900 48.01100 27.64100
C  3.90200 47.91900 25.69600
C  5.27500 47.93000 28.99800
O  4.12700 47.83900 29.41900
C  6.54200 47.95800 29.91300
C  6.49100 46.66500 30.68200
O  6.90200 45.55900 30.37600
O  5.86300 46.85900 31.92200
C  5.80800 45.68200 32.82200
H  13.45100 48.55500 28.32400
H  12.08200 46.94700 22.35500
H  5.88800 47.32000 23.56400
H  9.33800 49.07000 31.02300
H  11.96300 48.18300 30.63300
H  10.79200 50.80800 30.50700
H  12.24900 50.77700 29.47200
H  12.37300 50.36500 31.08700
H  10.69600 46.35800 31.27700
H  9.02100 46.42600 30.95800
H  8.73700 47.90600 32.89800
H  10.46000 48.02600 33.23800
H  15.46900 48.46900 27.50900
H  15.78000 49.47100 26.07900
H  16.07600 47.74500 26.11500
H  16.30800 46.97700 24.08600
H  16.47200 48.74900 23.96200
H  16.83200 47.83600 22.60100
H  9.74000 45.68900 21.73900
H  7.24200 47.43100 21.60700
H  10.17900 48.38900 20.81600
H  9.09200 47.68900 19.70200
H  10.76000 46.95300 20.13200
H  7.72600 44.90000 21.19000
H  6.20000 45.34200 21.90400
H  6.98000 43.41400 23.06400
H  6.99300 44.74100 24.09900
H  8.48900 44.11800 23.58900
H  3.76600 46.84800 25.84500
H  3.79400 48.05400 24.62000
H  3.19100 48.50100 26.28300
H  6.46400 48.73900 30.66800
H  6.73100 45.10400 32.77700
H  4.91600 45.07900 32.65400
H  5.68000 46.00500 33.85500

