158

Mg 45.13700 4.60600 47.04900
C  43.06900 7.22500 46.35500
C  42.50400 2.29000 46.61200
C  47.43000 2.03000 47.22300
C  47.81800 6.92600 47.02600
N  43.10700 4.77100 46.51800
C  42.46200 5.95100 46.37600
C  41.05200 5.68700 46.06400
C  40.83800 4.20900 46.51000
C  42.22000 3.69000 46.50300
C  40.17700 4.02700 47.91500
C  40.67400 5.93800 44.56100
C  39.65600 7.06500 44.17300
H  39.97000 7.79000 42.83000
N  44.98400 2.47500 47.00100
C  43.84300 1.74900 46.78600
C  44.16400 0.28900 46.93500
C  45.58200 0.17900 46.92200
C  46.08300 1.57600 47.04600
C  43.12400 -0.80900 46.63300
C  46.32000 -1.14600 46.63400
O  45.73100 -2.19000 46.55800
C  47.76800 -1.15900 46.20800
N  47.29900 4.45500 47.03600
C  47.98700 3.27100 47.19500
C  49.50300 3.50300 47.35100
C  49.66500 5.07300 47.12700
C  48.18800 5.53300 47.03500
C  49.97200 2.95200 48.75400
C  50.56800 5.46300 46.02200
C  51.79700 6.25200 46.55400
N  45.45900 6.69800 46.84900
C  46.58600 7.53100 46.93300
C  46.21900 8.91100 46.64300
C  44.77100 8.86100 46.50900
C  44.42600 7.47500 46.61000
C  47.15100 10.06000 46.68200
C  43.57100 9.64700 46.23600
O  43.32800 10.81700 46.09000
C  42.47300 8.61600 46.15100
C  41.51200 8.92000 47.30200
O  41.56200 8.53200 48.48200
O  40.65000 9.87200 46.83600
C  39.67900 10.31100 47.88200
H  41.78800 1.46600 46.59500
H  48.23100 1.29900 47.09100
H  48.57100 7.70700 47.15000
H  40.41000 6.33600 46.65900
H  40.27000 3.68800 45.73900
H  40.95200 3.68300 48.60000
H  39.48100 3.23500 47.63900
H  39.65200 4.92400 48.24400
H  40.22700 5.03500 44.14400
H  41.62900 6.10300 44.06200
H  39.55300 7.76700 45.00000
H  38.68100 6.57700 44.16800
H  43.36200 -1.23700 45.65900
H  42.12900 -0.46900 46.34300
H  42.99400 -1.55800 47.41400
H  48.38700 -1.22400 47.10300
H  47.91500 -0.18400 45.74300
H  47.83500 -1.97700 45.49000
H  50.10600 2.92900 46.64800
H  50.06700 5.55300 48.01900
H  50.32500 1.93500 48.58400
H  49.06000 2.83600 49.34000
H  50.75700 3.59400 49.15500
H  50.03100 6.04100 45.27000
H  51.02100 4.59500 45.54200
H  52.72600 6.02600 46.03000
H  52.05400 6.07800 47.59800
H  51.66100 7.32400 46.40500
H  46.70800 11.03100 46.46100
H  47.87500 9.84400 45.89700
H  47.64300 10.05600 47.65500
H  42.01500 8.68600 45.16400
H  38.87600 9.57600 47.84000
H  39.27500 11.26400 47.54000
H  40.21700 10.38500 48.82700
Mg 9.80100 47.96100 26.32400
C  7.86500 47.75900 29.37700
C  12.48100 48.90700 28.08000
C  11.42400 48.44500 23.42800
C  6.83300 47.16100 24.57800
N  10.11200 48.25500 28.56300
C  9.23300 48.16000 29.63100
C  9.96000 48.46200 30.95500
C  11.36200 49.08200 30.49100
C  11.37800 48.68000 28.96100
C  11.47800 50.62500 30.51700
C  10.10400 47.20800 31.91800
C  9.88200 47.38600 33.41100
H  10.17200 46.19400 34.38600
N  11.68300 48.42800 25.82400
C  12.69600 48.77100 26.71400
C  13.93100 48.97700 26.01000
C  13.66200 48.75700 24.61800
C  12.18200 48.54400 24.52100
C  15.21600 49.43600 26.68900
C  14.67500 48.70400 23.43300
O  14.35800 48.57700 22.29000
C  16.06600 48.65900 23.80500
N  9.14800 47.80000 24.25600
C  10.04900 48.07500 23.20900
C  9.36200 47.88300 21.84400
C  7.91900 47.27400 22.27600
C  7.94000 47.38100 23.77400
C  9.15600 49.19600 21.09400
C  7.63900 45.92000 21.66300
C  7.95900 44.86000 22.69100
N  7.89500 47.53100 26.82600
C  6.76100 47.18700 25.96300
C  5.60700 47.06900 26.75300
C  5.97900 47.26900 28.07900
C  7.34800 47.52600 28.06800
C  4.26200 46.57900 26.21800
C  5.42300 47.31200 29.40600
O  4.24500 47.08700 29.85600
C  6.71000 47.42200 30.32500
C  6.80600 46.08000 30.90300
O  7.19300 45.05800 30.29600
O  6.55200 46.05800 32.26000
C  6.95700 44.80500 32.97000
H  13.34600 49.05900 28.73000
H  11.98000 48.71700 22.52800
H  5.94300 46.87300 24.01500
H  9.33300 49.13700 31.53700
H  12.21700 48.68200 31.03500
H  11.44900 51.06900 29.52200
H  12.40300 51.00100 30.95500
H  10.67100 51.12500 31.05300
H  10.97200 46.56700 31.76600
H  9.37700 46.48500 31.54800
H  8.86000 47.69900 33.62400
H  10.43800 48.27600 33.70700
H  14.99700 49.74500 27.71100
H  15.61000 50.28000 26.12400
H  15.98300 48.66400 26.75300
H  16.18200 49.68700 24.14800
H  16.66200 48.48600 22.90800
H  16.10800 47.89900 24.58500
H  9.92500 47.11400 21.31600
H  7.13900 47.94600 21.91800
H  9.48100 50.04800 21.69100
H  8.11000 49.36800 20.83800
H  9.82200 49.12000 20.23500
H  8.19300 45.81100 20.73100
H  6.57600 46.02600 21.44900
H  7.07300 44.66200 23.29600
H  8.80000 45.10200 23.34000
H  8.04700 43.89000 22.20200
H  4.50800 45.69300 25.63200
H  3.73800 47.31700 25.61200
H  3.65800 46.29600 27.08000
H  6.63200 48.26300 31.01400
H  7.94300 44.51500 32.60500
H  6.25600 43.97600 32.87700
H  6.97200 45.05600 34.03100

