158

Mg 9.54700 48.20500 26.69100
C  7.18300 48.13200 29.31800
C  11.96300 48.68100 28.98900
C  11.71200 48.28500 24.19000
C  6.90500 47.90700 24.45200
N  9.52200 48.31900 28.89300
C  8.54700 48.27900 29.80100
C  9.04200 48.33300 31.24600
C  10.61600 48.47000 31.02500
C  10.71800 48.55500 29.55400
C  11.14000 49.79100 31.74700
C  8.51800 47.19600 32.22200
C  9.33600 46.62100 33.40300
H  8.66800 46.56300 34.83300
N  11.53200 48.67500 26.62700
C  12.37600 48.80100 27.62600
C  13.67700 49.09000 27.13600
C  13.65000 48.86800 25.77000
C  12.25500 48.55900 25.46700
C  14.83200 49.38800 28.10100
C  14.70000 48.95700 24.77600
O  14.47100 48.80100 23.56500
C  16.06500 49.29900 25.15200
N  9.34800 48.08000 24.55200
C  10.41800 48.10400 23.70400
C  10.03500 47.74700 22.28100
C  8.46300 47.55800 22.41500
C  8.15900 47.88900 23.91000
C  10.48400 48.80300 21.24700
C  8.01100 46.16500 21.92300
C  7.25100 46.20500 20.60400
N  7.46500 48.19600 26.82100
C  6.53100 47.99300 25.86200
C  5.18500 47.97000 26.40700
C  5.44200 47.97600 27.78900
C  6.80800 48.14700 27.97600
C  3.83500 47.79900 25.76400
C  4.76300 47.88200 29.00300
O  3.56800 47.85700 29.29900
C  5.92000 47.85800 30.09300
C  5.87500 46.48500 30.63400
O  6.24500 45.46900 30.10700
O  5.12800 46.51600 31.74300
C  4.91400 45.21500 32.42400
H  12.86200 48.88100 29.57600
H  12.37900 48.29400 23.32600
H  6.18800 47.73000 23.64700
H  8.74100 49.25800 31.73800
H  11.02700 47.53300 31.40200
H  11.70100 49.37700 32.58600
H  10.38800 50.47100 32.14800
H  11.79600 50.42700 31.15300
H  8.32500 46.34300 31.57100
H  7.55200 47.56500 32.56700
H  10.31100 47.10700 33.43800
H  9.66400 45.62900 33.09200
H  15.76400 49.03800 27.65800
H  14.80600 48.79000 29.01100
H  14.85600 50.45100 28.34100
H  16.65400 49.61000 24.29000
H  16.58900 48.48700 25.65600
H  15.94600 50.19100 25.76800
H  10.62000 46.86000 22.03600
H  7.94500 48.30000 21.80700
H  11.43600 48.50000 20.81100
H  10.62100 49.77900 21.71200
H  9.72600 48.92600 20.47400
H  7.30200 45.85100 22.68900
H  8.81600 45.43000 21.90600
H  6.19500 45.99500 20.77300
H  7.65800 45.55500 19.83000
H  7.32200 47.23000 20.24100
H  3.46900 46.77200 25.76000
H  3.95800 48.15700 24.74200
H  3.11800 48.40900 26.31500
H  5.71200 48.60400 30.86000
H  3.93500 44.80400 32.17800
H  4.97300 45.31100 33.50800
H  5.80300 44.60800 32.24900
Mg -0.60100 44.62300 26.36900
C  1.67900 43.43500 28.86800
C  -3.14500 43.95500 28.51600
C  -2.70700 45.05700 23.80500
C  2.15800 44.47600 24.06600
N  -0.67500 43.74500 28.48200
C  0.36300 43.42300 29.32700
C  -0.11400 43.21000 30.76600
C  -1.69000 43.16300 30.54500
C  -1.87600 43.72200 29.08300
C  -2.42100 41.87000 30.80900
C  0.32600 44.48000 31.68600
C  0.67200 44.15500 33.19400
H  0.44700 42.76200 33.78100
N  -2.63600 44.60400 26.25100
C  -3.52600 44.38500 27.23600
C  -4.86800 44.61900 26.73700
C  -4.70900 45.10500 25.42600
C  -3.24300 44.94800 25.08700
C  -6.05600 44.46900 27.62300
C  -5.76700 45.61900 24.38200
O  -5.48300 45.99500 23.25800
C  -7.26000 45.55600 24.63300
N  -0.30800 44.72300 24.17300
C  -1.35800 45.00100 23.32300
C  -0.87300 45.08700 21.90000
C  0.66300 45.18100 22.06600
C  0.90200 44.83200 23.50000
C  -1.38900 43.97700 21.03700
C  1.27500 46.55200 21.64600
C  1.35300 47.66800 22.69500
N  1.51600 44.17300 26.40800
C  2.49800 44.14500 25.42000
C  3.78400 43.88400 26.05400
C  3.50600 43.56800 27.37600
C  2.13400 43.72600 27.53500
C  5.18100 43.71900 25.41100
C  4.15600 43.08900 28.60400
O  5.24700 42.61100 28.81300
C  2.91200 43.11400 29.62500
C  3.01000 41.89500 30.45600
O  2.54100 40.79600 30.13200
O  3.77000 42.22400 31.54900
C  4.05300 41.15700 32.50200
H  -3.98700 43.81100 29.19700
H  -3.35000 45.27200 22.94900
H  2.94300 44.64000 23.32400
H  0.10900 42.17200 31.01600
H  -2.13800 43.82500 31.28600
H  -1.76700 41.29600 31.46500
H  -2.70800 41.34200 29.89900
H  -3.32600 42.05200 31.38900
H  -0.35000 45.33500 31.68500
H  1.21400 44.87800 31.19500
H  0.06500 44.81900 33.81000
H  1.74400 44.23800 33.37000
H  -6.05100 43.44900 28.00800
H  -6.97500 44.63800 27.06100
H  -6.11000 45.22700 28.40400
H  -7.58600 45.89500 25.61700
H  -7.50300 44.49400 24.59200
H  -7.83400 46.22100 23.98700
H  -1.24500 46.06500 21.59700
H  1.15900 44.47100 21.40400
H  -1.84900 43.16200 21.59500
H  -0.61000 43.59500 20.37700
H  -2.24700 44.43000 20.54200
H  0.64900 46.92400 20.83500
H  2.25300 46.35300 21.20800
H  2.36800 47.92500 23.00000
H  0.61200 47.42600 23.45700
H  1.14700 48.62100 22.20700
H  5.50100 44.72700 25.14700
H  5.09900 43.29500 24.41000
H  5.68900 43.09800 26.14800
H  3.24100 44.00300 30.16200
H  4.12200 41.49700 33.53600
H  5.09200 40.85100 32.38600
H  3.31900 40.36100 32.38200

