158

Mg 2.43700 -1.08000 44.61700
C  5.91000 -0.45600 44.20200
C  1.93900 1.50400 42.47000
C  -0.70200 -2.29000 43.88400
C  3.37700 -4.45100 45.72700
N  3.75800 0.34800 43.49400
C  5.13300 0.49100 43.43500
C  5.62900 1.58200 42.38600
C  4.27100 2.26000 42.01200
C  3.23300 1.31600 42.73700
C  4.12200 3.72400 42.45100
C  6.36700 0.87000 41.20700
C  7.90200 0.90700 41.19200
H  8.79300 1.38300 40.02000
N  0.72200 -0.29700 43.60400
C  0.74400 0.79300 42.75800
C  -0.52200 0.98800 42.26200
C  -1.37000 -0.04500 42.74900
C  -0.49300 -0.98100 43.42300
C  -0.95100 2.17800 41.46600
C  -2.88100 -0.09200 42.41600
O  -3.34400 0.80100 41.76400
C  -3.63700 -1.23900 43.02200
N  1.52700 -3.09400 44.69100
C  0.20400 -3.20300 44.41100
C  -0.23100 -4.63700 44.66400
C  1.07500 -5.38700 45.07300
C  2.06500 -4.24100 45.16700
C  -1.38100 -4.83800 45.71300
C  1.53900 -6.59400 44.30900
C  0.48400 -7.70400 44.03400
N  4.22400 -2.14600 45.20300
C  4.41000 -3.41000 45.72800
C  5.80000 -3.59400 46.05100
C  6.38400 -2.39000 45.53000
C  5.42900 -1.56000 44.95200
C  6.38000 -4.87900 46.67400
C  7.64700 -1.66800 45.35800
O  8.79100 -1.93700 45.76800
C  7.40300 -0.39400 44.50000
C  7.73800 0.80900 45.33400
O  7.39000 0.94800 46.46600
O  8.59500 1.62500 44.59700
C  8.86600 2.91400 45.28300
H  1.72500 2.42400 41.92200
H  -1.68900 -2.74900 43.79200
H  3.63200 -5.43600 46.12500
H  6.25400 2.34400 42.85100
H  4.03300 2.12800 40.95600
H  5.02300 4.08600 42.94600
H  3.36300 3.77100 43.23200
H  3.80200 4.18600 41.51700
H  6.00700 1.28900 40.26800
H  6.10600 -0.18800 41.22600
H  8.05400 -0.17200 41.19600
H  8.29000 1.39700 42.08500
H  -1.74200 1.97000 40.74600
H  -0.08500 2.56900 40.93300
H  -1.32100 3.00800 42.06900
H  -4.67200 -1.05100 42.73500
H  -3.39800 -1.33700 44.08100
H  -3.29600 -2.16700 42.56300
H  -0.59300 -5.06400 43.72800
H  1.02800 -5.60600 46.14000
H  -1.51000 -4.00200 46.40100
H  -1.17100 -5.65400 46.40400
H  -2.22700 -5.05400 45.06100
H  2.32400 -7.03500 44.92400
H  2.13900 -6.32300 43.44000
H  0.86200 -8.56200 44.59000
H  0.50700 -7.76100 42.94600
H  -0.53600 -7.54400 44.38400
H  5.82800 -5.24900 47.53700
H  7.40600 -4.60700 46.92300
H  6.39800 -5.67000 45.92400
H  8.02300 -0.49100 43.60900
H  9.72600 2.88500 45.95300
H  7.99700 3.32000 45.80000
H  9.17900 3.56000 44.46300
Mg 55.51100 22.59500 44.78200
C  53.42500 24.96200 43.52900
C  53.12900 20.23400 43.89200
C  57.84500 20.19800 45.16300
C  57.89200 24.99300 45.35200
N  53.57500 22.61600 43.69000
C  52.90100 23.71500 43.18800
C  51.54300 23.30000 42.71000
C  51.34800 21.83700 43.33600
C  52.72700 21.54500 43.72800
C  50.32200 21.71600 44.49900
C  51.33700 23.66800 41.22200
C  50.05600 24.40300 40.91100
H  49.25100 23.86900 39.75200
N  55.46400 20.57800 44.39500
C  54.42700 19.75500 44.03500
C  54.81100 18.36900 44.06000
C  56.20000 18.34800 44.33500
C  56.60200 19.72600 44.63300
C  53.87600 17.25600 43.87500
C  57.03300 17.07900 44.52000
O  56.44300 15.96300 44.46300
C  58.47400 17.05900 45.01700
N  57.54300 22.51000 45.32800
C  58.32100 21.45400 45.48100
C  59.83700 21.71900 45.85100
C  59.80400 23.35000 45.74000
C  58.30300 23.65100 45.47500
C  60.25400 21.23600 47.28700
C  60.69800 23.94700 44.53100
C  61.44800 25.25100 44.79700
N  55.63700 24.55700 44.65800
C  56.60700 25.44700 45.00800
C  56.11700 26.80700 44.83900
C  54.84300 26.70300 44.32800
C  54.58600 25.29800 44.21500
C  56.85100 28.09700 45.19400
C  53.65200 27.38000 43.86600
O  53.38100 28.57500 43.89100
C  52.82800 26.31200 43.15000
C  52.92000 26.54700 41.69400
O  53.87500 26.23100 40.95500
O  51.86300 27.30400 41.35200
C  51.93100 28.12000 40.14900
H  52.38500 19.47100 43.65300
H  58.64900 19.51700 45.44600
H  58.54700 25.85500 45.49200
H  50.89300 23.89900 43.34800
H  51.05500 21.08600 42.60100
H  50.85800 21.19500 45.29300
H  49.49100 21.09800 44.15700
H  49.93400 22.71600 44.68800
H  51.39000 22.73600 40.66000
H  52.14100 24.31900 40.88000
H  50.26500 25.40300 40.53000
H  49.42000 24.43400 41.79500
H  54.02600 16.94000 42.84300
H  52.82900 17.48500 44.07400
H  54.11100 16.42700 44.54300
H  58.53300 17.40900 46.04800
H  59.07700 17.66400 44.33900
H  58.94100 16.07500 45.05100
H  60.37600 21.27300 45.01500
H  60.05700 23.86300 46.66700
H  59.39600 20.75200 47.75300
H  60.56300 22.13400 47.82200
H  61.02000 20.47200 47.15100
H  60.07600 24.10700 43.65000
H  61.43600 23.17800 44.30100
H  61.33200 25.79900 43.86100
H  62.52800 25.20300 44.93700
H  60.97800 25.89800 45.53800
H  56.36500 28.64700 46.00000
H  56.72000 28.76400 44.34100
H  57.93200 27.98300 45.27500
H  51.77200 26.37200 43.41300
H  51.28500 28.99800 40.15100
H  51.57600 27.50500 39.32300
H  52.96800 28.39000 39.95100

