158

Mg 1.71500 -1.43900 43.52000
C  4.98700 -0.68900 42.89900
C  0.77300 1.29300 41.37900
C  -1.50000 -2.58400 43.22400
C  2.65400 -4.53300 44.99300
N  2.77200 0.16000 42.30700
C  4.13300 0.24900 42.21100
C  4.56200 1.37100 41.29500
C  3.21200 2.19700 41.03900
C  2.18400 1.19200 41.62900
C  3.03500 3.52700 41.57800
C  5.33700 0.87800 40.05300
C  6.59700 1.72100 39.58500
H  6.53700 2.37100 38.26000
N  -0.12200 -0.65700 42.62500
C  -0.29400 0.49600 41.85500
C  -1.68900 0.60200 41.61800
C  -2.42300 -0.53600 42.02000
C  -1.31800 -1.29600 42.64300
C  -2.30800 1.84000 40.92600
C  -3.93300 -0.69800 41.98100
O  -4.64700 0.15700 41.41900
C  -4.61600 -1.76700 42.74000
N  0.65200 -3.29000 44.12600
C  -0.65800 -3.50200 43.86600
C  -1.00600 -4.92900 44.33300
C  0.25700 -5.42900 45.07200
C  1.28100 -4.35900 44.71700
C  -2.33800 -5.08200 45.11400
C  0.71700 -6.89400 44.93600
C  0.84500 -7.77000 46.21400
N  3.40000 -2.41200 44.00600
C  3.66900 -3.60100 44.58600
C  5.13000 -3.75000 44.73900
C  5.68700 -2.59200 44.19400
C  4.59600 -1.83700 43.68600
C  5.79300 -5.00100 45.34500
C  6.91500 -1.97400 43.78900
O  8.07300 -2.29200 43.90100
C  6.52300 -0.68800 43.03700
C  7.15500 0.41600 43.81400
O  7.18000 0.64400 45.01200
O  7.70300 1.26600 42.87800
C  8.42400 2.41700 43.42200
H  0.51000 2.03800 40.62500
H  -2.53000 -2.92000 43.36000
H  3.10000 -5.43300 45.42200
H  5.19800 2.02100 41.89600
H  3.13100 2.30900 39.95800
H  3.85400 3.63000 42.28900
H  2.08300 3.65900 42.09300
H  3.07800 4.33700 40.85000
H  4.71000 0.80700 39.16500
H  5.73700 -0.08800 40.36000
H  7.43500 1.03000 39.49300
H  6.74400 2.56400 40.26000
H  -2.90100 1.55700 40.05600
H  -1.53400 2.50700 40.54500
H  -2.99200 2.27600 41.65400
H  -5.70200 -1.69300 42.79800
H  -4.22100 -1.58300 43.73900
H  -4.32400 -2.73900 42.34300
H  -1.10800 -5.48200 43.40000
H  -0.02400 -5.42500 46.12500
H  -3.10300 -5.46100 44.43600
H  -2.70200 -4.11900 45.47200
H  -2.34000 -5.88900 45.84600
H  1.70000 -6.80000 44.47300
H  0.13700 -7.40300 44.16700
H  1.88700 -7.76300 46.53500
H  0.62600 -8.77600 45.85700
H  0.26000 -7.34600 47.03000
H  5.38100 -5.89900 44.88400
H  5.46300 -5.04700 46.38300
H  6.84200 -5.09700 45.06700
H  7.03000 -0.61000 42.07600
H  7.77300 3.08600 43.98300
H  8.80200 2.96600 42.55900
H  9.21000 1.98300 44.04100
Mg -10.43300 38.89400 42.31800
C  -8.86900 35.92000 41.58300
C  -7.68900 40.58300 41.22600
C  -12.22400 41.75200 42.43600
C  -13.40100 37.01400 42.74500
N  -8.57800 38.22000 41.35400
C  -8.01900 36.97700 41.27400
C  -6.59500 37.01600 40.73600
C  -6.17500 38.51900 41.09500
C  -7.54800 39.15200 41.22600
C  -5.18400 38.75400 42.29600
C  -6.44300 36.64200 39.15300
C  -5.24000 35.75500 38.87700
H  -5.37600 34.69600 37.75400
N  -10.09100 40.89000 41.74400
C  -8.86400 41.35700 41.38900
C  -8.97900 42.77800 41.06100
C  -10.25400 43.15300 41.46700
C  -10.90800 41.94900 41.96400
C  -7.82300 43.62100 40.37700
C  -10.80400 44.64600 41.44700
O  -10.05600 45.54100 41.00200
C  -12.23900 45.01400 41.94500
N  -12.54500 39.33900 42.69100
C  -12.94600 40.59300 42.78100
C  -14.48600 40.62600 43.20100
C  -14.94500 39.11900 43.03700
C  -13.58800 38.41500 42.79500
C  -14.82400 41.36400 44.53400
C  -16.15200 38.86100 42.04300
C  -17.55700 38.41700 42.52600
N  -10.99800 36.87100 42.31300
C  -12.21400 36.24800 42.52700
C  -12.09800 34.78300 42.40300
C  -10.76300 34.62300 42.07100
C  -10.14900 35.90400 41.96900
C  -13.12100 33.79100 42.85000
C  -9.68400 33.64900 41.79300
O  -9.79900 32.46100 41.89900
C  -8.46800 34.49200 41.30500
C  -7.42500 34.03800 42.21400
O  -7.15600 34.52800 43.35300
O  -6.85200 32.93800 41.66400
C  -5.90200 32.19600 42.60700
H  -6.80500 41.13100 40.89500
H  -12.86200 42.61600 42.63200
H  -14.34900 36.48200 42.85100
H  -5.99200 36.37200 41.37600
H  -5.75200 39.02900 40.22900
H  -5.76300 39.23400 43.08500
H  -4.37500 39.43700 42.03900
H  -4.70700 37.86200 42.70100
H  -6.21500 37.54800 38.59100
H  -7.41700 36.28700 38.81900
H  -5.10000 35.24300 39.82900
H  -4.38100 36.30100 38.48800
H  -7.02600 42.95500 40.04500
H  -7.43300 44.44300 40.97800
H  -8.26300 44.06500 39.48400
H  -12.42700 44.67200 42.96300
H  -12.95000 44.83600 41.13800
H  -12.12400 46.09700 42.00400
H  -14.96900 41.15800 42.38100
H  -15.41500 38.69200 43.92300
H  -15.53500 42.18400 44.43100
H  -13.89300 41.87500 44.78100
H  -15.07200 40.78400 45.42200
H  -15.82200 38.19000 41.25100
H  -16.39400 39.76100 41.47700
H  -17.94500 37.50000 42.08200
H  -18.23900 39.26100 42.42300
H  -17.56100 38.32100 43.61100
H  -13.68800 33.29400 42.06200
H  -13.85900 34.20600 43.53600
H  -12.63600 33.07900 43.51800
H  -8.17600 34.26100 40.28100
H  -6.27600 32.28400 43.62700
H  -4.92400 32.67500 42.56600
H  -5.82800 31.14400 42.33200

