158

Mg 47.45500 24.94900 28.63800
C  48.55600 27.30700 31.14800
C  47.11800 22.58800 31.03700
C  46.89700 22.71500 26.21000
C  48.43500 27.27700 26.19900
N  47.86700 24.98000 30.78900
C  48.25100 26.00500 31.66300
C  48.02100 25.63400 33.19600
C  47.74200 24.10000 33.02700
C  47.50100 23.87500 31.53900
C  48.88800 23.21000 33.58100
C  46.94700 26.46300 33.96300
C  47.46100 27.32800 35.16900
H  46.60700 27.36100 36.42000
N  46.97100 22.95400 28.63900
C  46.84900 22.17000 29.72000
C  46.51000 20.81100 29.34000
C  46.55400 20.81100 27.93100
C  46.78700 22.16900 27.51000
C  46.27700 19.63400 30.35200
C  46.19700 19.69900 26.96500
O  46.21300 19.75200 25.70300
C  45.75300 18.34500 27.48400
N  47.72000 24.99400 26.47200
C  47.20900 23.97100 25.72400
C  47.31900 24.28500 24.24100
C  47.82900 25.80800 24.22300
C  48.05000 26.07200 25.67100
C  48.33300 23.28400 23.51600
C  46.77800 26.74900 23.43500
C  45.44800 26.95200 24.20700
N  48.34400 26.90900 28.59500
C  48.54800 27.70800 27.47800
C  49.06900 28.95900 27.98800
C  49.06700 28.85300 29.40100
C  48.66700 27.57700 29.76000
C  49.61100 30.14400 27.23400
C  49.51200 29.53000 30.70700
O  50.00300 30.67400 30.89300
C  49.08000 28.57600 31.90400
C  50.14200 28.28600 32.81500
O  50.94800 27.35100 32.78400
O  50.13800 29.20000 33.87700
C  50.96700 28.76200 34.98700
H  47.06500 21.89000 31.87600
H  46.53500 21.95400 25.51600
H  48.77000 27.99800 25.45000
H  49.03600 25.76400 33.56900
H  46.83200 23.82000 33.55800
H  49.69900 23.88900 33.84700
H  49.32200 22.56500 32.81700
H  48.64700 22.50200 34.37300
H  46.21700 25.76400 34.37000
H  46.43300 27.04600 33.19800
H  47.61800 28.34600 34.81400
H  48.42700 26.93500 35.48600
H  45.26300 19.23700 30.38500
H  46.63600 20.03700 31.29900
H  46.91400 18.80000 30.05700
H  46.55200 17.72800 27.89400
H  45.42200 17.76700 26.62000
H  44.85800 18.38200 28.10400
H  46.28500 24.33200 23.90100
H  48.78300 25.85700 23.69800
H  47.72900 22.97100 22.66400
H  48.56900 22.41700 24.13300
H  49.23500 23.76600 23.14000
H  46.67100 26.29400 22.45100
H  47.07700 27.76800 23.18700
H  45.31300 27.95700 24.60800
H  45.40500 26.37500 25.13000
H  44.65100 26.67000 23.52000
H  50.51600 29.82200 26.71900
H  49.82200 30.96000 27.92500
H  48.88500 30.42500 26.47100
H  48.23200 29.10300 32.34100
H  51.94100 29.25100 34.97500
H  51.08000 27.68200 35.09100
H  50.47200 29.04800 35.91500
Mg 26.71200 50.02800 26.27000
C  24.90000 51.36300 28.77400
C  28.92600 48.87200 28.82600
C  28.70200 48.83800 23.93200
C  24.83300 51.59500 23.85500
N  26.96100 50.31900 28.52400
C  25.95600 50.71700 29.32000
C  26.15900 50.40900 30.82100
C  27.58000 49.80000 30.73400
C  27.87500 49.68300 29.26600
C  28.75900 50.39600 31.54400
C  25.12500 49.43800 31.49700
C  24.40900 49.88900 32.83200
H  24.65500 49.23500 34.19500
N  28.51400 48.90500 26.38900
C  29.24000 48.44700 27.50000
C  30.41200 47.76000 26.99400
C  30.37300 47.79000 25.57200
C  29.10400 48.50400 25.21000
C  31.37200 47.13600 28.01600
C  31.38300 47.14000 24.56500
O  31.43100 47.32200 23.37000
C  32.43200 46.27900 25.19000
N  26.80300 50.22900 24.16200
C  27.65800 49.58300 23.44000
C  27.24000 49.64000 21.85000
C  25.97700 50.46400 21.91600
C  25.81700 50.77600 23.39800
C  28.23900 50.37500 20.94500
C  24.62900 49.75400 21.36700
C  24.85100 48.94100 20.06600
N  25.21600 51.32900 26.26400
C  24.47400 51.88100 25.22300
C  23.33900 52.59300 25.82600
C  23.36600 52.28300 27.17900
C  24.55500 51.57000 27.39700
C  22.19100 53.37000 25.07900
C  22.81100 52.51200 28.41100
O  21.82600 53.18700 28.64900
C  23.70500 51.94000 29.53500
C  24.09700 52.92200 30.52900
O  24.81300 53.87200 30.41300
O  23.31800 52.69700 31.63800
C  23.28800 53.72000 32.69000
H  29.47900 48.41400 29.64900
H  29.32000 48.37200 23.16200
H  24.17800 52.17200 23.19900
H  26.21500 51.33500 31.39400
H  27.51400 48.74000 30.98000
H  29.53500 50.73300 30.85600
H  29.34400 49.62400 32.04300
H  28.44900 51.21500 32.19400
H  25.52800 48.45100 31.72600
H  24.36400 49.31500 30.72700
H  23.32100 49.88600 32.76500
H  24.58900 50.93500 33.07700
H  32.39800 47.40600 27.76600
H  31.28500 46.05800 28.14900
H  31.32000 47.62900 28.98700
H  31.92600 45.54100 25.81200
H  33.07800 46.93000 25.78000
H  32.97400 45.66500 24.47100
H  27.08300 48.61400 21.51700
H  26.04500 51.45500 21.46700
H  27.91000 51.26700 20.41300
H  28.66900 49.66200 20.24100
H  29.08700 50.58000 21.59800
H  23.97200 50.62400 21.34800
H  24.24500 49.09600 22.14700
H  24.10400 49.28200 19.35000
H  24.61300 47.88500 20.20000
H  25.85400 49.15000 19.69700
H  21.56000 53.93000 25.77000
H  21.75800 52.74400 24.29900
H  22.60500 54.08000 24.36200
H  22.98500 51.29300 30.03600
H  23.67700 54.68800 32.37200
H  23.75000 53.36200 33.61000
H  22.25100 53.80100 33.01800

