158

Mg 26.60700 50.28500 26.96400
C  24.72900 51.68600 29.64800
C  28.93600 49.40200 29.25600
C  28.45900 49.36200 24.40200
C  24.14000 51.55800 24.87200
N  26.84100 50.70500 29.18400
C  25.86600 51.04800 30.09100
C  26.38300 50.93500 31.55900
C  27.75500 50.19300 31.36800
C  27.87600 50.08300 29.83800
C  29.02600 50.98000 31.94000
C  25.31000 50.12600 32.46600
C  25.82800 49.11000 33.60800
H  25.01900 48.86700 34.83100
N  28.41600 49.43900 26.81100
C  29.18300 48.99600 27.86200
C  30.39400 48.38500 27.29400
C  30.29200 48.44300 25.86200
C  29.02700 49.14500 25.63900
C  31.42300 47.88900 28.18000
C  31.26200 48.01400 24.84300
O  31.12800 48.16600 23.59500
C  32.47900 47.27700 25.28500
N  26.41300 50.72300 24.88300
C  27.27600 50.06300 24.05000
C  26.72900 49.97400 22.57700
C  25.29500 50.60800 22.79800
C  25.24200 50.94000 24.29400
C  27.64300 50.67500 21.46700
C  24.14600 49.59100 22.43000
C  23.20700 50.09700 21.28200
N  24.85600 51.48800 27.14400
C  23.92000 51.82700 26.22600
C  22.82400 52.55000 26.76800
C  23.06300 52.52500 28.17200
C  24.32900 51.85900 28.28800
C  21.82200 53.29000 25.89400
C  22.63300 52.87900 29.51100
O  21.67300 53.56700 29.88100
C  23.67200 52.25900 30.52900
C  24.31000 53.42300 31.27800
O  25.24300 54.06900 30.81600
O  23.78700 53.65500 32.55500
C  24.47900 54.74600 33.30800
H  29.56300 48.98000 30.04400
H  28.89700 48.86400 23.53500
H  23.44000 51.92900 24.12100
H  26.58100 51.97900 31.80300
H  27.74700 49.12900 31.60300
H  29.44700 50.41600 32.77200
H  28.67000 51.95700 32.26800
H  29.80900 50.94400 31.18300
H  24.75400 49.61400 31.68100
H  24.77700 50.91900 32.99000
H  26.87500 49.30300 33.84500
H  25.96200 48.14400 33.12000
H  31.29600 46.83500 28.42700
H  31.38100 48.40100 29.14200
H  32.41700 48.21400 27.87400
H  33.06200 48.09600 25.70600
H  33.06100 46.71300 24.55500
H  32.38800 46.43300 25.96900
H  26.62000 48.89800 22.44000
H  25.21800 51.55100 22.25600
H  28.45500 51.32300 21.79700
H  26.97200 51.33000 20.91100
H  27.96800 49.84300 20.84100
H  23.51800 49.37900 23.29500
H  24.48000 48.60100 22.11900
H  23.69200 50.90500 20.73400
H  22.20700 50.39500 21.59900
H  23.06700 49.28100 20.57200
H  21.11500 53.89200 26.46500
H  21.34600 52.56000 25.23900
H  22.27500 53.97100 25.17400
H  23.22000 51.51400 31.18400
H  24.00400 54.92700 34.27200
H  24.45900 55.74000 32.86200
H  25.53100 54.46600 33.35300
Mg -11.64700 39.33500 42.69500
C  -10.06500 36.36500 41.59100
C  -9.12900 40.96700 41.19900
C  -13.39200 42.13100 43.13500
C  -14.38000 37.39800 43.65200
N  -9.84800 38.62600 41.44400
C  -9.30800 37.43900 41.20100
C  -8.01600 37.49000 40.40800
C  -7.57800 39.03100 40.59100
C  -8.92600 39.58000 41.10800
C  -6.47000 39.26800 41.68200
C  -8.18800 37.05500 38.90100
C  -7.09500 36.09300 38.34000
H  -6.03900 36.73300 37.48700
N  -11.23000 41.35100 42.37700
C  -10.17100 41.78100 41.64800
C  -10.25000 43.21700 41.56900
C  -11.51700 43.59800 42.14800
C  -12.09500 42.32900 42.62100
C  -9.07400 44.07300 41.13000
C  -11.97800 45.00000 42.34700
O  -11.40000 45.98100 41.94100
C  -13.20000 45.37500 43.28400
N  -13.52200 39.70200 43.39000
C  -14.04500 40.95500 43.47900
C  -15.37400 40.95600 44.31200
C  -15.74300 39.42600 44.10800
C  -14.47100 38.76700 43.66600
C  -15.06300 41.39000 45.74700
C  -17.04900 38.96200 43.26200
C  -18.27200 38.32200 44.03200
N  -12.23100 37.24300 42.59800
C  -13.32100 36.67900 43.08600
C  -13.15700 35.25500 42.99100
C  -11.95000 35.09700 42.38600
C  -11.38900 36.35300 42.23300
C  -14.07900 34.25200 43.53900
C  -11.03100 34.11600 41.92400
O  -10.99900 32.90400 41.93300
C  -9.76600 34.90600 41.41200
C  -8.55100 34.39600 42.13800
O  -8.26100 34.55400 43.30200
O  -7.78800 33.74400 41.25000
C  -6.58500 33.07400 41.80200
H  -8.47700 41.64000 40.63900
H  -14.02200 43.01900 43.22700
H  -15.20700 36.91100 44.17300
H  -7.26500 36.85700 40.88100
H  -7.27400 39.50700 39.66000
H  -5.56100 39.72900 41.29400
H  -6.19400 38.26400 42.00600
H  -6.82200 39.85400 42.53100
H  -8.10000 37.96100 38.30000
H  -9.13800 36.55500 38.71100
H  -7.77400 35.41800 37.82000
H  -6.57200 35.45900 39.05600
H  -8.09600 43.60000 41.21500
H  -9.09000 44.92400 41.81100
H  -9.17700 44.38600 40.09200
H  -14.14500 45.28000 42.74900
H  -13.14500 46.39900 43.65400
H  -13.14900 44.72400 44.15700
H  -16.14100 41.55400 43.82100
H  -15.76400 39.06900 45.13800
H  -14.12500 41.94200 45.80300
H  -15.03300 40.63900 46.53600
H  -15.72100 42.17000 46.13100
H  -16.72000 38.25300 42.50300
H  -17.39000 39.80600 42.66300
H  -18.26500 38.43500 45.11600
H  -18.38500 37.25700 43.82800
H  -19.19900 38.84400 43.79700
H  -13.56600 33.29400 43.62300
H  -14.91800 34.21600 42.84400
H  -14.48200 34.56600 44.50200
H  -9.65500 34.70500 40.34600
H  -5.76600 33.79400 41.78900
H  -6.33800 32.25000 41.13300
H  -6.72500 32.73100 42.82700

