158

Mg 9.38700 2.55900 27.81900
C  10.67400 1.11200 30.72200
C  7.70400 4.82800 29.83800
C  8.13300 3.93700 24.98300
C  11.11100 0.11800 25.82300
N  9.25400 2.91700 30.03500
C  10.03100 2.32200 31.01500
C  9.73900 3.01900 32.36100
C  8.66900 4.19400 32.05600
C  8.48200 3.94900 30.55700
C  7.37500 3.95300 32.84600
C  11.06000 3.42000 33.12800
C  11.03700 4.50000 34.31800
H  10.81300 3.96100 35.69900
N  8.06100 4.11100 27.47800
C  7.44500 4.89800 28.42500
C  6.49400 5.75900 27.78200
C  6.69200 5.61900 26.38300
C  7.67100 4.49600 26.22100
C  5.72700 6.77900 28.53800
C  6.02400 6.37100 25.14300
O  6.25800 6.15100 23.98200
C  4.89500 7.34700 25.50400
N  9.60500 2.07300 25.65800
C  8.98100 2.83700 24.68800
C  9.41400 2.27400 23.30400
C  10.55000 1.22100 23.64800
C  10.38700 1.06800 25.14300
C  8.18400 1.65100 22.64500
C  12.04300 1.62400 23.16600
C  12.68700 0.61900 22.25300
N  10.46600 0.87100 28.10700
C  11.20300 -0.00500 27.22000
C  11.83000 -1.07000 28.00600
C  11.67500 -0.57500 29.34000
C  10.77900 0.51200 29.36300
C  12.57900 -2.16600 27.48100
C  12.12500 -0.80400 30.76100
O  12.86400 -1.65200 31.30000
C  11.55100 0.28100 31.55800
C  10.76600 -0.35000 32.63300
O  9.74400 -0.99900 32.56000
O  11.32700 -0.10700 33.88700
C  10.95200 -0.81600 35.11700
H  7.29500 5.58200 30.51400
H  7.69900 4.41600 24.10300
H  11.70700 -0.58900 25.24200
H  9.26800 2.20900 32.91800
H  8.95100 5.24000 32.17400
H  6.97300 4.94600 33.04800
H  7.47100 3.46100 33.81400
H  6.74000 3.25100 32.30500
H  11.65300 3.82100 32.30600
H  11.47700 2.53100 33.60200
H  10.15500 5.11500 34.14400
H  11.97300 5.05800 34.28800
H  4.67900 6.56000 28.33000
H  5.85900 7.78900 28.15000
H  5.82700 6.72500 29.62200
H  5.29800 8.26900 25.92200
H  4.29600 6.73800 26.18000
H  4.25300 7.59700 24.65900
H  9.81500 2.98700 22.58300
H  10.24000 0.25100 23.26000
H  7.26600 1.58600 23.23000
H  8.21400 0.69000 22.13200
H  7.96600 2.34500 21.83300
H  12.57500 1.91500 24.07200
H  11.73200 2.50600 22.60600
H  12.15200 -0.33100 22.26800
H  13.67400 0.51500 22.70300
H  12.64600 0.97700 21.22400
H  12.96100 -2.79600 28.28400
H  13.37200 -1.77800 26.84200
H  11.97300 -2.82400 26.85800
H  12.42700 0.84800 31.87200
H  10.23700 -1.62900 34.98700
H  10.64600 -0.07000 35.85100
H  11.79300 -1.32200 35.59000
Mg 47.67400 24.64000 28.36600
C  48.24300 27.06100 30.81200
C  46.19100 22.64200 30.86500
C  46.95400 22.30800 26.12700
C  49.18400 26.65700 25.93100
N  47.13900 24.88200 30.57500
C  47.51300 25.95800 31.35500
C  47.08300 25.75800 32.81000
C  46.55400 24.22300 32.85500
C  46.53400 23.91400 31.37200
C  47.17500 23.28500 33.83100
C  46.09600 26.67600 33.44500
C  45.99700 26.90200 35.00300
H  46.84600 26.11200 36.00400
N  46.58700 22.77400 28.47500
C  46.13700 22.14700 29.53500
C  45.44300 20.91200 29.12700
C  45.56600 20.83200 27.73800
C  46.39300 21.99300 27.36800
C  44.83600 19.90200 30.08300
C  45.00300 19.87400 26.67600
O  45.12000 19.97400 25.45100
C  44.26800 18.68100 27.24400
N  48.12400 24.42500 26.34500
C  47.67600 23.40200 25.61300
C  48.08400 23.55100 24.14200
C  48.63100 25.03500 23.99000
C  48.65400 25.40000 25.47100
C  49.17100 22.50500 23.72300
C  47.63500 25.94900 23.26500
C  48.19200 27.12000 22.22200
N  48.62600 26.41800 28.33900
C  49.17400 27.10700 27.26500
C  49.57300 28.39900 27.72600
C  49.27700 28.38000 29.06800
C  48.68200 27.16300 29.43600
C  50.26900 29.45800 27.01100
C  49.44900 29.18200 30.23400
O  49.98900 30.26700 30.44800
C  48.67200 28.36600 31.40800
C  49.54400 28.23300 32.58300
O  50.60600 27.60600 32.54500
O  49.17200 29.06600 33.67600
C  50.01100 29.02400 34.90000
H  45.71800 21.96500 31.58000
H  46.80600 21.51000 25.39600
H  49.60300 27.38100 25.22900
H  47.91400 25.89700 33.50100
H  45.51400 24.29800 33.17300
H  47.93500 23.74900 34.46000
H  47.60900 22.45800 33.26900
H  46.49000 22.92800 34.60000
H  45.09800 26.47500 33.05600
H  46.31500 27.68400 33.09400
H  44.98900 26.76400 35.39200
H  46.21500 27.96500 35.09900
H  43.75800 19.95300 29.93400
H  45.08900 20.03000 31.13600
H  45.11000 18.85900 29.92600
H  45.02700 18.18100 27.84500
H  43.83700 18.00500 26.50500
H  43.46900 19.01100 27.90800
H  47.21100 23.38400 23.51100
H  49.62600 25.16800 23.56300
H  48.68000 21.62400 23.30900
H  49.75400 22.39500 24.63700
H  49.78200 23.00700 22.97300
H  47.07300 26.59700 23.93800
H  47.02400 25.33300 22.60500
H  48.05000 28.14600 22.55900
H  47.98800 26.95900 21.16300
H  49.26200 27.03300 22.41200
H  50.27800 30.42500 27.51400
H  49.68300 29.55200 26.09700
H  51.27900 29.06500 26.88900
H  47.78800 28.92900 31.70900
H  49.38900 28.53100 35.64700
H  50.18800 30.04800 35.23000
H  50.92900 28.44400 34.80800

