158

Mg 9.08900 3.98000 27.68800
C  10.40100 2.25600 30.47500
C  7.27200 5.79000 29.87800
C  7.41600 5.29000 25.09800
C  10.55000 1.69800 25.58800
N  9.01900 4.12100 29.94100
C  9.64200 3.33100 30.88600
C  9.42300 3.82700 32.29100
C  8.21900 4.80500 32.05100
C  8.07900 4.88900 30.50800
C  6.83000 4.51300 32.71700
C  10.68800 4.55100 32.83100
C  11.08200 4.06800 34.28000
H  10.93600 5.09200 35.46500
N  7.50500 5.36500 27.52700
C  6.89400 6.03200 28.52500
C  5.98300 7.06600 28.01000
C  6.14400 6.93300 26.57800
C  7.03600 5.80200 26.33700
C  5.03600 7.86100 28.89600
C  5.46300 7.80700 25.50800
O  5.67500 7.59000 24.31000
C  4.46500 8.90200 25.92400
N  8.82700 3.43100 25.51200
C  8.23400 4.24100 24.67700
C  8.58500 3.94700 23.24500
C  9.68700 2.76600 23.36500
C  9.69800 2.66200 24.91800
C  7.43400 3.74000 22.32700
C  11.08900 3.10800 22.77200
C  11.78500 1.94500 21.98300
N  10.22800 2.28600 27.93000
C  10.80300 1.47400 26.97000
C  11.54600 0.39900 27.69400
C  11.41600 0.66600 29.07300
C  10.58200 1.75800 29.14200
C  12.29100 -0.68500 27.12700
C  11.74000 0.27800 30.38100
O  12.30300 -0.68200 30.84300
C  11.07600 1.31500 31.43200
C  10.22000 0.58400 32.42300
O  9.10700 0.15000 32.15100
O  10.86900 0.55700 33.66000
C  10.11800 -0.16400 34.74800
H  6.75700 6.47500 30.55500
H  7.01300 5.74700 24.19200
H  11.11400 1.00800 24.95700
H  9.02000 3.07900 32.97300
H  8.60600 5.74700 32.43900
H  6.75200 4.76300 33.77500
H  6.70600 3.44000 32.57100
H  5.99000 5.00400 32.22400
H  10.55800 5.62700 32.94700
H  11.57000 4.43400 32.20100
H  12.10400 3.70300 34.17600
H  10.50700 3.20400 34.61100
H  4.04500 7.81700 28.44400
H  5.38300 8.88400 28.75400
H  5.08800 7.55400 29.94000
H  3.45400 8.49800 25.98300
H  4.40600 9.56100 25.05800
H  4.83100 9.52000 26.74400
H  9.05600 4.78700 22.73400
H  9.22400 1.85100 22.99300
H  8.04000 3.42100 21.47800
H  6.85900 4.64800 22.14500
H  6.72500 2.97500 22.64300
H  11.58800 3.53600 23.64200
H  10.97900 3.94900 22.08700
H  11.06900 1.14400 22.16900
H  12.80000 1.68400 22.28000
H  11.88600 2.32900 20.96800
H  12.83000 -0.32100 26.25300
H  11.65200 -1.46800 26.72000
H  13.17900 -1.06400 27.63400
H  11.92500 1.83800 31.87100
H  9.36000 -0.85400 34.37900
H  9.55600 0.57000 35.32600
H  10.93600 -0.62700 35.30000
Mg 17.32900 -1.12200 28.33400
C  16.21300 1.17600 30.85300
C  19.12900 -2.80200 30.72500
C  18.90600 -2.91400 25.90500
C  15.81300 0.79000 25.95000
N  17.64500 -0.74900 30.49300
C  17.06500 0.13400 31.37700
C  17.54400 -0.07900 32.82800
C  18.69200 -1.22700 32.60800
C  18.45800 -1.63800 31.15200
C  20.12800 -0.80400 33.05100
C  16.35000 -0.52400 33.69900
C  16.18900 0.10900 35.08200
H  17.47700 0.36400 35.84500
N  18.73800 -2.72200 28.33000
C  19.31800 -3.31200 29.44400
C  20.00100 -4.51700 29.01500
C  19.96200 -4.55900 27.62900
C  19.21100 -3.36500 27.20400
C  20.73300 -5.42100 29.95100
C  20.57400 -5.61000 26.68400
O  20.27000 -5.59400 25.51200
C  21.47500 -6.71300 27.14400
N  17.40400 -1.04100 26.21000
C  18.14300 -1.87300 25.42700
C  18.00500 -1.49900 23.93700
C  16.89500 -0.46200 23.95000
C  16.63100 -0.19000 25.46800
C  19.37000 -1.08200 23.25100
C  15.67400 -0.92000 23.06600
C  14.33300 -1.17800 23.76400
N  16.15100 0.57200 28.36100
C  15.57900 1.18100 27.32100
C  14.70400 2.23800 27.82200
C  14.96900 2.36000 29.22300
C  15.81200 1.29800 29.48400
C  13.78200 3.03000 26.85800
C  14.74000 3.15900 30.43800
O  14.06500 4.17400 30.68100
C  15.53500 2.35500 31.58300
C  16.39700 3.23800 32.35400
O  17.49400 3.67600 32.01800
O  15.88700 3.58500 33.54100
C  16.55800 4.55500 34.34400
H  19.51800 -3.37200 31.57100
H  19.39600 -3.38000 25.04800
H  15.42900 1.37100 25.11000
H  17.95000 0.88400 33.13600
H  18.40000 -2.05000 33.26100
H  19.98600 0.07100 33.68400
H  20.62800 -0.47400 32.14000
H  20.70300 -1.58600 33.54700
H  16.41600 -1.58100 33.95600
H  15.38100 -0.33800 33.23600
H  15.51100 -0.51000 35.67000
H  15.70600 1.06900 34.89900
H  21.82000 -5.46600 29.87500
H  20.25400 -6.39400 30.06400
H  20.56500 -4.98800 30.93700
H  22.32000 -6.46700 27.78800
H  21.91800 -7.15700 26.25300
H  20.71900 -7.34300 27.61200
H  17.56400 -2.36600 23.44700
H  17.15000 0.52000 23.55300
H  20.07400 -0.93200 24.06900
H  19.29900 -0.08200 22.82300
H  19.71700 -1.85200 22.56200
H  15.83700 -1.79300 22.43400
H  15.38800 -0.12700 22.37500
H  13.75200 -0.25900 23.68500
H  14.52200 -1.44300 24.80400
H  13.77600 -2.05100 23.42600
H  13.31900 2.31000 26.18300
H  14.39900 3.67800 26.23400
H  13.08600 3.56300 27.50400
H  14.79300 1.94100 32.26600
H  16.54100 4.04200 35.30600
H  15.94900 5.45900 34.35700
H  17.58000 4.85900 34.11500

