158

Mg 16.58000 53.28400 26.29600
C  18.29500 51.57300 28.80100
C  14.55600 54.50300 28.61700
C  14.75600 54.75200 23.87500
C  18.70900 51.91200 24.10900
N  16.39300 52.90400 28.46000
C  17.22900 52.28000 29.34600
C  16.88800 52.54600 30.79000
C  15.51100 53.20100 30.65200
C  15.49200 53.63000 29.14000
C  14.23300 52.40400 30.96700
C  17.90300 53.48100 31.43900
C  18.03000 53.41100 32.95400
H  16.95100 52.69500 33.74900
N  15.01000 54.60200 26.24300
C  14.26700 54.98200 27.32600
C  13.31700 56.01100 26.92500
C  13.32200 55.96900 25.47400
C  14.41700 55.07700 25.12200
C  12.57400 56.84100 27.90500
C  12.49400 56.70000 24.48400
O  12.49600 56.48700 23.30300
C  11.46500 57.69900 24.95100
N  16.55200 53.13600 24.30600
C  15.79800 53.99200 23.49800
C  16.34800 53.94500 22.06600
C  17.72700 53.11800 22.11300
C  17.72100 52.72700 23.62100
C  15.37800 53.44600 20.98800
C  19.06600 53.80500 21.61400
C  19.55900 55.08500 22.40400
N  18.11800 51.69700 26.32500
C  18.99400 51.34000 25.30400
C  20.14000 50.55100 25.80800
C  19.81000 50.49300 27.19200
C  18.59800 51.25000 27.44000
C  21.30500 50.08700 25.04700
C  20.32800 50.09800 28.50200
O  21.31900 49.48900 28.85100
C  19.32900 50.74300 29.55000
C  18.75800 49.74900 30.55800
O  18.12600 48.70800 30.29400
O  19.15400 50.08400 31.83600
C  18.96500 49.10800 32.94600
H  13.71400 54.71500 29.27900
H  14.33900 55.19700 22.96900
H  19.39500 51.70500 23.28500
H  16.81900 51.60200 31.33000
H  15.49900 54.12600 31.22900
H  13.63500 52.85500 31.75900
H  14.52700 51.43500 31.37200
H  13.55900 52.16600 30.14500
H  17.75700 54.54000 31.22700
H  18.83300 53.18900 30.95100
H  18.04200 54.38100 33.45200
H  18.97800 52.92100 33.17200
H  11.65300 57.29000 27.53200
H  13.08100 57.74500 28.24300
H  12.29600 56.25000 28.77700
H  10.92400 58.13200 24.10900
H  12.02800 58.50200 25.42700
H  10.81200 57.08700 25.57300
H  16.60300 54.98000 21.83900
H  17.61800 52.16400 21.59800
H  15.15500 54.38400 20.48100
H  14.44100 53.14800 21.45900
H  15.90100 52.78300 20.29800
H  18.86400 54.06000 20.57400
H  19.79100 52.99300 21.68000
H  18.86600 55.91500 22.26500
H  20.51200 55.36400 21.95500
H  19.70400 54.94100 23.47500
H  21.49000 49.03900 25.28300
H  22.17800 50.69500 25.28000
H  21.27400 50.03500 23.95800
H  19.94300 51.38200 30.18600
H  18.35600 48.26300 32.62600
H  18.38200 49.62600 33.70800
H  19.95000 48.83500 33.32500
Mg -10.53000 17.06900 40.59700
C  -7.12300 16.56300 40.49000
C  -10.14700 20.32000 39.93000
C  -13.80300 17.13700 39.94100
C  -10.79400 13.42500 40.71700
N  -8.80100 18.27700 39.97500
C  -7.48600 17.92200 40.15800
C  -6.57800 19.07500 39.92300
C  -7.52000 20.28700 40.12700
C  -8.89500 19.62600 39.94200
C  -7.42500 20.94700 41.54500
C  -5.94100 19.06600 38.50800
C  -4.42000 18.74100 38.49000
H  -3.93200 17.89400 37.30800
N  -11.81400 18.57000 39.98000
C  -11.48900 19.87300 39.88200
C  -12.64200 20.67800 39.76000
C  -13.70100 19.79600 39.68000
C  -13.13900 18.41800 39.88600
C  -12.62100 22.16700 39.75300
C  -15.20200 20.20600 39.61800
O  -15.47200 21.37400 39.40300
C  -16.32400 19.18000 39.76900
N  -12.06400 15.55500 40.35200
C  -13.30900 15.89200 40.08500
C  -14.34200 14.62500 40.18300
C  -13.28900 13.49700 40.24500
C  -11.99600 14.19200 40.52300
C  -15.36100 14.67100 41.43500
C  -13.22800 12.62900 38.99700
C  -13.05800 11.08000 39.17500
N  -9.24800 15.29400 40.71200
C  -9.48100 13.92500 40.75400
C  -8.24200 13.22900 40.94900
C  -7.24600 14.22000 40.89800
C  -7.89300 15.44200 40.60200
C  -8.01400 11.71700 41.21700
C  -5.88300 14.39600 40.91800
O  -4.93300 13.61000 41.16300
C  -5.72800 16.01600 40.76400
C  -5.01200 16.61400 41.91500
O  -3.99800 17.28600 41.79800
O  -5.53600 16.11300 43.06400
C  -4.84000 16.51600 44.31400
H  -10.06900 21.40800 39.88900
H  -14.89300 17.16700 39.87900
H  -10.82300 12.34100 40.84200
H  -5.76100 19.12500 40.64300
H  -7.41300 20.96900 39.28400
H  -6.37000 20.83300 41.79300
H  -8.08900 20.35500 42.17500
H  -7.76600 21.95000 41.28800
H  -6.03900 20.09400 38.16000
H  -6.47000 18.31600 37.91900
H  -4.18900 18.35800 39.48400
H  -3.92800 19.70400 38.35500
H  -13.38900 22.64300 40.36200
H  -12.69900 22.55700 38.73800
H  -11.73800 22.66300 40.15600
H  -16.26800 18.58600 38.85600
H  -17.22400 19.78200 39.89400
H  -16.27000 18.51000 40.62700
H  -14.80100 14.54300 39.19800
H  -13.51300 12.85200 41.09400
H  -15.68400 13.68400 41.76500
H  -16.30200 15.18400 41.23300
H  -14.82600 15.26000 42.18000
H  -12.47500 13.03300 38.32000
H  -14.19000 12.78900 38.51100
H  -13.91800 10.63400 39.67400
H  -12.20200 10.90400 39.82800
H  -12.80900 10.48300 38.29800
H  -6.97700 11.64300 41.54300
H  -8.15300 11.10000 40.32900
H  -8.65900 11.28900 41.98500
H  -5.12200 16.31500 39.90900
H  -3.79900 16.20000 44.25300
H  -5.35000 16.22400 45.23200
H  -4.88300 17.60500 44.30100

