158

Mg 40.58200 8.23700 29.42000
C  42.35500 9.77600 32.08400
C  38.28600 6.96900 31.66500
C  39.15500 6.57000 26.83200
C  43.27600 9.00300 27.35400
N  40.39300 8.39300 31.64000
C  41.16900 9.07400 32.47200
C  40.62900 9.03200 33.90400
C  39.26900 8.20900 33.73800
C  39.32900 7.76400 32.29900
C  39.10500 7.04200 34.75300
C  40.47600 10.44100 34.64200
C  39.54300 10.51800 35.86900
H  40.03000 11.38900 37.05400
N  38.92700 6.95200 29.20400
C  38.10900 6.63000 30.24600
C  37.02800 5.91500 29.71500
C  37.24000 5.73300 28.29100
C  38.46900 6.44100 28.05900
C  35.81600 5.52000 30.52900
C  36.31800 5.11800 27.22400
O  36.58200 5.05100 26.01600
C  34.93000 4.62100 27.62900
N  41.21500 7.78200 27.36000
C  40.33400 7.16900 26.49000
C  40.93300 7.17100 25.06900
C  42.33000 7.91200 25.27200
C  42.34500 8.22700 26.73300
C  40.98700 5.71400 24.47300
C  42.44200 9.16900 24.35900
C  42.14800 10.57400 24.98500
N  42.40100 9.28400 29.59400
C  43.37300 9.46200 28.66800
C  44.49600 10.21200 29.32600
C  44.07600 10.40700 30.64700
C  42.81400 9.78200 30.78300
C  45.70900 10.73700 28.55200
C  44.44800 11.03500 31.98600
O  45.33200 11.76400 32.35800
C  43.24200 10.69400 32.92500
C  43.79300 10.16700 34.25100
O  44.17600 9.03500 34.50700
O  43.90200 11.22400 35.17500
C  44.68800 10.89900 36.38600
H  37.60500 6.48800 32.36900
H  38.75600 6.15900 25.90200
H  44.09400 9.35600 26.72200
H  41.37500 8.50600 34.50100
H  38.39700 8.85900 33.80800
H  38.39400 7.35100 35.51800
H  40.01600 6.64900 35.20400
H  38.67700 6.14300 34.31000
H  40.03200 11.07400 33.87400
H  41.45300 10.86700 34.87200
H  39.30900 9.53300 36.27300
H  38.60800 10.98500 35.56100
H  35.86600 6.01500 31.49900
H  35.74700 4.43400 30.58600
H  34.90400 5.80500 30.00500
H  34.28600 5.49200 27.75100
H  35.00600 3.96900 28.49900
H  34.50900 4.05200 26.80000
H  40.22800 7.67700 24.40900
H  43.17500 7.22600 25.23800
H  40.86500 4.92200 25.21100
H  41.97200 5.64800 24.01100
H  40.14400 5.66000 23.78400
H  41.84000 9.08900 23.45300
H  43.50700 9.15000 24.12900
H  41.67100 10.47100 25.96000
H  41.52400 11.12000 24.27800
H  43.07100 11.11400 25.19600
H  45.31000 11.49100 27.87300
H  46.05400 9.86600 27.99500
H  46.45000 11.12900 29.24900
H  42.80300 11.66600 33.14800
H  45.76900 10.83300 36.26300
H  44.39600 9.96400 36.86400
H  44.50700 11.71200 37.08900
Mg 47.22700 15.68600 28.06400
C  45.24300 15.44200 30.93000
C  49.24900 17.82200 29.78200
C  48.87200 16.14800 25.22400
C  44.74000 14.11200 26.25000
N  47.19200 16.57500 30.13700
C  46.35000 16.29100 31.11800
C  46.88100 16.93200 32.45300
C  47.98900 17.88600 32.01200
C  48.19200 17.46400 30.55400
C  47.76600 19.43900 32.07200
C  47.27200 15.82700 33.44900
C  47.99200 16.25200 34.71900
H  47.63900 17.76200 35.26900
N  48.91600 16.76000 27.60800
C  49.66300 17.51700 28.46600
C  50.92000 17.92300 27.72300
C  50.78700 17.53500 26.34900
C  49.49100 16.77600 26.31400
C  52.01200 18.69700 28.30100
C  51.77300 17.68400 25.17100
O  51.44900 17.33100 24.01600
C  53.07900 18.41300 25.31100
N  46.78300 15.31900 25.97200
C  47.70700 15.48500 25.00400
C  47.32400 14.88400 23.67500
C  46.02000 14.14100 24.03900
C  45.82000 14.49100 25.51100
C  47.03200 15.93800 22.58500
C  45.83900 12.69900 23.61500
C  46.29500 11.58700 24.52100
N  45.48700 14.83400 28.48500
C  44.52300 14.21800 27.65700
C  43.43600 13.81100 28.42100
C  43.72000 14.14900 29.70700
C  44.95300 14.83700 29.73700
C  42.07100 13.16200 27.83000
C  43.04500 14.20700 31.00400
O  41.96400 13.75800 31.34800
C  44.14600 15.00100 31.87300
C  43.44000 16.20000 32.54100
O  43.08100 17.21300 32.05000
O  43.27300 15.89700 33.87000
C  42.60500 16.89000 34.73900
H  49.93800 18.43400 30.36800
H  49.51100 16.10500 24.33900
H  44.01200 13.52800 25.68300
H  46.02900 17.46700 32.87200
H  48.88300 17.59500 32.56300
H  46.69100 19.60700 32.14000
H  48.04700 19.99500 31.17800
H  48.31300 19.77100 32.95500
H  47.92600 15.19000 32.85400
H  46.33200 15.35900 33.74100
H  49.07300 16.17600 34.59700
H  47.73500 15.47200 35.43600
H  52.96900 18.18500 28.19900
H  52.00400 18.78500 29.38800
H  52.10700 19.61200 27.71700
H  53.73300 18.02100 26.08900
H  52.81400 19.38700 25.72300
H  53.58400 18.53000 24.35200
H  48.06200 14.14200 23.36800
H  45.15800 14.53200 23.49700
H  47.57500 16.82400 22.91400
H  45.96900 16.16600 22.50700
H  47.37700 15.51200 21.64300
H  46.33600 12.59100 22.65100
H  44.79000 12.43400 23.48000
H  45.43600 11.11700 24.99700
H  46.92000 11.98200 25.32200
H  46.87900 10.85300 23.96500
H  41.24400 13.22300 28.53800
H  42.12500 12.12300 27.50400
H  41.79000 13.74200 26.95000
H  44.46800 14.47200 32.77100
H  43.10900 17.85600 34.69800
H  42.56100 16.40300 35.71300
H  41.57500 17.06800 34.42900

