158

Mg 0.81200 7.59700 25.18600
C  1.45700 9.70500 27.97200
C  1.22200 4.86600 27.19500
C  0.60500 5.56300 22.45300
C  0.88500 10.30100 23.18400
N  1.57700 7.36500 27.38900
C  1.54300 8.35200 28.32800
C  1.71700 7.62700 29.68600
C  1.81100 6.14000 29.40800
C  1.51800 6.08800 27.89400
C  3.15000 5.45600 29.81200
C  0.54200 7.98100 30.70800
C  0.84100 8.06400 32.18600
H  2.17100 7.60700 32.78300
N  0.76600 5.49500 24.93200
C  0.97000 4.57800 25.89600
C  0.82400 3.20400 25.30100
C  0.59300 3.42300 23.92400
C  0.65700 4.90500 23.65600
C  0.97000 1.89300 26.08100
C  0.48400 2.37000 22.82800
O  0.57900 2.60800 21.62200
C  0.13500 1.01400 23.25100
N  0.85700 7.87800 23.04100
C  0.64000 6.87800 22.11700
C  0.69200 7.49500 20.72700
C  0.72500 9.03400 20.97100
C  0.86400 9.10300 22.48400
C  1.89700 6.94300 19.89800
C  -0.50300 9.81100 20.30700
C  -1.84100 9.52900 21.01600
N  0.98700 9.62700 25.50100
C  1.00000 10.64700 24.52600
C  1.04600 11.93700 25.18900
C  1.33600 11.57400 26.57200
C  1.25500 10.20300 26.66700
C  1.16000 13.35100 24.70100
C  1.65800 12.05000 27.86800
O  1.83500 13.20400 28.28500
C  1.67000 10.96300 28.85200
C  3.00200 11.02400 29.57700
O  4.03900 10.59000 29.15600
O  2.80900 11.54600 30.84600
C  3.96200 11.46300 31.67000
H  1.45200 3.99000 27.80400
H  0.24600 4.95200 21.62100
H  0.81000 11.18400 22.54500
H  2.63600 7.98800 30.14800
H  1.05300 5.46100 29.79900
H  3.88100 6.21300 30.09800
H  3.56700 4.73500 29.10800
H  2.91300 4.95600 30.75100
H  -0.23200 7.22900 30.55200
H  0.03900 8.89900 30.40500
H  0.07400 7.45900 32.66800
H  0.73000 9.06200 32.60900
H  1.91100 1.44000 25.76900
H  0.14800 1.17900 26.02400
H  0.95900 2.04500 27.16000
H  0.97700 0.60900 23.81200
H  -0.09900 0.43900 22.35500
H  -0.79500 0.94900 23.81500
H  -0.22400 7.14500 20.25100
H  1.62000 9.49600 20.55500
H  2.57700 7.73600 19.58700
H  1.45500 6.40200 19.06200
H  2.41600 6.28500 20.59500
H  -0.48800 9.45900 19.27600
H  -0.37900 10.89000 20.40600
H  -2.39700 8.78100 20.45100
H  -2.50800 10.37500 21.17900
H  -1.50100 9.11400 21.96500
H  0.58800 13.93400 25.42400
H  0.73900 13.47600 23.70400
H  2.08700 13.92400 24.74000
H  0.81600 11.08900 29.51700
H  4.98100 11.50600 31.28500
H  3.99800 10.54500 32.25700
H  3.86800 12.31500 32.34300
Mg 47.48800 14.94800 28.32400
C  45.16700 14.69500 30.92300
C  49.16000 17.48200 30.14000
C  49.82200 14.89000 25.90800
C  45.63500 12.54500 26.57900
N  47.06500 16.06900 30.30300
C  46.17600 15.64800 31.24000
C  46.44100 16.36100 32.60100
C  47.58300 17.38100 32.14700
C  47.97900 17.01100 30.74800
C  47.12000 18.89400 32.26200
C  46.83600 15.35400 33.76300
C  46.78700 15.98300 35.16900
H  47.71700 15.58100 36.30200
N  49.23500 16.10600 28.03800
C  49.80900 17.08000 28.89500
C  51.04900 17.41300 28.34400
C  51.26800 16.64100 27.13900
C  50.07800 15.79600 26.98000
C  51.90000 18.56400 28.96500
C  52.28800 16.82100 26.08300
O  52.39300 16.16200 25.06600
C  53.43800 17.80700 26.30600
N  47.61200 13.98800 26.41800
C  48.70100 14.12000 25.63200
C  48.75300 13.03200 24.58500
C  47.50700 12.10700 24.90000
C  46.86400 12.88400 26.01600
C  48.78900 13.67500 23.21700
C  47.75000 10.63500 25.37900
C  49.01900 9.99000 24.74900
N  45.70100 13.95900 28.51600
C  45.02300 13.02600 27.71500
C  43.84600 12.60200 28.35500
C  43.92100 13.17100 29.61800
C  45.03300 13.97600 29.65900
C  42.75500 11.75700 27.84900
C  43.22500 13.27900 30.88800
O  42.15400 12.77200 31.19900
C  44.07600 14.13700 31.82300
C  43.26500 15.14900 32.45100
O  42.56800 15.98400 31.88300
O  43.31600 14.96200 33.83800
C  42.68300 16.13100 34.53100
H  49.71000 18.19000 30.76300
H  50.61300 14.68200 25.18400
H  45.11100 11.77400 26.01000
H  45.55800 16.92500 32.90200
H  48.37900 17.14600 32.85400
H  46.99000 19.41300 31.31200
H  48.01300 19.40600 32.62200
H  46.35400 18.91800 33.03700
H  47.83400 14.97900 33.53700
H  46.16900 14.49800 33.86600
H  45.75300 15.82700 35.47400
H  46.68600 17.06500 35.08400
H  51.91800 19.25600 28.12300
H  52.89100 18.19800 29.23600
H  51.44700 19.01900 29.84700
H  54.02000 17.64400 27.21300
H  53.11800 18.83100 26.11400
H  54.12800 17.57000 25.49700
H  49.72100 12.53200 24.60800
H  46.80500 12.03400 24.06900
H  48.72800 14.76000 23.30300
H  47.89900 13.35000 22.67700
H  49.68700 13.42200 22.65400
H  46.87700 9.99400 25.25900
H  48.07900 10.75600 26.41100
H  48.76600 8.95700 24.51000
H  49.78400 9.83500 25.51000
H  49.51200 10.57900 23.97600
H  43.02400 10.86100 27.28900
H  42.13900 12.42500 27.24700
H  42.21800 11.47800 28.75600
H  44.41100 13.31500 32.45600
H  43.05700 16.24500 35.54800
H  41.63800 15.98900 34.80700
H  42.99300 17.07400 34.08100

