158

Mg 2.71600 -0.07700 43.66600
C  6.03700 0.39700 42.75000
C  1.99300 2.92900 42.13700
C  -0.57600 -0.81000 43.72400
C  3.51900 -3.17900 44.88700
N  3.93400 1.46700 42.58000
C  5.24000 1.48200 42.27700
C  5.62300 2.64900 41.50200
C  4.40600 3.58000 41.67100
C  3.37500 2.61300 42.18800
C  4.53400 4.85100 42.56700
C  6.11100 2.39500 39.97000
C  7.28400 3.25200 39.45300
H  6.98400 3.95200 38.16200
N  0.93100 0.94600 43.00300
C  0.88800 2.17700 42.41300
C  -0.45100 2.66700 42.29800
C  -1.24500 1.54300 42.74200
C  -0.34400 0.50000 43.20700
C  -0.89900 3.87900 41.65400
C  -2.79200 1.39800 42.65900
O  -3.49400 2.20500 42.15600
C  -3.60900 0.27000 43.44800
N  1.65700 -1.71500 44.07800
C  0.27900 -1.86900 44.05400
C  -0.22100 -3.33800 44.22500
C  1.11400 -3.99800 44.70800
C  2.18900 -2.85800 44.57200
C  -1.51400 -3.58800 45.12600
C  1.55700 -5.25300 43.83300
C  1.73800 -6.59300 44.55700
N  4.43000 -1.15100 43.95100
C  4.60700 -2.43400 44.44100
C  6.04300 -2.72400 44.57600
C  6.58400 -1.69100 43.77600
C  5.55200 -0.70700 43.50200
C  6.66600 -4.05000 45.18100
C  7.82600 -1.29200 43.24000
O  8.93200 -1.78700 43.30500
C  7.51700 0.07700 42.50100
C  8.42300 1.20800 43.06300
O  8.51700 1.57500 44.20400
O  9.22300 1.63900 42.00400
C  10.05600 2.83800 42.17000
H  1.80200 3.89600 41.66800
H  -1.58200 -1.23600 43.72600
H  3.77700 -4.05600 45.48400
H  6.45200 3.02900 42.09800
H  4.24600 3.92300 40.64900
H  5.55900 4.79100 42.93300
H  3.84200 4.77900 43.40600
H  4.35100 5.77700 42.02100
H  5.23400 2.60800 39.35800
H  6.34900 1.35500 39.74700
H  8.14200 2.58400 39.38000
H  7.47400 4.02500 40.19800
H  -1.87200 3.78500 41.17300
H  -0.26600 4.26300 40.85400
H  -0.91900 4.66000 42.41400
H  -4.66500 0.50800 43.57700
H  -3.15400 0.12200 44.42700
H  -3.53700 -0.68700 42.93200
H  -0.48700 -3.76600 43.25900
H  1.09900 -4.30800 45.75300
H  -1.17800 -4.04100 46.05900
H  -2.09700 -4.32900 44.57900
H  -2.04900 -2.65800 45.31700
H  2.44600 -5.01700 43.24800
H  0.85000 -5.46100 43.03000
H  1.03800 -7.31700 44.14000
H  1.44100 -6.50500 45.60200
H  2.79300 -6.84300 44.44800
H  6.32200 -4.27500 46.19000
H  7.75300 -4.00400 45.24700
H  6.54500 -4.89300 44.50000
H  7.52200 -0.05100 41.41800
H  10.08400 3.40600 41.24000
H  11.07000 2.53600 42.43300
H  9.72200 3.41600 43.03200
Mg -0.73000 44.25900 26.33900
C  1.77400 43.64400 28.75300
C  -3.07000 43.81300 28.91100
C  -3.20300 44.64600 24.06300
C  1.69000 44.28700 23.81100
N  -0.64200 43.67900 28.49600
C  0.49500 43.64900 29.30300
C  0.10100 43.51600 30.80000
C  -1.43500 43.30200 30.72900
C  -1.76700 43.59800 29.30600
C  -1.92800 42.05100 31.35600
C  0.50900 44.73900 31.77200
C  0.44600 44.52000 33.27900
H  0.39800 43.12200 33.95700
N  -2.89500 44.23700 26.44800
C  -3.64300 44.07800 27.61200
C  -5.03300 44.35200 27.28800
C  -5.09600 44.64000 25.87700
C  -3.68300 44.43300 25.38900
C  -6.11500 44.32800 28.29500
C  -6.32600 45.03500 25.00400
O  -6.28100 45.02600 23.78400
C  -7.54500 45.57300 25.70000
N  -0.76900 44.28100 24.21700
C  -1.90600 44.60300 23.53300
C  -1.62800 44.81000 22.03100
C  -0.12400 44.90600 22.03300
C  0.32700 44.35000 23.40600
C  -2.20900 43.67600 21.11300
C  0.43400 46.29200 21.78800
C  1.57700 46.32100 20.71200
N  1.37900 44.00300 26.25200
C  2.18700 44.02700 25.13400
C  3.55600 43.80200 25.55800
C  3.45800 43.71700 26.96900
C  2.10500 43.76100 27.34900
C  4.75200 43.97200 24.56300
C  4.20200 43.52800 28.20200
O  5.37200 43.39400 28.35900
C  3.14000 43.46200 29.42800
C  3.29600 42.25900 30.20200
O  3.09400 41.10200 29.79100
O  3.85300 42.51900 31.45900
C  4.18900 41.43700 32.34200
H  -3.85300 43.80800 29.67200
H  -3.88300 44.82800 23.22900
H  2.40400 44.36100 22.98700
H  0.73000 42.66800 31.06800
H  -1.92600 44.10200 31.28400
H  -1.22100 41.63400 32.07300
H  -1.93300 41.30200 30.56400
H  -2.96900 42.10200 31.67700
H  -0.02400 45.63300 31.44900
H  1.53400 44.89800 31.43700
H  -0.31000 45.18800 33.69200
H  1.40200 44.97400 33.54100
H  -7.03700 44.14300 27.74400
H  -6.09200 45.22700 28.91000
H  -5.94400 43.37400 28.79400
H  -8.14300 46.06500 24.93300
H  -7.14500 46.40600 26.27800
H  -8.20000 44.90100 26.25400
H  -1.99100 45.77100 21.66700
H  0.19200 44.11200 21.35600
H  -2.41600 44.00400 20.09400
H  -3.07500 43.12600 21.47900
H  -1.49500 42.85500 21.04600
H  0.92200 46.68700 22.67800
H  -0.28200 47.10600 21.68000
H  1.30900 46.83600 19.79000
H  1.81500 45.28900 20.45700
H  2.46800 46.78000 21.14000
H  4.75300 43.22400 23.77000
H  5.63100 43.85700 25.19800
H  4.74100 44.97300 24.13200
H  3.44600 44.33200 30.00800
H  5.27800 41.43000 32.29400
H  3.79500 40.45300 32.08700
H  3.80900 41.63700 33.34400

