158

Mg 9.02900 3.32900 27.32000
C  10.48500 1.84600 30.19600
C  7.68700 5.71700 29.15900
C  7.66000 4.58300 24.42500
C  10.09800 0.58800 25.52100
N  8.97100 3.64900 29.47600
C  9.72400 3.02100 30.50400
C  9.44300 3.63600 31.91900
C  8.34600 4.72400 31.44300
C  8.32000 4.71300 29.91000
C  7.00900 4.73600 32.14800
C  10.68800 4.12500 32.68300
C  10.46200 5.27000 33.66400
H  11.18100 5.17600 35.00700
N  7.82500 4.95000 26.85700
C  7.45700 5.89100 27.74200
C  6.74800 6.97400 27.03700
C  6.78200 6.64100 25.66600
C  7.40300 5.35500 25.59500
C  6.36900 8.26900 27.79900
C  6.38100 7.56200 24.51600
O  6.38000 7.14500 23.34400
C  5.79800 8.96600 24.74500
N  8.89300 2.68700 25.21800
C  8.36400 3.37100 24.23100
C  8.54900 2.61500 22.87100
C  9.33300 1.39500 23.32700
C  9.47400 1.59700 24.80200
C  7.23200 2.38900 22.14600
C  10.77800 1.38000 22.64500
C  11.02200 0.26700 21.56500
N  10.14600 1.59000 27.65300
C  10.50700 0.51600 26.84200
C  11.24600 -0.48600 27.54500
C  11.24700 0.06000 28.85800
C  10.49800 1.22600 28.87200
C  11.93400 -1.71800 27.03000
C  11.75400 -0.24000 30.22200
O  12.42600 -1.17300 30.59800
C  11.25200 0.89500 31.15000
C  10.37600 0.32100 32.24200
O  9.31200 -0.26200 32.07300
O  10.71300 0.79200 33.45300
C  9.90600 0.34200 34.58200
H  7.21400 6.54800 29.68600
H  7.19800 5.02000 23.53800
H  10.36800 -0.32300 24.98300
H  9.03700 2.78500 32.46500
H  8.60400 5.73600 31.75500
H  6.38800 5.52100 31.71700
H  7.22200 4.98700 33.18700
H  6.45900 3.79600 32.09900
H  11.52800 4.31200 32.01500
H  11.09900 3.34500 33.32400
H  9.39200 5.46300 33.74100
H  10.83900 6.18600 33.20900
H  6.50400 8.35300 28.87800
H  5.30700 8.44100 27.62800
H  6.94600 9.09300 27.38000
H  6.59000 9.68800 24.94400
H  5.01700 9.02700 25.50400
H  5.38500 9.08900 23.74400
H  9.20200 3.33900 22.38500
H  8.86100 0.43000 23.14300
H  7.07500 1.31000 22.12100
H  7.17200 2.75600 21.12100
H  6.42900 2.82600 22.73900
H  11.55300 1.18100 23.38500
H  10.94300 2.26800 22.03500
H  10.85000 0.53900 20.52400
H  10.39900 -0.59300 21.81200
H  12.07100 -0.03000 21.55200
H  11.55800 -1.93800 26.03100
H  11.54100 -2.52000 27.65400
H  13.01200 -1.63500 26.89400
H  12.09200 1.37200 31.65500
H  9.86100 1.13400 35.32900
H  10.36300 -0.57600 34.95400
H  8.88000 0.01800 34.40900
Mg 16.12500 50.95100 25.34900
C  17.81000 50.03400 28.23700
C  13.44400 51.79600 27.32600
C  14.23900 51.37100 22.54400
C  18.77200 49.74300 23.44700
N  15.75700 51.13600 27.53900
C  16.66500 50.75700 28.53200
C  16.19400 51.15100 29.96700
C  14.68600 51.54000 29.70400
C  14.57900 51.56200 28.12200
C  13.68400 50.63800 30.41700
C  17.04900 52.16300 30.61600
C  17.27000 51.87900 32.14800
H  16.29100 51.16400 33.09300
N  14.06000 51.54600 25.02200
C  13.13000 51.74400 25.96400
C  11.87700 52.06400 25.37700
C  12.03700 51.94800 23.95700
C  13.45700 51.55800 23.82100
C  10.76700 52.62600 26.25400
C  11.01800 52.16200 22.84600
O  11.39800 52.13900 21.67900
C  9.52100 52.31800 23.15600
N  16.44000 50.72400 23.33000
C  15.55000 51.00900 22.37200
C  16.09600 50.80700 21.00900
C  17.61200 50.33100 21.26400
C  17.66600 50.29800 22.79600
C  15.34500 49.71300 20.18300
C  18.63900 51.35600 20.71500
C  18.84600 51.38900 19.15600
N  17.88900 49.91500 25.72300
C  18.85000 49.49700 24.83900
C  19.92500 48.88500 25.60400
C  19.55200 49.02500 26.94100
C  18.31000 49.68300 26.94700
C  21.12000 48.17900 25.07700
C  19.95500 48.72200 28.32000
O  20.94600 48.15000 28.75800
C  18.85500 49.44700 29.18200
C  18.34800 48.47300 30.18100
O  17.25000 47.93000 30.19200
O  19.23100 48.49500 31.23100
C  18.72700 47.82900 32.44200
H  12.63400 51.92800 28.04700
H  13.69900 51.43500 21.59700
H  19.64000 49.51200 22.82500
H  16.24500 50.26200 30.59500
H  14.52600 52.56800 30.02800
H  13.07300 51.37800 30.93300
H  14.21300 49.95500 31.08100
H  13.02000 50.12800 29.71800
H  16.71600 53.19300 30.48500
H  18.04800 52.18600 30.17900
H  17.42400 52.88600 32.53400
H  18.16800 51.26100 32.18400
H  10.10500 53.27400 25.67900
H  11.10500 53.21400 27.10700
H  10.15400 51.88300 26.76400
H  9.16700 51.53800 23.83000
H  8.95400 52.43600 22.23300
H  9.43300 53.27100 23.67900
H  16.01000 51.79000 20.54500
H  17.84600 49.34800 20.85400
H  14.60100 49.21100 20.80100
H  16.04700 49.01200 19.73100
H  14.84100 50.12700 19.31000
H  19.62000 51.05900 21.08600
H  18.38700 52.36500 21.03800
H  18.46300 52.37700 18.90200
H  18.30400 50.53500 18.74900
H  19.91500 51.29700 18.96400
H  21.22200 48.59700 24.07600
H  21.00700 47.09600 25.13400
H  22.00800 48.46100 25.64200
H  19.24300 50.23100 29.83300
H  18.79300 46.74200 32.39500
H  17.67800 48.09800 32.56600
H  19.27100 48.17600 33.32000

