158

Mg -1.12000 17.86500 27.16500
C  -1.82500 15.79500 29.99100
C  -1.99500 20.59900 29.12100
C  -0.71500 19.83100 24.53100
C  -1.11700 14.90700 25.18000
N  -1.87200 18.11300 29.27900
C  -1.81000 17.17300 30.29400
C  -2.02500 17.81800 31.60700
C  -2.28000 19.30300 31.25000
C  -2.08400 19.34200 29.78300
C  -3.64500 19.89600 31.59200
C  -0.80400 17.62600 32.53500
C  -1.18300 17.18400 33.90100
H  -0.14000 17.02900 34.98600
N  -1.14300 19.94500 26.87900
C  -1.46400 20.94200 27.82700
C  -1.23600 22.23700 27.25200
C  -0.79200 21.94400 25.90100
C  -0.84400 20.54000 25.72000
C  -1.55500 23.51100 28.01800
C  -0.40900 22.97900 24.79900
O  -0.04000 22.66200 23.72200
C  -0.76700 24.48200 25.07900
N  -0.97200 17.43900 25.19700
C  -0.77100 18.44800 24.30000
C  -0.75300 17.79800 22.90900
C  -0.66800 16.26200 23.11200
C  -0.88900 16.22200 24.64100
C  -1.89000 18.28900 22.01700
C  0.80900 15.84300 22.70400
C  1.95000 16.40500 23.58300
N  -1.32900 15.74400 27.47600
C  -1.33700 14.68800 26.58500
C  -1.65500 13.45100 27.28600
C  -1.77400 13.83000 28.62400
C  -1.60600 15.21900 28.67200
C  -1.96200 12.13700 26.84300
C  -1.95300 13.34700 29.97800
O  -2.04000 12.23200 30.42500
C  -1.87000 14.60400 30.93100
C  -0.65000 14.36100 31.77000
O  0.52000 14.52400 31.37300
O  -0.98100 13.90200 32.98900
C  0.17400 13.30600 33.71300
H  -2.21000 21.45100 29.77000
H  -0.69300 20.42200 23.61300
H  -1.03300 14.06200 24.49400
H  -2.80700 17.27400 32.13800
H  -1.55200 19.96600 31.71700
H  -4.33900 19.19700 32.05900
H  -4.18200 20.23100 30.70400
H  -3.58300 20.85700 32.10300
H  -0.35800 18.61200 32.66000
H  0.05000 17.10000 32.10700
H  -1.70700 16.23100 33.83600
H  -1.81000 17.94500 34.36600
H  -0.65000 24.11700 28.03600
H  -1.71800 23.30400 29.07600
H  -2.37600 23.98800 27.48200
H  -1.83800 24.65200 25.18700
H  -0.42300 24.95200 24.15800
H  -0.24200 24.76400 25.99200
H  0.13900 18.29600 22.52900
H  -1.31300 15.60000 22.53500
H  -2.43700 18.84200 22.78000
H  -2.67600 17.58600 21.74100
H  -1.52400 18.96100 21.24000
H  1.04000 16.11500 21.67400
H  0.87100 14.75500 22.71900
H  1.54500 17.01900 24.38800
H  2.69700 17.01900 23.08100
H  2.50200 15.54600 23.96300
H  -2.21100 12.15900 25.78200
H  -2.81700 11.68200 27.34100
H  -1.10300 11.49800 27.04600
H  -2.79200 14.63800 31.51200
H  -0.24300 13.14400 34.70700
H  1.11900 13.83500 33.58800
H  0.21800 12.32400 33.24300
Mg 36.31900 48.71300 26.44400
C  36.09400 46.85700 29.30100
C  35.63700 51.57600 28.21400
C  36.16500 50.43700 23.51500
C  36.69600 45.67600 24.53600
N  35.89000 49.12300 28.48800
C  35.92300 48.22300 29.53600
C  35.94700 48.90400 30.87800
C  35.35700 50.38800 30.48300
C  35.59700 50.40500 28.94900
C  33.81600 50.62400 30.82700
C  37.36400 48.83800 31.59900
C  37.47200 48.88900 33.18900
H  36.13400 48.92000 33.96700
N  35.80400 50.76900 25.93900
C  35.73700 51.79000 26.81500
C  35.76900 53.02900 26.09200
C  35.92800 52.68700 24.73200
C  35.95600 51.28400 24.63800
C  35.60500 54.40600 26.76100
C  36.00100 53.58300 23.51600
O  36.06000 53.14200 22.34400
C  36.05300 55.13000 23.79900
N  36.23500 48.07200 24.33400
C  36.27100 49.06600 23.37900
C  36.58300 48.41100 21.92900
C  36.99900 46.98400 22.26500
C  36.63400 46.90900 23.80500
C  35.40000 48.60400 20.93300
C  38.51700 46.66400 21.97900
C  38.87800 46.10200 20.60700
N  36.56600 46.72200 26.79600
C  36.63300 45.56000 25.96200
C  36.68700 44.35400 26.80600
C  36.54500 44.83200 28.10900
C  36.39600 46.25400 28.04800
C  36.82300 42.95200 26.32400
C  36.39900 44.42500 29.51400
O  36.48000 43.32400 30.06900
C  36.09000 45.66800 30.37900
C  34.82000 45.42600 31.05800
O  33.74100 45.55000 30.45400
O  34.94800 45.06100 32.38700
C  33.68700 44.70600 33.10500
H  35.39200 52.44500 28.82800
H  36.39900 50.91400 22.56100
H  36.77900 44.74100 23.97800
H  35.22000 48.31500 31.43800
H  36.00000 51.07800 31.02900
H  33.26800 50.93200 29.93600
H  33.57800 51.47000 31.47200
H  33.38800 49.74100 31.30100
H  37.97300 49.68500 31.28200
H  37.86600 47.96900 31.17300
H  38.07500 49.72900 33.53700
H  37.98900 47.96700 33.45600
H  36.60800 54.83100 26.73600
H  35.29900 54.47100 27.80600
H  34.92300 54.89400 26.06400
H  35.08000 55.57300 24.01200
H  36.38100 55.57300 22.85800
H  36.84800 55.39900 24.49500
H  37.44400 48.95400 21.54000
H  36.33900 46.23400 21.83000
H  35.81200 48.82300 19.94800
H  34.79300 49.48400 21.14500
H  34.79500 47.69800 20.89600
H  38.79600 45.95100 22.75500
H  39.09500 47.58100 22.09100
H  39.51400 46.79500 20.05600
H  38.01700 45.66900 20.09700
H  39.59000 45.29400 20.77200
H  36.44200 42.80100 25.31300
H  36.34800 42.39100 27.12900
H  37.88800 42.73400 26.39400
H  36.84500 45.89700 31.13000
H  33.56700 43.64000 33.29500
H  32.85900 45.05600 32.49000
H  33.74100 45.27000 34.03600

