158

Mg 35.84300 48.01500 25.90300
C  36.03000 46.12200 28.81900
C  34.17600 50.42600 27.60800
C  35.36500 49.59500 22.85800
C  37.38000 45.41900 24.19700
N  35.08700 48.18600 27.91000
C  35.42500 47.36800 28.99400
C  34.98900 48.01800 30.34000
C  34.29600 49.29100 29.96000
C  34.53000 49.28900 28.41100
C  32.76600 49.47400 30.47100
C  36.18300 48.13200 31.31900
C  35.89800 47.87400 32.72800
H  35.92800 49.14600 33.66500
N  34.88500 49.73500 25.29800
C  34.38200 50.69700 26.20500
C  34.09600 51.93100 25.44600
C  34.49600 51.70200 24.09700
C  34.95800 50.28900 23.97900
C  33.49800 53.13300 26.14900
C  34.62300 52.72200 23.00000
O  35.00900 52.47200 21.90400
C  34.37900 54.19000 23.33600
N  36.12300 47.48600 23.77500
C  35.90100 48.29000 22.76400
C  36.50700 47.69500 21.44300
C  37.20600 46.41700 21.87500
C  36.96800 46.48100 23.42400
C  35.57700 47.31200 20.30400
C  38.72800 46.36300 21.48900
C  39.02700 45.79200 20.11000
N  36.59700 46.13200 26.39000
C  37.13200 45.15300 25.57300
C  37.42900 43.94600 26.30300
C  36.99500 44.24900 27.68400
C  36.48100 45.60800 27.61900
C  38.07200 42.67600 25.82800
C  36.94200 43.75200 29.02600
O  37.27500 42.68200 29.50300
C  36.35300 45.01300 29.85400
C  35.19100 44.51000 30.64600
O  34.24800 43.87800 30.11700
O  35.31500 44.75500 32.02300
C  34.16600 44.42100 32.87600
H  33.88700 51.30200 28.19300
H  35.31200 50.09400 21.88800
H  37.95300 44.64600 23.68100
H  34.22500 47.37600 30.77900
H  34.90700 50.08800 30.38200
H  32.78100 50.24200 31.24400
H  32.39100 48.57000 30.95100
H  32.11600 49.83400 29.67300
H  36.63300 49.11500 31.18000
H  37.01200 47.50400 30.99200
H  36.72100 47.23100 33.03800
H  34.93200 47.38500 32.85800
H  33.92100 54.07400 25.79700
H  33.77800 53.25500 27.19500
H  32.41600 53.14500 26.01900
H  33.32900 54.46100 23.44800
H  34.64400 54.74400 22.43600
H  35.08000 54.59200 24.06700
H  37.12300 48.48700 21.01700
H  36.74100 45.48800 21.54400
H  35.50100 48.05400 19.50900
H  34.61200 46.95500 20.66500
H  36.00700 46.50800 19.70600
H  39.34200 45.75000 22.15000
H  39.09100 47.37800 21.65500
H  38.08600 45.49500 19.64800
H  39.75400 44.98100 20.14100
H  39.53700 46.54100 19.50400
H  39.08800 42.62200 26.22000
H  38.13800 42.60500 24.74200
H  37.46900 41.83200 26.16600
H  37.07600 45.35800 30.59300
H  33.95000 45.22300 33.58100
H  34.38000 43.53700 33.47700
H  33.22600 44.32900 32.33200
Mg 0.39700 42.51800 24.96700
C  1.31500 42.61200 28.37700
C  -2.68000 41.22300 26.02800
C  -0.26100 42.07200 21.81600
C  3.76200 43.21300 24.15700
N  -0.49200 41.87400 27.02100
C  -0.00100 42.27400 28.20800
C  -0.98600 41.99900 29.36100
C  -2.19900 41.17500 28.68300
C  -1.79500 41.44500 27.14700
C  -2.45000 39.65600 28.87700
C  -1.41300 43.47900 29.83100
C  -1.56600 43.55400 31.34700
H  -2.04400 42.39600 32.16800
N  -1.21100 41.85700 24.06700
C  -2.41100 41.40100 24.60100
C  -3.36500 41.19000 23.55800
C  -2.70000 41.42300 22.36100
C  -1.37100 41.86200 22.71100
C  -4.77500 40.51300 23.84600
C  -3.32900 41.31900 20.99500
O  -2.63800 41.53300 19.96800
C  -4.76200 40.83900 20.75700
N  1.58800 42.60200 23.19000
C  1.10900 42.33100 21.99400
C  2.14600 42.48900 20.86600
C  3.31100 43.28400 21.61600
C  2.87400 43.10100 23.12200
C  2.52600 41.13000 20.20800
C  3.46300 44.77600 21.17000
C  4.07300 45.17900 19.87700
N  2.18300 42.88200 25.99400
C  3.48000 43.09700 25.54000
C  4.38500 43.22600 26.66800
C  3.56500 43.12600 27.83300
C  2.23400 42.88900 27.33500
C  5.90600 43.50600 26.63500
C  3.55600 43.12000 29.26400
O  4.46800 43.14200 30.04400
C  2.09500 42.90500 29.67900
C  1.93600 41.73800 30.66000
O  2.49100 40.67300 30.49500
O  1.23400 42.05000 31.83900
C  1.18600 40.90300 32.77700
H  -3.72100 41.00300 26.27700
H  -0.41800 41.87200 20.75400
H  4.78400 43.42400 23.83800
H  -0.60600 41.42400 30.20600
H  -3.19700 41.60200 28.78000
H  -1.73600 39.35400 29.64400
H  -2.28000 39.14900 27.92800
H  -3.45000 39.45100 29.25800
H  -2.34100 43.81800 29.37100
H  -0.68300 44.21400 29.49300
H  -2.25300 44.39600 31.42500
H  -0.66300 44.00700 31.75600
H  -4.95800 39.99600 24.78700
H  -4.77700 39.69400 23.12700
H  -5.56300 41.23900 23.64400
H  -4.87400 39.78400 21.00700
H  -5.00000 40.90600 19.69500
H  -5.49100 41.42700 21.31400
H  1.59600 43.10100 20.15100
H  4.17800 42.73400 21.25100
H  2.03400 41.04300 19.23900
H  2.10300 40.31900 20.80100
H  3.59800 40.94600 20.14600
H  3.96400 45.22700 22.02600
H  2.49300 45.25700 21.29700
H  4.80900 45.97200 20.01000
H  3.23300 45.51100 19.26700
H  4.52800 44.35700 19.32600
H  6.27600 42.87700 27.44500
H  6.13800 44.52900 26.93300
H  6.39800 43.19400 25.71400
H  1.79200 43.78000 30.25500
H  0.48800 40.14600 32.42000
H  0.97500 41.26300 33.78400
H  2.12700 40.42600 33.05000

