158

Mg 53.72800 24.48900 44.58700
C  51.15500 26.95700 43.96000
C  51.62600 22.20900 43.08400
C  56.26800 22.56900 44.26900
C  55.83600 27.25800 45.37700
N  51.63400 24.63200 43.61400
C  50.76100 25.65400 43.56600
C  49.36400 25.16500 43.19100
C  49.47800 23.61300 43.13800
C  51.03400 23.44900 43.29800
C  48.66400 22.93800 44.24000
C  48.91000 25.82700 41.77900
C  49.90400 25.67600 40.63600
H  49.39700 25.44200 39.24900
N  53.90900 22.58000 43.97000
C  52.96000 21.80200 43.36700
C  53.54300 20.46300 43.09800
C  54.86100 20.50100 43.61900
C  55.05500 21.89200 44.02100
C  52.85700 19.26600 42.35800
C  55.75100 19.31700 43.69900
O  55.30400 18.16100 43.41400
C  57.12300 19.44600 44.33900
N  55.79700 24.94400 44.66900
C  56.63400 23.87700 44.57500
C  58.05700 24.26200 44.68700
C  57.99200 25.69200 45.34000
C  56.48000 25.97400 45.16100
C  58.96600 23.26100 45.49200
C  58.82600 26.78500 44.64500
C  59.43500 27.82100 45.66700
N  53.54800 26.66400 44.72100
C  54.46700 27.59900 45.18000
C  53.78700 28.82900 45.46900
C  52.45500 28.62300 44.99600
C  52.39000 27.33100 44.46700
C  54.33500 30.00400 46.09200
C  51.19900 29.22700 44.93200
O  50.90400 30.37000 45.35500
C  50.26800 28.21200 44.08600
C  49.90600 28.86800 42.79000
O  50.59200 28.75500 41.75900
O  48.75500 29.57800 42.86300
C  48.15200 30.03200 41.63800
H  51.01000 21.36300 42.77300
H  57.16600 22.02400 43.97300
H  56.41700 28.08700 45.78700
H  48.67500 25.60500 43.91200
H  49.16100 23.21400 42.17400
H  49.23700 22.44200 45.02300
H  47.95000 22.21300 43.85000
H  48.09500 23.71200 44.75500
H  48.50300 26.81500 41.99000
H  48.02400 25.26500 41.48300
H  50.58800 24.88400 40.94100
H  50.54200 26.56000 40.62000
H  53.55200 18.61900 41.82200
H  52.06100 19.63700 41.71400
H  52.34300 18.68200 43.12100
H  57.57600 18.46600 44.49100
H  56.98100 20.00600 45.26300
H  57.72700 20.12800 43.74200
H  58.53900 24.22600 43.71000
H  58.05100 25.67500 46.42900
H  58.31700 22.47700 45.87900
H  59.56700 23.77000 46.24600
H  59.60500 22.72500 44.79000
H  58.20400 27.42600 44.02000
H  59.58300 26.36400 43.98200
H  60.51600 27.74100 45.78200
H  59.03900 27.85500 46.68200
H  59.13000 28.79700 45.28900
H  53.49700 30.59700 46.45900
H  54.84000 30.60700 45.33800
H  54.93700 29.74200 46.96200
H  49.41100 27.93000 44.69800
H  47.06900 29.93200 41.70800
H  48.55800 29.43700 40.82000
H  48.25600 31.11200 41.53600
Mg 47.40200 25.70200 28.85200
C  48.35600 27.76200 31.30700
C  46.46500 23.38000 31.21300
C  46.89500 23.32200 26.33100
C  49.07600 27.53800 26.56200
N  47.60600 25.57500 31.05400
C  47.84900 26.62100 31.88600
C  47.28800 26.32300 33.32900
C  46.82600 24.87300 33.28300
C  46.99100 24.56200 31.77300
C  47.34200 23.91800 34.35600
C  46.27800 27.30900 33.85200
C  46.64800 28.09400 35.11700
H  45.58200 28.26100 36.22600
N  46.71100 23.60700 28.77100
C  46.40800 22.85000 29.90000
C  45.88900 21.54000 29.45600
C  45.94800 21.56800 28.04100
C  46.46700 22.90800 27.62800
C  45.25300 20.54100 30.51800
C  45.58500 20.42100 27.08900
O  45.71000 20.54700 25.86800
C  45.01600 19.12700 27.69300
N  48.04000 25.40100 26.81400
C  47.59400 24.42600 25.93100
C  47.89400 24.79900 24.48000
C  48.13600 26.30600 24.57700
C  48.46900 26.45300 26.08600
C  49.07800 23.88700 24.09100
C  46.96900 27.26200 24.08000
C  45.54100 26.91200 24.65900
N  48.41800 27.41700 28.85700
C  49.11000 28.05200 27.86800
C  49.56200 29.39200 28.36300
C  49.27500 29.27800 29.69900
C  48.63700 28.06300 30.00800
C  50.28300 30.40000 27.54100
C  49.35100 30.01400 31.00400
O  49.72500 31.13900 31.22000
C  48.75100 29.06200 32.05200
C  49.84100 28.79800 33.04200
O  50.67600 27.89600 32.87200
O  49.79500 29.74300 34.13600
C  50.89900 29.54400 35.11000
H  45.94500 22.75400 31.94000
H  46.62100 22.52300 25.63900
H  49.43000 28.12500 25.71200
H  48.13500 26.30100 34.01600
H  45.74800 24.82300 33.43800
H  46.45800 23.40800 34.73800
H  47.87200 24.50100 35.10900
H  47.97900 23.16000 33.90000
H  45.34100 26.80700 34.09400
H  45.99000 27.94700 33.01600
H  46.92000 29.06900 34.71300
H  47.56900 27.73700 35.57800
H  44.21700 20.31700 30.26000
H  45.34700 20.95200 31.52300
H  45.82200 19.61300 30.48000
H  45.61800 18.59600 28.43000
H  44.79000 18.57600 26.78000
H  44.00900 19.24400 28.09300
H  47.01800 24.59100 23.86600
H  48.97800 26.60400 23.95200
H  49.57800 23.48900 24.97400
H  49.80500 24.52500 23.58800
H  48.85900 22.99400 23.50600
H  47.00800 27.09100 23.00400
H  47.36000 28.28000 24.05200
H  45.79700 26.29600 25.52000
H  45.01600 26.31200 23.91500
H  44.89500 27.75300 24.91400
H  50.17300 31.39800 27.96600
H  49.81800 30.31000 26.56000
H  51.31300 30.11300 27.32800
H  47.88600 29.50800 32.54200
H  51.81300 29.39300 34.53600
H  50.71500 28.75100 35.83500
H  50.99800 30.45400 35.70200

