158

Mg 53.55700 24.72700 45.69100
C  51.07900 26.93500 44.38400
C  52.08400 22.26600 43.75600
C  56.06600 22.85000 46.47100
C  54.99000 27.54400 47.13600
N  51.87200 24.70800 44.06100
C  51.04900 25.69700 43.72100
C  50.05000 25.24600 42.74700
C  50.24400 23.70100 42.77100
C  51.45000 23.49700 43.61800
C  48.92600 22.83600 43.16200
C  50.07400 25.81000 41.31400
C  51.42600 26.37100 40.92100
H  52.14200 25.53600 39.81000
N  54.04100 22.83100 45.13800
C  53.29700 21.92500 44.51000
C  53.70800 20.56200 44.71400
C  54.85200 20.73900 45.57300
C  55.05700 22.18600 45.76000
C  52.85000 19.37600 44.30700
C  55.68100 19.58200 46.09800
O  55.33000 18.42400 45.89700
C  56.82800 19.78700 46.99400
N  55.31500 25.21200 46.38100
C  56.25500 24.23500 46.69900
C  57.40500 24.75100 47.49300
C  57.14700 26.24000 47.42800
C  55.74000 26.34600 46.95800
C  57.57700 24.16300 48.90400
C  58.27600 26.94600 46.60300
C  57.88400 27.68400 45.25500
N  53.09100 26.84000 45.86400
C  53.71300 27.76000 46.57000
C  52.94800 28.99500 46.61800
C  51.83000 28.68000 45.82400
C  52.00500 27.36500 45.28600
C  53.27000 30.20000 47.42300
C  50.60500 29.21000 45.27300
O  50.08800 30.31100 45.45000
C  50.01000 28.08800 44.40500
C  49.85400 28.66700 43.03000
O  50.74400 29.07200 42.26600
O  48.49900 28.81300 42.81100
C  48.02700 29.35500 41.53000
H  51.64500 21.48000 43.13800
H  56.89700 22.32100 46.94000
H  55.36600 28.45100 47.61400
H  49.05400 25.51600 43.10000
H  50.37600 23.35400 41.74600
H  48.32100 22.73800 42.26100
H  48.30600 23.35700 43.89100
H  49.28400 21.92100 43.63400
H  49.38300 26.64900 41.23500
H  49.84000 25.02900 40.59200
H  52.20400 26.45400 41.68000
H  51.36200 27.36900 40.48700
H  52.78000 19.14900 43.24300
H  51.91700 19.53300 44.84800
H  53.23600 18.52400 44.86600
H  57.18400 18.83100 47.37900
H  56.59500 20.41300 47.85500
H  57.62600 20.27500 46.43400
H  58.30800 24.46800 46.95300
H  57.01300 26.69900 48.40800
H  58.55200 23.67700 48.87800
H  56.68600 23.55500 49.05800
H  57.56000 24.83200 49.76500
H  59.08300 26.24900 46.38100
H  58.66500 27.68300 47.30600
H  56.92200 27.38200 44.84200
H  58.57200 27.42600 44.44900
H  57.90300 28.74200 45.51400
H  53.87500 30.81000 46.75300
H  53.73200 30.02800 48.39500
H  52.39800 30.84000 47.56200
H  49.05100 27.73700 44.78500
H  47.10000 29.90500 41.68900
H  47.79100 28.54300 40.84200
H  48.76900 30.01800 41.08500
Mg 30.51800 58.45100 40.10800
C  27.59500 56.65200 39.18800
C  32.46200 55.85300 38.92100
C  33.12500 60.59600 40.08200
C  28.35200 61.04300 41.07800
N  29.99900 56.47500 39.25400
C  28.82300 56.00400 38.92900
C  28.95200 54.55300 38.40800
C  30.36700 54.21500 38.97200
C  31.03500 55.61800 39.02600
C  30.43600 53.61500 40.40100
C  28.93400 54.61200 36.83100
C  27.64800 54.13100 36.22400
H  26.88000 55.04200 35.30900
N  32.53200 58.27900 39.68900
C  33.08800 57.11400 39.11000
C  34.53500 57.36900 39.03500
C  34.72600 58.75100 39.30800
C  33.47800 59.32300 39.76700
C  35.48800 56.37600 38.52700
C  36.08900 59.41000 39.17700
O  37.00700 58.77300 38.66600
C  36.41700 60.77600 39.65800
N  30.65700 60.49400 40.40600
C  31.90300 61.16900 40.35100
C  31.74600 62.60600 41.00500
C  30.28900 62.62500 41.54800
C  29.71900 61.35800 40.98000
C  32.77000 63.08300 42.03700
C  29.49900 63.97600 41.30200
C  28.43300 64.30700 42.43500
N  28.35900 58.77400 40.16700
C  27.65400 59.90300 40.53500
C  26.23600 59.65000 40.44800
C  26.11100 58.32700 39.88100
C  27.47600 57.88900 39.70400
C  25.22200 60.56500 41.05800
C  25.23600 57.28900 39.35600
O  24.03900 57.08900 39.17700
C  26.17300 56.12400 38.92600
C  25.70800 54.93900 39.74300
O  26.15600 54.62100 40.86600
O  24.88200 54.15200 38.89900
C  24.38600 52.96800 39.55500
H  32.89800 54.88000 38.68200
H  33.96500 61.29400 40.05600
H  27.79100 61.92800 41.38400
H  28.24800 53.84700 38.84800
H  30.95100 53.51700 38.37200
H  30.89400 52.62700 40.35400
H  29.47200 53.31800 40.81400
H  30.91700 54.32000 41.07900
H  29.70800 53.91000 36.52300
H  29.25400 55.55800 36.39500
H  27.02300 53.76800 37.04100
H  27.94300 53.33600 35.53900
H  35.56600 56.29000 37.44300
H  35.13100 55.37900 38.78500
H  36.49300 56.40500 38.94700
H  35.99200 60.89000 40.65600
H  35.97900 61.50300 38.97400
H  37.48700 60.97700 39.61000
H  31.77600 63.24800 40.12500
H  30.37900 62.43700 42.61700
H  32.28900 63.27100 42.99700
H  33.37600 63.93300 41.72600
H  33.39700 62.21500 42.23900
H  28.99500 63.90300 40.33900
H  30.27000 64.72700 41.13100
H  27.57700 64.85100 42.03500
H  28.91900 64.92600 43.18800
H  28.10500 63.43500 43.00000
H  24.51500 59.92400 41.58400
H  24.62700 61.08000 40.30300
H  25.74200 61.28500 41.69000
H  25.96000 56.00800 37.86300
H  25.13200 52.17600 39.48700
H  23.59800 52.65700 38.87000
H  23.92200 53.08400 40.53500

