158

Mg -2.10400 17.56400 26.94400
C  -2.69000 15.00200 29.32700
C  -2.25900 19.86200 29.26300
C  -1.79900 19.78100 24.51400
C  -2.75400 14.97200 24.51700
N  -2.49400 17.40500 28.95500
C  -2.50500 16.36600 29.83800
C  -2.38100 16.77500 31.31000
C  -2.72700 18.26600 31.16900
C  -2.54400 18.55900 29.64200
C  -3.96900 18.86500 31.85700
C  -1.10700 16.40200 32.04900
C  -0.95000 17.09200 33.43400
H  -0.89400 16.27200 34.75600
N  -1.89700 19.59100 26.90000
C  -1.89600 20.35100 28.01500
C  -1.48000 21.70600 27.67300
C  -1.22400 21.65100 26.27300
C  -1.64000 20.27400 25.83500
C  -1.35700 22.84800 28.69700
C  -0.68700 22.67800 25.30700
O  -0.49900 22.43600 24.13300
C  -0.12900 23.95000 25.69000
N  -2.28700 17.38700 24.86400
C  -2.07000 18.48600 24.10900
C  -2.35000 18.27700 22.66300
C  -2.57700 16.71300 22.54200
C  -2.60000 16.31600 24.04700
C  -3.56400 19.10800 22.11400
C  -1.47700 15.91500 21.76800
C  -0.16100 15.59900 22.44400
N  -2.47300 15.39500 26.84400
C  -2.72200 14.50200 25.79100
C  -2.97400 13.21500 26.23300
C  -2.91300 13.32900 27.69200
C  -2.65400 14.66300 27.96900
C  -3.44900 12.05700 25.33800
C  -3.07900 12.57200 28.94600
O  -3.44200 11.44800 29.22700
C  -2.93900 13.65400 30.07000
C  -1.91500 13.15300 31.04200
O  -0.71300 13.24800 30.88200
O  -2.53300 12.53500 32.10100
C  -1.68700 12.09900 33.24100
H  -2.27900 20.65600 30.01100
H  -1.64300 20.54800 23.75300
H  -2.84400 14.26000 23.69400
H  -3.08600 16.26200 31.96300
H  -1.86600 18.74100 31.64000
H  -3.59500 19.51400 32.64900
H  -4.67300 18.14700 32.27600
H  -4.49800 19.47400 31.12500
H  -0.38300 16.58200 31.25500
H  -1.13500 15.33300 32.26000
H  -1.69300 17.88100 33.54900
H  -0.01500 17.64400 33.34000
H  -0.47900 23.45800 28.48500
H  -1.53500 22.51600 29.72000
H  -2.32800 23.31700 28.53900
H  -0.41200 24.37500 26.65200
H  -0.46600 24.57100 24.85900
H  0.95800 23.94800 25.76800
H  -1.40300 18.58200 22.21800
H  -3.54900 16.49600 22.09900
H  -4.53800 18.61800 22.09300
H  -3.31000 19.52300 21.13900
H  -3.62300 19.93000 22.82700
H  -1.47800 16.44600 20.81600
H  -1.85300 14.91300 21.56400
H  0.18800 14.64700 22.04400
H  -0.35300 15.43100 23.50400
H  0.45200 16.47800 22.24800
H  -4.39600 12.39900 24.92100
H  -3.60800 11.20600 26.00000
H  -2.81800 11.86500 24.47100
H  -3.81900 13.73800 30.70700
H  -2.12600 11.22800 33.72800
H  -1.48600 13.03200 33.76700
H  -0.76300 11.73700 32.79100
Mg -0.37200 33.61200 27.06500
C  -2.44000 31.95800 29.44700
C  0.95000 35.43100 29.65400
C  0.72700 35.84400 24.84600
C  -2.29100 32.04800 24.59400
N  -0.75200 33.73600 29.24900
C  -1.50100 32.85000 30.03400
C  -1.37600 33.14500 31.52400
C  -0.32300 34.34600 31.57900
C  -0.04200 34.54100 30.03800
C  -0.65100 35.72400 32.35600
C  -0.93800 31.92800 32.37000
C  -1.81500 31.54800 33.55700
H  -1.15100 31.88700 34.93500
N  0.89200 35.32000 27.20700
C  1.39200 35.82500 28.40000
C  2.22200 37.02700 27.92700
C  2.22900 37.01100 26.48800
C  1.23400 36.04900 26.11300
C  2.67400 38.07600 28.88500
C  3.03700 37.88000 25.58300
O  2.88900 37.90500 24.35000
C  4.11700 38.71700 26.07200
N  -0.58500 33.89700 25.05200
C  -0.13700 34.92600 24.40900
C  -0.52000 34.89400 22.92900
C  -1.20800 33.50700 22.80000
C  -1.31900 33.02200 24.23700
C  -1.31900 36.05300 22.35800
C  -0.58200 32.49000 21.82900
C  0.39700 31.40200 22.47100
N  -2.00000 32.16700 26.96300
C  -2.62800 31.61900 25.90100
C  -3.53500 30.58400 26.34400
C  -3.51400 30.68800 27.71000
C  -2.55500 31.67500 28.06400
C  -4.36000 29.70100 25.33500
C  -4.20900 30.21800 28.87300
O  -5.15700 29.49100 29.07600
C  -3.38000 30.91000 30.06600
C  -4.43500 31.63600 30.80600
O  -4.88800 32.73000 30.40400
O  -4.84600 30.91200 31.86300
C  -5.87100 31.59200 32.67400
H  1.44800 35.87500 30.51800
H  1.03900 36.59300 24.11500
H  -2.85100 31.53600 23.80900
H  -2.35000 33.48300 31.87600
H  0.62800 34.05600 32.02700
H  0.08700 35.90200 33.13700
H  -1.52100 35.51700 32.97900
H  -0.67400 36.66700 31.80900
H  0.09300 32.19400 32.60200
H  -0.88700 31.01900 31.76900
H  -1.82000 30.46800 33.41200
H  -2.83100 31.93100 33.47100
H  3.74500 38.03700 29.08600
H  2.14200 37.87000 29.81300
H  2.47100 39.07800 28.50900
H  4.75100 39.26000 25.37200
H  4.70900 37.95100 26.57300
H  3.74900 39.43900 26.80200
H  0.45900 34.70400 22.49000
H  -2.18900 33.66700 22.35200
H  -0.76500 36.56400 21.57100
H  -1.46600 36.83400 23.10400
H  -2.28300 35.66700 22.02500
H  -0.05700 33.03000 21.04100
H  -1.39600 32.07800 21.23400
H  -0.17900 30.49300 22.64400
H  0.77700 31.75000 23.43100
H  1.17300 31.11000 21.76300
H  -3.68500 29.45200 24.51600
H  -5.13600 30.32200 24.88700
H  -4.79600 28.85500 25.86700
H  -2.89900 30.33200 30.85500
H  -6.55700 32.25400 32.14500
H  -5.41400 32.17200 33.47600
H  -6.56200 30.86800 33.10500

