158

Mg 10.44300 46.20700 25.56000
C  7.95700 46.49300 28.08900
C  12.65600 47.67900 27.65900
C  12.63600 46.04200 23.03100
C  7.88200 45.90300 23.18400
N  10.28000 47.05700 27.57400
C  9.23400 46.89800 28.47300
C  9.55100 47.57700 29.79900
C  11.02100 47.92700 29.63700
C  11.40100 47.56500 28.17500
C  11.39300 49.40400 29.97100
C  9.16700 46.75800 31.09800
C  9.80200 46.89600 32.46800
H  8.90700 46.74400 33.71500
N  12.38200 46.64400 25.42500
C  13.16800 47.26900 26.41400
C  14.55300 47.37100 25.90500
C  14.55700 46.91400 24.59300
C  13.15500 46.56600 24.28200
C  15.55100 48.17300 26.77100
C  15.70000 46.73000 23.68000
O  15.64000 46.26300 22.58000
C  17.11100 46.95700 24.13100
N  10.34000 45.83700 23.42300
C  11.38700 45.85300 22.58800
C  10.97100 45.55400 21.14100
C  9.44000 45.53300 21.23700
C  9.20300 45.74300 22.72600
C  11.50000 46.54000 20.04800
C  8.80100 44.29300 20.60200
C  9.28000 43.84400 19.22100
N  8.40000 46.05600 25.57800
C  7.49600 45.91200 24.49700
C  6.12300 45.82400 25.02700
C  6.27800 45.94800 26.43700
C  7.66700 46.18400 26.71300
C  4.91500 45.50500 24.21000
C  5.48800 45.81800 27.62700
O  4.31400 45.57000 27.80700
C  6.55500 46.26700 28.76600
C  6.46200 45.26200 29.81500
O  7.25800 44.38500 30.03700
O  5.45300 45.62400 30.66000
C  5.14700 44.69900 31.68700
H  13.42000 47.88100 28.41300
H  13.39300 45.97600 22.24700
H  7.11900 45.90200 22.40300
H  8.80600 48.36500 29.68300
H  11.55300 47.24800 30.30300
H  10.47700 49.97400 30.12800
H  11.91200 49.88300 29.14200
H  11.96100 49.31100 30.89700
H  9.31800 45.73400 30.75900
H  8.09500 46.80200 31.29400
H  10.20900 47.90700 32.49900
H  10.56900 46.12500 32.53300
H  16.25400 47.43600 27.15800
H  15.02200 48.76300 27.52000
H  16.05500 48.96400 26.21600
H  17.12600 46.61100 25.16400
H  17.44100 47.99100 24.03600
H  17.86700 46.41500 23.56300
H  11.22200 44.52300 20.89200
H  8.98700 46.35100 20.67700
H  10.65500 46.95900 19.50200
H  12.00800 45.80500 19.42400
H  12.05100 47.39800 20.43400
H  7.77500 44.59600 20.39700
H  8.81000 43.44500 21.28700
H  9.92900 44.65800 18.89700
H  8.60600 43.56400 18.41200
H  9.91100 42.96500 19.34800
H  4.90100 46.29400 23.45800
H  4.11000 45.63100 24.93300
H  4.95700 44.48200 23.83800
H  6.28700 47.22400 29.21400
H  4.49200 43.94500 31.25100
H  4.43300 45.09000 32.41200
H  6.04200 44.32600 32.18500
Mg -11.49400 38.64100 40.56800
C  -10.02300 35.46500 40.08100
C  -8.86700 39.96200 38.83300
C  -13.38000 41.30400 40.23800
C  -14.49800 36.82100 41.57000
N  -9.58800 37.67700 39.60500
C  -9.25300 36.43000 39.46300
C  -7.95500 36.29200 38.63900
C  -7.48400 37.77500 38.58400
C  -8.71500 38.53000 39.04300
C  -6.25300 38.09700 39.44100
C  -8.29700 35.79800 37.22400
C  -7.11000 34.99100 36.46300
H  -6.46700 35.70900 35.33300
N  -11.10800 40.42000 39.84900
C  -9.90600 40.81400 39.27100
C  -9.95200 42.21700 39.09300
C  -11.28900 42.63500 39.31500
C  -12.00400 41.46900 39.85800
C  -8.85800 43.02200 38.50300
C  -11.86200 44.05900 38.99500
O  -11.16100 44.86700 38.43500
C  -13.30700 44.51500 39.39900
N  -13.68100 38.98600 40.65100
C  -14.14700 40.21800 40.65400
C  -15.64000 40.35400 40.97800
C  -15.95500 38.82000 41.25900
C  -14.58300 38.18100 41.26800
C  -16.03300 41.28200 42.15300
C  -17.00000 38.17000 40.16900
C  -18.07200 37.25900 40.80700
N  -12.10900 36.56700 40.97000
C  -13.34900 36.00300 41.36800
C  -13.18100 34.57300 41.43700
C  -11.85300 34.28700 40.99400
C  -11.28500 35.51200 40.70000
C  -14.36900 33.60600 41.72400
C  -10.86300 33.23600 40.75400
O  -10.93500 32.00800 40.84800
C  -9.58700 34.04900 40.24600
C  -8.55300 33.80500 41.29400
O  -8.28600 32.71700 41.80800
O  -7.77600 34.93000 41.53800
C  -6.58300 34.72300 42.30600
H  -8.01700 40.42800 38.33000
H  -13.93700 42.24300 40.25200
H  -15.42700 36.37500 41.93200
H  -7.15000 35.71400 39.09300
H  -7.26800 37.97700 37.53500
H  -6.40800 39.05900 39.92900
H  -5.40100 38.23800 38.77500
H  -5.94600 37.42600 40.24400
H  -8.46900 36.58900 36.49400
H  -9.26100 35.29500 37.29800
H  -7.59800 34.13300 36.00100
H  -6.35600 34.61300 37.15300
H  -8.92000 42.98900 37.41500
H  -7.91800 42.56600 38.81300
H  -8.79400 44.04700 38.86900
H  -13.48200 45.56800 39.17800
H  -13.21800 44.35500 40.47400
H  -14.07600 43.85200 39.00300
H  -16.21000 40.61800 40.08700
H  -16.41500 38.69600 42.24000
H  -16.68900 40.75400 42.84500
H  -16.60500 42.13500 41.78800
H  -15.20400 41.67500 42.74200
H  -16.39500 37.67700 39.40800
H  -17.44400 38.94100 39.53900
H  -17.82900 36.26500 40.43000
H  -19.11100 37.40300 40.51100
H  -18.02300 37.37300 41.89000
H  -15.06300 33.42400 40.90300
H  -14.89000 33.98700 42.60200
H  -13.94000 32.68700 42.12400
H  -9.37000 33.63400 39.26200
H  -6.01400 33.91400 41.84700
H  -6.85700 34.50900 43.33900
H  -5.86600 35.54300 42.32900

