158

Mg 1.90600 -0.99400 44.37000
C  5.05100 0.25300 43.42900
C  0.54700 1.64400 42.33700
C  -1.11200 -2.44700 44.33000
C  3.41800 -3.81100 45.49300
N  2.79000 0.72500 42.94700
C  4.03600 1.02600 42.84400
C  4.19300 2.32300 41.97900
C  2.76600 2.67200 41.52300
C  1.98900 1.67200 42.39400
C  2.33000 4.18100 41.54800
C  5.25300 2.00200 40.78700
C  6.51900 2.92100 40.65200
H  7.77600 2.31500 39.97700
N  -0.01900 -0.39900 43.73000
C  -0.33200 0.66500 42.94200
C  -1.79000 0.80300 42.72600
C  -2.30100 -0.36300 43.31800
C  -1.11400 -1.14200 43.79700
C  -2.55400 1.80800 41.81300
C  -3.76300 -0.76600 43.33700
O  -4.55600 -0.08800 42.69300
C  -4.32000 -1.98100 43.94600
N  1.23800 -2.84700 44.78500
C  -0.06600 -3.21700 44.87700
C  -0.21200 -4.67900 45.46900
C  1.23900 -5.13000 45.71700
C  2.01200 -3.82800 45.28700
C  -1.10100 -4.72200 46.90000
C  1.65500 -6.33900 44.86100
C  1.17900 -7.70500 45.32000
N  3.88100 -1.69000 44.55000
C  4.34000 -2.93000 45.07000
C  5.78700 -2.87700 45.22300
C  6.09600 -1.64500 44.63500
C  4.92300 -0.97100 44.17300
C  6.68200 -3.87700 45.87600
C  7.21400 -0.73600 44.39200
O  8.34600 -0.83400 44.80800
C  6.61500 0.49100 43.59000
C  6.86100 1.70500 44.44500
O  6.29900 1.83900 45.54500
O  7.79900 2.48900 43.89100
C  7.84700 3.77400 44.57400
H  0.02900 2.40600 41.75000
H  -2.09000 -2.93300 44.33700
H  3.81300 -4.70800 45.97500
H  4.47600 3.22200 42.52600
H  2.71500 2.32600 40.49100
H  1.70800 4.21500 42.44300
H  1.71100 4.33700 40.66400
H  3.17100 4.87400 41.51700
H  4.82200 2.04700 39.78600
H  5.60000 0.97500 40.89700
H  6.71500 3.19500 41.68900
H  6.19200 3.83000 40.14700
H  -3.21600 1.42300 41.03700
H  -1.81800 2.26100 41.14800
H  -3.15900 2.50400 42.39300
H  -4.10100 -2.83700 43.30800
H  -5.40300 -1.87300 43.99700
H  -3.94100 -2.20500 44.94300
H  -0.61400 -5.17100 44.58300
H  1.50600 -5.30200 46.75900
H  -1.98400 -5.35800 46.83500
H  -1.40000 -3.69400 47.10500
H  -0.54600 -5.01500 47.79100
H  2.73900 -6.44600 44.90100
H  1.46800 -6.17200 43.80100
H  0.50100 -8.19800 44.62300
H  0.51100 -7.52400 46.16200
H  1.99500 -8.40100 45.51700
H  6.15400 -4.82900 45.84700
H  6.99500 -3.57200 46.87500
H  7.59300 -4.07300 45.31000
H  7.18600 0.62600 42.67100
H  8.78700 4.23200 44.26800
H  7.90800 3.71800 45.66000
H  6.98000 4.37900 44.30800
Mg 41.30600 9.57600 29.94900
C  42.66400 10.66800 33.01300
C  38.89500 7.86800 31.72200
C  40.38500 8.20100 27.00900
C  44.25000 10.76800 28.35600
N  40.96900 9.19000 32.16200
C  41.52200 9.88200 33.22700
C  40.68700 9.76600 34.46200
C  39.53700 8.78000 33.99800
C  39.77800 8.59200 32.50600
C  39.33900 7.41800 34.78600
C  40.19800 11.03800 35.18100
C  40.31300 10.99800 36.71300
H  40.73700 12.20800 37.62400
N  39.74200 8.27600 29.44400
C  38.79700 7.67400 30.32400
C  37.86200 6.91800 29.49500
C  38.23100 7.06600 28.09600
C  39.52300 7.82500 28.10300
C  36.60000 6.30700 30.01400
C  37.39600 6.78500 26.85300
O  37.72400 7.18900 25.76900
C  36.26300 5.89600 27.05000
N  42.15900 9.55500 27.93600
C  41.56400 8.92200 26.90800
C  42.43000 9.07900 25.58800
C  43.44300 10.21800 26.02900
C  43.30800 10.21500 27.54900
C  42.98900 7.67700 25.20200
C  43.06700 11.69600 25.47400
C  41.59000 12.13600 25.53400
N  42.97900 10.59900 30.49800
C  44.05400 11.01900 29.70200
C  44.81200 11.97000 30.54100
C  44.37000 11.76500 31.83900
C  43.23600 10.90600 31.76100
C  46.01500 12.75900 30.02100
C  44.72700 11.95900 33.19600
O  45.74800 12.47400 33.71900
C  43.50900 11.46900 34.02300
C  43.97800 10.55500 35.09800
O  44.77800 9.64000 34.93500
O  43.55500 11.04500 36.33900
C  44.09100 10.42700 37.53700
H  38.11200 7.41000 32.33000
H  40.04500 7.97500 25.99700
H  45.04300 11.31100 27.83900
H  41.33900 9.19000 35.11900
H  38.55600 9.25600 34.00900
H  38.32400 7.09200 35.01000
H  39.88800 7.45300 35.72700
H  39.94500 6.69800 34.23500
H  39.13800 11.15400 34.95700
H  40.76600 11.86800 34.76200
H  40.64700 10.01900 37.05600
H  39.24600 10.96600 36.93400
H  36.71600 5.23900 29.83000
H  35.68400 6.63800 29.52600
H  36.60000 6.40900 31.09900
H  35.76900 5.53000 26.15000
H  35.50200 6.41000 27.63700
H  36.57600 4.94300 27.47700
H  41.72700 9.42900 24.83300
H  44.49400 10.05700 25.79200
H  43.00400 6.93900 26.00400
H  43.98200 7.84700 24.78500
H  42.33200 7.22500 24.46000
H  43.24100 11.64200 24.39900
H  43.67300 12.45100 25.97700
H  41.54400 13.20400 25.74500
H  41.14200 11.63900 26.39400
H  41.10000 11.86000 24.60000
H  46.00100 12.66400 28.93500
H  46.98300 12.38800 30.36000
H  45.91300 13.78500 30.37300
H  42.92200 12.33100 34.33900
H  43.31400 10.57700 38.28700
H  45.01000 10.84700 37.94500
H  44.14000 9.36600 37.29100

