158

Mg 45.04000 5.38600 47.58300
C  43.00400 8.01100 47.33900
C  42.22200 3.27000 47.46300
C  47.08700 2.64200 47.47500
C  47.86800 7.45500 47.55800
N  42.82500 5.59400 47.45500
C  42.25700 6.83400 47.38100
C  40.72800 6.62700 47.02300
C  40.44900 5.17600 47.30100
C  41.94300 4.64000 47.47700
C  39.49400 4.96200 48.47500
C  40.47600 7.00600 45.51200
C  39.30900 8.05500 45.52900
H  38.45400 8.06600 44.21300
N  44.67400 3.23800 47.53700
C  43.45700 2.62100 47.54600
C  43.72500 1.19300 47.42300
C  45.10500 0.97800 47.30900
C  45.66000 2.31500 47.44700
C  42.67200 0.12200 47.40300
C  45.75500 -0.34900 47.06500
O  45.11100 -1.39100 46.97600
C  47.30200 -0.50700 46.84100
N  47.21000 5.09700 47.42900
C  47.82400 3.85500 47.47800
C  49.26300 3.94800 47.39700
C  49.51800 5.51600 47.54800
C  48.11500 6.09300 47.54700
C  50.13300 2.96600 48.33000
C  50.45000 6.02900 46.35200
C  51.88600 6.56200 46.71200
N  45.41800 7.33300 47.38200
C  46.57600 8.09100 47.48900
C  46.28100 9.50400 47.32300
C  44.89400 9.49200 47.38400
C  44.41000 8.14800 47.42000
C  47.16500 10.74200 47.04800
C  43.64700 10.39200 47.24100
O  43.63100 11.61400 47.13600
C  42.37700 9.41600 47.33100
C  41.47300 9.73700 48.50400
O  41.53900 9.11100 49.56300
O  40.48800 10.46900 48.05500
C  39.28700 10.55800 48.87800
H  41.35800 2.61200 47.34700
H  47.79300 1.81000 47.52800
H  48.71900 8.13400 47.47400
H  40.14500 7.28000 47.67300
H  40.20700 4.55500 46.43800
H  39.21700 5.92700 48.89900
H  40.02000 4.42400 49.26300
H  38.63200 4.40100 48.11500
H  40.26000 6.27700 44.73100
H  41.40200 7.50800 45.23100
H  39.81600 9.00400 45.70100
H  38.59600 7.88400 46.33600
H  42.81300 -0.54800 46.55500
H  41.69100 0.54700 47.19000
H  42.77100 -0.34600 48.38200
H  47.60300 0.06400 45.96200
H  47.48400 -1.57300 46.70500
H  47.89800 -0.20100 47.70100
H  49.44100 3.64300 46.36600
H  49.83900 5.77500 48.55700
H  49.46700 2.34400 48.92900
H  50.70900 3.58800 49.01500
H  50.90100 2.38600 47.81900
H  49.88700 6.82500 45.86500
H  50.70300 5.15200 45.75600
H  51.88800 7.56300 47.14400
H  52.53400 6.58200 45.83600
H  52.32200 5.88600 47.44700
H  48.09700 10.69600 47.61100
H  46.58100 11.63300 47.27800
H  47.33000 10.92600 45.98700
H  41.85200 9.67800 46.41200
H  39.05300 11.62200 48.83900
H  39.32600 10.14100 49.88400
H  38.56600 10.15800 48.16500
Mg -10.38400 17.83500 40.85200
C  -6.90600 17.20000 40.86700
C  -9.68200 21.17800 40.11100
C  -13.60900 18.34800 40.25700
C  -10.98600 14.42200 41.40300
N  -8.49600 18.97000 40.32500
C  -7.23000 18.54100 40.45600
C  -6.25200 19.73000 40.15800
C  -7.16200 21.00200 40.35500
C  -8.53800 20.34700 40.25600
C  -6.96900 21.71000 41.74900
C  -5.81900 19.60400 38.67300
C  -4.29800 19.49400 38.48300
H  -3.80200 18.10800 37.96200
N  -11.49900 19.56900 40.28400
C  -11.04000 20.78100 39.91200
C  -12.06300 21.64900 39.48800
C  -13.29900 20.83900 39.67900
C  -12.84100 19.49700 40.12900
C  -11.87700 23.02400 39.01100
C  -14.70800 21.29600 39.28600
O  -14.93200 22.40900 38.92600
C  -15.91200 20.32600 39.40400
N  -11.95600 16.50800 40.71600
C  -13.25900 17.05600 40.58700
C  -14.32700 15.88200 40.49200
C  -13.45900 14.62200 40.78500
C  -12.08500 15.23400 41.04500
C  -15.69600 16.21200 41.16900
C  -13.46000 13.65700 39.57400
C  -14.34300 12.41900 39.74500
N  -9.19900 16.12400 41.06600
C  -9.63700 14.81600 41.34300
C  -8.41500 13.97100 41.45100
C  -7.35600 14.91100 41.38200
C  -7.84100 16.17700 41.08400
C  -8.43700 12.56200 41.85000
C  -5.90100 15.02400 41.44700
O  -4.95500 14.23100 41.68000
C  -5.55300 16.51200 41.07500
C  -4.81800 17.13700 42.21700
O  -5.38600 17.76900 43.10900
O  -3.44300 17.05600 42.05600
C  -2.62700 17.84100 43.00700
H  -9.52600 22.25900 40.10700
H  -14.67200 18.29000 40.01700
H  -11.13800 13.34900 41.54000
H  -5.42700 19.63800 40.86400
H  -7.11400 21.69400 39.51400
H  -6.08900 21.29000 42.23600
H  -7.80700 21.60100 42.43700
H  -6.90400 22.76300 41.47500
H  -6.06200 20.51300 38.12200
H  -6.29200 18.75400 38.18200
H  -3.77400 19.57800 39.43500
H  -3.88300 20.26100 37.82900
H  -11.00900 23.11500 38.35800
H  -11.72000 23.62700 39.90600
H  -12.67200 23.51500 38.44900
H  -15.81500 19.60500 38.59200
H  -16.86500 20.85500 39.39800
H  -15.97100 19.73100 40.31600
H  -14.54900 15.92900 39.42600
H  -13.93400 14.21300 41.67700
H  -16.47000 16.28800 40.40400
H  -15.61100 17.16700 41.68700
H  -15.87400 15.44500 41.92300
H  -12.45300 13.25900 39.45100
H  -13.78000 14.18600 38.67600
H  -13.80300 11.47500 39.81100
H  -14.94000 12.39800 38.83300
H  -14.94100 12.47800 40.65500
H  -7.52600 12.27800 42.37600
H  -8.70200 11.94500 40.99100
H  -9.28100 12.56400 42.54000
H  -4.95400 16.49600 40.16400
H  -1.66000 17.34400 43.08400
H  -3.03000 17.86300 44.01900
H  -2.39600 18.86800 42.72300

