158

Mg 54.23500 24.67100 43.45900
C  51.66300 27.05300 43.29300
C  51.85700 22.23600 43.00600
C  56.72900 22.53900 42.87500
C  56.64400 27.35200 43.57400
N  52.02600 24.70000 43.13000
C  51.22500 25.79200 43.03800
C  49.77700 25.30300 42.91800
C  49.79800 23.76500 43.37400
C  51.28700 23.51700 43.17900
C  49.46000 23.56100 44.86900
C  49.11700 25.52300 41.47400
C  49.82400 24.95800 40.22300
H  50.40200 25.89800 39.18600
N  54.31500 22.56800 43.04600
C  53.19400 21.75900 42.96600
C  53.65100 20.39300 42.71100
C  55.09200 20.46700 42.64100
C  55.41800 21.87400 42.91500
C  52.75500 19.30400 42.37500
C  56.04000 19.28800 42.16600
O  55.58300 18.20400 41.91500
C  57.46700 19.47900 41.91500
N  56.40800 24.96100 42.95600
C  57.20500 23.86500 42.98700
C  58.64800 24.24500 42.94200
C  58.57700 25.86700 42.97800
C  57.13200 26.10000 43.17800
C  59.41300 23.69900 44.13400
C  59.11900 26.57100 41.68900
C  59.93100 27.79900 41.83800
N  54.24800 26.77900 43.43300
C  55.27000 27.74700 43.59600
C  54.67400 29.05400 43.82700
C  53.28500 28.81600 43.61900
C  53.02600 27.45400 43.39800
C  55.27500 30.35200 44.05000
C  51.95000 29.48000 43.66800
O  51.60800 30.64200 43.85500
C  50.85800 28.30800 43.21300
C  50.48600 28.78400 41.87400
O  51.17400 28.59500 40.89800
O  49.20600 29.35500 41.83900
C  48.69300 29.75600 40.55700
H  51.11000 21.51000 42.67500
H  57.51800 21.79500 43.00300
H  57.38600 28.14600 43.68300
H  49.21900 25.85800 43.67200
H  49.12200 23.16100 42.76900
H  48.60400 24.18100 45.13400
H  50.31800 23.89200 45.45400
H  49.31500 22.52000 45.15600
H  48.84800 26.56900 41.33100
H  48.17200 24.97900 41.49000
H  49.09900 24.29600 39.74900
H  50.64000 24.37200 40.64700
H  52.70900 19.20500 41.29100
H  51.79100 19.69100 42.70500
H  52.98100 18.43800 42.99700
H  57.58200 20.42000 41.37800
H  57.87400 18.63500 41.35800
H  57.89400 19.51000 42.91800
H  59.04200 23.82900 42.01400
H  59.18700 26.17600 43.82600
H  59.44100 24.44100 44.93200
H  60.38800 23.29800 43.85700
H  58.90900 22.82900 44.55400
H  58.18600 26.82300 41.18500
H  59.60500 25.78300 41.11300
H  60.28900 27.89900 42.86200
H  59.37100 28.68200 41.52700
H  60.86600 27.73200 41.28300
H  54.49700 31.05200 43.74300
H  56.14600 30.51200 43.41500
H  55.47300 30.47600 45.11500
H  50.09000 28.42200 43.97800
H  48.94300 29.08200 39.73800
H  48.91500 30.78000 40.25900
H  47.60900 29.69300 40.65400
Mg -11.81100 38.57900 40.76900
C  -9.55500 35.91200 40.27100
C  -9.37100 40.66900 39.18100
C  -13.99300 41.03900 40.43900
C  -14.15800 36.26200 41.85700
N  -9.63400 38.32400 39.87200
C  -8.97200 37.14100 39.75800
C  -7.73300 37.28100 38.88000
C  -7.46000 38.83000 39.03800
C  -8.91500 39.32800 39.37300
C  -6.28700 39.07100 39.99400
C  -7.96800 36.81000 37.45200
C  -6.95100 35.81600 36.90000
H  -6.02900 36.31200 35.74000
N  -11.68700 40.64500 39.95400
C  -10.65100 41.25000 39.38200
C  -10.98000 42.68600 39.19300
C  -12.29400 42.84400 39.56500
C  -12.74600 41.48700 40.02400
C  -10.15600 43.71200 38.49900
C  -13.19800 44.11200 39.40200
O  -12.76500 45.15200 38.87200
C  -14.60900 44.20700 39.86900
N  -13.78400 38.59800 40.88800
C  -14.49800 39.76700 40.83900
C  -15.89400 39.67500 41.50200
C  -15.90400 38.14000 41.93300
C  -14.54700 37.58900 41.57300
C  -15.99700 40.58700 42.65600
C  -17.06800 37.26800 41.29700
C  -18.21600 37.02200 42.24900
N  -11.87700 36.53400 41.15800
C  -12.90200 35.74500 41.61600
C  -12.35300 34.36700 41.89000
C  -11.07600 34.39000 41.29100
C  -10.81600 35.74100 40.90800
C  -12.97800 33.11000 42.62100
C  -9.84200 33.59200 40.91500
O  -9.61300 32.41200 41.11100
C  -8.88000 34.52900 40.18900
C  -7.62500 34.47100 40.85700
O  -6.63600 33.92800 40.34700
O  -7.70600 35.19100 42.02400
C  -6.64500 35.19800 43.03800
H  -8.58700 41.37700 38.90200
H  -14.83800 41.73100 40.41800
H  -14.96900 35.64400 42.24900
H  -6.93800 36.68000 39.32400
H  -7.23500 39.30300 38.08200
H  -5.52300 38.29700 39.92600
H  -6.71500 38.90400 40.98300
H  -5.84500 40.06700 39.99200
H  -8.04300 37.69800 36.82400
H  -8.97500 36.39300 37.42000
H  -7.36900 34.83000 36.69700
H  -6.24200 35.58900 37.69700
H  -10.43100 43.98700 37.48000
H  -9.12400 43.36200 38.52900
H  -10.07100 44.58200 39.15000
H  -14.64600 43.88500 40.91000
H  -15.24700 43.58300 39.24300
H  -15.08500 45.17800 39.72900
H  -16.60600 39.88300 40.70300
H  -15.93100 38.05400 43.02000
H  -16.53100 41.53100 42.55200
H  -14.99800 40.93600 42.91700
H  -16.45600 40.16400 43.54900
H  -16.69800 36.33500 40.87300
H  -17.52100 37.73700 40.42300
H  -18.19900 37.48800 43.23400
H  -18.26800 35.94500 42.40900
H  -19.14900 37.25400 41.73600
H  -12.58400 32.14100 42.31500
H  -14.06500 33.14100 42.55900
H  -12.74000 33.46100 43.62600
H  -8.84500 34.22600 39.14200
H  -5.93900 34.39800 42.81100
H  -7.17500 35.04000 43.97700
H  -6.11300 36.14600 43.10400

