158

Mg 43.91000 4.69800 46.66700
C  42.09800 7.63500 46.24300
C  41.09300 2.87400 45.85200
C  45.93500 2.20000 46.01300
C  46.79000 6.80400 47.20600
N  41.83800 5.23600 46.10500
C  41.36000 6.50000 46.13200
C  39.81600 6.51700 46.02600
C  39.44400 4.97400 45.90600
C  40.81700 4.29100 46.02100
C  38.44200 4.55700 46.97200
C  39.20500 7.35800 44.77900
C  40.06200 7.72900 43.59900
H  39.61600 7.23100 42.27800
N  43.57400 2.80500 46.26800
C  42.34700 2.21300 46.02100
C  42.68100 0.82400 45.73200
C  44.01300 0.55800 45.84200
C  44.58600 1.89200 46.03000
C  41.50000 -0.05600 45.37200
C  44.68600 -0.76200 45.81900
O  43.99300 -1.80500 45.67900
C  46.15600 -0.98700 46.23200
N  46.17600 4.57400 46.41300
C  46.67200 3.35200 46.28100
C  48.18400 3.35000 46.49800
C  48.55200 4.85600 46.89900
C  47.14100 5.44200 46.83800
C  48.69500 2.25400 47.58500
C  49.63500 5.58300 46.02000
C  50.88600 6.12600 46.74800
N  44.40800 6.82300 46.70200
C  45.53800 7.50400 46.91800
C  45.30000 8.98300 46.90400
C  43.92200 9.03100 46.68300
C  43.43600 7.72300 46.59400
C  46.25700 10.10100 47.00400
C  42.79900 9.94000 46.56800
O  42.67800 11.16400 46.55200
C  41.57100 9.04400 46.36400
C  40.76900 9.31600 47.56500
O  40.83800 8.64100 48.51100
O  39.98000 10.41300 47.33300
C  39.19000 10.86600 48.51400
H  40.17100 2.37000 45.55700
H  46.68000 1.42400 45.82600
H  47.53900 7.50200 47.58600
H  39.46200 6.98100 46.94700
H  39.08300 4.76600 44.89900
H  37.58800 4.11500 46.45900
H  38.03900 5.42600 47.49300
H  38.98500 4.04100 47.76400
H  38.99100 8.31200 45.25900
H  38.28000 6.86700 44.47900
H  41.04600 7.26800 43.67400
H  40.22700 8.80500 43.65800
H  41.52100 -1.08200 45.73900
H  41.33300 -0.05200 44.29500
H  40.64600 0.34800 45.91500
H  46.30400 -2.06700 46.23700
H  46.34500 -0.62500 47.24300
H  46.75800 -0.58400 45.41700
H  48.65200 3.12600 45.54000
H  48.81900 5.04800 47.93800
H  48.98400 2.72800 48.52300
H  49.53400 1.64100 47.25700
H  47.91300 1.54800 47.86600
H  49.23500 6.45700 45.50600
H  49.96400 4.88600 45.24900
H  50.85200 5.89800 47.81400
H  50.99600 7.19900 46.59500
H  51.81100 5.67600 46.38600
H  45.82500 11.09600 46.90200
H  46.95000 10.05600 46.16300
H  46.72000 10.12200 47.99000
H  41.03500 9.48600 45.52400
H  39.56100 11.80600 48.92300
H  38.97200 10.12700 49.28500
H  38.18200 11.04900 48.14100
Mg 6.34900 53.82700 41.06900
C  5.94900 50.25100 40.80800
C  9.47200 53.35900 39.70200
C  6.42800 57.10500 40.41900
C  3.05600 53.91300 41.82900
N  7.45400 51.96800 40.17100
C  7.16100 50.66900 40.19200
C  8.36600 49.70500 39.83800
C  9.53400 50.70600 39.84700
C  8.77800 52.10600 39.86900
C  10.50200 50.55900 41.08800
C  8.21300 48.94300 38.46800
C  7.90900 49.73200 37.27900
H  6.87600 49.29900 36.26500
N  7.84100 55.16800 40.35600
C  9.09400 54.75700 39.86900
C  9.90100 55.94900 39.82000
C  9.02200 57.06800 39.93300
C  7.69700 56.54300 40.27300
C  11.42800 55.95300 39.52300
C  9.38000 58.51100 39.90500
O  10.52900 58.82600 39.62600
C  8.35100 59.68200 40.06500
N  4.87100 55.26800 40.81100
C  5.11400 56.62200 40.59600
C  3.86100 57.50700 40.91600
C  2.87900 56.37300 41.17300
C  3.69200 55.11300 41.44000
C  4.02400 58.52900 42.05700
C  1.83400 56.09400 40.07600
C  0.45600 56.74000 40.19400
N  4.81800 52.39900 41.45300
C  3.54500 52.60900 41.76500
C  2.84100 51.40400 42.13000
C  3.83300 50.38000 41.80200
C  4.93500 51.08900 41.29600
C  1.47700 51.19900 42.75600
C  4.11000 49.00200 41.79700
O  3.45900 48.02200 42.19500
C  5.49100 48.83600 41.04800
C  5.16600 48.02000 39.91600
O  4.78900 48.38000 38.78200
O  5.39600 46.71900 40.27300
C  4.89800 45.77900 39.31200
H  10.46000 53.23300 39.25500
H  6.31200 58.19100 40.44000
H  2.05800 54.17700 42.18600
H  8.48200 49.02100 40.67900
H  10.19200 50.57900 38.98700
H  10.40100 51.44400 41.71500
H  11.52300 50.51800 40.70700
H  10.20700 49.74200 41.74600
H  7.52000 48.10300 38.51400
H  9.21600 48.52200 38.38300
H  8.82500 49.90100 36.71200
H  7.61100 50.71100 37.65600
H  11.76500 55.00500 39.10400
H  11.97300 56.23000 40.42500
H  11.68100 56.67800 38.74900
H  8.95800 60.56800 39.87700
H  7.87200 59.74600 41.04200
H  7.73100 59.59200 39.17200
H  3.54800 57.94900 39.97000
H  2.35900 56.63700 42.09400
H  3.34600 58.47100 42.90800
H  3.78800 59.46500 41.55100
H  5.05700 58.55600 42.40200
H  1.70700 55.04400 39.81500
H  2.19800 56.51400 39.13900
H  0.44200 57.82400 40.08400
H  0.09400 56.44600 41.18000
H  -0.16500 56.21500 39.46900
H  0.68400 51.80700 42.31900
H  1.47000 51.25100 43.84500
H  1.23300 50.19400 42.41300
H  6.03500 48.23100 41.77400
H  3.88700 46.07100 39.02500
H  4.84600 44.75000 39.66700
H  5.55000 45.75600 38.44000

