158

Mg 8.29500 2.52000 27.81300
C  9.68100 1.00300 30.49700
C  6.52700 4.50900 29.93100
C  6.64400 3.78500 25.10800
C  9.64900 0.11000 25.66400
N  8.27800 2.85200 29.94000
C  9.00500 2.14400 30.88900
C  8.79300 2.75300 32.29700
C  7.56700 3.72600 32.06000
C  7.51200 3.73000 30.53400
C  6.24200 3.15900 32.67000
C  10.07900 3.39500 32.95400
C  10.39700 2.95200 34.37900
H  10.32000 4.03800 35.42600
N  6.70300 3.97500 27.55200
C  6.14300 4.71200 28.53400
C  5.17400 5.65000 27.93300
C  5.19700 5.42800 26.54600
C  6.30400 4.39400 26.33000
C  4.30300 6.61900 28.76000
C  4.36800 6.08200 25.45800
O  4.38500 5.84400 24.23000
C  3.37800 7.04600 25.85700
N  8.11500 2.01900 25.66400
C  7.49000 2.76800 24.77300
C  7.74200 2.32700 23.32000
C  8.79400 1.15800 23.44700
C  8.85900 1.07400 24.99700
C  6.42300 2.02200 22.50800
C  10.13700 1.38000 22.80400
C  10.75000 0.09400 22.21500
N  9.28800 0.77900 27.93400
C  9.80900 -0.10600 27.00200
C  10.63100 -1.10800 27.60900
C  10.52600 -0.74400 28.99500
C  9.70600 0.43300 29.15300
C  11.39500 -2.29000 27.01600
C  10.92800 -1.15900 30.31700
O  11.55800 -2.11000 30.67500
C  10.48800 -0.05100 31.34300
C  9.76100 -0.65300 32.44400
O  8.86500 -1.44700 32.29700
O  10.27000 -0.25800 33.64400
C  9.73100 -0.89600 34.86300
H  5.93200 5.20300 30.52800
H  6.18200 4.32900 24.28200
H  10.17500 -0.56700 24.98800
H  8.48200 1.95700 32.97300
H  7.68400 4.72800 32.47200
H  5.71700 2.49600 31.98100
H  5.48100 3.90600 32.89800
H  6.41800 2.56800 33.56800
H  10.04400 4.46300 32.74000
H  10.91900 3.02100 32.36800
H  11.45000 2.68000 34.31200
H  9.75200 2.10200 34.60100
H  4.72300 6.62600 29.76600
H  3.26000 6.30500 28.75200
H  4.44400 7.63000 28.37800
H  3.77100 8.03600 26.09000
H  2.72700 6.69000 26.65600
H  2.71500 7.21400 25.00800
H  8.24000 3.12300 22.76500
H  8.43500 0.15600 23.21100
H  5.61600 2.12000 23.23300
H  6.55200 1.03400 22.06700
H  6.20000 2.82200 21.80200
H  10.81600 1.67900 23.60200
H  10.11600 2.17400 22.05600
H  10.87000 0.36200 21.16500
H  10.05300 -0.74400 22.20400
H  11.64600 -0.25300 22.73000
H  12.26700 -2.36000 27.66700
H  11.60800 -1.90800 26.01800
H  10.85200 -3.23000 26.91500
H  11.33500 0.32900 31.91300
H  9.16200 -0.10600 35.35300
H  10.56700 -1.17000 35.50600
H  9.05600 -1.73800 34.70800
Mg -11.39700 37.08800 42.19900
C  -9.05800 34.51000 41.27200
C  -9.60100 39.26600 40.24900
C  -14.11900 39.16700 41.89300
C  -13.48100 34.59800 43.29400
N  -9.57500 36.90300 40.94400
C  -8.82200 35.77400 40.64400
C  -7.68000 36.08500 39.66300
C  -7.69300 37.69800 39.53700
C  -8.98200 38.01500 40.35600
C  -6.40900 38.41500 39.96600
C  -7.73900 35.21800 38.31800
C  -6.41900 34.44300 37.93800
H  -5.50600 35.30800 37.01800
N  -11.71400 39.05200 41.45400
C  -10.80700 39.76900 40.80500
C  -11.30800 41.08400 40.70100
C  -12.62200 41.14900 41.21400
C  -12.87800 39.78700 41.54900
C  -10.59200 42.25500 40.16500
C  -13.53000 42.33700 41.34400
O  -13.28900 43.44400 41.01600
C  -14.82200 42.26500 42.13800
N  -13.50300 36.92800 42.38300
C  -14.46800 37.89700 42.21000
C  -15.88500 37.41500 42.46500
C  -15.60900 35.92000 42.87800
C  -14.09900 35.79500 42.98400
C  -16.77300 38.21400 43.45600
C  -16.31000 34.86500 41.98900
C  -16.04600 35.02200 40.46600
N  -11.24400 35.04400 42.61100
C  -12.16900 34.14400 43.12400
C  -11.47700 32.93400 43.35400
C  -10.25800 32.93400 42.58500
C  -10.15900 34.31900 42.19800
C  -11.92200 31.86000 44.28800
C  -9.05700 32.25300 42.14300
O  -8.65800 31.12300 42.28500
C  -8.16100 33.28700 41.37800
C  -6.82600 33.44100 42.02400
O  -5.92100 32.55500 41.91800
O  -6.76600 34.65300 42.70300
C  -5.46700 35.00900 43.26600
H  -9.02800 40.01500 39.69900
H  -15.01300 39.79300 41.87100
H  -14.12500 33.83600 43.73800
H  -6.80300 35.84500 40.26300
H  -7.96100 38.05900 38.54400
H  -5.69700 37.75800 40.46500
H  -6.51800 39.19200 40.72300
H  -6.00600 38.82700 39.04100
H  -8.00400 35.94800 37.55300
H  -8.58000 34.52500 38.29900
H  -6.63100 33.46300 37.51200
H  -5.84900 34.27100 38.85100
H  -9.51200 42.11200 40.12600
H  -10.69500 43.10900 40.83400
H  -10.97000 42.55000 39.18600
H  -15.35000 43.20500 42.30000
H  -14.65900 41.67400 43.03900
H  -15.52900 41.70400 41.52700
H  -16.46100 37.36500 41.54000
H  -15.92100 35.90800 43.92300
H  -17.29700 37.56400 44.15700
H  -17.48500 38.72300 42.80600
H  -16.21900 38.93300 44.05900
H  -17.38500 34.90400 42.16500
H  -15.91200 33.91400 42.34300
H  -17.02400 35.17500 40.01000
H  -15.60800 34.16900 39.94800
H  -15.48900 35.90800 40.16000
H  -11.08000 31.51400 44.88800
H  -12.38200 31.04900 43.72300
H  -12.47700 32.37600 45.07100
H  -7.79700 33.07100 40.37400
H  -5.58100 36.05900 43.53700
H  -4.72600 35.00900 42.46700
H  -5.17200 34.24200 43.98200

