158

Mg 1.60000 -1.60300 43.94000
C  5.08400 -1.09000 43.76800
C  1.14900 1.37600 42.20300
C  -1.62500 -2.39100 43.51100
C  2.24600 -4.79500 45.15500
N  2.93300 0.05200 43.24300
C  4.33100 0.05200 43.20700
C  4.89200 1.29500 42.58100
C  3.54000 2.11200 42.32600
C  2.43200 1.06700 42.58300
C  3.38300 3.40700 43.11400
C  5.77400 0.88600 41.39700
C  5.24400 0.04300 40.27200
H  5.67800 0.36000 38.85800
N  -0.05600 -0.61600 42.99900
C  -0.00900 0.59400 42.26700
C  -1.38000 0.88900 41.81200
C  -2.19400 -0.13100 42.28000
C  -1.29500 -1.15600 42.95400
C  -1.77100 2.24100 41.14000
C  -3.74500 -0.00600 42.25300
O  -4.25400 1.04700 41.81700
C  -4.67000 -1.01700 42.93300
N  0.49100 -3.38800 44.20200
C  -0.82900 -3.33200 44.09000
C  -1.50600 -4.66200 44.56500
C  -0.25700 -5.39300 45.19800
C  0.92200 -4.48300 44.83100
C  -2.73300 -4.44000 45.61800
C  -0.01500 -6.91200 44.80600
C  0.03300 -7.76900 46.12000
N  3.29800 -2.72500 44.53300
C  3.41900 -4.02300 44.95600
C  4.77100 -4.27900 45.36600
C  5.49600 -3.15200 44.89400
C  4.53600 -2.28200 44.31200
C  5.32700 -5.50000 46.00400
C  6.76400 -2.54800 44.80900
O  7.86300 -2.99600 45.15100
C  6.53600 -1.19600 44.08400
C  7.01600 -0.11300 44.96000
O  6.58300 0.18200 46.04000
O  8.04100 0.55000 44.25400
C  8.39600 1.87600 44.72900
H  1.13000 2.31700 41.65000
H  -2.66000 -2.73700 43.52800
H  2.57500 -5.79200 45.45500
H  5.50900 1.82800 43.30400
H  3.56800 2.31500 41.25500
H  4.31800 3.91200 43.35700
H  2.83900 3.16800 44.02800
H  2.79000 4.12200 42.54400
H  6.73600 0.53400 41.77100
H  5.98600 1.82700 40.88900
H  4.15800 0.10200 40.34900
H  5.60400 -0.94600 40.55400
H  -2.13600 2.98500 41.84700
H  -2.49700 2.14200 40.33300
H  -0.85800 2.64600 40.70200
H  -5.64400 -0.81800 42.48600
H  -4.64200 -0.75500 43.99000
H  -4.29000 -2.02900 42.79100
H  -1.83700 -5.23000 43.69500
H  -0.27900 -5.31700 46.28600
H  -2.56300 -5.02300 46.52300
H  -3.72500 -4.62800 45.20800
H  -2.73300 -3.37700 45.86100
H  0.89700 -7.06600 44.22900
H  -0.85200 -7.25200 44.19600
H  -0.79400 -8.47800 46.10700
H  -0.05000 -7.14700 47.01100
H  0.96500 -8.33000 46.05400
H  4.53000 -6.17400 46.31500
H  5.89500 -5.33800 46.92100
H  6.01600 -5.94800 45.28800
H  7.22200 -1.30500 43.24400
H  9.08300 1.98200 45.56800
H  7.51200 2.47100 44.95800
H  8.98000 2.45100 44.01000
Mg 47.77800 16.80800 27.61500
C  45.60400 16.86700 30.51900
C  49.96600 18.71300 29.16000
C  49.41700 16.81700 24.82000
C  44.91400 15.28800 25.95700
N  47.66200 17.81000 29.55800
C  46.82400 17.53200 30.64600
C  47.49400 18.05000 31.96300
C  48.78000 18.84300 31.44400
C  48.83700 18.46100 29.94500
C  48.77200 20.36300 31.64400
C  47.91500 16.87000 32.85800
C  47.90100 17.18000 34.42300
H  47.60700 18.61500 35.05500
N  49.42800 17.68700 27.10600
C  50.29400 18.38400 27.87500
C  51.44900 18.86200 27.18500
C  51.32400 18.30000 25.87700
C  50.05700 17.52500 25.89000
C  52.52200 19.80900 27.74700
C  52.23400 18.49800 24.69200
O  51.96000 17.97400 23.60900
C  53.46200 19.32700 24.71500
N  47.28200 15.98200 25.65000
C  48.24000 16.06800 24.70100
C  47.62000 15.61200 23.27400
C  46.14200 15.22600 23.60000
C  46.06800 15.55300 25.15500
C  47.85500 16.60300 22.10500
C  45.74500 13.69100 23.23900
C  45.98800 13.20400 21.84600
N  45.70100 16.28800 28.06600
C  44.72700 15.60700 27.32900
C  43.52800 15.26100 28.16000
C  43.83000 15.76800 29.42500
C  45.13800 16.37800 29.32700
C  42.26200 14.47600 27.72500
C  43.31300 15.95800 30.76500
O  42.22300 15.80000 31.24100
C  44.49800 16.60100 31.54600
C  44.01500 17.76600 32.33600
O  43.77300 18.87500 31.92100
O  43.67700 17.32600 33.57300
C  43.04700 18.21800 34.57100
H  50.65800 19.30800 29.76000
H  49.90700 16.92000 23.85000
H  44.06100 14.78200 25.50000
H  46.83500 18.75000 32.47700
H  49.72700 18.55300 31.89900
H  49.70900 20.62500 32.13500
H  47.92500 20.71400 32.23300
H  48.58900 20.91100 30.72000
H  48.93600 16.55600 32.64200
H  47.30100 16.00200 32.61700
H  48.89100 16.84300 34.72700
H  47.20400 16.52400 34.94400
H  52.47100 19.82200 28.83600
H  52.21900 20.77800 27.35200
H  53.54700 19.48100 27.57300
H  53.20900 20.33600 25.04100
H  53.83100 19.47900 23.70100
H  54.18100 18.93400 25.43400
H  48.19800 14.74800 22.94500
H  45.40900 15.86300 23.10600
H  48.18400 17.55600 22.52100
H  46.92800 16.71100 21.54300
H  48.59400 16.23100 21.39500
H  44.67500 13.63800 23.44200
H  46.26600 13.07100 23.96900
H  46.56200 13.95800 21.30600
H  45.02700 13.17500 21.33400
H  46.58200 12.29100 21.81000
H  41.55200 15.19200 27.31000
H  41.83700 14.00300 28.61000
H  42.47000 13.71400 26.97400
H  44.90600 15.88400 32.25900
H  42.27300 17.81400 35.22300
H  42.60600 19.04800 34.01900
H  43.93500 18.62200 35.05700

