158

Mg 36.37900 49.43100 26.20300
C  36.78900 47.12000 28.86700
C  35.52100 51.76400 28.33200
C  35.58600 51.25900 23.56700
C  36.90200 46.60200 23.96600
N  36.35000 49.44400 28.37000
C  36.46000 48.49100 29.21100
C  36.38200 49.01700 30.67600
C  35.52700 50.35700 30.46900
C  35.83300 50.55400 28.94900
C  34.05500 50.07600 30.59200
C  37.74400 49.36600 31.26800
C  37.89400 49.15900 32.73500
H  37.57700 50.32300 33.62800
N  35.75500 51.29900 25.97300
C  35.53800 52.13600 26.96800
C  35.11200 53.43100 26.46300
C  35.03500 53.32900 25.01000
C  35.51900 51.96300 24.79200
C  34.62500 54.63100 27.41200
C  34.56500 54.23200 23.97400
O  34.34200 53.83300 22.87200
C  34.27800 55.56600 24.38800
N  36.05000 48.86800 24.06400
C  35.85000 49.92700 23.21000
C  36.15000 49.55700 21.74100
C  36.74500 48.13700 21.90600
C  36.51300 47.77500 23.35200
C  34.88500 49.79300 20.75500
C  38.17000 47.94900 21.44900
C  38.34100 47.33300 20.04300
N  36.78600 47.31500 26.32100
C  36.95700 46.34700 25.32600
C  37.31400 45.13600 25.92800
C  37.21700 45.35600 27.32800
C  36.91700 46.69000 27.50600
C  37.62800 43.82400 25.25800
C  37.19500 44.73700 28.65000
O  37.40700 43.59100 28.98100
C  36.95400 45.91900 29.74700
C  35.63700 45.71100 30.45300
O  34.54600 45.60800 29.97200
O  35.92200 45.84300 31.78600
C  34.65700 46.03500 32.64400
H  35.23300 52.52900 29.05600
H  35.47700 51.75000 22.59800
H  37.20000 45.83200 23.25200
H  35.84900 48.35900 31.36300
H  35.77200 51.24500 31.05200
H  33.93500 49.30300 31.35000
H  33.57700 49.78100 29.65700
H  33.59800 50.98800 30.97600
H  38.18400 50.32500 30.99500
H  38.40800 48.63700 30.80300
H  38.89800 48.85300 33.02900
H  37.25700 48.34400 33.08000
H  34.31300 54.29600 28.40000
H  33.72700 55.15100 27.07900
H  35.49500 55.28600 27.47800
H  35.03000 55.93200 25.08600
H  33.26700 55.54600 24.79400
H  34.23200 56.16600 23.47800
H  36.89600 50.24000 21.33300
H  36.10700 47.50000 21.29400
H  34.05300 50.11700 21.38000
H  34.47800 48.89000 20.30000
H  35.12000 50.56400 20.02100
H  38.58700 47.21000 22.13300
H  38.66900 48.91600 21.51100
H  38.84000 46.36500 20.07300
H  38.91700 48.09600 19.51800
H  37.45100 47.25100 19.41900
H  38.04300 43.90000 24.25200
H  36.66800 43.31300 25.19100
H  38.37700 43.41300 25.93400
H  37.72100 45.98100 30.51900
H  34.84700 46.98300 33.14700
H  34.45600 45.27800 33.40300
H  33.71500 46.33000 32.18200
Mg -11.05700 17.47200 41.35700
C  -7.85600 16.01300 40.97100
C  -9.81300 20.51700 40.86800
C  -14.28600 18.66500 41.29200
C  -12.29100 14.19300 41.24100
N  -9.04600 18.15000 41.08300
C  -7.91000 17.39500 40.95200
C  -6.67800 18.32000 40.92900
C  -7.35000 19.79100 41.08800
C  -8.84500 19.43900 41.04000
C  -6.86500 20.54500 42.40600
C  -5.95200 18.22300 39.52300
C  -4.46900 17.71700 39.54200
H  -4.08100 16.53100 38.62000
N  -11.93400 19.32800 41.24200
C  -11.22800 20.44400 40.92800
C  -12.14300 21.55500 40.72000
C  -13.45600 21.07500 40.95600
C  -13.27000 19.60900 41.18600
C  -11.71900 22.94700 40.23500
C  -14.72000 21.85500 40.84900
O  -14.71900 23.02600 40.51100
C  -16.08600 21.22800 41.22000
N  -12.98200 16.55800 41.25800
C  -14.14000 17.26600 41.37400
C  -15.36200 16.35600 41.23400
C  -14.72400 14.98100 41.53400
C  -13.17800 15.21300 41.35100
C  -16.59900 16.66700 42.17900
C  -15.31000 13.70300 40.83300
C  -15.39700 12.44900 41.58400
N  -10.25600 15.44700 41.07500
C  -10.85000 14.22000 41.12000
C  -9.89100 13.12100 40.91500
C  -8.68400 13.84600 40.99900
C  -8.97900 15.23800 41.04000
C  -10.19600 11.66000 40.75600
C  -7.21500 13.64500 41.24000
O  -6.55700 12.63100 41.24000
C  -6.65300 15.12000 41.22400
C  -5.82400 15.36300 42.48400
O  -4.56200 15.34900 42.49200
O  -6.53600 15.42800 43.63300
C  -5.70700 15.68300 44.79000
H  -9.42000 21.53400 40.80300
H  -15.31600 18.95500 41.07300
H  -12.64900 13.16200 41.26000
H  -6.16600 18.01200 41.84100
H  -7.16200 20.38900 40.19600
H  -7.63800 20.54600 43.17500
H  -6.54200 21.54500 42.11500
H  -6.01000 19.95100 42.72800
H  -6.07700 19.14300 38.95200
H  -6.51700 17.43700 39.02200
H  -4.18200 17.31200 40.51300
H  -3.79700 18.56900 39.44400
H  -10.82900 22.66300 39.67200
H  -11.55200 23.64300 41.05700
H  -12.50200 23.49300 39.70900
H  -16.31600 20.53200 40.41400
H  -16.85300 22.00200 41.21600
H  -15.99400 20.70300 42.17100
H  -15.64400 16.37700 40.18100
H  -14.96900 14.81900 42.58300
H  -17.04800 15.77400 42.61400
H  -17.28800 17.20200 41.52600
H  -16.29700 17.26900 43.03600
H  -14.73500 13.41000 39.95500
H  -16.24100 14.01800 40.36300
H  -14.38900 12.13700 41.85700
H  -15.82900 11.63700 41.00000
H  -15.95100 12.57200 42.51500
H  -10.52600 11.28600 41.72500
H  -9.29700 11.26200 40.28400
H  -11.03100 11.46200 40.08400
H  -6.03500 15.25800 40.33700
H  -5.03000 16.49300 44.51800
H  -5.22800 14.74600 45.07400
H  -6.18000 16.17100 45.64300

