158

Mg 44.83700 4.31200 47.40600
C  43.21200 7.29600 46.54600
C  41.85700 2.59800 46.52300
C  46.55000 1.48700 47.50000
C  47.84700 6.14500 47.83400
N  42.79200 4.88900 46.55100
C  42.37900 6.18300 46.34100
C  40.94500 6.21800 45.70900
C  40.46800 4.79800 46.07100
C  41.76200 4.04500 46.39700
C  39.32500 4.74900 47.19100
C  40.95000 6.55200 44.23400
C  39.85800 7.51800 43.76800
H  39.36900 7.52900 42.31400
N  44.28300 2.37900 46.99700
C  42.99500 1.84500 46.81800
C  43.15000 0.38100 46.87500
C  44.50900 0.10800 47.01200
C  45.14400 1.37800 47.21000
C  41.93800 -0.64400 46.67300
C  45.12200 -1.31800 46.77000
O  44.37500 -2.29000 46.55100
C  46.52200 -1.61500 46.77400
N  46.88400 3.87600 47.47300
C  47.25900 2.62500 47.72500
C  48.78400 2.57300 48.05200
C  49.23900 4.08700 48.16900
C  47.87900 4.70200 47.88600
C  49.24800 1.58900 49.18700
C  50.44000 4.66800 47.32700
C  50.50100 4.36500 45.85300
N  45.41800 6.31600 47.15300
C  46.66800 6.92900 47.40300
C  46.48900 8.37600 47.23000
C  45.12800 8.58200 46.91800
C  44.57900 7.30300 46.85000
C  47.57800 9.36800 47.24400
C  44.08200 9.54800 46.65600
O  44.13400 10.75400 46.54300
C  42.84600 8.72200 46.28000
C  41.83200 9.12600 47.26000
O  41.75100 8.76700 48.42100
O  41.05800 10.11300 46.71400
C  39.91900 10.68000 47.45500
H  40.98400 1.94700 46.43500
H  47.11400 0.56300 47.63900
H  48.78300 6.66600 48.04100
H  40.43700 6.90800 46.38200
H  39.98800 4.35600 45.19800
H  38.98300 5.70700 47.58200
H  39.77500 4.26000 48.05500
H  38.49100 4.17800 46.78300
H  40.71000 5.72500 43.56500
H  41.88600 6.97400 43.86900
H  40.34300 8.48300 43.91600
H  38.91300 7.45500 44.30700
H  42.03600 -1.04100 45.66200
H  40.97800 -0.13700 46.76600
H  42.00600 -1.35300 47.49800
H  46.89600 -1.55500 47.79600
H  47.12000 -0.94000 46.16100
H  46.70300 -2.58700 46.31400
H  49.22400 2.17600 47.13600
H  49.41100 4.21700 49.23700
H  50.11500 2.09400 49.61200
H  49.58800 0.64400 48.76300
H  48.36200 1.47800 49.81100
H  51.37600 4.35500 47.78900
H  50.45100 5.74600 47.48700
H  51.53200 4.07900 45.64700
H  50.19600 5.27900 45.34200
H  49.83800 3.52400 45.64800
H  47.18900 10.33800 47.55400
H  48.07800 9.42500 46.27700
H  48.30000 9.06700 48.00300
H  42.53000 8.93700 45.25900
H  39.30200 9.81600 47.70100
H  39.27100 11.38100 46.92900
H  40.25900 11.21100 48.34400
Mg 47.59700 25.85100 27.75700
C  48.54600 27.87900 30.30500
C  46.25700 23.67300 30.00100
C  46.86500 23.73100 25.11300
C  49.28300 27.94800 25.61600
N  47.53200 25.74800 29.93200
C  47.93100 26.76000 30.74000
C  47.59300 26.46900 32.20000
C  46.98400 25.05700 32.05400
C  46.87400 24.78400 30.58600
C  47.57000 23.87500 32.92200
C  46.67900 27.54000 32.93400
C  45.65500 27.08700 34.04200
H  45.50900 27.97700 35.27100
N  46.77300 23.89100 27.66600
C  46.25900 23.18400 28.70700
C  45.67000 22.02400 28.17700
C  45.79200 22.05500 26.76600
C  46.48700 23.25600 26.42300
C  45.03000 20.93000 29.00000
C  45.36200 20.97200 25.75900
O  45.43500 21.06300 24.55900
C  44.91200 19.61700 26.32600
N  48.01500 25.89800 25.67000
C  47.61100 24.91200 24.73100
C  47.90100 25.30400 23.26800
C  48.62200 26.73200 23.54600
C  48.68900 26.86300 25.05000
C  48.70900 24.24500 22.47500
C  48.03100 27.80600 22.62500
C  48.61400 27.76500 21.20800
N  48.67300 27.66500 27.87300
C  49.28500 28.42000 26.91200
C  49.80100 29.64700 27.45100
C  49.48000 29.52500 28.84000
C  48.85600 28.32600 29.02800
C  50.38900 30.67200 26.56800
C  49.55400 30.16800 30.16700
O  49.94900 31.27900 30.46900
C  48.98500 29.07500 31.16200
C  50.11500 28.65600 31.94400
O  51.04800 27.97400 31.55500
O  49.99200 29.09200 33.24900
C  50.99700 28.85000 34.22400
H  45.91700 22.97500 30.76900
H  46.62300 23.06600 24.28100
H  49.71500 28.55200 24.81600
H  48.52900 26.45100 32.75800
H  45.93200 25.05000 32.33800
H  46.99700 23.77700 33.84400
H  48.58900 24.00700 33.28700
H  47.54600 22.87000 32.50000
H  46.25600 28.07400 32.08300
H  47.32500 28.20200 33.51100
H  45.75800 26.08600 34.46200
H  44.66800 27.20500 33.59600
H  45.69700 20.07400 29.10200
H  44.05400 20.59800 28.64700
H  44.91500 21.30600 30.01700
H  45.44700 19.16500 27.16100
H  44.87500 18.91000 25.49800
H  43.84600 19.80800 26.44900
H  47.01400 25.34300 22.63600
H  49.66700 26.57500 23.27900
H  48.38900 23.24300 22.76100
H  49.76800 24.31000 22.72400
H  48.75400 24.38300 21.39500
H  48.05600 28.84300 22.96000
H  46.95600 27.63200 22.61000
H  49.31600 26.94300 21.07500
H  48.99900 28.72500 20.86200
H  47.75100 27.55100 20.57700
H  50.37300 31.50700 27.26800
H  49.79400 30.95200 25.69800
H  51.38500 30.34000 26.27400
H  48.21000 29.40100 31.85500
H  51.91500 28.41100 33.83300
H  50.57600 28.20200 34.99200
H  51.22300 29.76600 34.77100

