158

Mg 1.46600 7.99100 25.68800
C  2.23800 10.14700 28.35300
C  1.30500 5.41100 27.92200
C  0.52900 6.13900 23.22000
C  1.67600 10.67600 23.47600
N  1.77200 7.86200 27.91500
C  2.04400 8.84300 28.84700
C  1.97000 8.26600 30.23500
C  1.99600 6.64900 30.01000
C  1.69000 6.65400 28.53500
C  3.28600 5.88700 30.46400
C  0.70500 8.62500 30.96700
C  0.87100 8.92300 32.44700
H  2.10700 8.53000 33.28000
N  1.00200 5.99800 25.58900
C  0.86100 5.13800 26.67600
C  0.38700 3.88500 26.09300
C  0.23000 4.04300 24.67200
C  0.55200 5.46600 24.40300
C  0.17600 2.68100 26.94500
C  -0.15000 3.02400 23.59500
O  -0.06600 3.33500 22.39100
C  -0.69700 1.68300 24.03100
N  1.39900 8.28700 23.56600
C  0.90200 7.37900 22.78700
C  0.95800 7.79700 21.30900
C  1.12800 9.35400 21.35400
C  1.39000 9.46300 22.89500
C  2.25300 7.17700 20.65500
C  -0.16400 10.13600 20.96400
C  0.03900 11.52900 20.26100
N  1.81800 10.00600 25.84700
C  1.91300 10.99300 24.85600
C  2.20100 12.31000 25.47600
C  2.34900 12.00400 26.86900
C  2.15600 10.59200 26.98000
C  2.24600 13.66400 24.79400
C  2.55300 12.52700 28.17800
O  2.80300 13.65000 28.48300
C  2.38300 11.39200 29.16900
C  3.49800 11.36100 30.16000
O  4.58100 10.91600 29.90200
O  3.16900 11.92400 31.39800
C  4.23800 12.06600 32.41700
H  1.41100 4.57400 28.61600
H  0.21200 5.52400 22.37500
H  1.68500 11.58900 22.87600
H  2.89600 8.42500 30.78800
H  1.22300 6.11300 30.56200
H  3.91400 5.52900 29.64800
H  3.07500 4.95300 30.98500
H  3.89300 6.47900 31.14900
H  -0.14600 7.97100 30.77800
H  0.31700 9.56400 30.57200
H  0.07300 8.28100 32.81900
H  0.61400 9.95300 32.69700
H  0.18000 2.80400 28.02800
H  0.87400 1.87600 26.71400
H  -0.79100 2.23100 26.72500
H  0.15600 1.31900 24.60400
H  -0.92200 1.03800 23.18200
H  -1.54800 1.86700 24.68600
H  -0.00900 7.47200 20.92500
H  1.93500 9.69300 20.70400
H  1.81700 6.23200 20.33000
H  2.97200 7.05500 21.46500
H  2.63900 7.67600 19.76600
H  -0.69600 10.38200 21.88300
H  -0.77000 9.48700 20.33200
H  -0.50000 11.64400 19.32100
H  1.09500 11.77700 20.15200
H  -0.52000 12.25800 20.84800
H  2.48600 13.49300 23.74500
H  2.90500 14.28400 25.40300
H  1.23700 14.07600 24.82600
H  1.42800 11.56100 29.66600
H  4.38500 13.10900 32.69900
H  5.21200 11.64600 32.16500
H  3.83400 11.49900 33.25600
Mg -9.94600 17.25300 42.49200
C  -6.51400 17.39600 42.59800
C  -9.89300 20.66700 41.60200
C  -13.18100 17.12000 41.71100
C  -9.69500 13.87800 42.56100
N  -8.43000 18.84800 42.05600
C  -7.09000 18.63700 42.32400
C  -6.29400 19.92900 42.29600
C  -7.43100 20.95000 41.95600
C  -8.68600 20.13900 41.92100
C  -7.55000 22.21800 42.80200
C  -5.03400 19.92300 41.26600
C  -4.55700 21.32100 40.87700
H  -4.40000 21.65500 39.41300
N  -11.32800 18.66200 41.77200
C  -11.12200 19.99800 41.58700
C  -12.31900 20.61500 41.14200
C  -13.36900 19.71900 41.29800
C  -12.68600 18.45800 41.60600
C  -12.38100 22.14100 40.81100
C  -14.90000 20.05400 41.16900
O  -15.27300 21.21100 40.93500
C  -15.87200 18.98100 41.47400
N  -11.22100 15.67400 41.92300
C  -12.56900 15.88900 41.91700
C  -13.38200 14.53900 42.07200
C  -12.24800 13.55200 42.32600
C  -10.96900 14.41300 42.24400
C  -14.50300 14.61400 43.16000
C  -12.26300 12.17700 41.54100
C  -12.14500 10.95500 42.46800
N  -8.55500 15.89500 42.62000
C  -8.51500 14.51800 42.71400
C  -7.19600 13.98400 42.89300
C  -6.45100 15.15300 42.96700
C  -7.27700 16.23000 42.70200
C  -6.79200 12.55900 43.04900
C  -5.10500 15.51300 43.11600
O  -4.12300 14.86700 43.43000
C  -5.05900 17.04200 42.90400
C  -4.67200 17.54000 44.22500
O  -5.46100 17.81400 45.14400
O  -3.30100 17.52800 44.40400
C  -2.99400 17.83800 45.79600
H  -9.82100 21.72700 41.35000
H  -14.26800 17.02700 41.74200
H  -9.71300 12.83400 42.88200
H  -5.89500 19.99900 43.30800
H  -7.33200 21.22800 40.90700
H  -6.90400 22.33300 43.67200
H  -8.54100 22.32800 43.24100
H  -7.26200 23.02400 42.12700
H  -5.24000 19.19700 40.47900
H  -4.17200 19.61800 41.85900
H  -3.52700 21.42300 41.21700
H  -5.00200 22.07800 41.52200
H  -11.97400 22.58300 41.72100
H  -13.39800 22.46100 40.58400
H  -11.83600 22.38200 39.89900
H  -15.79100 18.08600 40.85700
H  -16.82800 19.44600 41.23500
H  -15.75500 18.56700 42.47500
H  -13.80600 14.40200 41.07800
H  -12.29400 13.26900 43.37800
H  -14.49500 13.61400 43.59400
H  -15.40200 14.70700 42.55000
H  -14.48400 15.37400 43.94100
H  -11.33200 12.17200 40.97500
H  -13.16300 12.10300 40.93100
H  -13.10600 10.46700 42.62500
H  -11.68800 11.29000 43.40000
H  -11.43500 10.25700 42.02500
H  -6.03400 12.16900 42.37000
H  -7.57300 11.82300 42.85900
H  -6.42300 12.39500 44.06200
H  -4.36100 17.23200 42.08800
H  -3.42300 17.03100 46.39000
H  -3.54700 18.73900 46.06200
H  -1.91600 17.84200 45.95600

