158

Mg 17.18400 -1.33800 27.25500
C  16.26500 0.98500 29.62900
C  19.21000 -2.78000 29.61700
C  18.47600 -3.42000 24.79300
C  15.71000 0.59200 24.76300
N  17.80300 -0.84700 29.30700
C  17.13900 0.02600 30.20100
C  17.57600 -0.15700 31.62300
C  18.73100 -1.24000 31.49400
C  18.55700 -1.69000 30.02500
C  20.20700 -0.83300 31.90400
C  16.46200 -0.54700 32.58600
C  16.71600 -0.91700 34.06700
H  17.99400 -0.43200 34.76500
N  18.53300 -2.99100 27.25100
C  19.22500 -3.44300 28.33300
C  19.98700 -4.58600 27.87900
C  19.76400 -4.79500 26.51900
C  18.90800 -3.73100 26.10000
C  20.78800 -5.39100 28.93900
C  20.34000 -5.86300 25.56500
O  20.06800 -5.88800 24.34100
C  21.32800 -6.91900 26.06700
N  17.07100 -1.37800 25.09900
C  17.68100 -2.37500 24.36600
C  17.35700 -2.06300 22.88500
C  16.38100 -0.93500 22.87200
C  16.35900 -0.54700 24.33800
C  18.63800 -1.66000 22.10400
C  14.92800 -1.32900 22.43700
C  14.58600 -0.97800 20.94800
N  16.14700 0.43300 27.11800
C  15.61500 1.08900 26.07200
C  14.89500 2.20400 26.60200
C  15.09500 2.17600 28.02700
C  15.92200 1.10700 28.27100
C  14.09700 3.19700 25.76500
C  14.88400 2.91000 29.28700
O  14.23600 3.91200 29.47800
C  15.58900 2.11600 30.43600
C  16.46100 3.12000 31.14600
O  17.41000 3.70600 30.67900
O  15.95900 3.18900 32.48200
C  16.74100 4.11400 33.28800
H  19.78100 -3.15400 30.46900
H  18.87100 -4.14000 24.07300
H  15.28900 1.16800 23.93600
H  17.98900 0.76200 32.03700
H  18.49500 -2.11900 32.09400
H  20.12700 -0.03300 32.64000
H  20.73000 -0.49900 31.00800
H  20.79200 -1.60900 32.39800
H  15.95000 -1.34400 32.04600
H  15.74500 0.27200 32.64100
H  16.67600 -2.00300 34.14300
H  15.80600 -0.61400 34.58400
H  21.85100 -5.36500 28.70000
H  20.33700 -6.37200 28.78900
H  20.50200 -4.97700 29.90600
H  21.42500 -7.62500 25.24200
H  20.91300 -7.57100 26.83500
H  22.20100 -6.47500 26.54500
H  17.00400 -2.98500 22.42400
H  16.85500 -0.13800 22.30000
H  19.21100 -1.03700 22.79200
H  18.37000 -1.10200 21.20700
H  19.26400 -2.53100 21.91100
H  14.13600 -0.99100 23.10600
H  14.87300 -2.41600 22.50200
H  13.84900 -0.17700 21.00000
H  14.32500 -1.87300 20.38400
H  15.45000 -0.41500 20.59400
H  14.75200 3.89200 25.23800
H  13.56300 3.87400 26.43100
H  13.47800 2.65600 25.04900
H  14.93900 1.62400 31.15900
H  16.60700 5.15000 32.97700
H  17.76400 3.82800 33.04600
H  16.53700 3.96400 34.34800
Mg 47.04900 15.79500 28.22300
C  44.92400 15.60100 31.03200
C  49.27000 17.37300 30.43400
C  49.16300 16.26300 25.63900
C  44.64900 14.48700 26.27900
N  47.05900 16.45400 30.50500
C  46.12800 16.15300 31.43000
C  46.59600 16.41500 32.87800
C  47.91100 17.19900 32.57600
C  48.12600 16.99600 31.09000
C  47.96200 18.72200 32.99100
C  46.66800 15.12100 33.77700
C  46.25700 15.39000 35.25900
H  46.10800 16.82000 35.78500
N  48.98000 16.58600 28.04800
C  49.75800 17.10900 29.07600
C  51.04400 17.29400 28.54100
C  51.03600 17.06300 27.09400
C  49.67400 16.58300 26.86500
C  52.18300 17.75000 29.33800
C  52.17500 17.18800 26.05100
O  52.19600 16.75900 24.89500
C  53.51600 17.80800 26.48800
N  46.97600 15.36300 26.27800
C  47.88600 15.74300 25.36100
C  47.51900 15.39400 23.92300
C  46.11900 14.76400 24.16200
C  45.88400 14.79500 25.68800
C  47.64100 16.52400 22.86000
C  46.01300 13.29200 23.72000
C  45.08400 13.15200 22.59000
N  45.12700 15.17000 28.53900
C  44.28200 14.58100 27.62300
C  43.10100 14.18600 28.31900
C  43.30400 14.54700 29.64900
C  44.55300 15.13700 29.73600
C  41.95500 13.51400 27.63300
C  42.69500 14.54800 31.03400
O  41.66000 14.08400 31.40000
C  43.82800 15.12000 31.99200
C  43.19400 16.26500 32.79800
O  43.21800 17.47600 32.52100
O  42.55800 15.66900 33.90200
C  41.90100 16.65500 34.77000
H  49.98500 17.96900 31.00600
H  49.73900 16.61400 24.77900
H  43.86200 14.08600 25.63700
H  45.84000 17.08000 33.29400
H  48.66900 16.67400 33.15700
H  46.95500 18.99700 33.30300
H  48.27700 19.35000 32.15800
H  48.73000 18.73900 33.76500
H  47.70300 14.80400 33.90800
H  46.21500 14.30200 33.21900
H  46.92600 14.84100 35.92100
H  45.29400 14.88300 35.32800
H  53.13400 17.36800 28.96700
H  52.02900 17.33800 30.33600
H  52.17600 18.84000 29.34000
H  53.50900 18.70300 27.11000
H  54.10000 18.02700 25.59500
H  54.09200 17.02500 26.98100
H  48.19400 14.59500 23.61600
H  45.40000 15.42300 23.67400
H  47.35200 17.50100 23.24700
H  47.07400 16.16200 22.00200
H  48.66300 16.61800 22.49500
H  45.74400 12.59700 24.51600
H  47.02500 13.02400 23.41500
H  45.47700 12.39700 21.90900
H  45.01200 14.11100 22.07700
H  44.10900 12.89800 23.00500
H  41.74200 14.08000 26.72700
H  41.02800 13.48600 28.20500
H  42.22700 12.50000 27.34000
H  44.08800 14.26700 32.61800
H  40.95300 17.03500 34.39100
H  42.48000 17.57400 34.86700
H  41.71700 16.25000 35.76500

