158

Mg 36.22500 49.52700 25.16700
C  36.38200 47.69400 28.11400
C  35.19800 52.21400 26.87600
C  35.96800 51.12700 22.17900
C  37.78700 46.86700 23.55100
N  35.71900 49.77400 27.21500
C  35.97000 48.99200 28.32800
C  35.80200 49.69000 29.59100
C  35.43600 51.14900 29.18500
C  35.49900 51.08500 27.65300
C  34.05600 51.60600 29.79700
C  37.08300 49.55000 30.48100
C  36.84000 48.94200 31.86900
H  35.46700 49.01800 32.52600
N  35.58200 51.39800 24.60600
C  35.23100 52.42600 25.47500
C  34.75700 53.56700 24.73200
C  35.03600 53.26900 23.33700
C  35.57900 51.86900 23.33500
C  34.08500 54.81400 25.31800
C  34.79800 54.19200 22.10500
O  35.15500 53.78000 20.99900
C  34.13000 55.47300 22.26900
N  36.64200 48.99700 23.12400
C  36.53500 49.85700 22.06600
C  36.94400 49.22200 20.69800
C  37.82800 48.06200 21.29600
C  37.48500 47.97500 22.77200
C  35.72700 48.82600 19.87400
C  39.37400 48.09200 20.98700
C  40.41400 48.57500 22.02000
N  36.85200 47.66600 25.62000
C  37.48400 46.69800 24.87100
C  37.73100 45.53800 25.69500
C  37.24400 45.81400 26.94200
C  36.73300 47.17200 26.88600
C  38.39100 44.29800 25.26200
C  37.08900 45.28600 28.28500
O  37.34800 44.22500 28.79400
C  36.54800 46.53300 29.07800
C  35.27200 46.18100 29.79200
O  34.11600 46.34900 29.36900
O  35.50800 45.54700 30.94400
C  34.43900 45.13800 31.77100
H  35.06200 53.16300 27.40000
H  35.87100 51.58300 21.19100
H  38.49200 46.26800 22.96900
H  34.92500 49.25800 30.07200
H  36.13600 51.90500 29.54300
H  33.32200 51.49000 29.00000
H  34.00100 52.65200 30.10000
H  33.80200 50.94500 30.62500
H  37.59600 50.50800 30.55800
H  37.76400 48.91200 29.91800
H  37.54700 49.51600 32.46800
H  37.17000 47.90700 31.78500
H  33.05900 55.06500 25.04600
H  34.68700 55.69100 25.08300
H  34.16000 54.71400 26.40100
H  34.94200 56.18200 22.43000
H  33.41200 55.51700 23.08800
H  33.66800 55.75900 21.32400
H  37.64700 49.83100 20.12900
H  37.49400 47.09300 20.92400
H  34.85500 49.18000 20.42300
H  35.55000 47.76500 19.69700
H  35.88700 49.29300 18.90200
H  39.51200 48.68900 20.08500
H  39.53400 47.03200 20.78900
H  41.23100 49.17900 21.62400
H  40.85500 47.67200 22.44300
H  39.83200 49.13200 22.75400
H  39.11900 44.45700 24.46700
H  37.59700 43.59800 25.00300
H  38.86800 43.98100 26.18900
H  37.26000 46.87600 29.82900
H  34.08600 44.12800 31.56200
H  33.65600 45.89600 31.73200
H  34.78300 44.95500 32.78900
Mg -1.47000 34.17400 25.70000
C  -3.15500 32.37400 28.41300
C  -0.19700 36.28200 28.09900
C  -0.16100 35.91200 23.18800
C  -2.99200 32.08500 23.50200
N  -1.74600 34.27500 28.02200
C  -2.33300 33.39100 28.89600
C  -1.94200 33.79900 30.30700
C  -1.07500 35.08900 30.18700
C  -1.02400 35.25100 28.67300
C  -1.54800 36.46400 30.88600
C  -1.28400 32.60000 31.09800
C  -1.71400 32.47900 32.63400
H  -0.75800 32.27300 33.78000
N  -0.24300 35.87400 25.70900
C  0.16300 36.55900 26.77900
C  1.01200 37.69300 26.34400
C  1.07300 37.55900 24.86900
C  0.25200 36.38700 24.51800
C  1.67900 38.72300 27.20700
C  1.76000 38.46300 23.87600
O  1.87900 38.23000 22.68200
C  2.42400 39.80200 24.29200
N  -1.62100 34.00300 23.65900
C  -0.99600 34.84300 22.78700
C  -1.40900 34.46300 21.34700
C  -1.85500 33.03900 21.53500
C  -2.14700 32.99700 23.02200
C  -2.29100 35.48700 20.58200
C  -0.79500 31.91300 21.09200
C  0.60300 32.02800 21.64800
N  -2.91500 32.65800 25.87000
C  -3.45900 31.94300 24.85400
C  -4.42800 31.02700 25.40300
C  -4.37700 31.15800 26.79300
C  -3.36500 32.12200 27.03300
C  -5.35400 30.17000 24.55100
C  -4.98500 30.81100 28.02700
O  -5.97700 30.17700 28.36000
C  -4.20700 31.48500 29.15300
C  -5.19500 32.13200 30.08200
O  -5.92400 33.06600 29.76300
O  -5.34100 31.42000 31.27100
C  -6.38400 31.90500 32.22400
H  0.16000 36.94200 28.89300
H  0.20600 36.45500 22.31500
H  -3.49400 31.47700 22.74600
H  -2.91700 34.05100 30.72400
H  -0.09000 34.90000 30.61300
H  -0.66700 37.07300 31.08800
H  -2.14200 36.40000 31.79800
H  -2.15100 37.06700 30.20700
H  -0.20600 32.75200 31.03800
H  -1.45100 31.68000 30.53800
H  -2.33900 31.58700 32.65300
H  -2.39700 33.29900 32.85500
H  1.38300 38.54100 28.24000
H  1.34600 39.75900 27.15100
H  2.76300 38.65900 27.11300
H  2.56700 40.41100 23.39900
H  3.35300 39.58400 24.81900
H  1.72000 40.28300 24.97100
H  -0.46800 34.46000 20.79600
H  -2.72100 32.87900 20.89200
H  -1.77700 35.81500 19.67900
H  -2.32200 36.33300 21.26900
H  -3.25500 35.06700 20.29600
H  -0.72000 31.93100 20.00400
H  -1.18800 30.95600 21.43500
H  1.29200 32.66400 21.09200
H  1.02600 31.03000 21.76400
H  0.45400 32.46800 22.63400
H  -5.16000 29.11100 24.71900
H  -5.29600 30.41300 23.49000
H  -6.37900 30.46500 24.77600
H  -3.69100 30.67800 29.67400
H  -5.73700 32.46300 32.90000
H  -6.91800 31.06900 32.67500
H  -7.13900 32.62200 31.90200

