158

Mg 17.25300 -1.35400 27.54600
C  16.24700 0.79900 30.18500
C  19.25400 -3.04200 29.78200
C  18.73000 -2.77800 24.95600
C  15.80800 0.96700 25.38000
N  17.76200 -1.12900 29.70400
C  17.12100 -0.26200 30.54300
C  17.69900 -0.47100 32.06200
C  18.64700 -1.71900 31.88000
C  18.59100 -1.95300 30.35600
C  20.04200 -1.63200 32.50500
C  16.58000 -0.64100 33.24100
C  16.97100 0.13400 34.57500
H  18.43700 0.36500 34.87800
N  18.74200 -2.81200 27.35800
C  19.31800 -3.47500 28.38900
C  20.19500 -4.51400 27.84800
C  20.05100 -4.45600 26.43100
C  19.12700 -3.37500 26.18500
C  20.89500 -5.47900 28.78900
C  20.73200 -5.29200 25.37400
O  20.49200 -5.21800 24.16600
C  21.90300 -6.11200 25.76300
N  17.27000 -0.97100 25.40900
C  17.99300 -1.67700 24.57200
C  17.79800 -1.22900 23.10300
C  16.67700 -0.17700 23.27800
C  16.56800 -0.04700 24.76500
C  19.00900 -0.67800 22.26600
C  15.31500 -0.41700 22.58100
C  15.20100 0.09700 21.09100
N  16.04000 0.41100 27.70700
C  15.56900 1.26800 26.76700
C  14.79500 2.36100 27.28400
C  15.00100 2.19300 28.65700
C  15.86600 1.02900 28.87000
C  14.02100 3.51100 26.49600
C  14.67900 2.72800 29.93000
O  13.93400 3.62800 30.34900
C  15.53600 1.81800 30.96200
C  16.52900 2.80900 31.69300
O  17.68100 3.06800 31.29700
O  15.95600 3.22200 32.91000
C  16.80700 4.09200 33.79500
H  19.79600 -3.60600 30.54400
H  19.11100 -3.30900 24.08200
H  15.26900 1.75600 24.85000
H  18.24900 0.45500 32.23100
H  18.16900 -2.51900 32.44400
H  20.11800 -0.89400 33.30400
H  20.61600 -1.39400 31.60900
H  20.34400 -2.60800 32.88500
H  16.54600 -1.71300 33.43600
H  15.59300 -0.32000 32.91000
H  16.39800 -0.35500 35.36200
H  16.56500 1.14200 34.66300
H  21.94900 -5.65000 28.57200
H  20.32100 -6.39400 28.64300
H  20.74300 -5.30800 29.85400
H  22.31800 -6.62400 24.89500
H  21.65200 -6.88600 26.48800
H  22.74700 -5.50900 26.09900
H  17.31400 -1.98600 22.48600
H  16.98400 0.79100 22.88100
H  19.84500 -1.12200 22.80700
H  19.06800 0.41000 22.28900
H  19.06500 -0.98000 21.22000
H  14.52200 0.05600 23.15900
H  15.10800 -1.48400 22.66000
H  14.33900 0.76100 21.03300
H  15.01500 -0.76600 20.45300
H  16.07100 0.66900 20.76800
H  14.01600 3.22700 25.44400
H  14.52000 4.47700 26.58000
H  13.03300 3.67400 26.92600
H  14.86900 1.55700 31.78400
H  17.77100 4.45300 33.43600
H  17.07500 3.47000 34.64800
H  16.21400 4.89100 34.24200
Mg -10.42000 16.68000 42.95200
C  -7.06200 17.41700 43.39700
C  -11.00400 20.24300 42.45000
C  -13.75100 16.13300 42.39300
C  -9.79400 13.40000 42.84600
N  -9.23000 18.55200 42.84400
C  -7.86200 18.55800 43.11800
C  -7.28500 19.98300 42.82800
C  -8.57700 20.83700 42.90500
C  -9.69800 19.83000 42.72700
C  -8.75900 21.53500 44.26700
C  -6.56800 19.93900 41.44400
C  -5.20500 20.70400 41.50300
H  -4.09700 20.05700 40.70400
N  -12.17000 18.02600 42.46800
C  -12.19800 19.41100 42.42300
C  -13.55700 19.77200 42.19300
C  -14.35700 18.63600 42.03100
C  -13.43100 17.51900 42.26300
C  -13.87300 21.24700 42.06000
C  -15.82500 18.54600 41.65800
O  -16.49000 19.56200 41.69500
C  -16.60700 17.20400 41.33200
N  -11.61400 15.05900 42.64400
C  -12.98200 15.03900 42.62600
C  -13.54500 13.65600 42.66300
C  -12.22900 12.77000 42.47100
C  -11.13800 13.78400 42.64400
C  -14.38000 13.28100 44.02900
C  -12.10300 12.16300 41.02700
C  -11.36300 10.83100 40.99700
N  -8.77600 15.51300 43.07800
C  -8.64400 14.16900 43.12800
C  -7.22600 13.85100 43.38100
C  -6.58900 15.11800 43.50400
C  -7.58000 16.09900 43.25700
C  -6.61500 12.45100 43.49200
C  -5.30400 15.77200 43.66000
O  -4.23400 15.25100 43.78800
C  -5.57000 17.28300 43.58000
C  -5.02600 17.86500 44.83500
O  -5.44400 17.58000 45.93600
O  -4.05600 18.77100 44.58900
C  -3.77200 19.68900 45.68300
H  -11.15200 21.32200 42.37800
H  -14.80400 15.85400 42.31800
H  -9.43200 12.37000 42.82100
H  -6.67000 20.10100 43.72000
H  -8.67000 21.51700 42.05800
H  -9.16600 20.79600 44.95700
H  -9.49600 22.32900 44.14600
H  -7.85200 21.93000 44.72400
H  -7.18200 20.53700 40.77000
H  -6.51600 18.91400 41.07700
H  -4.83200 20.91400 42.50500
H  -5.56200 21.66800 41.14200
H  -14.59700 21.53200 41.29700
H  -13.09700 21.92300 41.70100
H  -14.33800 21.61000 42.97600
H  -17.45400 17.55500 40.74300
H  -16.96300 16.82600 42.29000
H  -16.07500 16.44600 40.75700
H  -14.20800 13.36800 41.84600
H  -12.08300 11.98700 43.21500
H  -14.22000 12.37100 44.60700
H  -15.40600 13.28700 43.66000
H  -14.33200 14.09000 44.75800
H  -11.62100 12.90700 40.39200
H  -13.10400 11.88600 40.69700
H  -12.13400 10.06200 40.96800
H  -10.60500 10.70800 41.77000
H  -10.82100 10.71700 40.05800
H  -7.24500 11.76100 42.93100
H  -6.50300 12.06700 44.50600
H  -5.62200 12.39800 43.04500
H  -5.19500 17.80800 42.70100
H  -4.22100 20.60900 45.30800
H  -2.70500 19.87800 45.80000
H  -4.17600 19.50300 46.67800

