158

Mg -12.04200 37.94000 42.79800
C  -10.55300 35.05200 41.90500
C  -9.72700 39.74400 41.22700
C  -14.12300 40.56100 43.03100
C  -14.72400 35.95600 44.21100
N  -10.28000 37.43900 41.84800
C  -9.89500 36.19000 41.38400
C  -8.75100 36.19500 40.29300
C  -8.32000 37.68400 40.45700
C  -9.47400 38.37500 41.24400
C  -6.89600 37.86900 41.15500
C  -9.36300 36.00600 38.90300
C  -8.33100 35.55500 37.83700
H  -7.73500 36.61200 36.91300
N  -11.97300 39.88700 42.08700
C  -10.86000 40.50700 41.57100
C  -11.12900 41.84000 41.37200
C  -12.46900 42.15700 41.80800
C  -12.91300 40.82500 42.37900
C  -10.20400 42.66000 40.64300
C  -13.30700 43.45300 41.63700
O  -12.75100 44.34900 41.08500
C  -14.69800 43.60300 42.03500
N  -14.19200 38.26700 43.56900
C  -14.78400 39.43000 43.58800
C  -16.03100 39.44500 44.48900
C  -16.39800 37.88100 44.55000
C  -15.00400 37.35100 44.14400
C  -15.84700 40.02100 45.86900
C  -17.65600 37.58900 43.59800
C  -18.30000 36.30800 43.84100
N  -12.49100 35.90900 43.13800
C  -13.55000 35.26700 43.78300
C  -13.20300 33.83500 43.89800
C  -11.99000 33.66900 43.19600
C  -11.76000 35.01200 42.66300
C  -13.96200 32.71200 44.62900
C  -10.96600 32.79400 42.78700
O  -10.80800 31.62100 42.93400
C  -10.09200 33.61900 41.72700
C  -8.61300 33.39400 42.03400
O  -7.85400 32.76000 41.32000
O  -8.15500 34.29800 42.97500
C  -6.76200 34.25100 43.37600
H  -8.91200 40.30700 40.76800
H  -14.67900 41.46400 43.29000
H  -15.50300 35.39900 44.73600
H  -8.00400 35.46700 40.61000
H  -8.25900 38.12200 39.46000
H  -6.96600 37.76000 42.23700
H  -6.49800 38.85600 40.91700
H  -6.16700 37.17900 40.73100
H  -9.82200 36.93200 38.55900
H  -10.20500 35.31800 38.97200
H  -8.74500 34.64200 37.41100
H  -7.43500 35.25000 38.37900
H  -9.19100 42.25900 40.63600
H  -10.19500 43.55000 41.27300
H  -10.57700 43.09200 39.71500
H  -15.25300 42.75900 41.62600
H  -15.12700 44.56700 41.76300
H  -14.57000 43.59600 43.11800
H  -16.85000 40.03700 44.08100
H  -16.65600 37.58700 45.56700
H  -16.57700 39.81000 46.65000
H  -15.95500 41.10500 45.83500
H  -14.87800 39.72300 46.27000
H  -17.31400 37.61000 42.56300
H  -18.34200 38.43300 43.53100
H  -19.33300 36.32500 43.49400
H  -18.24100 35.98300 44.88000
H  -17.85700 35.48600 43.27900
H  -14.62000 32.17100 43.94800
H  -14.61700 33.13400 45.39200
H  -13.43800 31.91400 45.15400
H  -10.42300 33.27000 40.75000
H  -6.17800 34.88900 42.71300
H  -6.39500 33.22500 43.39400
H  -6.58500 34.72500 44.34100
Mg -12.90200 16.41700 42.63100
C  -10.17900 14.06300 42.33000
C  -10.92500 18.73900 41.08500
C  -15.54500 18.16000 42.11800
C  -14.64300 13.76900 44.00900
N  -10.85800 16.33400 41.69100
C  -9.89100 15.29700 41.80300
C  -8.58800 15.85900 41.19300
C  -8.79900 17.40900 41.08900
C  -10.30700 17.47300 41.33800
C  -7.87100 18.31200 42.07700
C  -8.12000 15.22300 39.83100
C  -6.56600 15.11900 39.61400
H  -6.04500 15.74900 38.29300
N  -13.14100 18.32200 41.87600
C  -12.22800 19.15200 41.29100
C  -12.83200 20.40100 41.07900
C  -14.27300 20.16000 41.15100
C  -14.38000 18.85700 41.77300
C  -12.00400 21.52400 40.63600
C  -15.30500 21.12700 40.58300
O  -14.95200 22.22500 40.07500
C  -16.79900 20.79400 40.63800
N  -14.88500 16.01300 42.99100
C  -15.82400 16.86100 42.65100
C  -17.19800 16.30100 42.95700
C  -16.90200 15.02300 43.77000
C  -15.37800 14.91100 43.58200
C  -18.09300 17.38500 43.69700
C  -17.56800 13.76600 43.28800
C  -17.92100 12.71700 44.26700
N  -12.50200 14.37300 43.09300
C  -13.30600 13.43200 43.72900
C  -12.61000 12.24300 44.01800
C  -11.36300 12.46300 43.42400
C  -11.37600 13.77100 42.89800
C  -13.14500 10.99600 44.63800
C  -10.11100 11.76300 43.11700
O  -9.74700 10.64400 43.39200
C  -9.30400 12.83700 42.28900
C  -7.96400 12.99900 43.00600
O  -7.76900 13.29000 44.19400
O  -6.96100 12.78500 42.15400
C  -5.67400 13.17800 42.70800
H  -10.17500 19.45100 40.73300
H  -16.45500 18.76300 42.11600
H  -15.24700 13.03400 44.54500
H  -7.92200 15.65300 42.03100
H  -8.66000 17.74600 40.06200
H  -8.46700 19.08200 42.56700
H  -7.13400 18.77100 41.41800
H  -7.33300 17.83100 42.89500
H  -8.56000 15.88000 39.08100
H  -8.50600 14.21700 39.66400
H  -6.47700 14.05200 39.81800
H  -5.97700 15.69600 40.32800
H  -12.39700 22.53800 40.55700
H  -11.66400 21.27800 39.63000
H  -11.04700 21.58800 41.15400
H  -17.12200 20.79700 41.67900
H  -17.03900 19.79200 40.28000
H  -17.30400 21.54900 40.03600
H  -17.67800 16.05800 42.00900
H  -17.14000 15.12400 44.82900
H  -17.52600 18.24100 44.06200
H  -18.49500 16.98500 44.62800
H  -18.89600 17.70600 43.03300
H  -16.90400 13.43100 42.49100
H  -18.49600 14.07200 42.80500
H  -17.54100 12.83300 45.28200
H  -17.63700 11.74000 43.87700
H  -19.00300 12.60300 44.32400
H  -12.43100 10.49200 45.28900
H  -13.47000 10.25000 43.91200
H  -14.08400 11.17600 45.16200
H  -9.13400 12.52300 41.25900
H  -5.05200 12.29800 42.87100
H  -5.51000 13.84400 43.55600
H  -5.24900 13.71300 41.85900

