158

Mg -11.88500 16.30900 40.76500
C  -8.72000 14.83400 40.34700
C  -10.52900 19.22100 39.31900
C  -15.04300 17.64600 40.45900
C  -13.25300 13.02400 40.89100
N  -9.78200 16.92000 39.93200
C  -8.66300 16.21000 40.05100
C  -7.55600 17.04900 39.44000
C  -8.11900 18.46600 39.29500
C  -9.55500 18.20800 39.54200
C  -7.44400 19.55200 40.14300
C  -7.06500 16.45800 38.11500
C  -5.48500 16.49500 37.86800
H  -5.01700 17.07600 36.56500
N  -12.65500 18.19500 40.10400
C  -11.90100 19.20500 39.60100
C  -12.76400 20.37000 39.27700
C  -14.10500 19.96500 39.67900
C  -13.99600 18.60300 40.20600
C  -12.21100 21.69100 38.83500
C  -15.34100 20.88000 39.56700
O  -15.23600 22.04300 39.21200
C  -16.70500 20.36800 39.93400
N  -13.84200 15.41700 40.53200
C  -14.96400 16.15200 40.55600
C  -16.21700 15.26100 40.50800
C  -15.65700 13.84300 40.82800
C  -14.14200 14.12500 40.80700
C  -17.37200 15.73800 41.39600
C  -16.17900 12.73700 39.81100
C  -17.01000 11.64900 40.45900
N  -11.20500 14.31500 40.76900
C  -11.87600 13.15100 40.86200
C  -10.89000 12.04000 40.87000
C  -9.67100 12.69200 40.72200
C  -9.90000 14.05000 40.62200
C  -11.13900 10.55600 41.04900
C  -8.22400 12.40600 40.58800
O  -7.62000 11.30800 40.62000
C  -7.58500 13.77300 40.26900
C  -6.60100 13.92900 41.36900
O  -6.78900 14.10600 42.57500
O  -5.39500 14.10200 40.79400
C  -4.26600 14.44100 41.63000
H  -10.05700 20.12800 38.93500
H  -16.05100 18.06600 40.48300
H  -13.72600 12.04200 40.95800
H  -6.69400 17.17600 40.09600
H  -8.01000 18.86700 38.28700
H  -6.39200 19.30200 40.27700
H  -8.00900 19.72700 41.05900
H  -7.48900 20.49000 39.58900
H  -7.47400 17.12200 37.35300
H  -7.41700 15.44800 37.90000
H  -5.15700 15.46500 38.01000
H  -5.00400 17.10000 38.63700
H  -11.45000 21.54400 38.06800
H  -11.66100 22.21800 39.61500
H  -12.86900 22.48900 38.49300
H  -17.37600 21.22300 39.85500
H  -16.69000 20.02300 40.96800
H  -17.04600 19.66100 39.17900
H  -16.54300 15.36200 39.47300
H  -15.87100 13.61400 41.87200
H  -17.06200 16.15000 42.35600
H  -17.91000 14.83200 41.67600
H  -18.09800 16.34600 40.85600
H  -15.37700 12.24000 39.26500
H  -16.84400 13.18300 39.07200
H  -16.64300 10.68900 40.09500
H  -18.06100 11.75700 40.19000
H  -16.86400 11.58600 41.53700
H  -11.35600 10.36400 42.09900
H  -10.29700 9.92900 40.75300
H  -12.08800 10.38400 40.54200
H  -7.12200 13.83800 39.28400
H  -4.59300 14.65400 42.64800
H  -3.93100 15.41900 41.28700
H  -3.51700 13.64800 41.63500
Mg -5.88400 25.33100 25.52800
C  -4.13200 26.88700 28.27900
C  -7.21100 23.21300 27.67700
C  -6.73800 23.53500 22.82100
C  -3.55600 27.22500 23.42400
N  -5.61300 25.03600 27.85800
C  -5.05900 25.91600 28.73600
C  -5.55600 25.73700 30.12200
C  -6.35000 24.39200 29.95100
C  -6.42100 24.18400 28.40800
C  -5.75800 23.25700 30.85400
C  -6.38500 26.92200 30.70000
C  -6.36400 27.10900 32.22100
H  -5.76200 25.99500 33.11000
N  -7.07700 23.74300 25.26500
C  -7.39300 22.86800 26.32600
C  -8.14600 21.81700 25.72800
C  -8.09900 21.86400 24.33800
C  -7.28500 23.05400 24.04800
C  -8.83700 20.76900 26.53700
C  -8.61000 20.99600 23.24700
O  -8.59100 21.26700 22.07600
C  -9.28100 19.68800 23.70400
N  -5.25500 25.40700 23.45300
C  -5.91000 24.61300 22.54100
C  -5.33000 24.88300 21.12600
C  -4.42000 26.15800 21.26100
C  -4.43000 26.29000 22.80500
C  -4.80800 23.69700 20.30600
C  -4.81900 27.36600 20.39100
C  -4.09200 27.53400 19.05500
N  -4.27000 26.89900 25.69200
C  -3.47300 27.55800 24.77900
C  -2.57600 28.45200 25.48300
C  -2.82100 28.22700 26.84000
C  -3.79800 27.31700 26.91700
C  -1.56600 29.42200 24.94400
C  -2.39000 28.54800 28.18600
O  -1.52900 29.36000 28.50400
C  -3.27100 27.64700 29.17300
C  -2.31700 26.75400 29.93600
O  -1.61000 25.85300 29.45600
O  -2.34000 27.09900 31.30400
C  -1.48500 26.33700 32.14100
H  -7.59700 22.58300 28.48000
H  -7.04200 22.94800 21.95100
H  -2.88300 27.70700 22.71300
H  -4.71800 25.56400 30.79700
H  -7.42100 24.54500 30.07700
H  -5.50800 22.42100 30.20100
H  -6.55000 23.07100 31.57900
H  -4.82100 23.54100 31.33400
H  -7.46500 26.78300 30.64200
H  -6.11000 27.85600 30.21000
H  -7.42100 27.14500 32.48400
H  -5.88900 28.07400 32.39600
H  -9.88200 20.87500 26.24400
H  -8.97600 21.01400 27.59000
H  -8.35500 19.80100 26.40000
H  -9.42600 19.12200 22.78400
H  -10.24400 19.92600 24.15600
H  -8.65400 19.23300 24.47100
H  -6.23700 25.10900 20.56600
H  -3.41000 25.81100 21.04400
H  -4.96700 22.74000 20.80300
H  -3.76200 23.70300 20.00200
H  -5.34500 23.71600 19.35800
H  -4.62800 28.32000 20.88300
H  -5.90000 27.42200 20.26400
H  -4.81500 27.67300 18.25100
H  -3.44000 26.67700 18.88400
H  -3.51700 28.43600 19.26500
H  -2.14200 30.22400 24.48200
H  -0.86100 28.83800 24.35200
H  -1.05000 29.85900 25.79900
H  -3.77700 28.34700 29.83700
H  -0.51700 26.43900 31.65000
H  -1.71800 25.27400 32.20200
H  -1.33900 26.78300 33.12500

