158

Mg 8.96500 3.66400 27.84500
C  10.31600 2.08700 30.78200
C  7.31300 5.72600 29.84400
C  7.53900 4.76800 25.00000
C  10.31800 1.00000 26.03800
N  8.71100 3.77500 30.09000
C  9.48100 3.13100 31.09900
C  9.16000 3.75000 32.45000
C  8.13900 4.86800 32.11400
C  7.93800 4.72200 30.60800
C  6.73800 4.82700 32.76500
C  10.44700 4.36700 33.09700
C  10.32400 5.04100 34.49200
H  10.98500 4.23400 35.61500
N  7.68000 5.13800 27.41100
C  7.14400 5.87400 28.40000
C  6.32200 6.86700 27.73600
C  6.40300 6.67100 26.30000
C  7.22300 5.50400 26.15100
C  5.64700 7.91900 28.51600
C  5.75900 7.43000 25.21100
O  5.90000 7.12000 24.03700
C  4.85600 8.53700 25.55500
N  9.05000 2.96800 25.84100
C  8.43500 3.69300 24.82400
C  8.78800 3.15800 23.43900
C  9.70800 1.97200 23.77200
C  9.63200 1.89500 25.29500
C  7.63700 2.73100 22.48700
C  11.10400 1.91200 23.17200
C  11.26900 1.16600 21.86100
N  10.16300 1.90100 28.21100
C  10.57900 0.91200 27.38700
C  11.31400 -0.03600 28.06000
C  11.30700 0.42000 29.36900
C  10.49600 1.52600 29.44100
C  11.98300 -1.30400 27.47800
C  11.65200 0.08500 30.77100
O  12.29400 -0.87500 31.24700
C  11.18500 1.23500 31.66500
C  10.48600 0.71300 32.80100
O  9.46200 0.04700 32.83900
O  11.23600 0.85700 33.89100
C  10.96800 0.17300 35.16300
H  6.70300 6.48400 30.34100
H  7.25500 5.15500 24.01900
H  10.77500 0.20600 25.44400
H  8.84200 2.95000 33.11800
H  8.61000 5.81300 32.38400
H  6.84200 4.55100 33.81500
H  6.18100 4.13200 32.13800
H  6.30400 5.82200 32.66500
H  10.92000 5.09600 32.43900
H  11.15900 3.54800 33.20100
H  9.25600 4.96900 34.69800
H  10.64800 6.07700 34.58600
H  5.74600 8.86000 27.97600
H  5.84600 8.10800 29.57100
H  4.59900 7.62300 28.58100
H  4.55200 9.07900 24.65900
H  5.60100 9.25300 25.90100
H  4.03100 8.27200 26.21600
H  9.26200 4.06400 23.06300
H  9.24300 0.99000 23.68600
H  7.38800 3.61400 21.89800
H  6.74600 2.49800 23.07100
H  7.85900 1.89100 21.82900
H  11.83800 1.59300 23.91200
H  11.35700 2.94600 22.93700
H  11.73600 1.78200 21.09200
H  10.27200 1.03100 21.44100
H  11.83900 0.24300 21.96700
H  13.01300 -0.98100 27.32600
H  11.48600 -1.53000 26.53400
H  11.98400 -2.22400 28.06200
H  12.12600 1.68500 31.97900
H  9.93700 -0.17600 35.22400
H  11.25100 0.73900 36.05100
H  11.60300 -0.70900 35.24500
Mg -5.37700 24.88400 26.27200
C  -3.80700 26.64500 28.96700
C  -6.48900 22.57600 28.61500
C  -6.51700 23.07800 23.70800
C  -3.97400 27.13200 24.08300
N  -5.20800 24.70300 28.51600
C  -4.59000 25.54900 29.38300
C  -4.84200 25.24300 30.82700
C  -5.72100 23.91200 30.72400
C  -5.88800 23.73700 29.20700
C  -5.02000 22.72200 31.42400
C  -5.72400 26.35200 31.55700
C  -6.03400 26.32000 33.05700
H  -5.62100 25.05400 33.85500
N  -6.27100 23.12900 26.19000
C  -6.70700 22.36700 27.25300
C  -7.44200 21.18500 26.69800
C  -7.41400 21.23500 25.24800
C  -6.70800 22.50600 25.00000
C  -8.12500 20.13000 27.55900
C  -8.04100 20.28300 24.23600
O  -7.85000 20.41400 23.03400
C  -8.87000 19.09000 24.71600
N  -5.02600 24.94800 24.22600
C  -5.71000 24.17900 23.40800
C  -5.81300 24.71300 21.90100
C  -4.88300 25.94300 22.01100
C  -4.63900 26.04400 23.48100
C  -5.37500 23.70500 20.82700
C  -5.34100 27.16700 21.28800
C  -4.58100 27.65700 20.06000
N  -4.10600 26.56500 26.46900
C  -3.51400 27.29200 25.45100
C  -2.62000 28.24100 26.00000
C  -2.74100 28.07300 27.38800
C  -3.63400 27.03700 27.64000
C  -1.81300 29.23800 25.15700
C  -2.29700 28.60700 28.69500
O  -1.55600 29.53600 28.96300
C  -2.93600 27.68700 29.75600
C  -1.84900 27.02400 30.41400
O  -0.95900 26.41800 29.87300
O  -1.93100 27.30100 31.77200
C  -1.06100 26.43200 32.59100
H  -6.74200 21.70900 29.23000
H  -7.06000 22.65600 22.86000
H  -3.76800 28.02300 23.48800
H  -3.85000 25.12700 31.26300
H  -6.73900 24.09500 31.06700
H  -4.76200 21.94500 30.70300
H  -5.74000 22.29200 32.12000
H  -4.08900 23.00100 31.91700
H  -6.64000 26.38100 30.96700
H  -5.07200 27.22200 31.48000
H  -7.10400 26.46800 33.19900
H  -5.55300 27.16400 33.55200
H  -9.16900 20.15700 27.24600
H  -8.17400 20.42200 28.60900
H  -7.70100 19.13500 27.43100
H  -8.42800 18.44100 25.47100
H  -8.95400 18.61500 23.73800
H  -9.86600 19.40200 25.03200
H  -6.84200 24.99600 21.68200
H  -3.89200 25.66700 21.65200
H  -6.17800 23.11700 20.38400
H  -4.55200 23.08100 21.17700
H  -5.00300 24.27700 19.97700
H  -5.37400 28.05200 21.92200
H  -6.39200 26.99900 21.05200
H  -5.23700 27.60600 19.19000
H  -3.70000 27.04300 19.87200
H  -4.21300 28.68200 20.10400
H  -0.84600 29.47500 25.60200
H  -2.46800 30.10000 25.03200
H  -1.78900 28.88000 24.12700
H  -3.57700 28.31300 30.37700
H  -1.49800 26.22900 33.56900
H  -0.17100 27.00600 32.84900
H  -1.02600 25.44700 32.12800

