158

Mg 45.66600 3.67400 47.07800
C  43.56200 6.71000 46.86500
C  42.67200 1.90700 46.75600
C  47.40800 1.02700 46.36600
C  48.33500 5.77600 46.66600
N  43.38900 4.23700 46.73700
C  42.81600 5.50200 46.81800
C  41.27700 5.40300 46.45700
C  40.98900 3.87300 46.61100
C  42.43400 3.28400 46.74000
C  40.00800 3.49800 47.75700
C  40.84000 6.03300 45.09100
C  41.88900 6.02400 43.94600
H  41.50500 6.09600 42.49200
N  45.15600 1.63900 46.84800
C  43.89200 1.13800 46.77000
C  44.04800 -0.26300 46.45500
C  45.43100 -0.62300 46.37100
C  46.06800 0.71200 46.50400
C  42.81700 -1.17000 46.36000
C  45.94500 -2.00300 46.07800
O  45.15700 -2.87900 45.86800
C  47.39000 -2.38600 46.03100
N  47.57900 3.42100 46.70900
C  48.11400 2.23300 46.51100
C  49.66500 2.27100 46.34900
C  49.94000 3.82300 46.25500
C  48.51700 4.43100 46.60300
C  50.38500 1.52500 47.45700
C  50.49200 4.27600 44.87700
C  52.02000 4.60500 44.79400
N  45.96600 5.84500 46.87000
C  47.12800 6.54200 46.70800
C  46.91400 7.96600 46.72200
C  45.50000 8.03500 46.82900
C  44.97200 6.74800 46.88900
C  47.97500 9.03800 46.52400
C  44.38800 9.01400 46.84900
O  44.36900 10.26000 46.81500
C  43.05200 8.12900 46.73000
C  42.20400 8.51000 47.84300
O  42.27800 8.00700 48.93800
O  41.19400 9.36400 47.46800
C  40.01700 9.59000 48.27000
H  41.85600 1.18100 46.75200
H  48.07700 0.19300 46.14300
H  49.21600 6.41900 46.60500
H  40.78000 5.95500 47.25500
H  40.54400 3.44600 45.71200
H  39.35800 4.34800 47.96500
H  40.47900 3.20400 48.69500
H  39.46800 2.57600 47.54300
H  40.47000 7.04100 45.28000
H  40.19600 5.30900 44.59200
H  42.58000 5.18300 44.00700
H  42.43100 6.96100 44.07000
H  42.71300 -1.47300 45.31800
H  41.87800 -0.78400 46.75800
H  43.01500 -2.11500 46.86500
H  47.91400 -1.97600 46.89500
H  47.79300 -1.95000 45.11700
H  47.45600 -3.47400 46.03700
H  49.79900 1.76800 45.39200
H  50.67300 4.05300 47.02900
H  49.87900 1.65700 48.41400
H  51.42000 1.85500 47.55100
H  50.45800 0.48200 47.15000
H  49.98000 5.22600 44.72400
H  50.21500 3.53900 44.12400
H  52.06000 5.65400 44.50100
H  52.61600 4.07700 44.04900
H  52.42800 4.39300 45.78200
H  48.46900 9.05900 47.49500
H  47.45500 9.98600 46.38200
H  48.70300 8.89900 45.72500
H  42.44500 8.16600 45.82600
H  39.65400 10.61200 48.16400
H  40.16800 9.56400 49.34900
H  39.30700 8.85900 47.88400
Mg 6.08500 54.20800 42.48800
C  5.41300 50.91000 41.93300
C  9.24000 53.79300 40.99400
C  6.41300 57.69800 42.06600
C  2.91300 54.65900 43.73400
N  7.16000 52.56000 41.59500
C  6.63000 51.32400 41.49000
C  7.65300 50.41100 40.87600
C  9.00100 51.19700 41.08400
C  8.49200 52.61700 41.24200
C  9.83000 50.74400 42.28300
C  7.45600 50.10600 39.33700
C  7.05900 51.29600 38.48300
H  5.95200 50.96700 37.45800
N  7.63400 55.53900 41.71200
C  8.84400 55.12700 41.18000
C  9.64800 56.26700 40.94800
C  8.86200 57.44200 41.18800
C  7.52500 56.89700 41.62600
C  11.03600 56.23700 40.60300
C  9.42500 58.85400 41.02900
O  10.54900 59.03300 40.62700
C  8.63300 60.04600 41.41300
N  4.81700 55.91100 42.73700
C  5.20000 57.24400 42.54600
C  4.09000 58.16300 42.97000
C  2.95700 57.16000 43.41500
C  3.60300 55.81100 43.33700
C  4.47000 59.34400 43.93900
C  1.61000 57.38800 42.67400
C  0.75300 58.51700 43.26000
N  4.44600 52.97900 42.85900
C  3.27400 53.34900 43.57400
C  2.60500 52.09200 43.89000
C  3.41500 51.05600 43.33600
C  4.43900 51.71100 42.53500
C  1.41300 51.88300 44.72100
C  3.54600 49.57000 43.14800
O  2.88000 48.66200 43.58800
C  4.79300 49.46100 42.16400
C  4.17600 48.85300 40.86100
O  3.21900 49.27600 40.28300
O  4.80800 47.70500 40.52800
C  4.33500 46.91800 39.41600
H  10.20000 53.50100 40.56400
H  6.57000 58.77800 42.04400
H  1.97500 54.70700 44.29100
H  7.57700 49.46700 41.41500
H  9.60700 51.17900 40.17700
H  10.72500 50.21900 41.94900
H  9.32800 50.03900 42.94400
H  10.06300 51.62400 42.88300
H  6.81000 49.23200 39.24800
H  8.37900 49.75500 38.87500
H  7.99600 51.60800 38.02100
H  6.68600 52.17900 39.00300
H  11.13800 56.44900 39.53900
H  11.43100 55.22900 40.73000
H  11.68500 56.84500 41.23300
H  7.72600 60.02500 40.80900
H  9.06500 60.99300 41.08900
H  8.27200 60.16200 42.43500
H  3.79400 58.67600 42.05500
H  2.72700 57.42100 44.44800
H  5.52200 59.25800 44.21400
H  3.79700 59.37500 44.79600
H  4.37300 60.33400 43.49300
H  0.92800 56.54400 42.77500
H  1.88600 57.59500 41.64000
H  0.60900 59.34800 42.56900
H  1.02600 58.79900 44.27700
H  -0.25900 58.11700 43.33000
H  1.42700 50.84800 45.06400
H  0.58900 52.14300 44.05600
H  1.33500 52.66600 45.47500
H  5.50200 48.74500 42.57900
H  3.25500 47.04800 39.34000
H  4.46900 45.84700 39.56700
H  4.81000 47.26800 38.49900

