158

Mg 2.19400 -1.47800 43.30400
C  5.63900 -1.09800 43.09700
C  1.77200 1.20400 41.23800
C  -1.12800 -2.30400 42.97500
C  2.66900 -4.60400 44.75700
N  3.62900 -0.12700 42.27300
C  5.02600 -0.08100 42.33900
C  5.58500 1.02900 41.47900
C  4.32800 1.72300 40.90500
C  3.10800 0.86900 41.47100
C  4.08200 3.24500 41.23700
C  6.50800 0.38900 40.45600
C  8.01400 0.83100 40.45600
H  8.52500 1.20300 39.06400
N  0.53700 -0.55500 42.35200
C  0.55200 0.51300 41.62000
C  -0.82100 0.79300 41.08200
C  -1.62700 -0.11100 41.73900
C  -0.74000 -1.09100 42.38800
C  -1.13400 2.07000 40.34400
C  -3.11200 -0.17700 41.65500
O  -3.71200 0.63700 40.96000
C  -3.97800 -0.94000 42.54000
N  0.94800 -3.28300 43.85800
C  -0.40600 -3.31300 43.51000
C  -1.09300 -4.53400 44.22500
C  0.13900 -5.29200 44.76900
C  1.33500 -4.40200 44.42000
C  -2.19600 -4.11300 45.24800
C  0.34700 -6.73600 44.35300
C  -0.04400 -7.81100 45.43700
N  3.74200 -2.64700 43.86400
C  3.78100 -3.82400 44.52900
C  5.19200 -4.11600 44.86700
C  5.91700 -3.07700 44.30300
C  4.98900 -2.23000 43.74500
C  5.73900 -5.35300 45.47400
C  7.24200 -2.59800 44.16000
O  8.25400 -2.96600 44.57000
C  7.10700 -1.27100 43.36600
C  7.49800 -0.18100 44.16900
O  7.37300 -0.17900 45.37300
O  8.11800 0.78800 43.49900
C  8.33500 2.08200 44.08600
H  1.71500 2.02600 40.52000
H  -2.18100 -2.52300 42.79000
H  2.95400 -5.44300 45.39600
H  6.11100 1.68700 42.17100
H  4.39400 1.64200 39.82000
H  4.09200 3.79400 40.29500
H  4.91100 3.65700 41.81200
H  3.11700 3.41800 41.71500
H  6.10900 0.62100 39.46900
H  6.48100 -0.69500 40.56100
H  8.60200 0.00900 40.86500
H  8.20800 1.64800 41.15100
H  -0.22200 2.31200 39.79800
H  -1.50800 2.93700 40.89000
H  -1.70000 1.80700 39.45100
H  -5.02600 -0.64100 42.53500
H  -3.62500 -0.92200 43.57100
H  -4.12200 -2.00200 42.33900
H  -1.46100 -5.08700 43.36100
H  -0.02200 -5.17300 45.84100
H  -2.17700 -3.03500 45.40600
H  -2.20800 -4.54100 46.25000
H  -3.13900 -4.19100 44.70700
H  1.37900 -6.87500 44.03000
H  -0.15500 -7.01400 43.42600
H  0.91300 -8.19600 45.78900
H  -0.65000 -8.61800 45.02500
H  -0.54200 -7.44700 46.33600
H  5.34900 -5.54700 46.47300
H  6.82700 -5.38200 45.40900
H  5.43500 -6.22600 44.89700
H  7.75300 -1.34800 42.49100
H  7.61400 2.88200 43.91600
H  9.24900 2.44300 43.61300
H  8.64600 1.98200 45.12600
Mg 26.66100 50.10900 26.71800
C  24.65400 51.15400 29.32300
C  28.90300 49.06700 29.12000
C  28.69400 49.18000 24.25100
C  24.24400 51.11800 24.45700
N  26.74000 50.11800 29.02200
C  25.78900 50.59200 29.86600
C  25.99800 50.10000 31.29500
C  27.51600 49.68700 31.30400
C  27.74900 49.60200 29.74000
C  28.48300 50.71900 31.92800
C  24.97700 49.17200 31.86600
C  24.37600 49.40500 33.25500
H  24.54600 48.52100 34.48000
N  28.52300 49.28100 26.71200
C  29.35300 48.94000 27.76500
C  30.62100 48.48700 27.29200
C  30.56600 48.58600 25.84700
C  29.22200 49.00700 25.51200
C  31.66300 47.99400 28.23700
C  31.63700 48.43300 24.90600
O  31.47700 48.52900 23.72800
C  33.03800 48.13200 25.32900
N  26.51200 50.21300 24.63400
C  27.44000 49.67600 23.83100
C  27.00100 49.73200 22.31800
C  25.54900 50.34700 22.46300
C  25.38200 50.56200 23.91900
C  27.96600 50.56100 21.44900
C  24.36400 49.56400 21.86300
C  23.63900 48.48700 22.56500
N  24.89400 51.01400 26.78900
C  23.96000 51.36800 25.82700
C  22.89200 52.03800 26.44700
C  23.09700 51.97200 27.82200
C  24.36100 51.36600 27.95900
C  21.76200 52.64100 25.68200
C  22.50200 52.33300 29.06600
O  21.49900 52.99300 29.33200
C  23.44600 51.61400 30.07800
C  23.90800 52.53600 31.18300
O  24.84400 53.30600 31.08300
O  23.04900 52.40400 32.22600
C  23.30500 53.42700 33.34400
H  29.58300 48.73300 29.90600
H  29.23500 48.77600 23.39300
H  23.43300 51.44700 23.80300
H  26.01100 51.01800 31.88300
H  27.66300 48.69600 31.73400
H  28.70700 50.50000 32.97200
H  28.05900 51.67700 31.62900
H  29.46300 50.73500 31.45000
H  25.54500 48.25300 32.01200
H  24.20500 49.05900 31.10400
H  23.32700 49.63700 33.07300
H  24.81500 50.33600 33.61400
H  31.67900 48.64900 29.10800
H  32.71400 47.99700 27.94700
H  31.35800 47.05600 28.70100
H  33.31900 48.70100 26.21500
H  33.72300 48.30200 24.49900
H  32.95900 47.06600 25.54500
H  26.94300 48.71000 21.94200
H  25.65800 51.39100 22.17000
H  28.44300 49.85800 20.76500
H  28.76700 50.96900 22.06500
H  27.54200 51.34900 20.82600
H  24.65800 49.06900 20.93700
H  23.60200 50.29400 21.59200
H  23.70500 47.52200 22.06300
H  22.57400 48.69700 22.66300
H  23.98000 48.34800 23.59100
H  21.36000 51.88800 25.00400
H  21.93600 53.59200 25.17700
H  21.04800 52.84200 26.48000
H  22.94500 50.81700 30.62900
H  22.31200 53.73200 33.67300
H  23.89600 54.28900 33.03500
H  23.82800 52.82800 34.09000

