158

Mg 35.66500 49.88200 25.47700
C  35.40100 48.12700 28.51900
C  34.77300 52.75100 27.15100
C  35.73400 51.48800 22.53700
C  36.45600 46.95800 23.79800
N  35.07900 50.26800 27.60800
C  35.13900 49.46600 28.64800
C  34.94400 50.23900 29.99600
C  34.56800 51.65700 29.55400
C  34.82200 51.58300 28.01500
C  33.09700 51.95600 29.89300
C  36.08000 50.09000 30.92500
C  35.91100 49.84900 32.41800
H  34.42700 49.86000 32.95600
N  35.26900 51.81100 24.96400
C  34.99300 52.85000 25.75900
C  34.77200 54.08500 24.97800
C  35.03300 53.78700 23.63400
C  35.29900 52.25100 23.64100
C  34.39600 55.43000 25.51900
C  34.95600 54.67000 22.34200
O  35.08000 54.19500 21.23500
C  34.77000 56.14100 22.53300
N  35.97300 49.29400 23.40100
C  36.02700 50.16600 22.43100
C  36.40600 49.49100 21.05900
C  36.94700 48.08700 21.59900
C  36.43000 48.06800 22.98300
C  35.15300 49.43900 20.13000
C  38.52600 48.01000 21.54300
C  39.09000 46.68400 21.05000
N  35.97200 47.91300 26.02700
C  36.20300 46.81600 25.22200
C  36.14900 45.62600 26.09100
C  35.87300 46.08400 27.37500
C  35.74400 47.50300 27.29400
C  36.49800 44.19200 25.67000
C  35.74400 45.70000 28.77700
O  35.91200 44.65700 29.36200
C  35.45500 47.00700 29.55600
C  34.15400 46.74100 30.27200
O  33.03000 46.95200 29.87200
O  34.46300 46.08700 31.44600
C  33.25700 45.59400 32.14600
H  34.45400 53.54900 27.82500
H  35.90800 52.00500 21.59100
H  36.75600 46.05000 23.27000
H  34.08600 49.77400 30.48100
H  35.13200 52.42600 30.08300
H  32.57100 51.00200 29.90600
H  32.61100 52.60600 29.16600
H  33.04300 52.32800 30.91700
H  36.73800 50.95500 30.84200
H  36.73500 49.28300 30.59800
H  36.46000 50.65700 32.90200
H  36.33800 48.86700 32.62100
H  34.09600 55.41800 26.56700
H  33.51200 55.78500 24.99000
H  35.22600 56.13600 25.54300
H  35.64900 56.49800 23.06900
H  33.81200 56.22300 23.04500
H  34.69900 56.57500 21.53600
H  37.24500 49.91900 20.51000
H  36.46600 47.22100 21.14400
H  35.26200 50.05800 19.23900
H  34.32100 49.92900 20.63500
H  34.79200 48.43900 19.89200
H  38.87000 48.12000 22.57200
H  39.00600 48.91500 21.17100
H  40.16900 46.82600 20.98300
H  38.56900 46.40000 20.13600
H  38.88300 46.01600 21.88600
H  35.64000 43.54200 25.84200
H  37.27300 43.73900 26.28700
H  36.84200 44.30100 24.64100
H  36.34600 47.08800 30.17900
H  32.40000 45.19400 31.60500
H  32.83500 46.51100 32.55600
H  33.53600 44.86900 32.91100
Mg -9.59100 18.00100 42.53100
C  -6.13600 17.45800 42.55700
C  -8.91300 21.44600 41.87200
C  -12.84900 18.40100 41.69900
C  -10.06200 14.46500 42.67800
N  -7.78000 19.29700 42.33000
C  -6.48500 18.84600 42.42800
C  -5.44800 20.00100 42.15500
C  -6.40400 21.31400 42.29200
C  -7.79100 20.68700 42.19600
C  -6.13900 22.24500 43.46900
C  -4.71500 19.84500 40.72200
C  -5.64900 19.18700 39.69700
H  -5.04100 19.16700 38.30600
N  -10.74100 19.74200 42.02200
C  -10.30400 20.98300 41.72100
C  -11.41900 21.79400 41.34400
C  -12.60600 20.97000 41.45600
C  -12.11600 19.64200 41.70100
C  -11.33300 23.25300 40.94800
C  -14.06200 21.43600 41.24800
O  -14.30200 22.63100 40.91900
C  -15.27000 20.60200 41.35500
N  -11.18900 16.59200 42.16500
C  -12.42600 17.09000 41.89900
C  -13.46000 15.92500 41.91300
C  -12.56000 14.67100 42.29100
C  -11.14800 15.23300 42.31700
C  -14.67100 16.22000 42.76800
C  -12.74300 13.50800 41.29500
C  -14.06700 12.68200 41.46200
N  -8.39200 16.27000 42.70600
C  -8.69200 14.91600 42.79800
C  -7.44100 14.15700 42.95200
C  -6.46400 15.07700 42.77300
C  -7.06500 16.38600 42.68200
C  -7.28200 12.72900 43.05600
C  -5.05200 15.22600 42.81800
O  -4.13600 14.47100 43.05500
C  -4.78300 16.73900 42.59700
C  -3.74300 17.19200 43.56100
O  -2.58300 17.27800 43.35600
O  -4.37300 17.54200 44.70700
C  -3.53400 18.25100 45.68900
H  -8.89300 22.52700 41.71900
H  -13.85500 18.46900 41.27800
H  -10.18500 13.39400 42.84600
H  -4.70900 20.06400 42.95300
H  -6.19200 21.84800 41.36600
H  -5.30000 21.82700 44.02600
H  -7.11000 22.42100 43.93200
H  -5.69900 23.17500 43.10900
H  -3.79200 19.28300 40.86400
H  -4.50500 20.86800 40.41200
H  -6.56500 19.72000 39.44100
H  -5.98900 18.17400 39.91400
H  -12.15800 23.42900 40.25800
H  -10.41100 23.50200 40.42200
H  -11.29900 23.92400 41.80700
H  -15.08500 19.80200 42.07200
H  -15.50500 20.08100 40.42700
H  -16.15300 21.20900 41.55400
H  -13.87200 15.83700 40.90800
H  -12.79800 14.31400 43.29400
H  -14.63600 17.24500 43.13500
H  -14.80700 15.47800 43.55500
H  -15.58100 16.06700 42.18700
H  -11.91300 12.81500 41.43000
H  -12.76400 13.89900 40.27800
H  -14.34100 13.02900 42.45800
H  -13.71300 11.65100 41.46900
H  -14.86900 12.93900 40.77000
H  -8.23600 12.28400 42.77200
H  -6.97900 12.47300 44.07200
H  -6.46200 12.50900 42.37300
H  -4.27700 16.85200 41.63800
H  -2.62800 17.69500 45.93200
H  -4.05700 18.31300 46.64300
H  -3.35300 19.30000 45.45400

