158

Mg 35.50000 2.50100 29.61500
C  33.34200 3.87100 32.13000
C  37.90800 2.39500 31.95900
C  37.67500 1.76400 27.22500
C  33.08700 3.44300 27.28700
N  35.61400 3.11700 31.79700
C  34.59200 3.51300 32.61400
C  35.03400 3.58100 34.06000
C  36.51400 3.36400 33.96900
C  36.71000 2.87900 32.47600
C  37.37600 4.64000 34.19900
C  34.15400 2.53100 34.81600
C  33.66100 2.93100 36.18600
H  34.26800 4.16200 36.90900
N  37.46400 1.99700 29.67700
C  38.27000 1.89200 30.73800
C  39.54900 1.37800 30.33200
C  39.53600 1.27100 28.88800
C  38.15000 1.70600 28.53100
C  40.71900 1.05700 31.30600
C  40.54300 0.72500 27.87500
O  40.33100 0.78500 26.68100
C  41.74400 0.10200 28.38700
N  35.38700 2.55000 27.58400
C  36.38700 2.18300 26.78300
C  35.90500 2.07700 25.30100
C  34.46700 2.60600 25.33100
C  34.26400 2.85700 26.80400
C  36.80700 2.84700 24.38900
C  33.39200 1.49400 25.00700
C  32.06600 1.93600 24.24700
N  33.61900 3.42800 29.58800
C  32.70800 3.69100 28.62600
C  31.50700 4.13300 29.12700
C  31.75100 4.31200 30.49800
C  33.01800 3.85400 30.74100
C  30.30200 4.40400 28.33200
C  31.05800 4.69700 31.69400
O  29.91700 5.10900 31.91100
C  32.08500 4.35900 32.87600
C  32.31000 5.54400 33.71400
O  33.04800 6.44100 33.31500
O  31.52300 5.54500 34.80900
C  31.32600 6.79200 35.51500
H  38.78600 2.31300 32.60300
H  38.27600 1.45700 26.36700
H  32.43000 3.80000 26.49100
H  34.84900 4.56800 34.48400
H  36.77500 2.63100 34.73300
H  36.77800 5.54300 34.32000
H  38.08200 4.82300 33.38900
H  37.87100 4.58700 35.16900
H  34.74600 1.62300 34.92800
H  33.39200 2.06700 34.19100
H  33.77200 2.03900 36.80200
H  32.57200 2.91200 36.23400
H  41.50600 1.76500 31.04700
H  41.15600 0.06400 31.19700
H  40.37500 1.24900 32.32200
H  41.47400 -0.83200 28.87900
H  42.25200 0.72000 29.12700
H  42.47600 -0.10300 27.60500
H  35.90600 1.07000 24.88300
H  34.36900 3.53900 24.77600
H  36.39700 3.84600 24.23800
H  36.84400 2.29200 23.45200
H  37.82600 2.92300 24.76900
H  33.15500 0.90100 25.89000
H  33.90900 0.78200 24.36400
H  31.98100 3.02200 24.28000
H  31.23900 1.59300 24.86900
H  31.94400 1.55700 23.23200
H  30.55500 5.14500 27.57400
H  29.56500 4.96600 28.90600
H  29.92200 3.52200 27.81600
H  31.50000 3.59900 33.39500
H  31.15200 7.59900 34.80300
H  32.20000 7.09300 36.09400
H  30.48200 6.80200 36.20500
Mg 49.48000 46.53500 42.05700
C  45.98900 47.39500 41.78500
C  48.76000 43.66900 40.43500
C  52.69600 46.09700 41.85700
C  50.00500 49.81500 43.33500
N  47.57500 45.77300 41.20100
C  46.28900 46.19600 41.17000
C  45.34000 45.26900 40.33300
C  46.20500 43.99800 40.05700
C  47.61100 44.47100 40.62700
C  45.78600 42.58700 40.71400
C  44.89900 46.04700 39.03300
C  43.39100 46.45300 38.89600
H  42.66800 45.60700 37.88300
N  50.64500 45.05400 41.20800
C  50.12800 43.89300 40.67200
C  51.21000 43.00400 40.33700
C  52.42300 43.69200 40.78300
C  51.96400 45.03500 41.32600
C  51.08100 41.63100 39.72300
C  53.85800 43.25100 40.63900
O  54.10100 42.11200 40.29700
C  55.08200 44.10200 40.73400
N  51.07500 47.73900 42.50700
C  52.32200 47.37300 42.22700
C  53.37100 48.36800 42.47700
C  52.50600 49.62400 42.81700
C  51.09900 49.04900 42.97300
C  54.43100 48.11100 43.52100
C  52.63900 50.67800 41.68000
C  53.39600 51.95900 42.00200
N  48.25500 48.22700 42.61900
C  48.65300 49.47000 43.11900
C  47.48500 50.30500 43.37300
C  46.44300 49.54100 42.85700
C  46.89600 48.28600 42.35600
C  47.47500 51.81200 43.85400
C  45.01400 49.54100 42.60600
O  44.30700 50.52800 42.65400
C  44.64900 48.12900 41.93000
C  43.81900 47.33100 42.83400
O  44.18400 46.87100 43.87200
O  42.66900 46.92200 42.20100
C  41.85300 45.77300 42.74100
H  48.51700 42.78500 39.84400
H  53.75500 45.84300 41.92900
H  50.28700 50.82500 43.63900
H  44.64300 45.10500 41.15400
H  46.36800 43.72500 39.01400
H  45.56700 41.77900 40.01700
H  44.88400 42.71900 41.31300
H  46.55400 42.26000 41.41400
H  45.11800 45.35400 38.22100
H  45.47300 46.97300 38.99900
H  43.41100 47.47200 38.50900
H  42.88500 46.54100 39.85800
H  50.04700 41.35000 39.52200
H  51.49300 40.93900 40.45800
H  51.69300 41.70000 38.82300
H  54.84000 44.99300 40.15400
H  55.96600 43.63100 40.30300
H  55.37800 44.37500 41.74700
H  53.86900 48.54900 41.52400
H  52.80800 50.07700 43.76200
H  54.47900 47.03400 43.68500
H  54.22300 48.53100 44.50500
H  55.41500 48.43400 43.18100
H  51.70900 50.95600 41.18400
H  53.17800 50.25200 40.83400
H  54.21700 52.00200 41.28600
H  53.44400 52.18700 43.06700
H  52.82700 52.73000 41.48300
H  46.45500 52.18500 43.76100
H  48.06400 52.40000 43.15100
H  47.82200 51.89100 44.88400
H  44.00600 48.25200 41.05900
H  41.31100 46.05800 43.64300
H  42.40300 44.88100 43.04100
H  41.12900 45.44000 41.99700

