158

Mg 47.09700 24.77600 28.84100
C  47.86800 27.25800 31.32500
C  45.94100 22.73800 31.37600
C  46.66600 22.48600 26.55900
C  48.53800 26.95200 26.45200
N  46.87600 24.98500 31.13300
C  47.33100 26.03700 31.92900
C  46.89300 25.77800 33.39800
C  46.69100 24.21900 33.43400
C  46.43600 23.96700 31.89100
C  47.88100 23.37400 34.01600
C  45.73900 26.65100 33.92500
C  45.85200 27.48900 35.23700
H  46.54100 26.73500 36.40800
N  46.22800 22.90200 28.88300
C  45.78300 22.26200 30.03800
C  45.22600 21.00100 29.62400
C  45.49500 20.89100 28.21200
C  46.20200 22.08900 27.83600
C  44.62300 19.99300 30.60000
C  45.19800 19.77500 27.20700
O  45.46300 19.80800 26.01700
C  44.41900 18.65900 27.67200
N  47.40400 24.80200 26.69500
C  47.34100 23.63200 26.06000
C  48.17800 23.62100 24.79200
C  48.51600 25.12000 24.58900
C  48.16300 25.68900 25.98100
C  49.44800 22.66200 24.75800
C  47.63800 25.86100 23.46900
C  48.38700 26.41900 22.23800
N  48.08300 26.65500 28.85700
C  48.36100 27.49200 27.76900
C  48.92000 28.74000 28.28800
C  48.60200 28.70700 29.64000
C  48.14100 27.39900 29.93500
C  49.64500 29.80400 27.52400
C  48.69900 29.45300 30.85900
O  49.12000 30.58200 30.99900
C  48.20500 28.55500 31.98500
C  49.27800 28.34900 33.03400
O  50.21600 27.60900 33.05700
O  49.06700 29.33500 33.97700
C  49.83400 29.13500 35.20700
H  45.54800 22.08300 32.15600
H  46.64200 21.65800 25.84700
H  49.11200 27.48000 25.68800
H  47.79100 26.02800 33.96300
H  45.82300 23.98200 34.04900
H  48.65800 23.94500 34.52400
H  48.34500 22.75100 33.25100
H  47.39100 22.67800 34.69700
H  44.88700 26.04000 34.22200
H  45.32900 27.34400 33.19000
H  44.84300 27.80500 35.50200
H  46.38100 28.38800 34.92000
H  43.89600 19.33400 30.12700
H  44.12800 20.55100 31.39400
H  45.52500 19.61100 31.07900
H  44.94300 18.28600 28.55200
H  44.27300 17.97600 26.83500
H  43.45000 19.10700 27.88700
H  47.57300 23.24200 23.96800
H  49.59600 25.20800 24.47200
H  49.25800 21.74800 24.19400
H  49.66500 22.35900 25.78200
H  50.32500 23.18800 24.38000
H  47.08800 26.65300 23.97600
H  46.91900 25.17800 23.01600
H  48.76200 25.62100 21.59700
H  49.25100 26.97800 22.59800
H  47.77700 27.15900 21.72000
H  49.26100 30.80000 27.74500
H  49.26800 29.71900 26.50500
H  50.68100 29.51800 27.70200
H  47.30400 29.04200 32.35800
H  50.91800 29.16200 35.09000
H  49.45600 28.26500 35.74500
H  49.72000 29.91600 35.95800
Mg 36.45100 49.51000 25.16700
C  36.47800 47.68100 28.29200
C  35.22600 52.12500 26.75700
C  36.25700 51.08400 21.98000
C  37.40200 46.53400 23.49700
N  35.82000 49.74500 27.30100
C  36.00100 49.01400 28.43500
C  35.59900 49.75100 29.70400
C  35.14500 51.11800 29.05400
C  35.44200 50.99300 27.58800
C  33.69100 51.36800 29.43100
C  36.63400 49.89300 30.77200
C  36.25700 49.50200 32.23100
H  34.80500 49.74800 32.63300
N  35.80400 51.34400 24.42000
C  35.39200 52.34100 25.33500
C  34.99900 53.53800 24.58800
C  35.23600 53.23100 23.21300
C  35.84800 51.84300 23.13400
C  34.55600 54.76500 25.35500
C  35.05200 54.11700 22.01700
O  35.29400 53.81100 20.84200
C  34.63200 55.48700 22.36000
N  36.77500 48.88500 23.03900
C  36.57500 49.70200 21.93200
C  36.87400 48.95500 20.60500
C  37.35600 47.60000 21.11100
C  37.21000 47.66600 22.71200
C  35.74500 48.97500 19.57800
C  38.84500 47.28900 20.67400
C  39.04600 45.87600 20.03300
N  36.82300 47.50300 25.70300
C  37.22800 46.45100 24.94500
C  37.55200 45.34700 25.83400
C  37.18700 45.75600 27.09900
C  36.78200 47.13000 26.98600
C  37.95400 43.94900 25.40600
C  37.08400 45.37300 28.45300
O  37.38300 44.30300 29.00300
C  36.62800 46.66200 29.30100
C  35.39000 46.30500 30.04500
O  34.29400 46.11200 29.51900
O  35.63300 46.29600 31.38100
C  34.60200 45.83600 32.36700
H  34.82500 52.97900 27.30900
H  36.31600 51.65200 21.04900
H  37.89500 45.70500 22.98500
H  34.76500 49.16100 30.08300
H  35.74400 51.92500 29.47700
H  33.22000 50.54400 29.96600
H  33.04300 51.63500 28.59700
H  33.73000 52.25000 30.07000
H  37.15500 50.84500 30.67700
H  37.38100 49.13200 30.54500
H  36.85000 50.16700 32.85800
H  36.47000 48.45000 32.41900
H  35.36400 55.46900 25.15400
H  34.60600 54.67400 26.44000
H  33.61400 55.18200 24.99900
H  33.59000 55.37100 22.65900
H  34.62200 56.03200 21.41600
H  35.31300 56.03000 23.01600
H  37.69000 49.48600 20.11500
H  36.73800 46.83800 20.63600
H  35.80300 49.81700 18.88700
H  34.79400 48.75000 20.06000
H  35.78100 48.02500 19.04500
H  39.48000 47.24700 21.55900
H  39.26000 48.06700 20.03300
H  38.12500 45.32900 19.83100
H  39.65800 45.22400 20.65700
H  39.48000 46.11100 19.06100
H  37.11900 43.46600 24.89800
H  37.90200 43.32900 26.30100
H  38.85500 43.87500 24.79700
H  37.35700 46.86200 30.08700
H  33.59600 46.15000 32.09100
H  34.85700 46.32100 33.31000
H  34.67200 44.75400 32.47800

