158

Mg 16.74600 -2.50200 27.48000
C  15.54700 -0.33100 30.08800
C  19.18600 -3.46500 29.64900
C  18.16100 -4.21700 24.91300
C  14.60900 -0.92700 25.32100
N  17.21300 -1.89500 29.60800
C  16.57200 -1.14800 30.53800
C  17.14700 -1.30300 32.00100
C  18.44900 -2.15800 31.63500
C  18.27300 -2.58700 30.17700
C  19.74000 -1.30000 31.78400
C  16.21100 -1.86900 33.02900
C  16.49000 -1.56200 34.49400
H  17.75500 -0.84700 34.91700
N  18.43000 -3.65500 27.32400
C  19.29800 -3.98100 28.32600
C  20.28300 -4.91000 27.85300
C  20.02200 -5.01800 26.50800
C  18.81200 -4.28800 26.18400
C  21.32500 -5.62200 28.77300
C  20.84800 -5.77300 25.45500
O  20.59200 -5.75400 24.26900
C  22.21500 -6.34800 25.78300
N  16.53900 -2.52000 25.48300
C  17.06800 -3.38600 24.59100
C  16.62100 -3.23700 23.13900
C  15.42300 -2.22600 23.32000
C  15.51900 -1.86600 24.83100
C  17.84900 -2.71800 22.29700
C  14.08800 -2.93700 22.87500
C  13.38900 -2.32900 21.69400
N  15.21100 -1.02100 27.62600
C  14.44400 -0.53600 26.65800
C  13.50600 0.34000 27.28900
C  13.86700 0.44200 28.67700
C  14.99000 -0.37400 28.80300
C  12.47200 1.12300 26.68000
C  13.57100 1.15600 29.85800
O  12.75500 2.02900 30.13900
C  14.65300 0.69300 30.85400
C  15.42000 1.88000 31.24100
O  16.17700 2.43200 30.49200
O  15.21000 2.19700 32.54900
C  15.85600 3.42600 32.86400
H  19.97700 -3.78200 30.33200
H  18.48200 -4.78100 24.03400
H  13.83400 -0.51800 24.67000
H  17.39500 -0.27300 32.25800
H  18.53300 -3.00300 32.31800
H  19.61400 -0.46400 32.47100
H  20.04800 -0.81600 30.85700
H  20.50700 -2.01800 32.07500
H  16.29900 -2.95500 33.01400
H  15.19500 -1.58600 32.75200
H  16.55800 -2.44900 35.12400
H  15.63700 -1.04800 34.93600
H  22.31900 -5.63900 28.32500
H  21.03100 -6.56100 29.24100
H  21.38700 -5.09200 29.72400
H  22.01400 -7.16700 26.47300
H  22.84700 -5.56500 26.20200
H  22.66400 -6.65100 24.83700
H  16.34100 -4.24600 22.83800
H  15.51000 -1.34400 22.68500
H  18.69100 -2.52900 22.96400
H  17.54700 -1.76800 21.85700
H  17.94300 -3.43400 21.48000
H  13.32200 -2.99000 23.64900
H  14.23300 -3.97300 22.56800
H  12.36600 -2.21100 22.05100
H  13.29600 -3.02200 20.85800
H  13.89100 -1.46200 21.26500
H  12.00400 0.78900 25.75400
H  12.86300 2.13400 26.56800
H  11.60200 1.17800 27.33400
H  14.09400 0.26700 31.68800
H  15.50600 3.76500 33.83900
H  15.64400 4.18800 32.11300
H  16.92900 3.23800 32.89300
Mg 35.09000 1.66600 29.51900
C  32.98300 2.58800 32.14000
C  37.59800 1.54700 31.52300
C  37.00900 1.53400 26.74800
C  32.32800 2.15500 27.31300
N  35.24700 2.13000 31.55200
C  34.34400 2.40400 32.48300
C  34.88900 2.50800 33.91400
C  36.35800 2.22500 33.71100
C  36.45300 1.97200 32.17900
C  37.31100 3.30600 34.37600
C  34.20300 1.59300 34.92600
C  33.57600 2.31500 36.16000
H  34.39800 3.43200 36.86600
N  36.96300 1.30500 29.20500
C  37.91500 1.25400 30.17400
C  39.14000 0.74400 29.62500
C  38.94000 0.81400 28.22200
C  37.59100 1.23700 27.99800
C  40.26600 0.35500 30.49100
C  39.94500 0.55900 27.12400
O  39.68400 0.75600 25.95400
C  41.37400 0.11000 27.53100
N  34.70200 1.91300 27.33000
C  35.70700 1.83100 26.41400
C  35.19000 1.95900 24.93200
C  33.63300 1.67200 25.19300
C  33.53900 1.91900 26.71700
C  35.50700 3.36300 24.27800
C  33.25800 0.18500 24.86300
C  31.94200 -0.00400 24.05300
N  33.06200 2.28200 29.63400
C  32.13000 2.43500 28.70400
C  30.84600 2.85000 29.28600
C  31.20400 2.98700 30.63100
C  32.51400 2.59900 30.77800
C  29.53500 3.05900 28.60700
C  30.70000 3.23900 31.94900
O  29.61100 3.62800 32.31700
C  31.82900 3.11000 32.96000
C  31.99900 4.42100 33.64500
O  32.56500 5.38800 33.15900
O  31.22900 4.46600 34.77500
C  31.16900 5.75300 35.41300
H  38.47500 1.50300 32.17200
H  37.71200 1.56200 25.91300
H  31.42200 2.19600 26.70600
H  34.77100 3.56700 34.14300
H  36.58300 1.32700 34.28600
H  37.96400 2.94400 35.17000
H  36.86500 4.27200 34.61500
H  37.97700 3.68100 33.59800
H  34.96200 0.92100 35.32800
H  33.44400 0.97400 34.44800
H  33.49100 1.57000 36.95100
H  32.60900 2.70300 35.84100
H  40.55600 -0.69200 30.40400
H  40.13900 0.66000 31.53000
H  41.06000 0.98400 30.08900
H  41.04300 -0.86800 27.87800
H  41.90900 0.83400 28.14600
H  41.98500 -0.11100 26.65500
H  35.62100 1.29800 24.18000
H  33.00700 2.43700 24.73400
H  35.80400 3.99700 25.11300
H  34.61600 3.83200 23.86200
H  36.34200 3.35300 23.57700
H  33.15300 -0.43000 25.75700
H  34.07500 -0.25200 24.28900
H  31.21400 -0.54400 24.65900
H  32.07300 -0.47600 23.07900
H  31.58700 1.02300 23.97300
H  29.45800 2.82600 27.54500
H  29.12100 4.06200 28.70900
H  28.83700 2.33500 29.02800
H  31.55900 2.39200 33.73400
H  32.16800 6.14700 35.60100
H  30.57500 5.63300 36.31900
H  30.65700 6.49300 34.79800

