158

Mg 0.08100 8.11600 26.20900
C  1.21100 9.65500 29.16300
C  -0.23000 5.16900 27.92100
C  -0.52400 6.60700 23.30500
C  0.70900 11.20100 24.48300
N  0.41800 7.43400 28.38900
C  0.74600 8.25500 29.38900
C  0.92700 7.47700 30.65500
C  0.52000 5.97200 30.22000
C  0.13800 6.15900 28.78600
C  1.65200 4.98600 30.59900
C  0.20500 8.06600 31.86700
C  0.86200 7.99000 33.28800
H  2.00200 6.97100 33.52900
N  -0.35000 6.23600 25.70300
C  -0.46900 5.11800 26.53500
C  -0.72600 3.91300 25.78700
C  -0.93000 4.31100 24.44300
C  -0.62000 5.74600 24.42200
C  -0.99800 2.48400 26.38700
C  -1.40100 3.45000 23.25900
O  -1.68800 3.98900 22.20200
C  -1.73700 2.01300 23.47100
N  0.15000 8.83300 24.18700
C  -0.00700 7.93300 23.18500
C  0.26700 8.62700 21.81500
C  0.27100 10.13200 22.16500
C  0.43900 10.07100 23.73800
C  1.56500 8.15000 21.08800
C  -0.94500 10.95300 21.65600
C  -0.57900 12.36700 21.32100
N  0.74100 10.07200 26.64700
C  1.00700 11.17000 25.88700
C  1.48700 12.30200 26.69700
C  1.51200 11.76300 27.99600
C  1.09100 10.42300 27.92100
C  1.90700 13.61500 26.25500
C  1.85800 12.08500 29.38100
O  2.28800 13.10800 29.90300
C  1.58400 10.77100 30.21600
C  2.63300 10.56400 31.26900
O  3.69000 9.95500 31.17100
O  2.34500 11.22000 32.45100
C  3.40300 11.07200 33.44100
H  -0.39700 4.21800 28.43200
H  -0.75800 6.13600 22.34800
H  0.85600 12.11300 23.90200
H  2.00200 7.51200 30.83400
H  -0.22500 5.54000 30.88800
H  2.02500 4.63300 29.63700
H  1.34000 4.07100 31.10200
H  2.52800 5.43600 31.06500
H  -0.73400 7.52400 31.98000
H  0.03000 9.12300 31.66300
H  0.05900 7.63200 33.93200
H  1.15300 8.95900 33.69300
H  -2.06500 2.37800 26.58400
H  -0.59100 2.48600 27.39800
H  -0.55900 1.74900 25.71100
H  -0.76600 1.52700 23.57000
H  -2.08000 1.68300 22.49000
H  -2.48000 1.78600 24.23500
H  -0.57100 8.42600 21.14800
H  1.20300 10.51400 21.74800
H  1.29300 7.43900 20.30800
H  2.07500 7.59200 21.87400
H  2.17500 8.91800 20.61300
H  -1.69100 10.91600 22.44900
H  -1.18800 10.43600 20.72700
H  -0.61000 12.56500 20.25000
H  0.36800 12.74300 21.70900
H  -1.28200 13.09800 21.72000
H  1.17500 14.26300 25.77300
H  2.64600 13.46700 25.46800
H  2.32800 14.22300 27.05600
H  0.62200 11.10000 30.60700
H  3.50200 10.02400 33.72300
H  3.07300 11.48900 34.39200
H  4.31700 11.45400 32.98400
Mg 5.04300 54.56000 39.90800
C  5.46700 51.02800 39.26000
C  8.21900 54.98300 38.63400
C  4.45300 57.86800 39.84500
C  1.75000 53.99100 40.74700
N  6.64000 53.08200 38.86400
C  6.61700 51.74200 38.83600
C  7.98200 51.17400 38.42400
C  8.93000 52.48700 38.54400
C  7.83300 53.63700 38.57800
C  10.01600 52.40600 39.70100
C  7.99100 50.31000 37.07200
C  8.69300 50.86700 35.79800
H  7.85100 50.75700 34.50600
N  6.16700 56.13900 39.35300
C  7.49800 56.13000 38.93800
C  8.03900 57.47600 38.80400
C  6.91900 58.34400 38.97100
C  5.75300 57.45400 39.39300
C  9.49700 57.75400 38.41100
C  6.96200 59.75400 38.72000
O  7.97200 60.30600 38.29000
C  5.69400 60.74100 38.66900
N  3.36500 55.68800 40.23800
C  3.36900 57.05000 40.21600
C  2.04400 57.58300 40.61500
C  1.06800 56.45300 40.62700
C  2.09900 55.27100 40.57200
C  2.07500 58.36300 41.92200
C  0.06700 56.35700 39.50400
C  -0.75600 57.60100 39.38400
N  3.81500 52.94900 40.06500
C  2.58600 52.85700 40.51700
C  2.28700 51.45200 40.72900
C  3.41200 50.70100 40.24600
C  4.31800 51.65900 39.84700
C  0.96300 50.97300 41.21500
C  3.97800 49.38400 40.05800
O  3.44500 48.30500 40.29100
C  5.35200 49.52900 39.41600
C  5.22700 48.84300 38.07800
O  4.47300 49.24000 37.20500
O  5.90000 47.61600 37.96800
C  5.52800 46.76400 36.89100
H  9.26300 55.15900 38.36200
H  4.32400 58.95200 39.86100
H  0.70500 53.85400 41.03400
H  8.31900 50.47000 39.18500
H  9.48500 52.62200 37.61600
H  10.01000 51.44600 40.21800
H  9.89100 53.09700 40.53500
H  11.05200 52.55300 39.39800
H  6.95300 50.10100 36.81300
H  8.36000 49.29300 37.19700
H  9.58300 50.24600 35.69800
H  8.90500 51.93500 35.73700
H  10.21600 56.98900 38.70200
H  9.75800 58.61700 39.02300
H  9.71300 57.93700 37.35800
H  6.14400 61.66700 38.31000
H  5.35500 60.74200 39.70500
H  5.02000 60.30800 37.93000
H  1.74700 58.25500 39.81000
H  0.62000 56.24100 41.59800
H  1.62800 59.31900 41.65000
H  3.13000 58.57000 42.10200
H  1.64200 57.82600 42.76600
H  -0.52700 55.50300 39.83200
H  0.68900 56.20400 38.62200
H  -0.38000 58.51700 39.83900
H  -1.79400 57.42500 39.66600
H  -0.78200 57.74100 38.30300
H  0.14700 51.64800 40.95800
H  1.04000 50.66100 42.25600
H  0.88600 50.07200 40.60700
H  6.15500 49.03200 39.96100
H  4.78000 46.14100 37.38100
H  6.45100 46.23200 36.66300
H  5.29900 47.28200 35.96000

