158

Mg 1.50700 -2.63800 45.68000
C  4.91900 -1.94100 45.46700
C  0.85800 0.26800 43.98400
C  -1.75400 -3.68300 45.33700
C  2.25300 -5.61700 47.20600
N  2.75700 -1.15300 44.57000
C  4.12600 -1.04800 44.68500
C  4.65500 0.18600 43.92100
C  3.35700 1.01700 43.92900
C  2.23600 0.02800 44.14000
C  3.35200 2.26700 44.89700
C  5.25600 -0.14300 42.59500
C  6.41200 0.81100 42.18400
H  6.40100 1.31700 40.74900
N  -0.16300 -1.79000 44.75500
C  -0.23500 -0.49500 44.22400
C  -1.60700 -0.23100 43.97100
C  -2.47000 -1.32600 44.38900
C  -1.45200 -2.38200 44.87300
C  -2.01100 1.15200 43.37000
C  -3.94100 -1.40100 44.24100
O  -4.50900 -0.32200 43.95900
C  -4.73100 -2.61100 44.58700
N  0.32000 -4.53400 46.10500
C  -0.94200 -4.75000 45.83800
C  -1.39500 -6.06100 46.33100
C  -0.00500 -6.78800 46.73700
C  0.91300 -5.53600 46.76200
C  -2.28800 -5.98700 47.62300
C  0.47700 -7.71900 45.51900
C  1.12000 -9.07600 45.86600
N  3.20800 -3.59100 46.23900
C  3.36400 -4.77500 46.94300
C  4.75000 -4.94600 47.35200
C  5.40300 -3.82700 46.76200
C  4.42600 -3.06800 46.08600
C  5.22600 -6.04200 48.21100
C  6.67000 -3.14800 46.61200
O  7.77900 -3.34700 47.11900
C  6.42700 -1.95200 45.63900
C  6.89600 -0.69200 46.32500
O  6.59800 -0.41200 47.50500
O  7.67900 0.10200 45.56900
C  8.03100 1.49900 45.97100
H  0.63100 1.30800 43.73900
H  -2.81200 -3.94600 45.28000
H  2.48200 -6.55400 47.71800
H  5.39600 0.69000 44.54000
H  3.05800 1.53600 43.01800
H  2.63400 2.17200 45.71200
H  3.07100 3.18400 44.38000
H  4.38300 2.51400 45.14900
H  4.44200 -0.12700 41.87000
H  5.73300 -1.12300 42.59500
H  7.39400 0.36500 42.33800
H  6.29000 1.67000 42.84300
H  -2.68700 1.60100 44.09800
H  -2.42400 1.21300 42.36300
H  -1.17300 1.84900 43.37800
H  -4.55100 -2.92600 45.61400
H  -4.46600 -3.32500 43.80700
H  -5.80200 -2.50100 44.41800
H  -1.97600 -6.50500 45.52300
H  -0.13400 -7.19900 47.73800
H  -2.48800 -4.93500 47.82300
H  -1.79300 -6.40400 48.50000
H  -3.26100 -6.46500 47.51200
H  1.18900 -7.17100 44.90300
H  -0.37000 -8.08500 44.93900
H  2.14900 -9.13100 45.51000
H  0.75200 -9.88000 45.22900
H  1.05800 -9.36000 46.91600
H  5.27600 -6.87800 47.51300
H  4.53400 -6.29000 49.01600
H  6.26600 -5.88400 48.49800
H  7.06000 -2.16900 44.77900
H  7.94200 2.19200 45.13500
H  9.04800 1.54900 46.36000
H  7.33000 1.91000 46.69700
Mg -5.62300 25.30600 26.22300
C  -4.14200 26.88200 29.04100
C  -7.45400 23.48700 28.32300
C  -6.48600 23.55600 23.52100
C  -3.33700 27.20500 24.27300
N  -5.60500 25.11700 28.49700
C  -5.06200 25.97400 29.39200
C  -5.53600 25.53000 30.82700
C  -6.31700 24.23500 30.55300
C  -6.61300 24.35200 29.01900
C  -5.68200 23.01600 31.05300
C  -6.34400 26.61500 31.50800
C  -5.88200 26.99000 32.92600
H  -5.19100 26.05900 33.90400
N  -6.86200 23.77000 25.90400
C  -7.67100 23.20100 26.97500
C  -8.69500 22.47100 26.27600
C  -8.38200 22.36000 24.86000
C  -7.20600 23.26100 24.69800
C  -9.81000 21.83100 27.00700
C  -8.95500 21.52000 23.66200
O  -8.54400 21.57900 22.52500
C  -10.11500 20.60000 23.91100
N  -4.88600 25.30600 24.29700
C  -5.51900 24.56500 23.33700
C  -4.88000 24.66800 21.95900
C  -4.03100 25.98900 22.14200
C  -4.08000 26.25900 23.63700
C  -4.09700 23.44000 21.54200
C  -4.56800 27.13900 21.30600
C  -3.61900 27.59900 20.09700
N  -4.06800 26.72300 26.45600
C  -3.26900 27.45300 25.62900
C  -2.41500 28.41200 26.32700
C  -2.74200 28.19300 27.67700
C  -3.78000 27.20600 27.70000
C  -1.40600 29.31600 25.70700
C  -2.45400 28.65100 29.07100
O  -1.65400 29.47000 29.56100
C  -3.34400 27.72800 30.06900
C  -2.37100 26.83200 30.72100
O  -1.89600 25.72900 30.33900
O  -1.99000 27.43700 31.93500
C  -1.05400 26.74500 32.78000
H  -8.07700 22.97800 29.06200
H  -6.81500 23.04400 22.61300
H  -2.65700 27.78500 23.64600
H  -4.65500 25.37400 31.45100
H  -7.32100 24.21300 30.97500
H  -6.28300 22.58000 31.85100
H  -4.68500 23.18200 31.45900
H  -5.62900 22.20500 30.32700
H  -7.38000 26.29900 31.63800
H  -6.31200 27.44100 30.79700
H  -6.81500 27.34500 33.36400
H  -5.29500 27.90900 32.92100
H  -10.05600 22.46900 27.85600
H  -9.58000 20.77800 27.17000
H  -10.70900 21.89300 26.39500
H  -10.35400 20.15700 22.94400
H  -10.94900 21.23800 24.20300
H  -9.84000 19.89600 24.69600
H  -5.65500 24.80800 21.20600
H  -2.98000 25.80400 21.92500
H  -3.06400 23.52800 21.20500
H  -4.53600 22.99300 20.65000
H  -4.08600 22.64000 22.28200
H  -4.61800 27.99400 21.98000
H  -5.58900 26.88800 21.01900
H  -3.15600 28.53700 20.40300
H  -4.23600 27.65500 19.20000
H  -2.88000 26.80800 19.97100
H  -1.86000 30.20400 25.26800
H  -0.81700 28.71400 25.01500
H  -0.69700 29.63300 26.47300
H  -3.97000 28.31100 30.74500
H  -0.16500 26.35800 32.28400
H  -1.51300 25.85200 33.20300
H  -0.64400 27.39600 33.55200

