158

Mg 1.42000 42.47000 25.84500
C  2.98800 42.58700 29.02900
C  -1.51800 41.56000 27.59800
C  0.16000 41.56100 22.94700
C  4.51500 43.06700 24.39200
N  0.79700 42.09900 28.04700
C  1.65200 42.27300 29.14600
C  0.96900 41.83300 30.48500
C  -0.44600 41.42700 29.99300
C  -0.40700 41.75500 28.45500
C  -0.83800 39.91300 30.34500
C  0.89400 43.12000 31.46500
C  0.93200 42.94900 32.95700
H  0.80800 41.48200 33.52900
N  -0.49700 41.80200 25.29500
C  -1.56600 41.61500 26.17000
C  -2.69900 41.27600 25.28900
C  -2.24500 41.19200 23.88500
C  -0.84700 41.50700 23.99900
C  -4.08800 40.95400 25.75900
C  -2.93200 40.80000 22.64400
O  -2.39600 40.77400 21.52200
C  -4.41000 40.54100 22.62500
N  2.18100 42.47500 23.96100
C  1.46200 41.96700 22.89600
C  2.38300 41.77900 21.62900
C  3.52800 42.83900 21.98700
C  3.43900 42.77500 23.55300
C  2.89600 40.30200 21.54800
C  3.42500 44.26400 21.47200
C  4.36400 44.62200 20.30800
N  3.33700 42.80200 26.51700
C  4.48000 43.08200 25.80100
C  5.56700 43.16000 26.71300
C  5.06300 42.98900 27.96800
C  3.68600 42.76700 27.82400
C  6.94500 43.25800 26.21100
C  5.38700 42.77500 29.36800
O  6.50300 42.66600 29.89200
C  4.00900 42.64000 30.18900
C  4.13200 41.37200 31.03300
O  4.19100 40.21700 30.61600
O  4.33100 41.82100 32.31700
C  4.77500 40.72700 33.28100
H  -2.42200 41.24700 28.12400
H  -0.13700 41.22000 21.95300
H  5.51300 43.29000 24.00800
H  1.52300 41.09100 31.06000
H  -1.23300 42.01800 30.46100
H  -0.83900 39.35000 29.41100
H  -1.78500 39.78500 30.86800
H  -0.07900 39.40500 30.94000
H  -0.10400 43.44000 31.16700
H  1.53500 43.87300 31.00700
H  0.01300 43.45700 33.24900
H  1.83300 43.41700 33.35400
H  -4.12900 39.87600 25.60300
H  -4.78500 41.57100 25.19200
H  -4.19100 41.02100 26.84200
H  -4.55300 39.51300 22.95600
H  -4.60800 40.59000 21.55500
H  -4.89800 41.37100 23.13600
H  1.72600 42.05800 20.80500
H  4.47100 42.45300 21.60000
H  2.65200 39.91600 22.53700
H  3.96400 40.17100 21.36900
H  2.44700 39.72700 20.73900
H  3.58000 44.96200 22.29400
H  2.42000 44.30600 21.05300
H  3.80000 44.92500 19.42600
H  5.18700 43.91100 20.23400
H  4.82100 45.57400 20.58300
H  7.17900 42.50800 25.45600
H  7.57000 43.25400 27.10400
H  7.04900 44.19000 25.65600
H  3.88300 43.54300 30.78700
H  5.86400 40.75000 33.31600
H  4.47800 39.72800 32.96100
H  4.23600 40.91300 34.21000
Mg -11.78600 17.68800 41.68400
C  -8.66500 16.30100 41.21800
C  -10.54900 20.79700 40.73300
C  -14.85700 18.89100 41.88300
C  -12.94500 14.39800 42.43800
N  -9.86200 18.44000 41.03300
C  -8.71100 17.66900 40.91300
C  -7.49200 18.53400 40.51400
C  -8.11700 20.02300 40.65500
C  -9.63500 19.75700 40.90800
C  -7.55500 20.73700 41.98300
C  -6.96200 18.18700 39.12700
C  -5.45900 18.26300 38.76200
H  -5.00200 18.42600 37.28900
N  -12.56800 19.55700 41.28900
C  -11.92000 20.65000 40.81300
C  -12.82100 21.76300 40.61600
C  -14.08800 21.26800 41.07300
C  -13.86100 19.83700 41.38900
C  -12.47300 23.05800 39.97100
C  -15.48100 22.08700 41.21000
O  -15.50700 23.26800 40.86900
C  -16.79500 21.45800 41.74300
N  -13.66400 16.76300 41.89200
C  -14.72200 17.58000 42.15000
C  -15.97300 16.65100 42.48900
C  -15.33500 15.36600 42.87500
C  -13.89600 15.44300 42.36200
C  -16.92900 17.29200 43.54800
C  -16.20700 14.05300 42.47900
C  -16.75900 13.21500 43.66400
N  -11.06900 15.68900 41.62700
C  -11.59500 14.45400 42.04800
C  -10.57000 13.35100 41.92100
C  -9.39700 14.12600 41.66000
C  -9.72200 15.48300 41.53100
C  -10.92700 11.95400 41.94500
C  -7.95600 14.02700 41.46600
O  -7.25300 13.00400 41.41600
C  -7.47500 15.41600 41.25800
C  -6.35400 15.91300 42.12200
O  -6.59000 16.54200 43.12300
O  -5.15100 15.28700 41.81400
C  -4.20600 15.28200 42.89000
H  -10.15100 21.75600 40.39700
H  -15.85400 19.29400 42.07400
H  -13.25000 13.43500 42.85200
H  -6.73300 18.34800 41.27300
H  -8.07000 20.61000 39.73800
H  -8.40600 21.04000 42.59300
H  -7.04400 21.67100 41.74900
H  -7.06000 20.09000 42.70700
H  -7.52400 18.73600 38.37100
H  -7.19500 17.17500 38.79500
H  -4.89000 17.36600 39.00600
H  -5.03300 19.14200 39.24700
H  -12.20600 23.76500 40.75600
H  -13.33200 23.46500 39.43700
H  -11.67600 22.86700 39.25300
H  -17.23300 20.70700 41.08400
H  -17.53400 22.25700 41.79800
H  -16.63700 21.06100 42.74600
H  -16.35000 16.66100 41.46600
H  -15.14200 15.34900 43.94800
H  -16.91900 16.69500 44.46000
H  -17.91800 17.50300 43.14300
H  -16.48700 18.21800 43.91600
H  -15.50600 13.36900 42.00100
H  -17.01500 14.34200 41.80800
H  -16.34000 12.22900 43.86200
H  -17.81000 13.03600 43.44000
H  -16.56600 13.77500 44.58000
H  -11.09900 11.72800 40.89300
H  -11.85400 11.82700 42.50300
H  -10.16800 11.29700 42.37000
H  -7.16900 15.38600 40.21300
H  -3.22100 15.39000 42.43700
H  -4.29100 14.36200 43.46800
H  -4.18500 16.08400 43.62800

