158

Mg 47.35400 44.85600 43.03000
C  43.88600 44.47400 42.83800
C  47.61400 41.43900 42.60300
C  50.56500 45.30800 42.25300
C  46.85800 48.38300 42.65100
N  45.88100 43.18900 42.86300
C  44.54300 43.24400 42.83600
C  43.93400 41.89200 42.55300
C  45.11800 40.94000 42.79000
C  46.28300 41.85300 42.66400
C  45.15100 39.95800 44.02100
C  43.30500 41.67100 41.10300
C  44.22200 41.98000 39.91100
H  44.91300 40.86400 39.17700
N  48.86600 43.56600 42.64900
C  48.81700 42.15600 42.60500
C  50.18100 41.62700 42.41100
C  51.06700 42.72100 42.15000
C  50.17400 43.93400 42.32800
C  50.51300 40.16300 42.45500
C  52.56700 42.64900 41.71600
O  53.13400 41.56300 41.57300
C  53.36400 43.85500 41.35100
N  48.49500 46.52900 42.35500
C  49.86600 46.47900 42.29100
C  50.58500 47.87300 42.09100
C  49.30200 48.82500 42.10800
C  48.12200 47.89200 42.46000
C  51.68200 48.14200 43.20700
C  49.00300 49.65400 40.83300
C  49.37200 51.16200 40.89800
N  45.69500 46.17600 42.91900
C  45.67500 47.57600 42.82300
C  44.32100 47.98200 42.78300
C  43.47500 46.81300 42.85200
C  44.41000 45.77700 42.87400
C  43.86700 49.32000 42.35300
C  42.18200 46.24900 42.87200
O  41.08900 46.79800 42.93300
C  42.40300 44.69400 42.89300
C  41.75700 44.29300 44.15800
O  42.33300 44.33800 45.23800
O  40.45700 43.83500 43.93100
C  39.68400 43.39500 45.13400
H  47.83400 40.38500 42.41700
H  51.63300 45.49500 42.12000
H  46.78600 49.46900 42.56500
H  43.10400 41.78100 43.25000
H  45.13500 40.32100 41.89300
H  45.94900 40.16900 44.73200
H  45.32600 38.94300 43.66200
H  44.16800 39.88600 44.48600
H  42.37700 42.22000 40.94600
H  42.97500 40.63700 40.99700
H  45.08400 42.60100 40.15500
H  43.71700 42.67400 39.23800
H  49.92400 39.64900 43.21400
H  51.56400 39.97300 42.67300
H  50.30700 39.77000 41.45900
H  52.74700 44.43500 40.66400
H  54.31000 43.59700 40.87700
H  53.56200 44.48800 42.21700
H  51.07400 47.84200 41.11700
H  49.34000 49.53400 42.93500
H  51.80500 47.21900 43.77300
H  51.46900 48.83400 44.02200
H  52.61400 48.36700 42.68900
H  47.92000 49.61600 40.71900
H  49.58000 49.32000 39.97100
H  49.76100 51.60100 41.81700
H  48.47800 51.72000 40.61900
H  50.11100 51.38300 40.12800
H  43.07700 49.17300 41.61700
H  44.69500 49.86100 41.89400
H  43.54300 49.90100 43.21700
H  41.84200 44.16000 42.12600
H  39.49000 44.20300 45.83900
H  40.27300 42.62100 45.62600
H  38.66200 43.10400 44.89200
Mg 16.46400 52.25800 24.75100
C  18.02400 51.03500 27.69600
C  13.79400 53.04800 26.67600
C  15.08400 53.25700 21.97800
C  19.10200 50.71800 23.02300
N  15.95600 52.09200 26.99400
C  16.76000 51.59200 28.03300
C  16.20800 51.99100 29.38500
C  14.76100 52.51900 29.02400
C  14.86500 52.51600 27.43600
C  13.64100 51.68700 29.68500
C  17.19500 52.93500 30.16200
C  17.71800 52.43800 31.53300
H  16.83500 51.47900 32.39700
N  14.68300 53.06100 24.36800
C  13.69600 53.33700 25.25300
C  12.60100 53.95100 24.51700
C  12.91400 54.09000 23.15600
C  14.29200 53.47700 23.11800
C  11.34700 54.29300 25.29500
C  12.09900 54.76100 22.06000
O  12.54100 54.84100 20.91600
C  10.80200 55.33900 22.29100
N  17.00000 52.13400 22.83800
C  16.31500 52.59700 21.81300
C  16.56900 51.80000 20.54600
C  17.91400 51.09000 20.80400
C  18.04300 51.33100 22.31300
C  15.27700 50.87200 20.28500
C  19.16500 51.68300 19.97200
C  19.64700 50.92000 18.80900
N  18.20500 51.14700 25.22600
C  19.25100 50.63100 24.40200
C  20.31800 50.00600 25.15100
C  19.84100 50.11200 26.44600
C  18.54600 50.77000 26.43100
C  21.58000 49.40800 24.68300
C  20.17900 49.81200 27.80500
O  21.12600 49.19600 28.18900
C  19.08800 50.47400 28.69600
C  18.52000 49.39900 29.64000
O  17.53600 48.76800 29.37500
O  19.31400 49.20800 30.75500
C  18.87500 48.16500 31.62900
H  13.03000 53.47700 27.32800
H  14.63500 53.55900 21.03000
H  19.74700 50.04000 22.46000
H  16.15800 51.02600 29.88900
H  14.58000 53.52800 29.39400
H  14.10000 50.89700 30.27900
H  13.06900 51.22900 28.87900
H  13.04600 52.27800 30.38200
H  16.76100 53.93000 30.25300
H  18.12400 53.04900 29.60400
H  17.83900 53.31100 32.17400
H  18.66300 51.94700 31.30000
H  11.35200 53.70400 26.21200
H  10.50000 53.96900 24.69000
H  11.18100 55.31500 25.63600
H  10.67100 56.29500 22.79700
H  10.06900 54.63100 22.67800
H  10.40600 55.63200 21.31900
H  16.51300 52.37100 19.62000
H  17.84200 50.04300 20.51000
H  14.86700 51.25500 19.35000
H  14.61100 50.94500 21.14500
H  15.52300 49.83000 20.08000
H  19.99600 51.88400 20.64900
H  18.73700 52.64100 19.67500
H  19.24500 51.31700 17.87700
H  19.37100 49.86600 18.84000
H  20.73300 50.96100 18.72500
H  22.31100 50.17300 24.94400
H  21.55000 49.30500 23.59800
H  21.67900 48.44500 25.18300
H  19.52800 51.28100 29.28300
H  19.46300 48.28100 32.53900
H  19.02200 47.19900 31.14400
H  17.87400 48.26100 32.04900

