158

Mg 48.09400 34.15900 27.12400
C  46.25300 32.72000 29.75400
C  48.97200 36.64000 29.35600
C  49.90600 35.43200 24.69800
C  47.27000 31.33500 25.08900
N  47.65000 34.56100 29.24100
C  46.99100 33.80400 30.16200
C  47.34400 34.27000 31.62500
C  47.79300 35.71900 31.37200
C  48.11400 35.66600 29.84300
C  46.66600 36.71100 31.65100
C  48.39900 33.44700 32.29700
C  48.34900 33.41900 33.85400
H  47.36700 34.26500 34.78300
N  49.16200 35.89800 26.97800
C  49.42000 36.84200 28.06000
C  50.41500 37.77800 27.52300
C  50.73900 37.38500 26.20200
C  49.88700 36.19800 25.88800
C  50.99300 38.88600 28.48000
C  51.68100 38.07400 25.17200
O  51.94400 37.55300 24.07100
C  52.32100 39.46100 25.52500
N  48.36000 33.55900 25.09400
C  49.18300 34.29500 24.22800
C  49.54000 33.53100 22.93000
C  48.78800 32.11100 23.15500
C  48.03700 32.31000 24.51600
C  49.22800 34.29000 21.59100
C  49.75900 30.89900 23.16600
C  50.02900 30.23700 21.83200
N  46.84600 32.52600 27.30900
C  46.61200 31.48200 26.40900
C  45.67300 30.56000 26.98900
C  45.50800 31.01000 28.31400
C  46.25900 32.17600 28.45600
C  45.11200 29.34900 26.31600
C  44.84300 30.68300 29.55500
O  44.14700 29.69000 29.84000
C  45.26200 31.82200 30.57000
C  45.86500 31.07300 31.62900
O  46.85500 30.37200 31.51400
O  45.05800 31.03600 32.73600
C  45.62300 30.25300 33.83800
H  49.14500 37.51000 29.99200
H  50.57500 35.71100 23.88200
H  47.22000 30.43300 24.47500
H  46.50700 34.26600 32.32400
H  48.65300 36.01500 31.97300
H  45.95500 36.40100 32.41700
H  46.10000 36.82000 30.72500
H  47.09900 37.67400 31.91800
H  49.37600 33.86200 32.05300
H  48.45100 32.45700 31.84500
H  49.36400 33.71900 34.11500
H  48.30200 32.39600 34.22600
H  51.99100 38.57400 28.78700
H  50.27600 39.00600 29.29200
H  51.13200 39.85200 27.99300
H  51.56700 40.23500 25.66700
H  53.01000 39.65000 24.70300
H  52.88500 39.26600 26.43700
H  50.61500 33.36300 22.99100
H  48.01800 32.10700 22.38300
H  48.69900 35.23100 21.74400
H  48.62800 33.71900 20.88100
H  50.17500 34.23900 21.05500
H  49.62100 30.18400 23.97700
H  50.74300 31.32600 23.35800
H  49.54400 30.72000 20.98300
H  49.61300 29.22900 21.82400
H  51.09500 30.08500 21.66700
H  45.00000 29.59400 25.26000
H  44.14300 29.10400 26.75100
H  45.87300 28.58800 26.48600
H  44.40900 32.41600 30.90000
H  45.60500 29.24000 33.43500
H  44.96600 30.21700 34.70700
H  46.64800 30.47200 34.13700
Mg 0.07800 43.66200 26.16600
C  2.34600 44.08900 28.82100
C  -2.35400 42.98700 28.66900
C  -2.03700 42.90600 23.79000
C  2.73600 43.76300 23.88800
N  -0.02400 43.54400 28.54700
C  1.03000 43.89200 29.34400
C  0.62600 43.86300 30.82200
C  -0.83500 43.23700 30.78700
C  -1.14000 43.26800 29.23900
C  -0.97000 41.78900 31.39100
C  0.79600 45.23600 31.58800
C  1.41200 45.27100 32.95800
H  1.12500 44.06000 33.91300
N  -1.94000 43.28400 26.18300
C  -2.77900 43.06800 27.29000
C  -4.15600 42.76200 26.82900
C  -4.03200 42.71900 25.40900
C  -2.59900 42.93200 25.06900
C  -5.31700 42.46100 27.80800
C  -5.14500 42.63500 24.40300
O  -4.86700 42.74200 23.17800
C  -6.62700 42.47800 24.70600
N  0.32000 43.39200 24.13600
C  -0.75800 43.14600 23.34200
C  -0.35900 43.01500 21.79400
C  1.15000 43.35400 21.89300
C  1.45600 43.60700 23.41700
C  -0.62700 41.57600 21.31000
C  1.52900 44.60000 21.08700
C  2.80100 44.60300 20.32800
N  2.14000 43.77000 26.23500
C  3.07900 43.90300 25.28700
C  4.40400 44.27600 25.79200
C  4.11800 44.31100 27.21400
C  2.74300 43.99600 27.40500
C  5.64600 44.58400 25.05100
C  4.77700 44.54700 28.48900
O  5.91700 44.82900 28.76600
C  3.59100 44.45700 29.56800
C  4.00800 43.39900 30.49800
O  3.55900 42.28600 30.51000
O  4.98100 43.92800 31.32700
C  5.46800 43.16300 32.45900
H  -3.23600 42.81600 29.29100
H  -2.69900 42.68500 22.95000
H  3.51200 43.99600 23.15700
H  1.19900 43.09600 31.34400
H  -1.53700 43.92300 31.26000
H  -0.06100 41.42100 31.86700
H  -1.12600 41.11600 30.54900
H  -1.73600 41.65000 32.15300
H  -0.13500 45.80300 31.61400
H  1.46100 45.87500 31.00800
H  1.18600 46.17300 33.52700
H  2.49000 45.26200 32.79100
H  -6.07200 41.82500 27.34600
H  -5.79400 43.38600 28.13300
H  -4.98800 41.81700 28.62400
H  -6.88600 43.21500 25.46600
H  -6.84100 41.47100 25.06600
H  -7.12400 42.74000 23.77300
H  -1.02200 43.64900 21.20500
H  1.69900 42.46300 21.58900
H  -1.46500 41.71300 20.62700
H  -0.92700 40.93700 22.14100
H  0.23600 41.05300 20.89700
H  1.71100 45.43000 21.77000
H  0.70700 44.96400 20.47000
H  3.20900 43.59600 20.41100
H  3.57200 45.24400 20.75500
H  2.66000 44.90900 19.29100
H  6.31100 43.72000 25.07000
H  6.17300 45.36600 25.59700
H  5.46400 44.85100 24.01000
H  3.47000 45.38800 30.12300
H  6.03700 42.28700 32.14800
H  4.65900 42.85400 33.12100
H  6.18600 43.82200 32.94800

