158

Mg 47.18400 24.39000 28.52200
C  47.95700 26.63400 31.08500
C  46.34700 22.07400 30.79200
C  46.52200 22.36700 25.93800
C  48.49000 26.68700 26.22400
N  47.21200 24.38500 30.76600
C  47.54800 25.37600 31.61300
C  47.18500 24.92400 33.00500
C  46.64700 23.48200 32.86300
C  46.68100 23.31900 31.33700
C  47.39300 22.35400 33.77800
C  46.22100 25.99400 33.77000
C  45.34000 25.44500 34.88700
H  45.10300 26.28300 36.20500
N  46.55100 22.46500 28.42200
C  46.28500 21.59500 29.42100
C  45.94300 20.26900 28.91700
C  45.93800 20.37100 27.48600
C  46.32200 21.78800 27.21300
C  45.76800 18.99700 29.76900
C  45.64200 19.35600 26.39900
O  45.62700 19.65200 25.23400
C  45.33800 17.98400 26.77800
N  47.55700 24.40700 26.37700
C  47.05900 23.56800 25.55700
C  47.09000 23.98700 24.04600
C  47.82700 25.34100 24.15400
C  48.08200 25.46300 25.67400
C  47.64400 22.90500 23.06100
C  47.05300 26.61800 23.62800
C  47.79900 27.75700 22.92200
N  48.15900 26.22600 28.54100
C  48.56000 27.05200 27.54000
C  49.13200 28.33000 28.11200
C  48.84800 28.16500 29.48300
C  48.33200 26.87600 29.71300
C  49.61500 29.54800 27.37600
C  48.97500 28.74700 30.77400
O  49.53900 29.78500 31.04000
C  48.38300 27.82100 31.89500
C  49.31000 27.47900 33.08400
O  50.16900 26.65300 33.00900
O  48.99700 28.11400 34.26100
C  49.58800 27.93300 35.58600
H  45.95300 21.42900 31.57900
H  46.12200 21.82800 25.07700
H  48.70400 27.50600 25.53300
H  48.11800 24.84900 33.56400
H  45.61400 23.43000 33.20500
H  47.93600 21.58700 33.22500
H  46.63000 21.89000 34.40300
H  48.09900 22.94900 34.35800
H  45.55800 26.43500 33.02500
H  46.99500 26.61400 34.22300
H  45.73000 24.48100 35.21600
H  44.34100 25.35600 34.46000
H  46.49300 18.23700 29.47900
H  44.74600 18.67200 29.57700
H  45.83700 19.02000 30.85600
H  44.57700 17.96500 27.55700
H  46.24700 17.42800 27.00800
H  44.80700 17.49700 25.95900
H  46.06700 24.30800 23.84700
H  48.80700 25.33300 23.67700
H  47.80700 21.93800 23.53700
H  48.57700 23.15500 22.55600
H  46.89200 22.67900 22.30500
H  46.47100 26.99800 24.46800
H  46.24400 26.39500 22.93300
H  47.59700 27.70600 21.85200
H  48.87600 27.71300 23.09000
H  47.49300 28.78800 23.09700
H  49.63400 29.54200 26.28600
H  50.63100 29.74600 27.71700
H  48.97300 30.39100 27.63000
H  47.51700 28.33700 32.30800
H  48.86200 27.58100 36.31800
H  49.97900 28.85600 36.01500
H  50.35000 27.15300 35.56900
Mg -2.53200 34.28000 26.62500
C  -4.44100 32.89700 29.25900
C  -1.72900 36.94500 28.64400
C  -0.88700 35.73200 24.07300
C  -4.06900 31.98000 24.55800
N  -3.21500 34.81200 28.68000
C  -3.76700 33.99200 29.63600
C  -3.75400 34.73200 30.98700
C  -2.97300 36.09600 30.62100
C  -2.65300 35.97400 29.17200
C  -3.75800 37.36100 30.97400
C  -3.09600 34.02600 32.15700
C  -2.67200 34.84800 33.42500
H  -3.19700 34.53000 34.83800
N  -1.45300 36.12100 26.37100
C  -1.22100 37.06000 27.29400
C  -0.29000 38.09400 26.82300
C  0.00600 37.71800 25.48200
C  -0.83400 36.53300 25.20900
C  0.30800 39.23400 27.72000
C  0.93500 38.34900 24.42200
O  1.03500 37.96100 23.28500
C  1.76000 39.51200 24.86600
N  -2.62500 33.98500 24.63600
C  -1.79300 34.67700 23.79600
C  -1.69100 33.95400 22.40900
C  -2.65800 32.73100 22.57400
C  -3.15200 32.93000 24.04700
C  -2.02300 34.75800 21.10300
C  -1.82300 31.40800 22.46500
C  -2.59600 30.24800 21.90200
N  -3.99300 32.75400 26.80900
C  -4.49100 31.87500 25.88500
C  -5.38100 30.85500 26.50000
C  -5.40200 31.27800 27.89900
C  -4.56200 32.40300 27.98200
C  -6.03000 29.71000 25.76700
C  -5.94600 30.95600 29.21600
O  -6.67400 30.04100 29.47700
C  -5.26900 31.93700 30.19500
C  -6.29900 32.60200 31.04700
O  -7.11100 33.40200 30.57600
O  -6.26900 32.15700 32.32600
C  -7.39400 32.50700 33.25200
H  -1.41400 37.72600 29.34000
H  -0.31000 36.01100 23.18900
H  -4.45400 31.19800 23.90000
H  -4.81200 34.89900 31.18700
H  -2.00200 36.14500 31.11300
H  -3.47800 38.19000 30.32400
H  -3.56900 37.63900 32.01000
H  -4.81900 37.19900 30.77900
H  -2.35600 33.31200 31.79500
H  -3.78200 33.29500 32.58600
H  -2.84900 35.91900 33.33100
H  -1.58800 34.77100 33.50500
H  1.34100 38.94800 27.91400
H  -0.30700 39.32100 28.61700
H  0.23000 40.19500 27.21200
H  2.21100 39.35900 25.84600
H  1.11400 40.38500 24.95600
H  2.55500 39.75700 24.16100
H  -0.65400 33.65200 22.26100
H  -3.55800 32.78300 21.96200
H  -2.37100 35.78000 21.25500
H  -2.68900 34.27300 20.39000
H  -1.14400 34.90200 20.47500
H  -1.54700 31.21800 23.50200
H  -0.87700 31.55500 21.94600
H  -1.96100 29.72500 21.18700
H  -3.55800 30.49500 21.45200
H  -2.73500 29.56100 22.73700
H  -7.02500 29.90300 25.36600
H  -6.10200 28.86600 26.45400
H  -5.38500 29.55400 24.90300
H  -4.57600 31.45500 30.88400
H  -8.03200 33.19800 32.70000
H  -7.04400 32.89100 34.21000
H  -7.98300 31.61600 33.47200

