158

Mg 47.17200 25.23600 29.29700
C  47.80800 27.56000 31.84200
C  45.70600 23.21300 31.70300
C  46.57700 23.03800 26.82800
C  48.87600 27.28500 27.09500
N  46.71100 25.40200 31.50600
C  47.13000 26.42900 32.34700
C  46.59000 26.21200 33.76700
C  45.97400 24.79600 33.72400
C  46.20300 24.39800 32.22500
C  46.50900 23.82500 34.84200
C  45.53800 27.41900 34.05600
C  45.34100 27.85200 35.53000
H  45.83500 26.94700 36.68000
N  46.35700 23.36900 29.29300
C  45.64900 22.73500 30.34800
C  45.05000 21.55600 29.89400
C  45.40900 21.38400 28.49900
C  46.16200 22.62000 28.13500
C  44.32300 20.63100 30.84500
C  45.01200 20.24300 27.48800
O  45.32000 20.24800 26.28900
C  44.12900 19.17700 27.99100
N  47.66200 25.15400 27.21600
C  47.35800 24.07700 26.35500
C  47.63300 24.44200 24.87600
C  48.50200 25.74400 25.02300
C  48.33300 26.09700 26.48400
C  48.38300 23.23800 24.23900
C  48.10300 26.83300 24.04000
C  49.14500 27.88500 23.68900
N  48.10300 27.15200 29.29600
C  48.81300 27.74700 28.40200
C  49.33700 28.95700 28.92300
C  48.94200 28.98300 30.25700
C  48.22700 27.79900 30.42400
C  50.20100 29.93800 28.17900
C  48.92100 29.74300 31.47600
O  49.41600 30.86300 31.66400
C  48.17600 28.85600 32.53900
C  49.13600 28.61700 33.64800
O  50.21400 28.05200 33.47600
O  48.72000 29.17300 34.83700
C  49.61000 29.45000 35.95100
H  45.12100 22.60700 32.39900
H  46.20400 22.44300 25.99200
H  49.44700 27.93200 26.42600
H  47.39400 26.27000 34.50100
H  44.92900 24.86500 34.02600
H  45.69700 23.34600 35.38900
H  47.20400 24.19200 35.59800
H  46.96200 22.93800 34.39900
H  44.60400 26.92200 33.79400
H  45.67600 28.27000 33.38900
H  44.28700 28.05100 35.72200
H  45.89400 28.78600 35.63000
H  43.24600 20.54900 30.70500
H  44.41700 20.77100 31.92200
H  44.74200 19.63500 30.69600
H  43.21300 19.56600 28.43700
H  44.75400 18.47500 28.54300
H  43.88400 18.56800 27.12100
H  46.72900 24.56100 24.27900
H  49.53500 25.42000 24.89600
H  47.71600 22.45000 23.89100
H  49.00700 22.78600 25.01000
H  49.12500 23.64500 23.55200
H  47.26700 27.35800 24.50100
H  47.65600 26.26900 23.22200
H  50.04100 27.80500 24.30500
H  48.86700 28.92300 23.86900
H  49.45500 27.87500 22.64400
H  49.59400 30.78800 27.86700
H  50.52600 29.49400 27.23800
H  51.01200 30.36700 28.76700
H  47.33800 29.38600 32.99100
H  50.60100 29.02800 35.78300
H  49.44100 28.92900 36.89300
H  49.55300 30.52900 36.09900
Mg -2.82700 35.45600 26.55300
C  -4.53600 33.37100 28.82700
C  -1.41900 37.12900 29.10000
C  -1.44400 37.42100 24.26700
C  -4.70900 33.75800 23.98900
N  -3.11400 35.36700 28.60200
C  -3.70500 34.30600 29.39500
C  -3.43100 34.49400 30.86300
C  -2.55900 35.81900 30.92700
C  -2.34800 36.13400 29.40400
C  -3.15400 37.07500 31.72800
C  -2.68200 33.29200 31.50600
C  -3.47600 32.61500 32.69000
H  -2.69900 32.64700 33.97000
N  -1.43600 36.89300 26.69000
C  -0.89800 37.44400 27.84600
C  0.12500 38.45400 27.46100
C  0.10000 38.55400 26.02200
C  -0.96500 37.54500 25.58400
C  1.00000 39.11100 28.46700
C  0.96100 39.41900 25.07800
O  0.93000 39.43200 23.82300
C  1.98000 40.25700 25.76100
N  -3.24400 35.73900 24.53000
C  -2.46900 36.57800 23.77600
C  -2.87400 36.49600 22.28600
C  -3.75600 35.22700 22.19400
C  -4.02200 34.93800 23.66200
C  -3.50000 37.78300 21.71100
C  -3.01300 34.04600 21.34000
C  -1.86400 33.35600 22.12600
N  -4.44800 34.00700 26.36400
C  -5.05500 33.36600 25.27500
C  -5.94900 32.32200 25.76300
C  -5.76300 32.21500 27.10800
C  -4.89000 33.28100 27.41400
C  -6.85600 31.41900 24.90400
C  -6.19400 31.58600 28.30700
O  -6.98300 30.69300 28.49600
C  -5.35300 32.28800 29.43700
C  -6.42900 32.87600 30.34600
O  -7.24300 33.69100 30.02900
O  -6.42200 32.29500 31.59400
C  -7.42200 32.83100 32.55900
H  -0.97900 37.66000 29.94700
H  -0.90100 38.04000 23.55000
H  -5.25700 33.28400 23.17200
H  -4.40400 34.62400 31.33500
H  -1.56700 35.69700 31.36200
H  -2.87900 36.85100 32.75900
H  -4.21600 37.22600 31.53500
H  -2.56400 37.94800 31.44600
H  -1.71100 33.68100 31.80900
H  -2.62800 32.55500 30.70400
H  -3.66300 31.55200 32.53500
H  -4.43600 33.02800 33.00200
H  0.88200 38.74100 29.48500
H  0.84500 40.18900 28.51400
H  2.02100 38.87500 28.16600
H  2.48000 40.88000 25.01900
H  2.78800 39.72300 26.26000
H  1.41200 40.87200 26.46000
H  -1.89600 36.38000 21.81900
H  -4.66500 35.44800 21.63400
H  -4.54900 37.63900 21.45200
H  -3.00500 38.08700 20.78800
H  -3.37000 38.53400 22.49000
H  -2.60100 34.30500 20.36500
H  -3.78100 33.29600 21.15300
H  -2.20400 32.41600 22.56200
H  -1.60100 34.10000 22.87800
H  -0.97900 33.27600 21.49600
H  -7.20900 30.53300 25.43200
H  -6.19900 31.16300 24.07300
H  -7.65600 31.95000 24.38800
H  -4.77400 31.55500 29.99900
H  -7.92400 31.99500 33.04600
H  -8.23000 33.41400 32.11700
H  -6.96100 33.55200 33.23500

