158

Mg 34.45900 1.96400 30.33000
C  32.42700 3.02300 32.88900
C  37.16400 1.83000 32.50200
C  36.71000 1.80900 27.68100
C  31.97100 2.72300 27.98600
N  34.70200 2.53600 32.44100
C  33.63400 2.68800 33.33800
C  34.11700 2.63400 34.73400
C  35.68400 2.45200 34.64200
C  35.94500 2.29100 33.10600
C  36.63900 3.53400 35.26800
C  33.27200 1.65900 35.63400
C  32.70400 2.14500 37.02900
H  33.54100 3.25500 37.76500
N  36.51200 1.50400 30.13300
C  37.41800 1.47300 31.15800
C  38.68100 1.01300 30.71400
C  38.63000 1.09700 29.28300
C  37.23500 1.50500 28.96900
C  39.78500 0.51200 31.68900
C  39.80300 0.91900 28.30800
O  39.67700 1.16200 27.13400
C  41.18000 0.52300 28.83100
N  34.36600 2.13300 28.18200
C  35.35800 1.96000 27.32800
C  34.96300 2.24600 25.85700
C  33.39800 2.21800 25.92700
C  33.19300 2.35100 27.43400
C  35.48700 3.65200 25.30000
C  32.76300 0.80600 25.34900
C  31.33600 0.86500 24.76600
N  32.56800 2.80800 30.34200
C  31.65500 3.07500 29.34400
C  30.48200 3.54300 29.86400
C  30.70600 3.57100 31.26000
C  32.02200 3.12600 31.49000
C  29.22200 3.85300 29.08300
C  30.07000 3.79900 32.53600
O  28.93100 4.31900 32.66200
C  31.16000 3.48300 33.66100
C  31.24400 4.73100 34.29400
O  31.91000 5.71600 33.99500
O  30.58400 4.62400 35.50400
C  30.66500 5.65300 36.55500
H  37.94300 1.83500 33.26800
H  37.42500 1.80500 26.85500
H  31.07600 2.76600 27.36200
H  33.91300 3.62900 35.12800
H  35.94100 1.50500 35.11700
H  36.08500 4.22500 35.90300
H  36.97400 4.20900 34.48100
H  37.36900 3.14300 35.97800
H  33.83000 0.73800 35.80000
H  32.38400 1.38800 35.06300
H  32.59200 1.18200 37.52700
H  31.70500 2.58000 36.99200
H  40.59200 1.24400 31.67500
H  40.17500 -0.46100 31.39000
H  39.53200 0.54300 32.74900
H  41.56600 1.31700 29.46900
H  41.87100 0.49200 27.98900
H  41.18000 -0.47000 29.28100
H  35.23300 1.34600 25.30500
H  32.94100 3.08500 25.45000
H  35.83000 4.07500 26.24400
H  34.68300 4.26100 24.88500
H  36.30400 3.54500 24.58700
H  32.88300 0.03100 26.10600
H  33.39200 0.62100 24.47800
H  31.27800 0.80200 23.67900
H  30.92100 1.82700 25.06800
H  30.87700 0.00600 25.25400
H  28.65500 3.01600 28.67700
H  29.58200 4.55400 28.33000
H  28.56600 4.42100 29.74300
H  30.87800 2.71400 34.38000
H  29.78100 6.28300 36.45200
H  31.58000 6.22100 36.39200
H  30.72300 5.18400 37.53800
Mg 27.01000 50.69700 26.62500
C  24.85000 51.58800 29.24100
C  29.39500 49.80200 29.00800
C  29.02300 49.91900 24.17600
C  24.66200 51.90400 24.34000
N  27.07900 50.80900 28.82000
C  26.00700 50.93400 29.70000
C  26.40400 50.63900 31.18600
C  27.95900 50.40700 31.04700
C  28.14200 50.26200 29.49900
C  28.87500 51.39000 31.76500
C  25.58400 49.42100 31.85100
C  24.57400 49.76100 33.01800
H  24.63100 48.99700 34.32400
N  28.91600 49.95700 26.63700
C  29.77400 49.67700 27.67000
C  31.01100 49.27700 27.20700
C  30.95600 49.29700 25.77300
C  29.55400 49.76600 25.47000
C  32.15200 48.88400 28.07500
C  32.04900 49.07900 24.70500
O  31.89800 49.18500 23.44700
C  33.48300 48.82400 25.11900
N  26.84500 50.90300 24.55700
C  27.80900 50.44700 23.72200
C  27.34400 50.35300 22.25700
C  25.96900 51.02200 22.39100
C  25.81600 51.26200 23.86200
C  28.29800 50.96100 21.23000
C  24.77400 50.18900 21.83300
C  25.00300 49.53700 20.36600
N  25.15100 51.66500 26.70600
C  24.35700 52.07100 25.68000
C  23.19300 52.71200 26.26200
C  23.38100 52.54800 27.66600
C  24.58400 51.95000 27.84600
C  22.04000 53.32500 25.58400
C  22.74200 52.76300 28.97200
O  21.73100 53.39300 29.30900
C  23.61600 52.07600 30.02100
C  23.93000 53.14200 30.88600
O  24.60400 54.16700 30.60000
O  23.59400 52.77700 32.16000
C  24.31200 53.65700 33.11500
H  30.11500 49.51500 29.77700
H  29.71800 49.73600 23.35300
H  23.80100 52.06200 23.68700
H  26.20000 51.48200 31.84700
H  28.17000 49.39800 31.40100
H  28.29000 52.26800 32.04100
H  29.69700 51.73700 31.14000
H  29.28100 50.97700 32.68900
H  26.23600 48.61000 32.17700
H  24.94500 49.03600 31.05600
H  23.63100 49.66100 32.48100
H  24.55200 50.82400 33.25800
H  32.12300 49.09600 29.14400
H  32.92900 49.59300 27.79100
H  32.60100 47.92300 27.82300
H  34.09800 48.48300 24.28600
H  33.47700 47.95300 25.77400
H  33.82300 49.68300 25.69800
H  27.14400 49.32300 21.95800
H  25.97700 51.98000 21.87200
H  28.88100 50.20400 20.70600
H  29.06200 51.65800 21.57500
H  27.78900 51.54300 20.46200
H  23.83300 50.73800 21.81700
H  24.60900 49.37800 22.54200
H  25.01900 48.45400 20.49200
H  25.95400 49.80900 19.90800
H  24.21300 49.76500 19.65100
H  22.06000 54.40400 25.43100
H  21.14100 53.03500 26.12800
H  21.91600 52.91700 24.58100
H  23.03100 51.27900 30.48100
H  25.19500 53.06700 33.36200
H  23.68200 53.67200 34.00400
H  24.56900 54.68300 32.85000

