158

Mg 46.74400 24.93300 28.20400
C  47.72700 27.25300 30.68000
C  45.61000 22.82300 30.62000
C  46.34200 22.61800 25.72200
C  48.35100 27.03600 25.83500
N  46.64900 25.12700 30.41600
C  46.96300 26.21800 31.24600
C  46.52900 25.92100 32.73100
C  45.98600 24.45900 32.63600
C  46.06000 24.12600 31.10800
C  46.63700 23.36100 33.46500
C  45.47700 26.97300 33.27700
C  44.64200 26.75400 34.55400
H  45.49500 26.57600 35.89300
N  45.91700 23.05900 28.13600
C  45.60600 22.34100 29.27300
C  45.07600 21.01600 28.81700
C  45.24500 20.96800 27.41700
C  45.85200 22.26700 26.98100
C  44.51600 20.07700 29.83300
C  44.72400 19.95800 26.36500
O  45.01200 19.98000 25.16300
C  43.79600 18.99400 26.89100
N  47.18100 24.94400 26.06300
C  46.98800 23.80200 25.28600
C  47.68600 23.92700 23.87700
C  48.21000 25.37200 23.93600
C  47.85000 25.83800 25.37100
C  48.60900 22.74300 23.50000
C  47.85600 26.38900 22.74100
C  48.94100 27.38500 22.32600
N  47.69000 26.82700 28.19300
C  48.37400 27.51200 27.17100
C  49.03600 28.73300 27.66000
C  48.69300 28.68600 29.05700
C  47.93800 27.49400 29.35700
C  49.83000 29.75000 26.93000
C  48.77500 29.53500 30.27500
O  49.07600 30.71700 30.44000
C  48.17000 28.50000 31.43000
C  49.30700 28.16200 32.33500
O  50.39700 27.73100 32.01400
O  48.99100 28.60400 33.60900
C  50.17700 28.80300 34.41000
H  45.23100 22.07200 31.31600
H  46.30100 21.83100 24.96600
H  48.80400 27.70100 25.09600
H  47.40400 26.06900 33.36500
H  44.92700 24.44600 32.89400
H  47.41700 23.78600 34.09600
H  47.18900 22.66400 32.83500
H  45.96700 22.77500 34.09300
H  44.89500 27.21400 32.38700
H  45.95800 27.92100 33.52000
H  44.03400 25.85800 34.42500
H  43.98300 27.61300 34.68200
H  45.13900 19.18600 29.75700
H  43.49900 19.81300 29.54300
H  44.53000 20.40500 30.87200
H  43.32300 18.45900 26.06700
H  42.94000 19.51100 27.32300
H  44.36900 18.31300 27.52100
H  46.91700 23.88500 23.10500
H  49.29700 25.31100 23.90400
H  49.14800 22.31200 24.34400
H  49.17600 22.97800 22.60000
H  47.99000 21.87400 23.27300
H  46.98500 27.00700 22.95700
H  47.63700 25.75200 21.88400
H  49.65800 27.54600 23.13200
H  48.46100 28.36300 22.29200
H  49.42700 27.15600 21.37800
H  50.31900 29.54600 25.97800
H  50.52600 30.11800 27.68400
H  49.00300 30.44300 26.77500
H  47.29500 28.97600 31.87400
H  49.90300 28.89100 35.46100
H  50.60600 29.77800 34.17900
H  51.04400 28.16200 34.25300
Mg -2.18700 35.14500 26.19600
C  -3.62700 33.41900 28.90400
C  -1.03600 37.58300 28.53900
C  -1.30100 37.24000 23.77300
C  -4.25600 33.39800 23.96500
N  -2.22600 35.45100 28.45100
C  -2.85300 34.56900 29.34000
C  -2.67100 35.05700 30.74900
C  -1.91100 36.43400 30.59100
C  -1.72700 36.56900 29.13700
C  -2.62500 37.64000 31.28700
C  -1.95800 33.91800 31.67100
C  -2.70700 33.43900 32.95400
H  -1.97200 33.39500 34.31500
N  -1.14500 36.96100 26.18000
C  -0.68100 37.73900 27.17400
C  0.27600 38.76000 26.69900
C  0.24500 38.68200 25.27300
C  -0.77600 37.62700 25.02200
C  0.94700 39.78900 27.65900
C  1.11100 39.37600 24.33600
O  0.93600 39.35000 23.13600
C  2.36600 40.15900 24.77100
N  -2.95900 35.37000 24.26300
C  -2.14100 36.16300 23.43300
C  -2.48900 35.92200 21.92300
C  -3.26600 34.56200 21.96300
C  -3.54800 34.41600 23.45900
C  -3.20800 37.16000 21.24900
C  -2.64000 33.36200 21.23400
C  -1.51000 32.56500 21.99800
N  -3.61600 33.61600 26.35400
C  -4.36700 32.95600 25.34500
C  -5.12200 31.89400 25.96500
C  -4.90000 32.03400 27.36000
C  -3.94900 33.09500 27.53500
C  -6.04300 30.91400 25.25300
C  -5.26600 31.59200 28.62500
O  -6.00400 30.69200 28.96200
C  -4.49900 32.45500 29.62400
C  -5.55400 33.21700 30.34300
O  -6.09100 34.28900 30.04200
O  -5.88800 32.52800 31.50800
C  -7.09700 32.95700 32.20100
H  -0.76700 38.31800 29.30000
H  -1.07700 37.69200 22.80400
H  -4.61300 32.68100 23.22400
H  -3.64100 35.23100 31.21400
H  -0.94400 36.47600 31.09200
H  -3.16100 38.16600 30.49700
H  -2.02600 38.41300 31.76800
H  -3.33600 37.26000 32.02100
H  -1.01100 34.40000 31.91500
H  -1.69200 33.04600 31.07300
H  -3.04600 32.41200 32.81800
H  -3.66100 33.96000 33.04500
H  0.28200 39.83100 28.52200
H  0.92500 40.74800 27.14200
H  1.93500 39.39800 27.90300
H  2.81100 39.43300 25.45200
H  2.08100 41.01100 25.38900
H  3.05000 40.47900 23.98600
H  -1.47900 35.79000 21.53600
H  -4.24500 34.75500 21.52500
H  -2.47800 37.95300 21.08600
H  -3.93300 37.60000 21.93300
H  -3.57400 37.00600 20.23300
H  -2.06400 33.73500 20.38700
H  -3.41600 32.72300 20.81500
H  -1.58300 32.72100 23.07400
H  -0.53200 32.86400 21.61900
H  -1.67200 31.51600 21.75000
H  -6.15100 31.25000 24.22100
H  -7.05100 30.88800 25.66400
H  -5.72100 29.90200 25.49800
H  -3.86100 31.85600 30.27500
H  -7.92000 33.00100 31.48800
H  -6.99300 33.86300 32.79900
H  -7.39800 32.12600 32.83900

