158

Mg 25.64400 1.46200 29.74200
C  27.58800 1.00300 32.64600
C  22.84900 1.52500 31.72100
C  23.69800 1.11100 26.94400
C  28.46300 0.67400 27.80200
N  25.19900 1.15600 31.95300
C  26.19100 1.09600 32.92000
C  25.56700 1.14200 34.33300
C  24.07400 1.51200 33.97700
C  23.99400 1.35600 32.49000
C  22.97900 0.83000 34.79300
C  26.27500 2.18600 35.28600
C  25.39000 3.03400 36.10300
H  25.91200 3.25700 37.62300
N  23.58700 1.51700 29.38200
C  22.57800 1.62800 30.35400
C  21.28300 1.79200 29.72300
C  21.51300 1.64500 28.37300
C  22.97400 1.40600 28.15000
C  20.00400 1.98800 30.55500
C  20.44900 1.75000 27.30100
O  20.62000 1.42600 26.09900
C  19.07300 2.30900 27.65300
N  26.02400 1.01100 27.69100
C  25.07500 0.94400 26.79300
C  25.77400 0.97500 25.37800
C  27.27900 0.83900 25.59400
C  27.22500 0.84400 27.14200
C  25.27800 0.05500 24.18500
C  28.06200 1.95200 25.01500
C  29.51500 1.67700 24.73500
N  27.62200 0.93000 30.11100
C  28.65800 0.64200 29.21500
C  29.82300 0.25100 29.90300
C  29.50300 0.48300 31.24900
C  28.13500 0.87500 31.29900
C  31.03400 -0.32700 29.29800
C  30.03000 0.39500 32.60300
O  31.15000 0.06100 33.00200
C  28.81700 0.67500 33.59000
C  28.60600 -0.54500 34.54000
O  27.86200 -1.49300 34.33100
O  29.18000 -0.31200 35.76100
C  29.14200 -1.54500 36.61900
H  22.06100 1.78000 32.43400
H  23.14700 0.97300 26.01200
H  29.30900 0.41200 27.16400
H  25.47100 0.19500 34.86300
H  23.82300 2.56700 34.09100
H  22.17100 1.54200 34.96300
H  23.37000 0.47700 35.74700
H  22.56900 0.03600 34.16900
H  26.68800 2.92600 34.60200
H  27.01600 1.70300 35.92400
H  24.42000 2.57100 36.28200
H  25.24000 3.97900 35.58100
H  20.25900 2.12800 31.60600
H  19.48500 1.03500 30.45700
H  19.30500 2.72200 30.15400
H  18.40800 1.98400 26.85300
H  19.14200 3.38500 27.81300
H  18.53400 1.79200 28.44600
H  25.56500 1.96100 24.96200
H  27.67800 -0.16700 25.46000
H  24.63100 -0.69400 24.64300
H  26.12800 -0.40200 23.67900
H  24.66800 0.70100 23.55300
H  27.95700 2.76300 25.73600
H  27.72300 2.30700 24.04200
H  30.10700 2.29100 25.41300
H  29.79900 1.84800 23.69600
H  29.65600 0.64300 25.04900
H  31.53600 0.59500 29.00400
H  30.97400 -0.82900 28.33200
H  31.60900 -0.96300 29.97100
H  29.10400 1.53300 34.19900
H  29.15700 -2.49600 36.08600
H  28.26800 -1.55800 37.27100
H  30.00600 -1.40300 37.26800
Mg 30.36200 58.08600 40.33400
C  27.56600 56.16100 39.33700
C  32.46100 55.68800 39.48700
C  32.89600 60.43300 40.21400
C  28.05500 60.87700 40.57800
N  29.97600 56.15300 39.54400
C  28.81900 55.51500 39.22900
C  29.09300 54.04800 38.97800
C  30.61900 53.90300 39.22900
C  31.08400 55.39000 39.40600
C  31.05400 52.78600 40.25100
C  28.54600 53.50300 37.61500
C  29.32400 53.89900 36.33300
H  28.44500 54.35400 35.23300
N  32.35900 58.06200 39.90100
C  33.07000 56.96900 39.53600
C  34.43900 57.24800 39.26200
C  34.59400 58.62100 39.59500
C  33.25800 59.12600 39.93700
C  35.39400 56.18500 38.72700
C  35.96100 59.27800 39.59800
O  36.96900 58.57300 39.37700
C  36.14700 60.70500 39.91400
N  30.46700 60.42600 40.32400
C  31.66700 61.04400 40.43400
C  31.48800 62.50200 40.70800
C  29.94600 62.63300 41.03600
C  29.38700 61.24900 40.59400
C  32.42500 63.22100 41.76100
C  29.22100 63.76800 40.24800
C  27.95100 64.42900 40.76300
N  28.21600 58.40300 40.34100
C  27.45400 59.57700 40.40400
C  26.06400 59.19500 40.44400
C  26.04600 57.88000 40.06500
C  27.37600 57.45600 39.85200
C  25.02100 60.12800 40.71200
C  25.19500 56.76000 39.74900
O  23.94900 56.64500 39.72900
C  26.10800 55.59500 39.18800
C  25.79700 54.26200 39.80300
O  26.43900 53.64700 40.65200
O  24.92900 53.60700 38.97100
C  24.62300 52.18600 39.31000
H  33.09100 54.81300 39.30700
H  33.71000 61.16100 40.18300
H  27.32400 61.67600 40.72300
H  28.54000 53.47300 39.72100
H  31.00400 53.50500 38.29000
H  30.43900 51.90300 40.07800
H  30.85800 53.17800 41.24900
H  32.09900 52.48400 40.18300
H  27.56500 53.97000 37.53300
H  28.39000 52.44100 37.80400
H  29.95300 53.06400 36.02500
H  30.14100 54.58300 36.56400
H  36.04500 56.43900 37.89000
H  34.97900 55.23800 38.38200
H  35.85900 55.74500 39.60900
H  35.72300 60.96300 40.88500
H  35.62500 61.14100 39.06300
H  37.21600 60.91300 39.95300
H  31.69500 62.98600 39.75400
H  29.62700 62.68800 42.07700
H  31.89400 63.56200 42.65000
H  32.85500 64.10500 41.29000
H  33.17600 62.51700 42.11900
H  29.11600 63.36100 39.24200
H  29.96000 64.53000 39.99700
H  28.34700 65.37800 41.12500
H  27.49900 63.98700 41.65100
H  27.27200 64.58100 39.92400
H  25.05200 60.94700 39.99300
H  24.92000 60.57400 41.70200
H  24.18000 59.47500 40.47700
H  25.71700 55.50200 38.17500
H  25.22900 51.64600 38.58200
H  23.59600 52.02600 38.98200
H  24.87800 51.93400 40.33900

