158

Mg 44.05800 3.50300 47.95200
C  42.07700 6.26800 47.27900
C  41.23500 1.48200 47.63700
C  46.06600 0.64800 47.87800
C  46.88100 5.42200 47.58900
N  42.00400 3.85800 47.55800
C  41.37000 5.08800 47.38000
C  39.86300 4.93600 47.31200
C  39.57800 3.44600 47.54500
C  41.05300 2.87400 47.54600
C  38.89100 3.10600 48.87100
C  39.18600 5.52900 46.04800
C  39.62400 4.93000 44.68800
H  39.57900 5.87600 43.51100
N  43.74000 1.35000 47.79700
C  42.48600 0.77600 47.79100
C  42.65600 -0.63300 47.61000
C  44.04800 -0.88300 47.45000
C  44.70100 0.40300 47.67300
C  41.52900 -1.59000 47.59100
C  44.76300 -2.19700 47.17700
O  44.16300 -3.28300 47.17800
C  46.18500 -2.20900 46.82100
N  46.18700 3.16800 47.51500
C  46.72300 1.89200 47.84500
C  48.19500 1.96500 48.23600
C  48.51700 3.53000 48.05400
C  47.08600 4.10700 47.73600
C  48.42400 1.47100 49.75200
C  49.54400 3.85000 46.97200
C  50.96900 4.07700 47.45400
N  44.49200 5.46700 47.50100
C  45.69600 6.15900 47.46200
C  45.37000 7.58700 47.50600
C  44.00300 7.67100 47.34300
C  43.48900 6.37300 47.38700
C  46.44700 8.63400 47.64100
C  42.95900 8.56400 47.15400
O  42.97300 9.75200 47.05600
C  41.63100 7.69100 47.17400
C  40.95300 8.14900 48.32500
O  41.38000 8.05400 49.47400
O  39.70800 8.59200 47.95800
C  38.80800 9.08000 49.02100
H  40.28900 0.93600 47.64700
H  46.79100 -0.12900 48.12800
H  47.72600 6.09300 47.75300
H  39.58400 5.58800 48.13900
H  39.06800 3.00700 46.68800
H  37.96600 2.58400 48.62400
H  38.67000 3.99800 49.45800
H  39.44100 2.46100 49.55600
H  39.33000 6.60900 46.07500
H  38.14000 5.28300 46.22900
H  39.03000 4.04600 44.45600
H  40.67500 4.64400 44.73500
H  41.32600 -1.87800 46.56000
H  40.63700 -1.06900 47.94000
H  41.87800 -2.39700 48.23500
H  46.88100 -2.54500 47.58900
H  46.36900 -1.24200 46.35200
H  46.32300 -2.84000 45.94200
H  48.80300 1.32900 47.59100
H  48.80000 4.08100 48.95100
H  48.60000 0.39600 49.69800
H  47.59200 1.78000 50.38400
H  49.33900 1.98100 50.05200
H  49.08400 4.66600 46.41400
H  49.69000 2.93000 46.40600
H  51.65100 3.26700 47.19400
H  50.95200 4.26200 48.52800
H  51.30200 5.01100 47.00200
H  47.14000 8.47200 48.46700
H  46.12800 9.67600 47.68100
H  46.98800 8.63700 46.69400
H  41.09700 7.99600 46.27400
H  38.02000 8.32700 49.03600
H  38.42700 10.02000 48.62100
H  39.28600 9.24000 49.98800
Mg 34.72400 48.69000 25.54400
C  34.98100 46.98500 28.56100
C  33.04300 51.22400 27.25400
C  34.17700 50.16600 22.70600
C  36.09900 45.84900 23.91800
N  33.99500 48.95600 27.64400
C  34.32200 48.20800 28.69600
C  33.89100 48.87900 30.00600
C  33.00000 50.02300 29.51400
C  33.35400 50.07500 28.05900
C  31.46100 49.86700 29.81500
C  35.10200 49.35900 30.92400
C  34.98300 48.97500 32.39600
H  33.65600 49.12600 33.01700
N  33.70400 50.37800 25.03100
C  33.19100 51.36400 25.88000
C  32.62400 52.48000 25.14500
C  32.92600 52.14300 23.83700
C  33.67100 50.86900 23.78700
C  31.97900 53.77200 25.64300
C  32.63300 52.91500 22.61200
O  33.16300 52.76400 21.47200
C  31.75100 54.19100 22.65100
N  35.26900 48.13800 23.63000
C  34.92800 48.96000 22.61900
C  35.34400 48.37700 21.24800
C  36.14700 47.04900 21.69900
C  35.79900 47.02000 23.18900
C  34.16400 48.10000 20.31300
C  37.70600 46.93900 21.49200
C  38.45500 47.89300 20.56100
N  35.44700 46.73200 26.08200
C  35.95700 45.73900 25.37400
C  36.38400 44.69300 26.23700
C  36.04200 45.10800 27.54100
C  35.38300 46.36000 27.33700
C  36.96000 43.32800 25.80800
C  36.10600 44.80700 28.90800
O  36.46900 43.74000 29.47800
C  35.49100 46.02200 29.68100
C  34.44000 45.58400 30.67200
O  33.24100 45.60800 30.49300
O  35.02900 45.05500 31.81600
C  34.20400 44.64400 32.98400
H  32.60500 52.03600 27.83800
H  34.14400 50.64000 21.72300
H  36.44900 44.96000 23.39000
H  33.29600 48.24000 30.65900
H  33.28300 50.98100 29.95000
H  31.17200 50.82800 30.23900
H  31.24500 49.17500 30.63000
H  30.90800 49.46500 28.96600
H  35.21700 50.42800 30.74300
H  36.02100 48.99000 30.47000
H  35.77900 49.53400 32.88600
H  35.13600 47.89900 32.47900
H  30.93000 53.83500 25.35200
H  32.52800 54.63200 25.26000
H  32.05100 53.80100 26.73100
H  32.20000 55.08200 23.09000
H  30.77700 53.98800 23.09500
H  31.60200 54.47700 21.61000
H  35.95100 49.10600 20.71000
H  35.64400 46.22100 21.20000
H  33.36300 47.64600 20.89600
H  34.43900 47.43500 19.49500
H  33.70400 49.01600 19.94100
H  38.01100 45.95800 21.12900
H  38.13300 47.05700 22.48800
H  37.79500 48.26100 19.77600
H  39.27700 47.34500 20.09900
H  38.87600 48.79200 21.01000
H  36.31500 42.60200 25.31300
H  37.53100 42.89400 26.62900
H  37.73400 43.52000 25.06600
H  36.41700 46.32600 30.16800
H  33.65500 43.73000 32.75800
H  33.70100 45.55200 33.31600
H  34.89000 44.32700 33.77000

