158

Mg 49.28900 35.55800 27.96900
C  47.07200 34.35700 30.32200
C  49.75100 38.42600 30.11600
C  51.12800 37.22300 25.62400
C  48.70900 32.99200 25.76800
N  48.50400 36.29100 30.01400
C  47.62600 35.53800 30.76200
C  47.36900 36.30900 32.07600
C  48.13400 37.72200 31.86600
C  48.81900 37.48200 30.51300
C  47.12600 38.87200 31.72100
C  47.72500 35.61900 33.39000
C  49.02500 34.76500 33.54100
H  50.28100 35.40700 34.10700
N  50.21300 37.57000 27.81600
C  50.34300 38.49800 28.80400
C  51.12300 39.65900 28.30800
C  51.49000 39.35100 26.94200
C  50.91600 37.99700 26.72200
C  51.36600 40.92700 29.22300
C  52.25600 40.16600 25.95700
O  52.64000 39.75100 24.86900
C  52.79700 41.48600 26.43700
N  49.86400 35.13700 26.00000
C  50.72700 35.89100 25.30500
C  51.21500 35.08400 24.07600
C  50.45200 33.72700 24.17600
C  49.60600 33.93800 25.36000
C  51.02500 35.84400 22.66200
C  51.36700 32.48700 24.16200
C  50.87500 31.40900 23.12400
N  48.18300 33.95700 28.02900
C  48.02800 33.00500 27.02800
C  46.85400 32.16200 27.51700
C  46.50000 32.59100 28.85100
C  47.33300 33.68600 29.05600
C  46.20500 31.01000 26.77500
C  45.58100 32.41000 29.88000
O  44.61800 31.62100 29.95600
C  45.85800 33.55600 30.93300
C  46.30500 32.76900 32.10100
O  47.36000 32.18400 32.21900
O  45.35300 32.83300 33.05400
C  45.59800 32.11300 34.29600
H  50.00100 39.26900 30.76400
H  51.80700 37.56500 24.84000
H  48.45300 32.13900 25.13700
H  46.29700 36.47400 31.97000
H  48.93200 37.97300 32.56400
H  46.82500 39.25200 32.69700
H  46.24200 38.72200 31.10100
H  47.65600 39.68000 31.21700
H  46.83100 35.02100 33.56700
H  47.85700 36.42200 34.11500
H  49.21100 34.39400 32.53300
H  48.76800 33.93700 34.20200
H  52.37700 41.03000 29.61600
H  50.65500 40.93600 30.05000
H  51.16100 41.81900 28.63200
H  52.15600 42.33700 26.66700
H  53.43400 41.90000 25.65500
H  53.44200 41.19700 27.26700
H  52.27400 34.84900 24.18200
H  49.86600 33.78000 23.25800
H  50.44700 36.76600 22.72000
H  50.64700 35.13300 21.92800
H  52.02800 36.05500 22.29200
H  51.29800 31.93500 25.09900
H  52.43500 32.69900 24.10800
H  51.78700 31.13600 22.59200
H  49.96600 31.66900 22.58200
H  50.61500 30.47000 23.61400
H  45.50400 30.48100 27.42100
H  46.97500 30.29000 26.49900
H  45.61800 31.25700 25.89000
H  44.88300 34.01100 31.10900
H  45.67000 31.03600 34.14500
H  44.81700 32.43800 34.98400
H  46.59200 32.29500 34.70400
Mg 30.87700 58.11400 40.00400
C  27.84500 56.48900 39.04200
C  32.54500 55.45300 38.75100
C  33.51900 60.02700 40.01900
C  28.89900 60.79900 40.97800
N  30.21700 56.30700 38.75800
C  28.98600 55.78900 38.59100
C  28.93500 54.43600 37.85700
C  30.44400 54.04900 38.12700
C  31.12200 55.37500 38.58000
C  30.67500 52.97100 39.23700
C  28.64000 54.59200 36.38500
C  27.26500 54.19600 35.84200
H  26.43400 55.21600 35.09800
N  32.82100 57.70800 39.65700
C  33.32700 56.56200 39.15700
C  34.71100 56.57700 39.26200
C  35.08600 57.96300 39.54900
C  33.78100 58.65600 39.77500
C  35.62300 55.35400 39.04600
C  36.37800 58.48200 39.64300
O  37.29500 57.76000 39.39500
C  36.72100 59.91900 40.02600
N  31.15900 60.10400 40.36100
C  32.32100 60.66500 40.19100
C  32.35900 62.10400 40.61600
C  30.99900 62.25800 41.36200
C  30.29800 60.99800 40.86100
C  33.50900 62.57400 41.55000
C  30.25700 63.69800 41.05100
C  29.63300 64.38200 42.24700
N  28.79100 58.57900 40.04200
C  28.15900 59.62900 40.59600
C  26.71000 59.49500 40.54600
C  26.54900 58.17700 40.01700
C  27.83700 57.73500 39.62500
C  25.72100 60.52900 40.84400
C  25.52900 57.23200 39.61200
O  24.31900 57.19400 39.70400
C  26.32000 56.05100 38.92300
C  26.01800 54.85100 39.61300
O  26.44000 54.54300 40.68700
O  25.18800 54.02800 38.87600
C  24.94300 52.67700 39.34300
H  33.04200 54.54100 38.41400
H  34.34600 60.73500 39.94200
H  28.34000 61.64300 41.38700
H  28.36100 53.69400 38.41100
H  30.95500 53.70500 37.22800
H  30.63600 53.47100 40.20500
H  31.64600 52.48100 39.16400
H  29.81200 52.30500 39.22800
H  29.36400 53.94000 35.89500
H  28.79100 55.64400 36.14300
H  26.67800 53.71800 36.62700
H  27.29300 53.39800 35.10100
H  36.24100 55.19600 39.93000
H  36.26600 55.72700 38.24800
H  35.11200 54.42300 38.80200
H  36.45900 60.60300 39.21800
H  37.76500 60.01900 40.32300
H  36.11400 60.03900 40.92300
H  32.43800 62.63100 39.66500
H  31.15900 62.08900 42.42700
H  34.08400 61.71000 41.88300
H  33.24000 63.15100 42.43500
H  34.25600 63.15400 41.00700
H  29.58000 63.71900 40.19700
H  30.93800 64.44000 40.63400
H  29.85200 65.44900 42.28900
H  29.98800 64.01100 43.20900
H  28.54400 64.37100 42.27800
H  26.08200 61.52800 40.59900
H  25.67200 60.39000 41.92400
H  24.72300 60.36800 40.43700
H  25.97100 55.98700 37.89300
H  24.10000 52.74800 40.03100
H  25.76700 52.21500 39.88700
H  24.57000 52.08000 38.51100

