158

Mg 24.21500 -4.90200 45.87500
C  26.45200 -2.86100 44.39900
C  21.65200 -3.48300 44.07200
C  22.23800 -7.48700 46.76900
C  26.93300 -6.48200 47.69700
N  24.08700 -3.42100 44.24800
C  25.17000 -2.58400 43.90100
C  24.66000 -1.50100 42.87500
C  23.07400 -1.52600 43.07500
C  22.87200 -2.83400 43.88300
C  22.51800 -0.31900 44.02600
C  25.13800 -1.95100 41.43000
C  25.66100 -0.90000 40.44500
H  25.12000 -0.85000 39.00500
N  22.19000 -5.26600 45.63100
C  21.32300 -4.62500 44.71900
C  20.00000 -5.30400 44.66900
C  20.15900 -6.49800 45.51200
C  21.57000 -6.47600 46.00900
C  18.81600 -4.79900 43.87100
C  18.96200 -7.55700 45.73100
O  17.85300 -7.30000 45.31600
C  19.11400 -8.70500 46.69100
N  24.69600 -6.94800 46.92700
C  23.56700 -7.58700 47.33000
C  24.14300 -8.87500 48.07600
C  25.45800 -8.41400 48.62800
C  25.74800 -7.22600 47.69000
C  23.19000 -9.43600 49.07700
C  26.59200 -9.52400 48.57700
C  27.11800 -9.95200 49.95300
N  26.28200 -4.85000 46.00400
C  27.30500 -5.38900 46.79700
C  28.56400 -4.70300 46.58300
C  28.20800 -3.70300 45.68700
C  26.87100 -3.87700 45.32400
C  29.86600 -5.01800 47.22000
C  28.76200 -2.56000 44.97700
O  29.90300 -2.10900 44.96700
C  27.68900 -2.04700 44.03800
C  27.58800 -0.60800 44.42800
O  27.01300 -0.15200 45.41700
O  28.37600 0.20200 43.58500
C  28.34300 1.64800 43.90800
H  20.89200 -3.10900 43.38300
H  21.56500 -8.31700 46.99400
H  27.73500 -6.83300 48.35000
H  25.02400 -0.51500 43.16400
H  22.57300 -1.57900 42.10900
H  23.19400 0.49000 44.30400
H  22.03800 -0.75900 44.90000
H  21.69500 0.20600 43.54100
H  24.36300 -2.54500 40.94600
H  25.99200 -2.61700 41.55700
H  26.74500 -1.02000 40.42900
H  25.42800 0.01100 40.99500
H  18.26500 -5.63300 43.43800
H  19.06000 -3.97800 43.19600
H  18.20800 -4.34900 44.65600
H  18.19500 -9.28700 46.76300
H  19.49900 -8.39500 47.66300
H  19.83500 -9.37400 46.22100
H  24.26800 -9.69600 47.37000
H  25.24200 -8.12700 49.65700
H  23.61200 -9.50600 50.08000
H  22.96700 -10.44200 48.72100
H  22.21500 -8.95400 49.01200
H  27.44900 -9.19600 47.98900
H  26.17200 -10.45700 48.20100
H  28.08100 -9.52300 50.22700
H  27.05700 -11.02800 50.11500
H  26.45400 -9.49200 50.68500
H  29.64500 -4.94600 48.28500
H  30.58200 -4.26800 46.88300
H  30.14500 -6.05100 47.01600
H  28.04700 -2.13000 43.01200
H  27.37000 2.10700 43.73500
H  29.21500 2.00700 43.36200
H  28.62700 1.67300 44.96000
Mg 35.40200 49.47200 26.26900
C  35.80600 47.49100 29.00000
C  34.20600 52.06100 28.15000
C  34.99100 51.28000 23.33900
C  36.36700 46.76800 24.20400
N  34.83300 49.67600 28.36200
C  35.22700 48.79200 29.28600
C  35.12900 49.38000 30.71800
C  34.34500 50.68900 30.46200
C  34.39400 50.82000 28.93000
C  32.86000 50.78500 31.08800
C  36.50700 49.55200 31.43900
C  36.57800 48.82100 32.83400
H  35.56200 49.06100 33.99000
N  34.83000 51.37000 25.85500
C  34.44800 52.33100 26.76400
C  34.29900 53.59400 26.02000
C  34.42500 53.39700 24.64000
C  34.78700 51.93300 24.61300
C  34.05200 54.86700 26.77500
C  34.33700 54.28700 23.45000
O  34.28000 53.88300 22.28900
C  34.06900 55.73100 23.72200
N  35.76700 49.11000 24.08700
C  35.45600 50.00400 23.10400
C  35.56500 49.33600 21.71300
C  36.19200 47.97600 22.05800
C  36.17800 47.91700 23.54800
C  34.26700 49.26000 20.88400
C  37.69100 47.88900 21.46200
C  38.82900 48.30900 22.48500
N  35.96600 47.48700 26.53000
C  36.38800 46.56700 25.56400
C  36.66200 45.33500 26.34600
C  36.49500 45.67300 27.69000
C  36.07900 46.99200 27.71500
C  37.19900 44.06100 25.73700
C  36.55600 45.11500 28.97800
O  36.92100 44.04300 29.41000
C  36.10000 46.29700 29.92900
C  34.88300 45.77800 30.65700
O  33.81300 45.55500 30.24200
O  35.25100 45.50200 31.94200
C  34.14400 45.24400 32.84300
H  33.82300 52.85400 28.79700
H  35.05200 51.80800 22.38600
H  36.31300 45.88100 23.56900
H  34.49200 48.69500 31.27700
H  34.81800 51.52600 30.97500
H  32.19400 51.18300 30.32300
H  32.94000 51.49300 31.91300
H  32.47600 49.86500 31.52600
H  36.88700 50.57100 31.50700
H  37.22700 48.94800 30.88800
H  37.58400 49.00700 33.20900
H  36.58900 47.73200 32.79100
H  33.10200 55.29900 26.46200
H  34.94400 55.48700 26.68900
H  33.82600 54.68900 27.82700
H  33.06700 55.94400 24.09500
H  34.19800 56.22400 22.75900
H  34.83400 56.00800 24.44800
H  36.34700 49.90900 21.21600
H  35.62300 47.13100 21.67000
H  34.10600 48.18800 20.76900
H  34.53400 49.88400 20.03100
H  33.46700 49.71100 21.47200
H  37.68300 48.51900 20.57300
H  37.89300 46.83800 21.25800
H  39.68200 47.69500 22.19600
H  38.66600 48.26000 23.56200
H  39.09100 49.35600 22.33100
H  38.28800 44.03000 25.78300
H  36.90800 43.85900 24.70600
H  36.74200 43.29800 26.36700
H  36.89500 46.38200 30.67100
H  34.38600 45.71600 33.79500
H  33.96700 44.17100 32.91500
H  33.16900 45.63000 32.54400

