158

Mg -2.81200 34.77700 25.73000
C  -3.95000 33.09100 28.78800
C  -1.48500 37.16500 27.90600
C  -2.17500 36.47300 23.03800
C  -4.66700 32.45900 24.00800
N  -2.56600 35.01500 28.14700
C  -3.18900 34.22400 29.14500
C  -2.73300 34.66300 30.50300
C  -2.16100 36.10700 30.19900
C  -1.97900 36.05500 28.67300
C  -3.11500 37.31300 30.67700
C  -1.70600 33.70500 31.24500
C  -2.29000 33.02700 32.62300
H  -1.30000 32.92600 33.79900
N  -1.98800 36.58600 25.52100
C  -1.43700 37.35700 26.51400
C  -0.70400 38.45500 25.85600
C  -0.92700 38.28700 24.41900
C  -1.65500 37.07900 24.26500
C  0.08300 39.52000 26.61400
C  -0.35200 39.08700 23.30900
O  -0.73500 38.96500 22.15900
C  0.68800 40.12100 23.58900
N  -3.53100 34.63200 23.82300
C  -3.12400 35.47100 22.77900
C  -3.50600 34.96200 21.46300
C  -4.31600 33.68100 21.76100
C  -4.10600 33.50900 23.28500
C  -4.35600 35.96300 20.51200
C  -3.84200 32.38100 20.98700
C  -2.69000 31.54500 21.67300
N  -4.00500 33.07600 26.22200
C  -4.57600 32.16000 25.36600
C  -5.15000 31.04200 26.06200
C  -4.85900 31.41300 27.42800
C  -4.29300 32.66300 27.46600
C  -5.79200 29.80900 25.48500
C  -5.07500 30.97700 28.79700
O  -5.59200 29.93700 29.17500
C  -4.49700 32.04500 29.80300
C  -5.65800 32.48600 30.57400
O  -6.67500 33.09000 30.20600
O  -5.38700 32.15600 31.83200
C  -6.35200 32.34600 32.85800
H  -1.06800 37.94900 28.54200
H  -1.79600 36.88600 22.10100
H  -4.87500 31.55500 23.43100
H  -3.63700 34.62100 31.11100
H  -1.21000 36.20600 30.72200
H  -4.04700 36.80600 30.92600
H  -3.14400 38.03000 29.85600
H  -2.66200 37.76900 31.55700
H  -0.74600 34.13400 31.53100
H  -1.46900 32.97200 30.47400
H  -2.84300 32.12000 32.37600
H  -3.01000 33.79900 32.89400
H  -0.43700 40.47500 26.53400
H  1.07400 39.46100 26.16400
H  0.13300 39.27800 27.67600
H  1.17300 40.29100 22.62800
H  1.42800 39.76900 24.30800
H  0.25500 41.09100 23.83400
H  -2.63200 34.68800 20.87300
H  -5.36600 33.83800 21.51600
H  -4.61300 36.84100 21.10400
H  -5.25900 35.48800 20.12800
H  -3.85700 36.32200 19.61200
H  -3.47000 32.76200 20.03600
H  -4.66900 31.71400 20.74400
H  -2.54000 31.71100 22.74000
H  -1.76900 31.80700 21.15300
H  -2.90300 30.49900 21.45300
H  -6.87800 29.89200 25.51800
H  -5.66400 28.85600 25.99800
H  -5.63700 29.68000 24.41400
H  -3.60200 31.73700 30.34300
H  -7.25200 32.89500 32.58300
H  -6.06300 32.69900 33.84800
H  -6.65600 31.32300 33.07900
Mg -5.30100 24.38500 26.24900
C  -3.84200 26.60600 28.65400
C  -6.33100 22.41200 28.90600
C  -6.72800 22.48200 23.99300
C  -4.16600 26.64100 23.67100
N  -5.31200 24.62200 28.50700
C  -4.55100 25.53200 29.20100
C  -4.55700 25.20900 30.74500
C  -4.97200 23.66500 30.73500
C  -5.59400 23.58100 29.28900
C  -3.90800 22.53300 30.84700
C  -5.53200 26.12600 31.54300
C  -5.16600 26.20500 33.01400
H  -6.32700 26.21300 33.95300
N  -6.42100 22.68700 26.41500
C  -6.81700 22.00000 27.60800
C  -7.56900 20.87000 27.20500
C  -7.62000 20.85300 25.77600
C  -6.84300 21.99800 25.33200
C  -8.13600 19.86700 28.29100
C  -8.39400 19.89400 24.86000
O  -8.38000 19.96800 23.62700
C  -9.31100 18.80300 25.40900
N  -5.21200 24.52900 24.14300
C  -6.04600 23.62200 23.50500
C  -6.21800 24.06800 22.01300
C  -5.22300 25.26100 21.83600
C  -4.82100 25.50900 23.27300
C  -6.11800 22.96600 20.92500
C  -5.68800 26.57900 21.08000
C  -6.18100 26.51400 19.60300
N  -4.21700 26.21200 26.08400
C  -3.72400 26.93300 25.00400
C  -2.94200 28.08300 25.49200
C  -2.93400 27.94300 26.84000
C  -3.76200 26.82800 27.22600
C  -2.25400 29.13700 24.66300
C  -2.47700 28.60800 28.11400
O  -1.83100 29.61000 28.28500
C  -2.99300 27.69700 29.26400
C  -1.84500 27.20700 30.03200
O  -0.86900 26.51900 29.61000
O  -2.04800 27.53600 31.35400
C  -1.00400 27.02900 32.32800
H  -6.61200 21.70900 29.69300
H  -7.07800 21.76100 23.25000
H  -3.71000 27.28700 22.91800
H  -3.57400 25.34300 31.19700
H  -5.76000 23.51600 31.47300
H  -3.84000 22.04600 31.82000
H  -2.91600 22.96600 30.71600
H  -3.97700 21.81200 30.03200
H  -6.55100 25.74000 31.52100
H  -5.60400 27.15500 31.19100
H  -4.68300 27.14800 33.27300
H  -4.38500 25.48300 33.25000
H  -9.21400 19.73300 28.19600
H  -8.03900 20.17500 29.33200
H  -7.42300 19.04200 28.28700
H  -9.11000 17.92000 24.80100
H  -10.28200 19.29400 25.35200
H  -9.09500 18.55600 26.44800
H  -7.23300 24.46200 21.95200
H  -4.31700 25.02100 21.28000
H  -5.62500 22.12200 21.40700
H  -5.57100 23.31600 20.04900
H  -7.10700 22.68100 20.56700
H  -4.80800 27.21900 21.01600
H  -6.39600 27.14100 21.68800
H  -6.26700 25.48200 19.26400
H  -5.44400 26.89400 18.89500
H  -7.05800 27.14000 19.43800
H  -1.45500 29.52300 25.29500
H  -2.91100 29.98200 24.45900
H  -1.74200 28.75200 23.78000
H  -3.59700 28.33500 29.90900
H  -1.22100 26.01200 32.65600
H  -0.95700 27.77000 33.12600
H  -0.00200 26.98400 31.90000

