158

Mg 55.38600 23.49300 45.35000
C  52.94500 25.71800 44.49200
C  53.39300 20.94200 44.04200
C  58.04900 21.43000 45.14200
C  57.40400 26.10200 46.39700
N  53.29400 23.39700 44.49300
C  52.49800 24.42500 44.14200
C  51.26600 23.88600 43.37000
C  51.33000 22.33900 43.57500
C  52.81400 22.22700 44.08000
C  50.26700 21.67800 44.57100
C  51.22700 24.38300 41.88000
C  49.86000 24.84000 41.34600
H  49.30200 24.33600 39.99100
N  55.65200 21.45900 44.77300
C  54.69300 20.52900 44.29300
C  55.24500 19.26600 44.13600
C  56.59000 19.32400 44.42700
C  56.84300 20.76600 44.79900
C  54.35700 18.11600 43.74500
C  57.64600 18.20500 44.37100
O  57.32400 17.05100 44.14600
C  59.16100 18.37000 44.55000
N  57.48500 23.73600 45.57200
C  58.36300 22.71400 45.57000
C  59.68600 23.09600 46.09600
C  59.48100 24.53000 46.54800
C  58.02000 24.85300 46.19700
C  60.22300 22.09400 47.15500
C  60.37700 25.65700 45.89700
C  61.61700 26.10900 46.66300
N  55.14600 25.45000 45.61200
C  56.07600 26.42900 46.01100
C  55.45000 27.73600 46.01000
C  54.23100 27.48100 45.41600
C  54.10200 26.12700 45.16400
C  56.13500 29.04700 46.39500
C  52.98700 28.09300 45.00100
O  52.66700 29.23900 45.05100
C  52.13500 26.99500 44.41600
C  51.67100 27.55800 43.10300
O  52.34300 27.66300 42.08200
O  50.44000 28.12800 43.24200
C  49.90900 29.03300 42.24300
H  52.73800 20.13100 43.71600
H  58.96600 20.83800 45.09600
H  57.96200 26.90500 46.88300
H  50.46200 24.39000 43.90600
H  51.27700 21.91300 42.57300
H  50.83300 21.13400 45.32600
H  49.65800 21.03200 43.93900
H  49.60300 22.38200 45.07300
H  51.63400 23.52300 41.34800
H  52.05400 25.08300 41.76500
H  49.94900 25.92600 41.32000
H  49.22100 24.50600 42.16400
H  54.07800 18.29900 42.70700
H  53.41300 18.04100 44.28600
H  54.91600 17.18000 43.73500
H  59.39100 19.11800 43.79200
H  59.54400 17.37000 44.34600
H  59.31900 18.76700 45.55300
H  60.38600 22.96000 45.27200
H  59.53400 24.56400 47.63700
H  61.17300 21.68600 46.80900
H  59.51900 21.27700 47.31100
H  60.41200 22.65600 48.07000
H  59.84300 26.56100 45.60500
H  60.74100 25.14000 45.00800
H  61.59300 27.16500 46.93000
H  62.58500 25.78500 46.28200
H  61.60200 25.71100 47.67800
H  57.07000 29.14100 45.84400
H  56.37500 28.98500 47.45700
H  55.49900 29.91300 46.20900
H  51.15300 26.91700 44.88100
H  48.87600 29.29500 42.47400
H  49.94300 28.62100 41.23500
H  50.42100 29.99400 42.27200
Mg 0.38400 44.37500 24.24500
C  2.34700 43.87100 27.24300
C  -2.44700 43.89500 26.28300
C  -1.31000 44.21800 21.54700
C  3.44900 44.13700 22.46900
N  0.02300 43.57700 26.40900
C  0.95900 43.72100 27.47000
C  0.21300 43.66100 28.83100
C  -1.25800 43.34000 28.41300
C  -1.26100 43.62500 26.91700
C  -1.75800 41.92900 28.81900
C  0.34000 44.97100 29.64000
C  0.76000 44.90100 31.12700
H  0.43100 43.55400 31.81300
N  -1.65800 44.28100 23.94100
C  -2.61500 44.22900 24.91900
C  -3.87300 44.39500 24.19300
C  -3.57000 44.54400 22.78200
C  -2.16200 44.35500 22.68300
C  -5.18900 44.34800 25.02900
C  -4.52200 44.70500 21.64000
O  -4.20200 44.54800 20.44800
C  -5.97300 45.03100 21.93200
N  1.07200 44.18300 22.32500
C  0.15700 44.14500 21.35000
C  0.72400 43.82500 19.93200
C  2.17400 44.37900 20.23400
C  2.24000 44.22800 21.75400
C  0.61000 42.27000 19.68300
C  2.49700 45.83800 19.73000
C  3.80500 45.97300 19.00300
N  2.48800 44.13300 24.73200
C  3.61300 44.08400 23.92600
C  4.79200 44.04100 24.72100
C  4.38100 43.99800 25.99800
C  2.95000 44.01700 25.97700
C  6.17200 43.97400 24.27900
C  4.79100 43.90300 27.36500
O  5.93000 43.74200 27.80500
C  3.53500 43.94500 28.25200
C  3.56100 42.77700 29.22000
O  3.11900 41.64900 29.01100
O  4.21600 43.21100 30.37700
C  4.52600 42.26800 31.43000
H  -3.36300 43.84900 26.87700
H  -1.83700 44.32300 20.59700
H  4.35500 44.10400 21.86100
H  0.71100 42.81600 29.30800
H  -2.03800 43.93700 28.88400
H  -0.92400 41.46100 29.34300
H  -2.00300 41.32300 27.94700
H  -2.49700 42.10800 29.60100
H  -0.54900 45.59700 29.56600
H  1.07200 45.57000 29.09700
H  0.17500 45.67000 31.63200
H  1.82400 45.13500 31.15900
H  -6.09100 44.69200 24.52300
H  -5.18100 44.98900 25.91100
H  -5.37100 43.34200 25.40800
H  -6.48700 44.13100 22.26900
H  -6.41600 45.45100 21.02900
H  -5.94800 45.79000 22.71400
H  0.15700 44.43300 19.22700
H  2.84400 43.62100 19.82700
H  0.56000 41.82000 20.67400
H  1.48100 41.79500 19.23200
H  -0.26400 42.07800 19.05900
H  2.46300 46.54700 20.55700
H  1.66900 46.03200 19.04800
H  4.37300 45.07000 19.22600
H  4.18200 46.89200 19.45400
H  3.67900 46.05000 17.92400
H  6.48600 43.05800 23.77700
H  6.82100 44.07600 25.14900
H  6.35200 44.82400 23.62100
H  3.48800 44.84400 28.86700
H  4.14700 41.26900 31.21500
H  4.01900 42.68300 32.30200
H  5.61400 42.28400 31.49300

