158

Mg 0.36700 43.54100 25.89600
C  2.20900 43.43600 28.92700
C  -2.45900 42.78000 27.73800
C  -1.10100 42.80400 23.05500
C  3.36700 44.07100 24.29900
N  -0.10900 43.21200 28.13000
C  0.82000 43.31700 29.19000
C  0.06100 43.32900 30.54600
C  -1.44100 42.99200 30.10800
C  -1.40000 43.13000 28.53600
C  -1.76000 41.53800 30.45600
C  0.23500 44.71400 31.31700
C  0.93400 44.62700 32.66900
H  0.48800 43.45000 33.55200
N  -1.56200 42.98100 25.44900
C  -2.58500 42.70200 26.32900
C  -3.74400 42.51000 25.61000
C  -3.43100 42.44000 24.19100
C  -1.98800 42.75400 24.15300
C  -5.15800 42.37500 26.27700
C  -4.23500 42.05800 22.96800
O  -3.75800 41.94900 21.84000
C  -5.71000 41.83400 23.10900
N  1.12100 43.40700 23.93600
C  0.30900 43.07600 22.94100
C  1.03400 43.23600 21.61100
C  2.38400 43.95500 22.00600
C  2.31000 43.72300 23.48500
C  1.19500 41.99200 20.86500
C  2.39400 45.46100 21.70900
C  3.81000 46.11300 21.83100
N  2.38200 43.59100 26.40800
C  3.50000 43.92200 25.64100
C  4.68900 44.21100 26.49800
C  4.25600 43.88300 27.80600
C  2.82600 43.60600 27.68100
C  6.15400 44.62800 26.10900
C  4.71000 43.81500 29.15800
O  5.86100 43.93900 29.56800
C  3.36700 43.54100 30.00400
C  3.59300 42.39400 30.89200
O  3.31400 41.22900 30.63500
O  4.25500 42.81800 32.03200
C  4.53400 41.84800 33.14000
H  -3.42300 42.62700 28.22700
H  -1.44100 42.53800 22.05200
H  4.29100 44.34500 23.78400
H  0.50800 42.47200 31.05000
H  -2.15200 43.69600 30.54100
H  -0.86300 40.96400 30.68900
H  -2.35400 40.96900 29.74100
H  -2.24600 41.68600 31.42100
H  -0.75200 45.15400 31.45900
H  0.79000 45.42200 30.70200
H  0.53900 45.57800 33.02700
H  2.00500 44.70800 32.48300
H  -5.57200 43.33200 26.59600
H  -5.15400 41.75700 27.17400
H  -5.81900 41.95800 25.51700
H  -6.07000 42.79400 23.47900
H  -6.00500 40.98600 23.72700
H  -6.22700 41.70800 22.15700
H  0.51600 43.91000 20.92800
H  3.32900 43.48400 21.73400
H  2.06700 41.92400 20.21500
H  0.31500 41.99900 20.22200
H  1.19500 41.16000 21.56800
H  1.72700 46.03000 22.35700
H  2.05600 45.49400 20.67300
H  4.67100 45.47100 22.01600
H  3.75900 46.95100 22.52700
H  3.97400 46.54900 20.84500
H  6.09900 45.30200 25.25300
H  6.86300 43.83600 25.86800
H  6.51200 45.14900 26.99700
H  3.14000 44.43400 30.58600
H  5.57700 42.01600 33.40700
H  4.34200 40.80000 32.90800
H  3.90600 42.16800 33.97100
Mg -11.08300 17.50700 40.38100
C  -7.56100 17.09200 40.55300
C  -10.52300 20.93300 39.66700
C  -14.28400 17.81800 39.53300
C  -11.41700 14.03700 40.54000
N  -9.11800 18.85900 40.13300
C  -7.89500 18.47000 40.30400
C  -6.95900 19.64200 39.97000
C  -7.93100 20.88500 40.04500
C  -9.30800 20.24000 39.94500
C  -7.87800 21.80900 41.29900
C  -6.37700 19.50900 38.45600
C  -4.94700 19.04000 38.26300
H  -4.67000 17.96400 37.21700
N  -12.29300 19.23000 39.81600
C  -11.85100 20.51900 39.49900
C  -12.95800 21.23100 39.04000
C  -14.08100 20.38100 38.91200
C  -13.63100 19.07900 39.42900
C  -12.77200 22.67900 38.67900
C  -15.37100 20.76700 38.34600
O  -15.65800 21.95600 38.06900
C  -16.46900 19.84400 38.01900
N  -12.61400 16.14700 40.13200
C  -13.88200 16.52000 39.89700
C  -14.88700 15.28600 39.80300
C  -13.93200 14.09600 40.02500
C  -12.54700 14.73100 40.31500
C  -16.05100 15.55800 40.79800
C  -13.81500 13.02600 38.87800
C  -14.25400 11.61000 39.42800
N  -9.83000 15.81600 40.56300
C  -10.13900 14.49100 40.60100
C  -8.93100 13.74500 40.85000
C  -7.87700 14.69500 40.77800
C  -8.47300 15.96500 40.60000
C  -8.85200 12.27200 40.96500
C  -6.43300 14.95700 40.81000
O  -5.49100 14.24100 40.82800
C  -6.15500 16.44100 40.71900
C  -5.35100 16.93800 41.90300
O  -4.61100 17.84400 41.89800
O  -5.41800 16.04300 42.94800
C  -4.22100 16.11300 43.82800
H  -10.37200 22.01300 39.60000
H  -15.31500 17.97900 39.21000
H  -11.54600 12.95300 40.54800
H  -6.16700 19.70900 40.71600
H  -7.82300 21.45400 39.12200
H  -7.76000 22.86000 41.03400
H  -7.01700 21.44400 41.85900
H  -8.68900 21.57200 41.98700
H  -6.51000 20.44800 37.91700
H  -6.90800 18.66500 38.01700
H  -4.62500 18.59700 39.20500
H  -4.27100 19.86900 38.04900
H  -13.28100 22.84900 37.73100
H  -11.71400 22.88700 38.51500
H  -13.22600 23.29400 39.45600
H  -16.10800 18.96200 37.49000
H  -17.14800 20.39100 37.36500
H  -17.08300 19.74600 38.91500
H  -15.32300 15.17900 38.80900
H  -14.29700 13.51300 40.87000
H  -15.95800 16.62900 40.98200
H  -16.11300 14.84800 41.62300
H  -17.01900 15.46000 40.30700
H  -12.85000 12.95700 38.37500
H  -14.52800 13.23400 38.08000
H  -15.31500 11.37100 39.50800
H  -13.83700 11.38300 40.40900
H  -13.75100 10.93100 38.74000
H  -7.93500 11.82400 40.58100
H  -9.59100 11.69200 40.41100
H  -8.99800 11.97500 42.00400
H  -5.57300 16.46000 39.79700
H  -3.77700 15.12500 43.95000
H  -4.55700 16.47700 44.79800
H  -3.46000 16.83700 43.53500

