158

Mg 44.77900 5.52600 46.70200
C  42.48400 8.32600 46.99900
C  41.99200 3.46200 46.46700
C  46.81200 3.00500 46.56900
C  47.32600 7.88700 46.22100
N  42.55000 5.93900 46.81600
C  41.85700 7.10300 46.91800
C  40.27800 6.82500 46.80900
C  40.23400 5.28700 46.75000
C  41.66800 4.87100 46.72800
C  39.29400 4.54400 47.73800
C  39.49300 7.47200 45.61300
C  40.11300 7.42100 44.21400
H  40.20600 8.68600 43.39000
N  44.46900 3.53700 46.47600
C  43.30200 2.83000 46.46700
C  43.55500 1.43000 46.40200
C  44.96200 1.28600 46.34100
C  45.47800 2.60800 46.49700
C  42.42700 0.34300 46.50500
C  45.74100 -0.10000 46.24300
O  45.09500 -1.14200 46.32700
C  47.22900 -0.16700 45.91400
N  46.76500 5.42000 46.16400
C  47.41500 4.26100 46.47000
C  48.93200 4.49400 46.48300
C  49.01000 5.88700 45.81000
C  47.65700 6.49000 46.13700
C  49.59900 4.32100 47.92800
C  49.25200 5.86900 44.30600
C  50.67800 6.25600 43.90500
N  44.98200 7.67300 46.80400
C  46.08800 8.49500 46.52500
C  45.68300 9.89400 46.63100
C  44.33800 9.85300 46.93200
C  43.92600 8.52300 46.95200
C  46.43100 11.27000 46.47600
C  43.17400 10.68200 47.16300
O  43.06300 11.92500 47.21000
C  41.93500 9.74500 47.12100
C  40.92700 9.87100 48.28500
O  41.00200 9.20300 49.26100
O  39.96300 10.82000 47.92300
C  38.88100 11.00500 48.91600
H  41.11000 2.90900 46.13600
H  47.52700 2.18900 46.69200
H  48.20200 8.50300 46.01000
H  39.92200 7.01700 47.82100
H  39.87700 5.00700 45.75800
H  38.40700 4.22200 47.19300
H  39.04000 5.10900 48.63400
H  39.81000 3.69100 48.17800
H  39.23900 8.52400 45.73900
H  38.55400 6.93500 45.48200
H  39.62100 6.63600 43.64100
H  41.18500 7.28500 44.35600
H  42.49300 -0.27000 45.60600
H  41.42900 0.76100 46.63100
H  42.54800 -0.35200 47.33600
H  47.44600 -1.14400 45.48100
H  47.61500 0.02300 46.91500
H  47.58700 0.57700 45.20200
H  49.50500 3.77200 45.90000
H  49.69100 6.51600 46.38400
H  50.60700 3.90500 47.93700
H  48.96800 3.62700 48.48200
H  49.65600 5.30600 48.39200
H  48.52300 6.46300 43.75400
H  49.12900 4.83400 43.99000
H  51.18000 5.50100 43.30000
H  51.36200 6.56400 44.69600
H  50.49500 7.12000 43.26600
H  46.39900 11.76400 47.44700
H  45.86500 11.89100 45.78200
H  47.46100 11.05200 46.19200
H  41.38200 9.90200 46.19500
H  38.88300 12.05000 49.22700
H  39.08700 10.38000 49.78500
H  37.86500 10.86600 48.54700
Mg 47.58300 16.38900 28.39600
C  45.90300 16.17800 31.55100
C  50.00800 18.15800 30.03800
C  48.93200 16.97300 25.40900
C  44.93400 14.68900 26.99100
N  47.73400 17.33200 30.52700
C  47.01200 17.02300 31.63000
C  47.58700 17.70300 32.90500
C  48.88500 18.44100 32.34600
C  48.89000 17.97500 30.86200
C  48.79100 20.03800 32.30500
C  47.92900 16.68300 33.98600
C  47.63900 17.00100 35.51100
H  47.53800 18.45900 35.89400
N  49.32900 17.33200 27.87800
C  50.24500 17.85200 28.70300
C  51.41600 18.19900 27.93500
C  51.19900 17.86900 26.56500
C  49.76100 17.40800 26.54600
C  52.63000 18.85100 28.63800
C  52.01600 18.05800 25.30600
O  51.57700 17.74900 24.20300
C  53.49800 18.53900 25.46900
N  46.94900 15.94200 26.47500
C  47.65000 16.34400 25.38900
C  46.97700 15.79900 24.12400
C  45.83100 14.83800 24.56100
C  45.90200 15.17700 26.13000
C  46.54600 16.98600 23.24000
C  46.11600 13.34800 24.19200
C  45.50900 12.78000 22.91400
N  45.69800 15.61200 29.09900
C  44.80600 14.93000 28.33100
C  43.83400 14.44700 29.21500
C  44.11900 14.97200 30.48600
C  45.35900 15.57200 30.38500
C  42.72300 13.66400 28.91500
C  43.63400 15.13900 31.80000
O  42.65600 14.77700 32.43600
C  44.87700 15.81900 32.58900
C  44.17000 17.01700 33.31200
O  43.88600 18.12200 32.79900
O  43.86900 16.65200 34.56200
C  43.02300 17.59600 35.21700
H  50.82300 18.68600 30.53900
H  49.40100 17.00500 24.42400
H  44.15200 14.14800 26.45400
H  46.88900 18.38900 33.38400
H  49.82400 18.08000 32.76600
H  49.59500 20.53300 32.85000
H  47.92100 20.40600 32.84900
H  48.70900 20.29600 31.24900
H  48.99500 16.45400 33.96100
H  47.54600 15.68000 33.79800
H  48.33000 16.46200 36.15900
H  46.67900 16.51400 35.68600
H  53.55000 18.46800 28.19500
H  52.74200 18.70300 29.71200
H  52.61900 19.89200 28.31500
H  53.52000 19.55500 25.86500
H  54.10000 18.56600 24.56100
H  54.00900 17.76900 26.04700
H  47.62700 15.18100 23.50400
H  44.85700 15.09400 24.14400
H  47.00400 16.87200 22.25700
H  46.77200 17.98700 23.60600
H  45.46200 17.01200 23.13300
H  45.79600 12.82100 25.09000
H  47.19300 13.28400 24.03300
H  46.27100 12.59500 22.15700
H  44.77700 13.45200 22.46500
H  45.03500 11.82000 23.11700
H  42.89800 12.75100 28.34600
H  41.96900 14.26700 28.41000
H  42.34900 13.29400 29.86900
H  45.35300 15.15700 33.31200
H  43.55400 18.45300 35.63200
H  42.57900 17.00800 36.02100
H  42.25100 17.85900 34.49400

