158

Mg 1.78900 -2.87200 44.84300
C  5.09500 -2.21700 44.45500
C  1.00300 -0.33800 42.81000
C  -1.41500 -3.99200 44.75300
C  2.74500 -5.87100 46.46400
N  2.90000 -1.52800 43.52600
C  4.21900 -1.46200 43.56900
C  4.74100 -0.42500 42.47300
C  3.38600 0.29900 42.13500
C  2.35800 -0.54700 42.89000
C  3.25300 1.79800 42.42100
C  5.42200 -1.02500 41.18900
C  6.95000 -0.65700 41.10400
H  7.55100 -0.31900 39.74400
N  0.04700 -2.16500 44.01000
C  -0.08200 -1.01100 43.26500
C  -1.50000 -0.75500 43.04900
C  -2.23600 -1.75200 43.71700
C  -1.26500 -2.64400 44.19900
C  -2.00800 0.43200 42.26500
C  -3.74200 -1.83700 43.89100
O  -4.48800 -0.95600 43.47500
C  -4.34700 -2.88400 44.76200
N  0.79500 -4.83000 45.31900
C  -0.51900 -4.94800 45.37900
C  -0.94000 -6.38200 45.77200
C  0.38700 -6.94200 46.37700
C  1.40000 -5.78600 46.03500
C  -2.15200 -6.53800 46.74600
C  0.77600 -8.37300 45.86000
C  -0.22600 -9.47900 46.07700
N  3.56700 -3.80300 45.53500
C  3.79700 -4.92600 46.24000
C  5.27800 -5.00600 46.48800
C  5.81900 -3.91800 45.87000
C  4.76800 -3.28500 45.21900
C  6.03500 -6.25200 46.94200
C  7.04100 -3.19400 45.59800
O  8.18000 -3.48800 45.86700
C  6.56700 -2.12700 44.53600
C  7.13000 -0.82000 44.87400
O  8.11600 -0.39400 44.37600
O  6.26900 -0.08100 45.67400
C  6.59300 1.31100 45.81500
H  0.78600 0.53700 42.19300
H  -2.44200 -4.35700 44.81900
H  3.19800 -6.71600 46.98700
H  5.37400 0.16200 43.13800
H  3.15500 0.15700 41.07900
H  4.25000 2.23500 42.37000
H  2.80600 1.92100 43.40800
H  2.61300 2.26100 41.66900
H  4.91800 -0.75500 40.26100
H  5.29900 -2.10000 41.32700
H  7.53800 -1.46600 41.53800
H  7.14300 0.20300 41.74500
H  -2.90200 0.19500 41.68800
H  -1.23000 0.77000 41.58100
H  -2.35200 1.18300 42.97700
H  -4.58100 -3.75500 44.15000
H  -5.29900 -2.40600 44.99600
H  -3.80900 -3.08200 45.68900
H  -1.20000 -6.94600 44.87600
H  0.30500 -7.00800 47.46200
H  -1.83300 -6.64100 47.78300
H  -2.70500 -7.42800 46.44600
H  -2.80000 -5.66300 46.80800
H  1.75800 -8.58700 46.28200
H  1.02200 -8.21600 44.81000
H  -0.48600 -9.91500 45.11200
H  -1.14700 -9.15800 46.56400
H  0.16000 -10.31600 46.65900
H  6.75300 -5.83600 47.64800
H  6.50000 -6.71300 46.07000
H  5.35300 -6.90700 47.48400
H  6.95400 -2.44500 43.56800
H  7.50000 1.42500 46.40800
H  5.75300 1.83800 46.26800
H  6.75200 1.87100 44.89300
Mg -2.41000 33.90500 26.32000
C  -4.05700 32.42300 29.07000
C  -0.71700 35.95900 28.50200
C  -1.21200 35.40500 23.67200
C  -4.08300 31.64300 24.28400
N  -2.36700 34.07400 28.56300
C  -3.11200 33.42900 29.44100
C  -2.88700 33.85900 30.87100
C  -1.98200 35.18600 30.61000
C  -1.65400 35.13300 29.16000
C  -2.57500 36.59800 31.02900
C  -2.33700 32.79700 31.82000
C  -3.08200 32.52700 33.12400
H  -2.18600 32.57700 34.37400
N  -1.09000 35.45900 26.10500
C  -0.47200 36.10600 27.15300
C  0.46300 36.98100 26.53500
C  0.25200 36.92800 25.08000
C  -0.69600 35.89700 24.93600
C  1.24200 38.05700 27.35600
C  0.90800 37.76100 24.02800
O  0.69400 37.72900 22.86400
C  2.02300 38.69700 24.48900
N  -2.77700 33.69300 24.35800
C  -2.14200 34.42800 23.41700
C  -2.46900 34.05700 21.95400
C  -3.11500 32.65600 22.15500
C  -3.26700 32.59200 23.70900
C  -3.41400 35.11200 21.29300
C  -2.29700 31.54900 21.48500
C  -1.24700 30.83200 22.39800
N  -3.76000 32.32400 26.58800
C  -4.33800 31.49700 25.66100
C  -5.26500 30.59300 26.25700
C  -5.14300 30.88100 27.61700
C  -4.29100 32.00700 27.73800
C  -6.07600 29.41500 25.65400
C  -5.55900 30.44600 28.89600
O  -6.26400 29.51400 29.19500
C  -4.92200 31.52700 29.90600
C  -5.97500 32.28700 30.64600
O  -6.78000 32.93900 30.08800
O  -5.92000 32.03700 32.04900
C  -6.99600 32.77000 32.75800
H  -0.16300 36.60100 29.19100
H  -0.59300 35.72600 22.83200
H  -4.60000 31.07400 23.50800
H  -3.84500 34.19700 31.26700
H  -1.15800 35.06900 31.31300
H  -2.52700 37.18100 30.10900
H  -2.03000 37.03800 31.86500
H  -3.63900 36.63200 31.26500
H  -1.42500 33.29300 32.15200
H  -2.10900 31.79900 31.44700
H  -3.60000 31.56900 33.14300
H  -3.75600 33.36700 33.29300
H  0.81000 39.01400 27.06400
H  2.28000 38.04800 27.02400
H  1.19600 38.03700 28.44500
H  2.37700 39.15700 23.56600
H  2.85100 38.18000 24.97400
H  1.53100 39.43800 25.11800
H  -1.47400 34.09000 21.50900
H  -4.09200 32.49700 21.69800
H  -3.13300 36.11000 21.62800
H  -4.42700 35.02900 21.68500
H  -3.27700 34.94600 20.22400
H  -1.70600 31.91800 20.64700
H  -2.96300 30.76500 21.12400
H  -0.22500 31.17900 22.24600
H  -1.27100 29.79100 22.07500
H  -1.45200 30.71200 23.46100
H  -7.04900 29.81000 25.36200
H  -6.11100 28.70000 26.47600
H  -5.48400 28.96900 24.85400
H  -4.32300 30.90100 30.56800
H  -6.46000 33.45400 33.41600
H  -7.53800 32.04100 33.36000
H  -7.72400 33.32900 32.17000

