158

Mg 34.85300 2.94600 29.26900
C  33.00400 4.29400 31.96800
C  37.49500 2.66700 31.61800
C  36.90800 2.40500 26.82500
C  32.15500 3.68600 27.14400
N  35.13200 3.44200 31.51000
C  34.26000 3.90900 32.41400
C  34.80400 3.82300 33.81700
C  36.31600 3.68200 33.57800
C  36.34500 3.20800 32.14500
C  37.00700 5.00700 33.89000
C  34.25300 2.68300 34.70900
C  34.07200 3.07400 36.23600
H  34.96400 4.27700 36.89000
N  36.82900 2.29000 29.23500
C  37.76400 2.31300 30.24500
C  38.97500 1.73600 29.76600
C  38.84900 1.68600 28.34700
C  37.47400 2.19900 28.08200
C  40.08900 1.37200 30.69300
C  39.89500 1.18700 27.30000
O  39.70500 1.18700 26.08100
C  41.20800 0.82200 27.83600
N  34.62800 3.21000 27.30900
C  35.60000 2.75000 26.51200
C  35.01900 2.58000 25.06700
C  33.50500 2.69300 25.26500
C  33.42000 3.31500 26.69500
C  35.63200 3.74000 24.14600
C  32.70400 1.32400 25.13900
C  31.40500 1.30800 24.38700
N  32.87200 3.73000 29.45400
C  31.88700 4.01100 28.51400
C  30.70000 4.53600 29.16300
C  31.09000 4.62900 30.50800
C  32.44100 4.20800 30.63900
C  29.42000 4.92800 28.39400
C  30.63300 4.96300 31.83100
O  29.51000 5.21300 32.20400
C  31.82300 4.82600 32.82200
C  32.08000 6.10700 33.49700
O  32.87300 6.99100 33.13700
O  31.29700 6.22000 34.56800
C  31.30000 7.51300 35.30400
H  38.33200 2.54100 32.30700
H  37.50400 2.06700 25.97500
H  31.26900 3.87700 26.53500
H  34.63400 4.81900 34.22700
H  36.76800 2.91900 34.21100
H  36.37900 5.68000 34.47500
H  37.30500 5.48500 32.95700
H  37.92100 4.93100 34.47800
H  34.91400 1.82100 34.61800
H  33.24100 2.48600 34.35600
H  34.18000 2.22300 36.90800
H  33.04500 3.41700 36.36000
H  40.59800 0.44700 30.42200
H  39.65700 1.40400 31.69300
H  40.87400 2.12800 30.67100
H  41.74200 1.61300 28.36300
H  41.84000 0.45700 27.02600
H  41.02400 0.02400 28.55600
H  35.39700 1.60300 24.76700
H  32.92600 3.33800 24.60400
H  36.36500 3.31300 23.46200
H  36.10800 4.53400 24.72100
H  34.80600 4.13500 23.55400
H  32.41500 0.96600 26.12700
H  33.40800 0.72000 24.56600
H  31.48300 0.69700 23.48700
H  31.16800 2.32700 24.08200
H  30.61400 0.84800 24.97800
H  29.46300 5.42000 27.42200
H  28.82900 5.58600 29.03100
H  28.76400 4.07100 28.24300
H  31.50100 4.09600 33.56500
H  32.01000 7.33000 36.11000
H  30.25800 7.62100 35.60600
H  31.60500 8.35800 34.68800
Mg 49.36400 47.29400 42.28900
C  46.03600 47.32900 41.46800
C  49.84100 44.32400 40.63800
C  52.61800 47.79500 42.59600
C  48.99300 50.84000 43.25300
N  48.00900 46.05200 41.07400
C  46.65600 46.22100 40.99100
C  46.12300 45.03100 40.11200
C  47.31200 43.95100 40.09100
C  48.46100 44.81700 40.64800
C  47.02000 42.57600 40.92600
C  45.71900 45.58400 38.68900
C  44.48800 44.91900 38.04300
H  44.98100 43.91700 36.92500
N  50.94500 46.16500 41.82100
C  50.94100 44.94800 41.16600
C  52.27000 44.44200 41.14000
C  53.10600 45.46000 41.70000
C  52.20600 46.53600 42.12300
C  52.72300 43.17700 40.58300
C  54.63000 45.30200 41.87400
O  55.29200 44.30300 41.47800
C  55.42600 46.26600 42.87100
N  50.67400 49.05200 42.91400
C  51.98200 48.92200 42.95800
C  52.66600 50.24800 43.22900
C  51.50700 51.27700 43.28100
C  50.29400 50.37400 43.15900
C  53.70900 50.36200 44.37700
C  51.46000 52.48300 42.38200
C  51.30600 53.79900 43.22100
N  47.83500 48.78200 42.51800
C  47.79500 50.14900 42.87500
C  46.45600 50.64200 42.68200
C  45.72100 49.56600 42.21000
C  46.61300 48.43100 42.09300
C  45.97000 51.96300 43.05100
C  44.40600 49.17500 41.84200
O  43.37200 49.88000 41.84200
C  44.58000 47.65000 41.51400
C  43.81800 46.87000 42.58000
O  44.03900 47.08400 43.77300
O  43.11500 45.87400 41.98300
C  42.44900 44.81700 42.78700
H  49.93200 43.30200 40.26400
H  53.69800 47.93900 42.52500
H  48.77000 51.88600 43.47200
H  45.23000 44.72700 40.65800
H  47.43300 43.69200 39.03900
H  46.80000 41.71400 40.29700
H  46.08600 42.70500 41.47400
H  47.88600 42.30700 41.53000
H  46.62100 45.48200 38.08500
H  45.60900 46.65800 38.83800
H  43.88100 45.74400 37.66900
H  43.79100 44.32500 38.63400
H  51.95500 42.61800 40.04800
H  53.10300 42.52600 41.37000
H  53.48000 43.39000 39.82800
H  55.73800 47.17600 42.35900
H  56.31800 45.73100 43.19800
H  54.86500 46.49200 43.77800
H  53.15900 50.28300 42.25800
H  51.41800 51.61200 44.31400
H  54.62600 50.88700 44.10900
H  54.02800 49.36600 44.68300
H  53.25700 50.83500 45.24800
H  50.58300 52.37100 41.74400
H  52.35200 52.28800 41.78600
H  51.34800 53.69100 44.30400
H  50.26100 54.07600 43.08200
H  51.97300 54.53800 42.77800
H  46.39500 52.25500 44.01200
H  44.89900 51.92900 43.25200
H  46.39500 52.77000 42.45400
H  44.02000 47.29700 40.64800
H  43.23500 44.22300 43.25400
H  42.01600 44.09700 42.09300
H  41.77700 45.19800 43.55600

