158

Mg 49.20400 35.30700 27.78500
C  47.18400 33.82400 30.27600
C  49.46300 38.01700 29.87500
C  51.26900 36.60000 25.59900
C  48.54500 32.68100 25.77000
N  48.39100 35.77900 29.92800
C  47.66800 35.02700 30.74400
C  47.77500 35.52700 32.22900
C  48.22200 37.08000 31.95700
C  48.85500 36.94600 30.53300
C  47.09200 38.14100 32.18400
C  48.99400 34.83600 32.97200
C  48.73300 34.38900 34.35300
H  47.73800 35.29100 35.19400
N  50.17800 37.07600 27.74400
C  50.12500 38.15300 28.63900
C  50.80100 39.37400 28.06500
C  51.43200 38.90800 26.82200
C  50.98800 37.52700 26.67600
C  50.82400 40.69500 28.77100
C  52.40500 39.55300 25.90600
O  52.82400 39.07100 24.86700
C  52.98300 40.91400 26.28700
N  49.71100 34.78700 25.88200
C  50.72600 35.41900 25.20000
C  51.15200 34.58400 23.94600
C  50.10100 33.42100 23.94200
C  49.36700 33.66000 25.27000
C  51.11400 35.35700 22.61600
C  50.75600 32.02000 23.75900
C  50.26100 31.32500 22.49500
N  48.08700 33.57200 27.91700
C  47.84500 32.63100 26.95900
C  47.00000 31.57600 27.50200
C  46.70100 32.05400 28.75800
C  47.44200 33.27000 28.99300
C  46.56800 30.38600 26.76900
C  45.89300 31.77300 29.89300
O  45.15400 30.84800 30.02500
C  46.18400 32.88300 30.90200
C  46.48300 32.22200 32.18800
O  47.40400 31.45800 32.38000
O  45.48600 32.39600 33.05800
C  45.62900 31.70600 34.31500
H  49.58100 38.96600 30.40200
H  51.98900 36.92600 24.84500
H  48.40400 31.81500 25.12000
H  46.78900 35.59400 32.69000
H  48.97500 37.34900 32.69700
H  46.10900 37.68700 32.31200
H  47.01400 38.85500 31.36400
H  47.34000 38.77200 33.03700
H  49.95000 35.35300 32.89100
H  49.19600 33.87100 32.50700
H  49.73100 34.45100 34.78600
H  48.29500 33.39200 34.30400
H  50.05600 40.64400 29.54300
H  50.55400 41.46400 28.04700
H  51.79100 40.95000 29.20700
H  53.71600 40.77100 27.08100
H  52.22200 41.59600 26.66600
H  53.55500 41.23400 25.41600
H  52.16200 34.27700 24.21800
H  49.38600 33.53500 23.12800
H  52.08600 35.72900 22.29300
H  50.33600 36.11500 22.71500
H  50.95500 34.53900 21.91400
H  50.59900 31.44800 24.67400
H  51.83400 32.08900 23.61300
H  50.36600 32.07400 21.71100
H  49.21000 31.06900 22.62700
H  50.98000 30.55300 22.22100
H  46.85700 30.30300 25.72100
H  45.48300 30.31600 26.84900
H  46.96200 29.47300 27.21500
H  45.25100 33.44500 30.91700
H  46.45900 32.01500 34.95000
H  45.74600 30.64700 34.08400
H  44.67300 31.77800 34.83500
Mg -12.84700 16.17000 41.38100
C  -9.88400 14.37800 40.70100
C  -11.45600 18.81800 39.70700
C  -15.79800 17.62700 41.74200
C  -14.17200 13.02600 42.36800
N  -10.96900 16.47000 40.14500
C  -9.94400 15.63800 40.16300
C  -8.66000 16.31400 39.53700
C  -9.09600 17.80900 39.20500
C  -10.57200 17.75300 39.72700
C  -8.31400 18.92000 39.90900
C  -8.10700 15.63500 38.23300
C  -6.55500 15.36900 38.23500
H  -5.62600 16.06200 37.26100
N  -13.55900 17.99000 40.86100
C  -12.78800 18.98800 40.30700
C  -13.55100 20.16100 40.27000
C  -14.82000 19.81900 40.86700
C  -14.76800 18.43100 41.25200
C  -13.10300 21.47800 39.69500
C  -15.95100 20.84500 40.95600
O  -15.83800 21.91400 40.36500
C  -17.24600 20.65200 41.75000
N  -14.75300 15.37600 41.62400
C  -15.81400 16.25200 41.91400
C  -17.03900 15.46400 42.33600
C  -16.43200 14.09100 42.73800
C  -15.01700 14.14800 42.16900
C  -17.73500 16.16600 43.55100
C  -17.33200 12.87700 42.33100
C  -17.61000 11.86800 43.42800
N  -12.18000 14.03200 41.55500
C  -12.79200 12.91200 42.06900
C  -11.86300 11.82200 42.23000
C  -10.71000 12.34300 41.59700
C  -10.96300 13.69000 41.27000
C  -12.12400 10.50600 42.89900
C  -9.32600 12.05400 41.33900
O  -8.68300 11.08300 41.66800
C  -8.66600 13.33700 40.61600
C  -7.44000 13.78700 41.40400
O  -7.42100 14.52200 42.39900
O  -6.35500 12.96800 41.04800
C  -4.98700 13.03300 41.62400
H  -10.99500 19.66200 39.19000
H  -16.75100 18.15900 41.76800
H  -14.60500 12.08800 42.72300
H  -7.86300 16.29000 40.28100
H  -9.10900 18.06900 38.14600
H  -8.81000 19.81700 40.28100
H  -7.52700 19.30200 39.26000
H  -7.79200 18.37700 40.69700
H  -8.16300 16.27300 37.35100
H  -8.53300 14.66400 37.97900
H  -6.42900 14.30100 38.05900
H  -6.17400 15.41400 39.25500
H  -13.53100 21.58900 38.69900
H  -12.02600 21.52500 39.53000
H  -13.34900 22.22800 40.44700
H  -16.87900 20.40700 42.74700
H  -17.91200 19.89100 41.34200
H  -17.68600 21.65000 41.76800
H  -17.69500 15.37300 41.47000
H  -16.29500 14.20000 43.81400
H  -17.97600 15.43500 44.32200
H  -18.67200 16.62200 43.23300
H  -17.09500 17.01300 43.79800
H  -16.78800 12.43700 41.49500
H  -18.23800 13.26400 41.86400
H  -16.97400 10.99600 43.27600
H  -18.60900 11.45000 43.31100
H  -17.67000 12.32300 44.41700
H  -11.26100 10.33200 43.54100
H  -12.26400 9.65300 42.23400
H  -12.97800 10.56500 43.57400
H  -8.45600 13.14400 39.56400
H  -4.67300 12.02000 41.87700
H  -5.01800 13.61800 42.54400
H  -4.28800 13.49400 40.92600

