158

Mg 8.06700 2.34700 27.66200
C  9.61400 0.83400 30.35900
C  5.97500 3.93100 29.62500
C  6.11200 3.19400 24.85500
C  9.63100 -0.12000 25.59400
N  7.78700 2.27900 29.79500
C  8.65200 1.70300 30.72400
C  8.26700 2.17000 32.18900
C  6.94200 3.01300 31.96100
C  6.85200 3.08500 30.36400
C  5.54100 2.57900 32.57400
C  9.37000 3.00300 33.01000
C  9.93800 2.38400 34.30700
H  10.14700 3.34100 35.51400
N  6.46800 3.59600 27.29900
C  5.80000 4.21200 28.25600
C  4.89300 5.23700 27.73700
C  4.88000 5.03600 26.32800
C  5.86700 3.91100 26.13200
C  4.02800 6.21800 28.57800
C  4.04500 5.68000 25.27300
O  4.31400 5.53300 24.06600
C  3.00500 6.63600 25.67800
N  7.97100 1.75500 25.51600
C  6.96900 2.13300 24.66800
C  6.90800 1.20700 23.39600
C  8.28400 0.40300 23.52800
C  8.63600 0.66500 24.98500
C  5.66200 0.41000 23.18300
C  9.44100 0.76800 22.54300
C  10.43000 -0.29700 22.11200
N  9.33900 0.72000 27.85100
C  9.92100 -0.08800 26.92700
C  10.96700 -0.95700 27.55500
C  10.88500 -0.52300 28.89200
C  9.88500 0.44300 29.03300
C  11.84300 -1.99600 26.86100
C  11.39300 -0.76100 30.23500
O  12.30000 -1.52900 30.64300
C  10.63400 0.10800 31.20700
C  10.12200 -0.76500 32.32300
O  9.07800 -1.41700 32.20800
O  11.01200 -0.75000 33.33400
C  10.45400 -1.33100 34.57800
H  5.46300 4.57900 30.34000
H  5.47800 3.45200 24.00500
H  10.28300 -0.74800 24.98200
H  8.00200 1.23600 32.68400
H  7.03100 4.06600 32.23000
H  5.02100 3.35500 33.13600
H  5.82300 1.71900 33.18100
H  4.86900 2.26600 31.77500
H  9.10400 4.03800 33.22500
H  10.18000 3.20400 32.30900
H  10.89300 1.95500 34.00600
H  9.23200 1.63700 34.67200
H  4.39300 6.36600 29.59400
H  3.04100 5.75700 28.58500
H  4.11600 7.14100 28.00400
H  2.43300 6.14200 26.46400
H  2.38400 6.89800 24.82100
H  3.36700 7.53000 26.18600
H  7.04300 1.92600 22.58700
H  8.06600 -0.66100 23.42600
H  5.02700 0.38800 24.06900
H  5.78900 -0.63700 22.90700
H  5.08600 0.94000 22.42400
H  9.95900 1.64100 22.93900
H  8.94000 1.10300 21.63500
H  10.36300 -1.26800 22.60400
H  11.42800 0.12200 22.23700
H  10.24100 -0.54600 21.06800
H  12.89000 -1.71700 26.74200
H  11.47100 -2.18300 25.85300
H  11.74900 -2.91700 27.43600
H  11.40400 0.80400 31.54100
H  11.24800 -1.15000 35.30200
H  10.23300 -2.39900 34.56100
H  9.58700 -0.75600 34.90300
Mg 25.35800 1.48300 30.19900
C  27.62500 1.60200 32.80000
C  22.85000 1.47800 32.40700
C  23.36800 1.25700 27.61100
C  28.22500 1.04800 28.04600
N  25.23700 1.56000 32.34900
C  26.30500 1.72200 33.18200
C  25.86900 1.73300 34.64600
C  24.34700 1.30600 34.49200
C  24.13200 1.54400 33.02800
C  23.99600 -0.08000 35.00700
C  26.16200 3.03700 35.36200
C  27.18800 2.90700 36.53700
H  26.96800 3.76500 37.79300
N  23.38600 1.38700 30.04100
C  22.53100 1.36900 31.05900
C  21.19000 1.24600 30.50900
C  21.28500 1.12900 29.08700
C  22.74400 1.24800 28.84000
C  19.88300 1.21900 31.40700
C  20.21700 0.95600 28.06600
O  20.44300 0.72400 26.85700
C  18.81500 1.23500 28.43100
N  25.79500 1.24400 28.14700
C  24.72800 1.22300 27.25700
C  25.23700 1.43200 25.83500
C  26.79700 1.66300 26.00100
C  26.97500 1.27800 27.46600
C  24.85400 0.19100 24.93800
C  27.31300 3.07700 25.52000
C  26.93900 4.33800 26.28500
N  27.47000 1.20600 30.37000
C  28.50600 0.96000 29.42300
C  29.78100 0.71900 30.02900
C  29.43500 0.92700 31.41300
C  28.07900 1.28000 31.52400
C  31.13000 0.52600 29.46300
C  30.04200 0.92100 32.73700
O  31.21300 0.73700 33.08300
C  28.87100 1.33000 33.66200
C  28.71300 0.18800 34.72400
O  28.06500 -0.84100 34.61400
O  29.56200 0.56000 35.78900
C  29.85500 -0.53300 36.66400
H  22.12900 1.36800 33.22000
H  22.76000 1.28200 26.70400
H  29.04600 0.88100 27.34600
H  26.34300 0.97100 35.26400
H  23.66400 1.96300 35.03000
H  24.82600 -0.71600 34.69900
H  23.04400 -0.32900 34.53800
H  23.80700 -0.20400 36.07400
H  25.28800 3.47700 35.84300
H  26.47800 3.77900 34.62900
H  28.08500 3.29600 36.05600
H  27.33900 1.90200 36.93100
H  19.43300 2.18100 31.16100
H  20.10500 1.21900 32.47400
H  19.18100 0.40400 31.22800
H  18.32200 1.45200 27.48400
H  18.87300 2.07300 29.12600
H  18.32200 0.34400 28.82000
H  24.75800 2.35200 25.50000
H  27.39700 0.94400 25.44300
H  25.64900 -0.55500 24.90500
H  24.61600 0.53500 23.93100
H  23.93100 -0.28000 25.27500
H  26.99400 3.07500 24.47800
H  28.39700 2.96100 25.51100
H  26.85600 4.10600 27.34700
H  26.01300 4.74700 25.88100
H  27.72200 5.08500 26.15700
H  31.21600 1.23600 28.64100
H  31.18500 -0.52900 29.19400
H  31.80800 0.81400 30.26700
H  29.20600 2.28100 34.07600
H  29.77100 -1.48000 36.13100
H  29.33500 -0.29900 37.59300
H  30.92100 -0.39200 36.84200

