158

Mg 9.05400 4.48900 28.02400
C  10.42100 2.74200 30.92200
C  7.44700 6.54800 29.98000
C  7.68200 5.75000 25.19400
C  10.65800 2.11800 26.07100
N  8.90300 4.60800 30.17600
C  9.58100 3.88000 31.18800
C  9.28300 4.49600 32.58900
C  8.17200 5.62200 32.18500
C  8.15100 5.62300 30.69000
C  6.84000 5.50300 32.94300
C  10.62900 5.12700 33.22300
C  11.18700 4.45000 34.52400
H  11.39400 5.25700 35.82500
N  7.66300 5.93100 27.68200
C  7.13400 6.69300 28.63800
C  6.24000 7.60600 27.98100
C  6.29500 7.37400 26.59400
C  7.25000 6.32500 26.46900
C  5.53500 8.68200 28.82800
C  5.44800 8.07300 25.57100
O  5.60500 7.80300 24.36100
C  4.43900 9.09300 25.90900
N  9.08500 4.01900 25.88400
C  8.57100 4.70300 24.89600
C  8.90500 4.14000 23.45500
C  9.95300 3.05900 23.86400
C  9.90400 3.06000 25.39800
C  7.67000 3.64500 22.66700
C  11.42500 3.36500 23.37000
C  12.14700 2.18700 22.66500
N  10.22000 2.73200 28.35100
C  10.86100 1.95000 27.48000
C  11.61100 0.84500 28.12400
C  11.48700 1.16100 29.45600
C  10.62600 2.28000 29.58700
C  12.41300 -0.29600 27.54400
C  11.87000 0.80200 30.83100
O  12.51100 -0.15300 31.25600
C  11.16600 1.85000 31.84400
C  10.28800 1.13500 32.73900
O  9.31100 0.53800 32.30900
O  10.73500 1.15800 33.99900
C  9.87800 0.50400 35.04100
H  6.92800 7.26400 30.62100
H  7.29500 6.33400 24.35700
H  11.17600 1.34500 25.50000
H  8.71200 3.70700 33.07700
H  8.57700 6.54900 32.59000
H  7.09900 5.35300 33.99100
H  6.39400 4.53200 32.72900
H  6.14200 6.33600 32.85000
H  10.49400 6.16900 33.51200
H  11.39000 4.94500 32.46400
H  12.15100 4.00900 34.27000
H  10.57000 3.60800 34.83900
H  5.51100 9.60100 28.24300
H  6.04500 8.84100 29.77800
H  4.48600 8.43300 28.98700
H  3.76400 9.38000 25.10300
H  4.75700 10.05500 26.31100
H  3.70300 8.66900 26.59200
H  9.37900 4.99000 22.96500
H  9.74200 2.07000 23.45800
H  6.81800 3.97500 23.26200
H  7.53500 2.56400 22.61600
H  7.58800 3.87200 21.60400
H  12.05200 3.58500 24.23400
H  11.37200 4.31400 22.83700
H  13.10600 2.00600 23.15200
H  12.37200 2.43200 21.62700
H  11.54700 1.27700 22.63600
H  13.36500 -0.50600 28.03100
H  12.74400 -0.10200 26.52300
H  11.78400 -1.18200 27.63100
H  11.94100 2.35200 32.42300
H  10.25600 -0.44600 35.42000
H  8.86400 0.18700 34.80000
H  9.67700 1.22800 35.83100
Mg -5.47600 25.92700 26.13000
C  -3.79100 27.19500 28.88400
C  -6.92100 23.55400 28.30200
C  -6.76000 24.35100 23.42300
C  -3.67200 27.99300 24.02800
N  -5.46400 25.45500 28.42600
C  -4.62500 26.12000 29.29500
C  -4.86600 25.61800 30.70800
C  -5.62700 24.28400 30.48700
C  -6.07700 24.40700 29.00400
C  -4.63300 23.02700 30.65800
C  -5.72000 26.80400 31.46100
C  -5.29800 27.07400 32.96900
H  -6.15200 26.36700 34.03300
N  -6.82300 24.31400 25.86900
C  -7.23600 23.46800 26.88000
C  -8.15700 22.47900 26.27100
C  -8.12700 22.69200 24.87100
C  -7.25700 23.82500 24.65000
C  -8.87900 21.41100 27.12500
C  -8.80200 21.94300 23.69900
O  -8.92100 22.33200 22.56400
C  -9.51900 20.70600 24.04700
N  -5.21900 26.06800 24.07500
C  -5.93300 25.41400 23.17600
C  -5.55400 25.71500 21.82300
C  -4.59700 26.88600 21.97500
C  -4.58300 27.09400 23.43800
C  -4.88000 24.54600 20.86100
C  -4.84700 28.23100 21.12200
C  -5.24500 28.10100 19.64200
N  -3.97200 27.29000 26.37100
C  -3.38300 28.12900 25.40500
C  -2.66400 29.10700 26.11400
C  -2.65300 28.73400 27.44500
C  -3.59100 27.66100 27.56700
C  -1.74300 30.12100 25.41000
C  -2.07100 29.03300 28.76700
O  -1.17700 29.80300 29.07100
C  -2.85100 28.12000 29.70200
C  -1.91700 27.36100 30.58300
O  -1.31000 26.27900 30.40500
O  -1.90200 28.02800 31.80200
C  -1.27400 27.38000 32.90100
H  -7.46800 22.86300 28.94700
H  -7.12300 23.74600 22.58900
H  -3.37200 28.86100 23.43800
H  -4.00200 25.41300 31.34100
H  -6.45200 24.19400 31.19200
H  -5.03500 22.45800 31.49600
H  -3.65500 23.35800 31.00800
H  -4.49700 22.42600 29.75900
H  -6.79000 26.59900 31.44400
H  -5.45800 27.74500 30.97800
H  -5.19400 28.13000 33.21400
H  -4.31200 26.61600 33.04800
H  -8.43600 20.42500 26.98100
H  -9.86000 21.29500 26.66300
H  -8.99400 21.55000 28.20000
H  -9.74900 20.10100 23.17000
H  -10.45800 20.95200 24.54300
H  -8.97000 20.11000 24.77600
H  -6.44600 26.11500 21.34100
H  -3.63200 26.51900 21.62700
H  -3.89300 24.83400 20.49900
H  -5.57300 24.45500 20.02500
H  -4.79900 23.60800 21.41000
H  -3.96100 28.86600 21.13700
H  -5.62700 28.80700 21.62100
H  -5.98100 28.88000 19.44400
H  -5.70400 27.15500 19.35300
H  -4.31500 28.16600 19.07700
H  -0.66800 30.10200 25.58700
H  -2.12800 31.14100 25.41100
H  -1.77600 29.84000 24.35700
H  -3.40200 28.84100 30.30500
H  -0.41900 27.81200 33.42100
H  -1.13700 26.30100 32.97300
H  -2.00100 27.55400 33.69400

