158

Mg 23.90200 -4.52400 45.60800
C  26.18200 -2.43400 44.06800
C  21.35500 -3.33800 43.53200
C  22.10300 -7.31200 46.13500
C  26.68100 -6.14100 47.10400
N  23.85700 -3.10800 43.89900
C  24.93600 -2.36200 43.52700
C  24.46100 -1.33900 42.42300
C  22.92400 -1.30300 42.67500
C  22.64900 -2.68800 43.40600
C  22.46700 -0.07300 43.55700
C  24.90700 -1.96500 41.04500
C  25.71300 -1.07400 40.05500
H  25.45200 -1.16800 38.55200
N  21.90200 -5.10600 45.09100
C  21.01300 -4.47600 44.20200
C  19.80000 -5.22700 44.14600
C  19.95300 -6.39300 44.93300
C  21.34100 -6.32800 45.46000
C  18.52900 -4.71800 43.29600
C  18.84900 -7.35600 45.31700
O  17.69100 -7.20400 44.82700
C  19.02100 -8.55700 46.30700
N  24.34700 -6.40500 46.45500
C  23.40500 -7.38200 46.67300
C  24.04000 -8.70100 47.10100
C  25.44200 -8.23300 47.62800
C  25.53500 -6.85000 47.08900
C  23.27700 -9.29500 48.30400
C  26.57100 -9.12900 47.02000
C  27.68100 -9.62300 48.00400
N  26.00000 -4.19100 45.84100
C  26.97900 -4.93200 46.49500
C  28.24400 -4.20100 46.35400
C  27.96900 -3.19000 45.43000
C  26.62500 -3.26900 45.11600
C  29.57300 -4.36900 47.08500
C  28.48600 -2.01500 44.84300
O  29.57800 -1.50700 44.97100
C  27.36000 -1.42900 43.89100
C  27.14700 -0.01700 44.24000
O  26.47900 0.34300 45.22400
O  27.71100 0.85400 43.36200
C  27.45600 2.34200 43.54500
H  20.64400 -2.71300 42.98800
H  21.44000 -8.15200 46.35300
H  27.57500 -6.49800 47.62100
H  24.93200 -0.35700 42.39300
H  22.36300 -1.31600 41.74000
H  23.33600 0.41800 43.99600
H  21.89400 -0.34200 44.44400
H  21.89100 0.67000 43.00500
H  23.97600 -2.14500 40.50900
H  25.38700 -2.92000 41.26000
H  26.76900 -1.28100 40.22600
H  25.60700 -0.03000 40.34700
H  18.86000 -4.15700 42.42200
H  17.78200 -4.17000 43.86900
H  18.06900 -5.60700 42.86300
H  19.57200 -9.34100 45.78900
H  18.02100 -8.85700 46.62100
H  19.43800 -8.12800 47.21800
H  24.19300 -9.42600 46.30100
H  25.54400 -8.14600 48.71000
H  22.39500 -8.73800 48.62000
H  23.94500 -9.50500 49.13900
H  22.85700 -10.25600 48.00700
H  26.97700 -8.56400 46.18000
H  26.22500 -10.00200 46.46600
H  27.31700 -9.39900 49.00700
H  28.50400 -8.91500 47.90300
H  28.03200 -10.64600 47.86700
H  29.49400 -5.37400 47.49900
H  29.64500 -3.58200 47.83500
H  30.30600 -4.33700 46.27800
H  27.72300 -1.43300 42.86400
H  26.78500 2.44200 44.39900
H  27.06600 2.73800 42.60800
H  28.43400 2.71800 43.84500
Mg -5.82600 25.00700 26.15100
C  -4.41200 26.22300 29.09300
C  -7.98900 23.14900 28.26000
C  -7.19400 23.78800 23.39700
C  -3.68200 27.04500 24.36100
N  -6.22500 24.75700 28.56200
C  -5.49600 25.35000 29.53100
C  -6.07700 24.94600 30.92100
C  -6.91400 23.71300 30.50800
C  -7.07300 23.85500 29.02200
C  -6.35400 22.34500 30.89700
C  -6.90200 26.09500 31.63500
C  -6.58600 26.38300 33.08000
H  -5.83500 25.32800 34.05000
N  -7.29400 23.64700 25.86200
C  -8.11900 22.97900 26.85200
C  -9.13800 22.17500 26.21100
C  -8.86600 22.31600 24.77300
C  -7.75100 23.30200 24.64700
C  -10.21000 21.47700 26.97200
C  -9.52700 21.67100 23.58700
O  -9.23300 21.90500 22.42500
C  -10.56400 20.64300 23.90400
N  -5.46500 25.37000 24.14400
C  -6.15000 24.73400 23.15900
C  -5.62100 25.10600 21.78100
C  -4.65800 26.30800 22.09700
C  -4.56300 26.27600 23.60300
C  -4.85600 24.01600 20.91100
C  -5.06600 27.73800 21.66900
C  -4.14800 28.35500 20.55800
N  -4.26100 26.30100 26.58700
C  -3.53500 27.16500 25.76500
C  -2.61600 28.00600 26.59900
C  -3.00400 27.71000 27.91500
C  -4.00100 26.67600 27.84100
C  -1.57000 29.00900 25.95700
C  -2.70000 27.98600 29.31000
O  -1.77900 28.68700 29.78100
C  -3.53100 27.02200 30.12300
C  -2.69900 26.30900 31.08300
O  -2.07700 25.31000 30.78700
O  -2.68700 26.86300 32.35800
C  -1.79000 26.09000 33.19800
H  -8.65300 22.46200 28.79000
H  -7.64200 23.48200 22.45000
H  -3.00100 27.62200 23.73100
H  -5.20400 24.69100 31.52200
H  -7.88600 23.68200 31.00100
H  -7.03800 21.99500 31.67000
H  -5.34400 22.43000 31.29700
H  -6.40400 21.51800 30.18800
H  -7.98000 25.93400 31.60700
H  -6.74100 26.89700 30.91400
H  -7.55700 26.59100 33.52900
H  -6.01100 27.30900 33.10700
H  -9.83500 20.49700 27.26700
H  -11.12000 21.52600 26.37400
H  -10.50900 22.02500 27.86500
H  -10.79800 20.13700 22.96800
H  -11.45600 21.21700 24.15300
H  -10.42500 19.96900 24.74900
H  -6.51100 25.40700 21.22800
H  -3.68500 26.07500 21.66500
H  -5.65800 23.33200 20.63500
H  -4.29200 23.35100 21.56500
H  -4.46300 24.44600 19.98900
H  -5.23900 28.38900 22.52500
H  -5.93900 27.61600 21.02700
H  -4.63600 28.71800 19.65300
H  -3.43600 27.64300 20.13900
H  -3.58400 29.18700 20.97900
H  -1.04400 29.59700 26.70800
H  -2.06700 29.75000 25.33100
H  -0.76900 28.45500 25.46700
H  -4.25100 27.59300 30.70900
H  -0.74200 26.15000 32.90300
H  -2.13800 25.05800 33.16000
H  -1.93600 26.48200 34.20500

