158

Mg 44.98600 4.55300 48.28100
C  42.85600 7.21100 47.45900
C  42.49400 2.40300 47.86000
C  47.29000 2.14800 48.45500
C  47.70100 6.95900 48.24800
N  42.89600 4.80100 47.73900
C  42.20800 5.89000 47.42400
C  40.69300 5.58000 47.14500
C  40.51900 4.06000 47.38700
C  42.05800 3.72300 47.71400
C  39.54000 3.75600 48.49500
C  40.21000 6.08600 45.75700
C  38.99300 6.93700 45.68500
H  38.23300 6.80700 44.33400
N  44.93700 2.46600 48.34500
C  43.75600 1.85800 48.16400
C  44.01500 0.41200 48.12100
C  45.39400 0.24700 48.31000
C  45.96300 1.65100 48.38100
C  42.79800 -0.64100 48.03600
C  46.07500 -1.13800 48.41200
O  45.48100 -2.15700 48.33300
C  47.63900 -1.28300 48.60200
N  47.18700 4.52500 48.19500
C  47.83600 3.38500 48.48900
C  49.36900 3.59800 48.82300
C  49.59900 5.17200 48.55800
C  48.09100 5.61400 48.31600
C  49.82200 3.04600 50.18200
C  50.53300 5.52700 47.40300
C  51.96200 5.13300 47.57200
N  45.21700 6.59700 47.98900
C  46.35200 7.39500 48.05900
C  45.96800 8.79100 47.99800
C  44.60500 8.76400 47.74500
C  44.19400 7.41100 47.76100
C  46.83800 9.98900 47.93900
C  43.50900 9.58700 47.39100
O  43.37000 10.79300 47.45700
C  42.28500 8.63600 47.21400
C  41.19900 8.99400 48.14800
O  41.11800 8.58100 49.26800
O  40.21100 9.84300 47.56600
C  39.11000 10.20100 48.42100
H  41.68800 1.66700 47.84300
H  47.98200 1.37000 48.78200
H  48.52300 7.67900 48.24800
H  40.20900 6.17100 47.92200
H  40.26800 3.51100 46.47900
H  40.00800 3.31400 49.37400
H  38.76300 3.06800 48.16400
H  38.93300 4.55900 48.91200
H  40.09400 5.25700 45.05900
H  41.09300 6.65000 45.45600
H  39.16700 7.99400 45.88400
H  38.39400 6.62600 46.54100
H  43.08800 -1.52700 47.47200
H  41.92500 -0.33700 47.45700
H  42.49200 -0.84600 49.06200
H  48.00500 -2.31000 48.61500
H  47.85500 -0.84900 49.57800
H  48.21000 -0.78800 47.81700
H  49.94100 3.20200 47.98300
H  49.96400 5.67400 49.45400
H  49.00200 2.77000 50.84500
H  50.50800 3.74100 50.66600
H  50.32100 2.10500 49.95000
H  50.53100 6.61700 47.40700
H  50.14000 5.02000 46.52200
H  52.15200 4.66900 48.54000
H  52.51400 6.06000 47.41500
H  52.26400 4.48800 46.74600
H  47.59400 9.65400 47.22900
H  47.30800 10.20000 48.89900
H  46.25000 10.86900 47.67700
H  41.94700 8.63000 46.17800
H  39.22500 9.89900 49.46200
H  38.27600 9.65300 47.98200
H  38.81700 11.25100 48.39200
Mg -5.06100 25.14300 26.33100
C  -4.07700 26.62500 29.29100
C  -7.24000 23.08100 28.06300
C  -6.24500 24.08400 23.39700
C  -2.90600 27.34600 24.51400
N  -5.55400 24.86200 28.46300
C  -5.03600 25.63000 29.46200
C  -5.65400 25.15000 30.81600
C  -6.39700 23.83500 30.43900
C  -6.36900 23.86600 28.89100
C  -5.75600 22.52700 31.05700
C  -6.43000 26.26400 31.51800
C  -6.08700 26.60800 32.96900
H  -5.76400 25.38400 33.94200
N  -6.45300 23.72700 25.83500
C  -7.31500 23.07500 26.65500
C  -8.27200 22.36300 25.88200
C  -8.02100 22.56500 24.53800
C  -6.94400 23.52900 24.52000
C  -9.35700 21.43400 26.45900
C  -8.57900 21.89500 23.28200
O  -8.18800 22.21900 22.14400
C  -9.69000 20.87000 23.35400
N  -4.37600 25.42200 24.20200
C  -5.19100 24.99700 23.26000
C  -4.62400 25.40400 21.92700
C  -3.64500 26.58500 22.21300
C  -3.61500 26.41600 23.70000
C  -3.84500 24.17700 21.28800
C  -4.23000 28.09700 21.84600
C  -3.31700 28.84700 20.87800
N  -3.70700 26.59200 26.77100
C  -2.91300 27.39900 25.94600
C  -2.16500 28.36400 26.78200
C  -2.58200 27.96800 28.10600
C  -3.51500 26.95000 28.01400
C  -1.16800 29.35900 26.33000
C  -2.44800 28.32500 29.56300
O  -1.74400 29.19800 30.08100
C  -3.37800 27.42100 30.31700
C  -2.53600 26.56200 31.14400
O  -1.85900 25.60900 30.77000
O  -2.56200 27.01100 32.46800
C  -1.79900 26.32800 33.42600
H  -8.03300 22.57100 28.61500
H  -6.59200 23.83800 22.39100
H  -2.31600 28.06400 23.94200
H  -4.80300 24.90900 31.45300
H  -7.44700 23.85100 30.73100
H  -5.04500 22.72100 31.86100
H  -5.18200 22.03200 30.27300
H  -6.57500 21.87900 31.36700
H  -7.48700 25.99800 31.53100
H  -6.28100 27.17700 30.94200
H  -6.95700 27.08400 33.42000
H  -5.26800 27.30900 33.12900
H  -10.27100 21.33400 25.87300
H  -9.75700 21.65100 27.45000
H  -9.01900 20.39900 26.50400
H  -10.61700 21.28900 23.74600
H  -9.36900 20.10300 24.05900
H  -9.80300 20.56700 22.31300
H  -5.46600 25.73600 21.31900
H  -2.74300 26.39000 21.63400
H  -4.47200 23.30600 21.47900
H  -2.90900 23.97500 21.81100
H  -3.72500 24.41100 20.23100
H  -4.37200 28.69500 22.74600
H  -5.18000 27.95700 21.32900
H  -3.08300 29.76300 21.42000
H  -3.85400 29.07700 19.95800
H  -2.39300 28.29200 20.71800
H  -0.25100 28.94200 25.91500
H  -0.87500 29.94200 27.20300
H  -1.64500 30.06500 25.64900
H  -4.04600 27.92800 31.01300
H  -0.80500 26.69400 33.16600
H  -1.85200 25.24900 33.28700
H  -1.86600 26.48200 34.50300

