158

Mg 9.54600 48.52000 25.37900
C  7.65100 48.69200 28.45600
C  12.13300 49.64900 27.12100
C  11.45700 48.19000 22.52800
C  6.62700 48.13700 23.61700
N  9.86800 48.95700 27.60400
C  8.97100 48.94000 28.66900
C  9.70000 49.33100 29.99200
C  10.99700 50.04300 29.47100
C  11.01900 49.59800 27.97400
C  11.03800 51.57400 29.50400
C  10.07700 48.04600 30.75600
C  9.99300 48.13400 32.30000
H  9.92600 46.78900 33.02400
N  11.54800 48.79300 24.88500
C  12.49900 49.13400 25.78400
C  13.83700 49.17500 25.17700
C  13.63400 48.65700 23.83900
C  12.15300 48.60300 23.68100
C  15.17700 49.41400 25.96200
C  14.65200 48.25200 22.79400
O  14.41300 47.83000 21.68500
C  16.05000 48.42500 23.04900
N  9.12700 48.54700 23.34300
C  10.04400 48.18700 22.38400
C  9.37100 47.83000 21.04400
C  7.84200 47.63700 21.44500
C  7.86200 48.22400 22.92000
C  9.73900 48.68400 19.84400
C  7.25400 46.23900 21.35500
C  7.51100 45.24600 22.49000
N  7.50900 48.48100 25.90600
C  6.46300 48.31700 25.02600
C  5.19400 48.24500 25.85200
C  5.66000 48.35800 27.18900
C  7.05100 48.47700 27.14800
C  3.86200 47.95200 25.30700
C  5.17300 48.35400 28.51700
O  4.04000 48.30100 28.91800
C  6.47800 48.59200 29.44900
C  6.70600 47.34300 30.24100
O  7.06100 46.25800 29.80400
O  6.39700 47.64000 31.57400
C  6.67700 46.64200 32.57900
H  12.95800 50.09000 27.68400
H  12.13500 47.89700 21.72400
H  5.74700 47.82100 23.05300
H  9.17600 50.04200 30.63000
H  11.96100 49.74800 29.88500
H  10.62200 52.02000 28.60000
H  12.01300 52.03000 29.68000
H  10.34800 51.95800 30.25500
H  11.13400 47.86600 30.55700
H  9.47400 47.20400 30.41700
H  9.15100 48.75700 32.60100
H  10.83900 48.68600 32.71000
H  15.04300 49.67700 27.01200
H  15.78900 50.18300 25.49100
H  15.78300 48.50900 25.98800
H  16.36900 49.45600 23.20000
H  16.64100 47.99100 22.24200
H  16.21200 47.87600 23.97600
H  9.82100 46.83800 21.02000
H  7.06600 48.18600 20.91100
H  10.48400 49.40500 20.18200
H  8.94700 49.31200 19.43800
H  10.09100 48.06200 19.02200
H  7.65000 45.81800 20.43100
H  6.18800 46.25300 21.12600
H  8.05900 45.56800 23.37600
H  7.94600 44.30200 22.15900
H  6.49000 45.02700 22.80100
H  3.58100 48.57600 24.45800
H  3.09200 48.13200 26.05800
H  3.84800 46.90200 25.01500
H  6.46200 49.46000 30.10800
H  7.15300 47.15900 33.41200
H  7.21100 45.76000 32.22400
H  5.68000 46.34700 32.90500
Mg -11.24600 17.30300 42.23000
C  -7.69100 16.29600 42.13000
C  -10.03800 20.31600 40.91100
C  -14.31400 17.80000 40.93300
C  -12.00400 13.80600 42.38300
N  -9.14200 18.13200 41.53400
C  -7.89300 17.58100 41.60900
C  -6.81200 18.43700 40.94300
C  -7.50900 19.89600 41.04200
C  -8.99200 19.47400 41.16900
C  -6.99200 20.90400 42.18700
C  -6.42400 17.98300 39.50900
C  -5.00800 17.37300 39.28900
H  -4.97700 16.22000 38.37000
N  -12.11600 18.98500 41.29500
C  -11.48100 20.13700 40.81700
C  -12.41400 21.00200 40.26500
C  -13.71400 20.34700 40.29600
C  -13.42800 18.96300 40.84900
C  -12.01600 22.46400 39.88400
C  -14.98800 21.01800 39.99900
O  -14.98500 22.13700 39.51200
C  -16.28400 20.33800 40.33600
N  -12.83900 15.98600 41.64200
C  -14.07200 16.44300 41.19700
C  -15.02600 15.33700 40.86400
C  -14.23900 14.07900 41.12100
C  -12.96900 14.61300 41.84300
C  -16.39100 15.29000 41.52900
C  -13.96900 13.28500 39.82700
C  -14.72200 11.89600 39.78600
N  -10.17900 15.49600 42.52200
C  -10.63900 14.19200 42.65100
C  -9.57600 13.35400 43.11500
C  -8.42500 14.09300 42.85300
C  -8.81700 15.37300 42.46800
C  -9.63200 11.91000 43.61200
C  -6.95500 14.02600 42.81100
O  -6.28000 13.01500 42.92100
C  -6.47600 15.43100 42.27700
C  -5.38900 15.91100 43.16100
O  -5.34600 17.03900 43.69700
O  -4.45700 14.92700 43.30300
C  -3.53400 15.15900 44.43700
H  -9.75600 21.31900 40.58500
H  -15.33400 17.88200 40.55300
H  -12.12400 12.72100 42.35700
H  -5.93300 18.45600 41.58700
H  -7.32000 20.38100 40.08400
H  -6.90600 21.78800 41.55500
H  -5.99900 20.70800 42.59100
H  -7.67600 21.01300 43.02800
H  -6.48000 18.85500 38.85900
H  -7.15200 17.26100 39.13900
H  -4.79400 16.91800 40.25600
H  -4.29400 18.16900 39.07900
H  -11.56400 22.35700 38.89800
H  -11.29300 22.59200 40.68900
H  -12.70500 23.30500 39.80000
H  -16.16100 19.80100 41.27700
H  -16.51200 19.70700 39.47800
H  -16.94000 21.17800 40.56500
H  -15.25000 15.36800 39.79800
H  -14.68300 13.41700 41.86500
H  -16.95900 14.69600 40.81300
H  -16.80700 16.28600 41.67700
H  -16.48100 14.68300 42.43000
H  -12.89700 13.26500 39.63400
H  -14.33500 13.85300 38.97200
H  -15.24600 11.83800 38.83200
H  -15.45700 11.76000 40.58000
H  -13.98300 11.10300 39.67000
H  -8.76400 11.31600 43.32800
H  -10.52500 11.37500 43.28900
H  -9.60200 11.98900 44.69900
H  -6.10900 15.10900 41.30200
H  -2.89600 14.27600 44.47000
H  -4.17800 15.32300 45.30100
H  -2.95200 16.04500 44.18400

