158

Mg 23.90200 -4.86200 45.74700
C  25.86900 -2.66700 43.76200
C  21.15900 -3.92700 44.00600
C  22.43400 -7.64300 46.72800
C  26.93800 -5.88400 47.33000
N  23.51300 -3.56600 43.89800
C  24.45800 -2.71000 43.40500
C  23.83300 -1.76400 42.37700
C  22.29800 -2.05400 42.59900
C  22.29800 -3.22800 43.55100
C  21.41600 -0.87100 43.10100
C  24.44000 -2.05700 40.96300
C  24.82300 -0.85300 40.11000
H  24.60800 -1.06900 38.62800
N  22.04200 -5.66100 45.54900
C  21.03100 -5.09500 44.87400
C  19.81200 -5.79200 45.02700
C  20.10700 -6.86700 45.93000
C  21.58100 -6.79800 46.04900
C  18.43900 -5.42700 44.48600
C  19.20700 -7.82800 46.52600
O  17.97800 -7.99100 46.31000
C  19.78700 -8.85500 47.41100
N  24.53900 -6.44900 47.00400
C  23.72100 -7.48900 47.22800
C  24.52300 -8.58900 48.00100
C  25.85400 -7.87900 48.49700
C  25.78000 -6.61800 47.63300
C  23.81300 -9.31800 49.17900
C  27.20100 -8.74500 48.31900
C  28.11400 -8.62200 49.58300
N  25.99500 -4.47500 45.61700
C  27.07300 -4.86200 46.40000
C  28.19100 -4.02100 46.16700
C  27.75100 -3.15500 45.13200
C  26.43000 -3.49700 44.78600
C  29.44100 -4.08200 46.91900
C  28.17900 -2.08700 44.35100
O  29.24800 -1.54300 44.31400
C  26.99600 -1.71600 43.36100
C  26.74900 -0.26200 43.63500
O  26.13300 0.07900 44.62700
O  27.55400 0.48300 42.77500
C  27.56200 1.89900 43.23200
H  20.21400 -3.54600 43.61400
H  22.15900 -8.69700 46.79400
H  27.81900 -6.23500 47.87100
H  24.08300 -0.74400 42.66800
H  21.80800 -2.43100 41.70200
H  21.31700 -0.75100 44.17900
H  20.44700 -0.92800 42.60500
H  21.87200 0.00600 42.64200
H  23.71300 -2.58700 40.34700
H  25.32300 -2.66600 41.15400
H  25.84400 -0.68400 40.45100
H  24.12400 -0.07400 40.41300
H  18.34500 -5.72400 43.44100
H  18.40200 -4.33800 44.49700
H  17.60800 -5.83700 45.06100
H  19.01600 -9.31700 48.02700
H  20.49400 -8.41400 48.11400
H  20.19700 -9.63500 46.77000
H  24.77000 -9.39000 47.30400
H  25.81000 -7.41300 49.48200
H  24.20300 -10.33100 49.28100
H  22.73700 -9.14300 49.21300
H  24.18800 -8.86000 50.09400
H  27.75700 -8.40900 47.44400
H  26.82900 -9.75400 48.14400
H  28.16700 -9.54800 50.15600
H  27.82400 -7.70200 50.09100
H  29.12600 -8.49100 49.20000
H  30.16400 -3.56400 46.29000
H  29.83800 -5.07600 47.12800
H  29.37500 -3.49000 47.83200
H  27.40500 -1.76900 42.35200
H  27.75500 1.90500 44.30400
H  26.63700 2.45300 43.06900
H  28.44700 2.42300 42.87200
Mg -13.31300 15.96800 40.56200
C  -10.52900 13.67600 40.48000
C  -11.19300 18.32500 39.19100
C  -16.01100 18.04200 40.03100
C  -15.33800 13.37400 41.40800
N  -11.11500 15.88000 39.77600
C  -10.20400 14.88800 39.91100
C  -8.77800 15.38300 39.61900
C  -8.98600 16.92700 39.56900
C  -10.57400 17.07900 39.45900
C  -8.50300 17.69200 40.86500
C  -8.20700 14.66100 38.34900
C  -6.77800 15.19800 38.09600
H  -6.43700 15.97300 36.82900
N  -13.53600 17.91200 39.85800
C  -12.54000 18.73000 39.35900
C  -13.14300 20.01200 39.00600
C  -14.51000 19.98100 39.34600
C  -14.72600 18.61600 39.74100
C  -12.32600 21.12900 38.37100
C  -15.44300 21.17300 39.24100
O  -15.00900 22.26300 38.93000
C  -16.88400 21.11500 39.71100
N  -15.34700 15.65700 40.56500
C  -16.27100 16.72300 40.35700
C  -17.69600 16.18900 40.64300
C  -17.44500 14.75200 41.03900
C  -15.95700 14.56600 41.03600
C  -18.63600 17.07700 41.60900
C  -18.29100 13.79200 40.18700
C  -19.62200 13.19600 40.75800
N  -13.09900 13.90500 40.88400
C  -13.95300 12.99400 41.34400
C  -13.40800 11.73200 41.57700
C  -12.01500 12.00800 41.33400
C  -11.88100 13.30500 40.86600
C  -14.00300 10.39100 41.96100
C  -10.72000 11.45800 41.43300
O  -10.40400 10.31800 41.89600
C  -9.70900 12.45000 40.82200
C  -8.74200 12.61700 41.87200
O  -8.99200 12.80200 43.09300
O  -7.52100 12.73900 41.31700
C  -6.43400 13.12700 42.21700
H  -10.51200 19.11800 38.87700
H  -16.85600 18.68600 39.77900
H  -16.12400 12.71900 41.79100
H  -8.25300 15.02500 40.50500
H  -8.50400 17.45200 38.74400
H  -7.70300 17.04000 41.21700
H  -9.21400 17.81600 41.68200
H  -8.09700 18.67400 40.62100
H  -8.81300 14.86500 37.46700
H  -8.26800 13.57500 38.41700
H  -6.08300 14.36300 38.00700
H  -6.42200 15.69400 39.00000
H  -11.31400 20.74700 38.24000
H  -12.20200 21.92000 39.11100
H  -12.80900 21.47500 37.45700
H  -16.88200 20.66600 40.70400
H  -17.51300 20.48400 39.08100
H  -17.32100 22.10300 39.85300
H  -18.28800 16.33300 39.73900
H  -17.77900 14.59700 42.06500
H  -18.14400 17.97400 41.98500
H  -19.03000 16.57500 42.49300
H  -19.46000 17.43700 40.99400
H  -17.50300 13.12400 39.84100
H  -18.49500 14.25500 39.22200
H  -19.52500 12.21400 41.22300
H  -20.23900 13.02800 39.87600
H  -20.11100 13.76400 41.54900
H  -15.08000 10.54800 41.89000
H  -13.72400 10.12800 42.98200
H  -13.73100 9.68500 41.17700
H  -9.18500 12.10900 39.92900
H  -6.51500 14.20100 42.38300
H  -5.48500 12.82000 41.77800
H  -6.50100 12.74500 43.23600

