158

Mg 36.01100 49.90900 24.72400
C  36.18100 48.11200 27.74500
C  34.63000 52.52500 26.40700
C  35.39700 51.44200 21.67500
C  36.71900 46.89400 23.06800
N  35.68800 50.37400 26.87800
C  35.70900 49.47400 27.88400
C  35.40700 50.19500 29.23700
C  34.73800 51.57700 28.77400
C  35.01500 51.49500 27.24200
C  33.25100 51.77000 29.22700
C  36.60200 50.33800 30.13500
C  36.50900 49.90700 31.62200
H  35.07600 49.63100 32.17200
N  35.20200 51.76500 24.15500
C  34.75400 52.69500 24.98500
C  34.43400 53.96600 24.31300
C  34.73800 53.69900 22.96000
C  35.07500 52.25900 22.85300
C  33.82500 55.21300 24.96700
C  34.68300 54.70300 21.84100
O  34.94700 54.42800 20.65600
C  34.40800 56.16200 21.95100
N  36.03900 49.26100 22.74000
C  35.85600 50.11900 21.68500
C  36.19400 49.36900 20.36400
C  36.66700 48.01100 20.84100
C  36.45000 48.00000 22.33500
C  34.96200 49.24400 19.43700
C  38.11000 47.78500 20.46200
C  39.19000 48.76800 20.96200
N  36.43000 47.96100 25.23600
C  36.68800 46.84500 24.50000
C  37.11400 45.70200 25.32900
C  36.94300 46.20700 26.56400
C  36.41600 47.48500 26.45700
C  37.61400 44.29200 25.01000
C  37.04600 45.86800 27.97400
O  37.42200 44.85300 28.52600
C  36.46500 47.09200 28.83200
C  35.36600 46.63400 29.66300
O  34.18800 46.87600 29.42700
O  35.84800 45.84500 30.72800
C  34.92800 45.16100 31.63200
H  34.32900 53.43100 26.93600
H  35.39000 51.99800 20.73600
H  37.00500 45.97800 22.54700
H  34.64200 49.57300 29.70000
H  35.35200 52.39500 29.15100
H  32.74800 51.00900 29.82400
H  32.73700 51.95300 28.28300
H  33.20400 52.70900 29.77800
H  37.00600 51.35100 30.14300
H  37.31800 49.65500 29.67700
H  36.94800 50.62900 32.31000
H  37.11300 49.00100 31.67700
H  34.61700 55.71700 25.52100
H  33.09000 54.88900 25.70400
H  33.28200 55.83700 24.25700
H  34.83400 56.77600 21.15800
H  34.92000 56.56900 22.82300
H  33.35100 56.42500 21.99800
H  36.87900 50.07200 19.88900
H  36.13900 47.14900 20.43100
H  34.32900 50.13100 19.40400
H  34.32000 48.39900 19.68800
H  35.35100 49.13900 18.42400
H  38.04800 47.93700 19.38500
H  38.53200 46.80300 20.67600
H  39.89300 48.25500 21.61900
H  38.78600 49.64400 21.46900
H  39.69900 49.19600 20.09900
H  36.97400 43.61100 25.57100
H  38.65700 44.00700 25.15300
H  37.53100 44.11900 23.93700
H  37.32000 47.43600 29.41400
H  33.99200 44.88100 31.15000
H  34.74900 45.79600 32.49900
H  35.41500 44.24000 31.95400
Mg 26.75400 50.50800 26.85200
C  24.97300 51.76800 29.65500
C  29.38900 49.79900 28.97300
C  28.78700 50.04500 24.13800
C  24.37000 51.96400 24.82400
N  27.03700 50.50900 29.05100
C  26.11700 51.01200 29.97400
C  26.63200 50.71200 31.36700
C  28.14800 50.49500 31.07500
C  28.22900 50.26900 29.60100
C  29.11700 51.65500 31.57600
C  25.86000 49.42800 31.84100
C  25.22100 49.49800 33.26200
H  25.97100 50.21300 34.38400
N  28.72600 49.75300 26.60800
C  29.64700 49.53200 27.61800
C  30.85700 49.08200 27.03800
C  30.79600 49.23700 25.60200
C  29.40900 49.71900 25.37100
C  31.98100 48.50900 27.84800
C  31.90600 49.00500 24.57600
O  31.73100 49.40500 23.41100
C  33.21700 48.43600 24.87800
N  26.59300 50.93500 24.86900
C  27.51500 50.55500 23.89400
C  26.88100 50.73900 22.49000
C  25.45100 51.24500 22.71900
C  25.44200 51.40700 24.24900
C  27.68600 51.71000 21.51000
C  24.34000 50.28900 22.23800
C  24.34000 48.77600 22.75700
N  24.97500 51.59000 27.09000
C  24.12900 52.20300 26.20500
C  23.08900 52.90200 26.84600
C  23.34600 52.74600 28.21500
C  24.56800 51.99100 28.31400
C  21.96200 53.60800 26.08300
C  22.85800 53.00000 29.59200
O  21.86000 53.67700 29.90000
C  23.92800 52.43600 30.59300
C  24.49100 53.47500 31.50900
O  25.58400 53.99200 31.34900
O  23.59400 53.94300 32.37200
C  24.11200 55.07700 33.14500
H  30.23100 49.61900 29.64400
H  29.33400 49.98800 23.19400
H  23.56500 52.32100 24.17800
H  26.46200 51.53800 32.05700
H  28.51200 49.57300 31.52800
H  29.87400 51.25900 32.25300
H  28.65200 52.44300 32.16900
H  29.60700 52.24300 30.80000
H  26.48100 48.53300 31.87600
H  25.01400 49.15400 31.21100
H  25.05600 48.43300 33.42600
H  24.25100 49.96500 33.09200
H  32.86800 49.14100 27.81800
H  32.15600 47.50500 27.46000
H  31.70400 48.45700 28.90100
H  33.78300 48.92300 25.67200
H  33.94200 48.55000 24.07200
H  32.98600 47.41800 25.19200
H  26.89200 49.74100 22.05300
H  25.45000 52.19700 22.18900
H  28.46300 52.21200 22.08700
H  27.11700 52.42400 20.91300
H  28.22900 51.17400 20.73200
H  24.42900 50.25400 21.15300
H  23.45000 50.91200 22.32500
H  23.36200 48.52200 23.16600
H  25.13300 48.57400 23.47700
H  24.57700 48.09300 21.94100
H  22.28200 54.08200 25.15500
H  21.52700 54.45100 26.62000
H  21.18000 52.87000 25.90900
H  23.58900 51.66400 31.28300
H  24.45700 55.96200 32.61000
H  24.91700 54.73300 33.79400
H  23.31900 55.41100 33.81500

