158

Mg 40.55600 9.85100 30.12100
C  42.41000 10.79500 32.95100
C  38.26800 8.20200 32.22000
C  39.03600 8.54100 27.45600
C  43.09700 11.09700 28.13400
N  40.47600 9.47500 32.34900
C  41.24900 10.08500 33.32300
C  40.60200 10.07500 34.74500
C  39.29800 9.10700 34.47900
C  39.36500 8.90300 32.92300
C  39.14400 7.89600 35.34500
C  40.17100 11.54600 35.03800
C  39.49800 11.76000 36.34300
H  40.13400 12.46300 37.52600
N  38.85400 8.49300 29.82000
C  38.04800 8.00300 30.82000
C  36.91500 7.20700 30.21400
C  37.16500 7.19400 28.76100
C  38.36900 8.14000 28.59600
C  35.76200 6.72900 31.08800
C  36.51600 6.49300 27.65300
O  36.81000 6.60900 26.45300
C  35.45200 5.51100 27.91700
N  40.88200 9.96800 28.03300
C  40.11400 9.34100 27.14400
C  40.77100 9.38400 25.76900
C  42.02400 10.25200 25.93900
C  42.03400 10.49300 27.44100
C  41.03400 8.01900 25.16200
C  42.05200 11.58700 25.02800
C  43.15000 11.50700 24.00100
N  42.36400 10.72200 30.42000
C  43.29500 11.21800 29.48800
C  44.42400 11.87300 30.12600
C  44.11900 11.76600 31.50400
C  42.90800 10.99600 31.63900
C  45.60100 12.40100 29.41900
C  44.57500 11.99800 32.89500
O  45.48500 12.69900 33.32500
C  43.38700 11.41900 33.84600
C  44.05900 10.35400 34.76700
O  44.46100 9.25500 34.46600
O  43.87400 10.78500 36.09200
C  44.08800 9.82100 37.20100
H  37.41900 7.92300 32.84700
H  38.49700 8.11500 26.60700
H  43.83400 11.52300 27.45000
H  41.23700 9.67800 35.53700
H  38.41400 9.72700 34.62800
H  38.08200 7.66100 35.41000
H  39.54500 8.30900 36.27100
H  39.61400 7.01700 34.90500
H  39.55100 11.99300 34.26000
H  41.12700 12.06100 35.13000
H  39.19200 10.75400 36.62800
H  38.58600 12.34900 36.25000
H  35.79800 5.64100 31.13600
H  34.85400 7.13000 30.63700
H  35.75200 7.04700 32.13000
H  34.89300 5.10100 27.07600
H  34.77000 5.91800 28.66300
H  35.93700 4.61500 28.30600
H  40.06700 9.92900 25.14000
H  42.88500 9.64700 25.65300
H  40.59600 7.28100 25.83300
H  42.08900 7.75200 25.09700
H  40.58600 7.93300 24.17100
H  42.24600 12.38000 25.75000
H  41.04500 11.69400 24.62300
H  43.03700 10.48900 23.63100
H  44.14700 11.66200 24.41300
H  42.91500 12.30100 23.29200
H  46.45100 12.69300 30.03600
H  45.32200 13.23600 28.77700
H  46.03200 11.64600 28.76100
H  43.10200 12.28100 34.44900
H  43.38900 9.94500 38.02700
H  45.10000 9.99700 37.56800
H  43.99300 8.80100 36.82800
Mg 16.77700 52.67400 26.73600
C  18.65000 51.22800 29.32200
C  14.28500 53.37100 28.98100
C  15.06800 53.92600 24.15000
C  19.11200 51.26000 24.50600
N  16.48000 52.23400 28.88900
C  17.50100 51.85400 29.78200
C  17.05100 52.07500 31.24300
C  15.46900 52.26500 31.01700
C  15.35600 52.69300 29.53900
C  14.65000 51.05000 31.44800
C  17.94500 53.13000 31.96600
C  18.10000 53.22200 33.50400
H  17.27500 52.17100 34.41800
N  14.91400 53.59700 26.57900
C  14.03000 53.81300 27.65100
C  12.86800 54.54900 27.08800
C  13.10100 54.69000 25.67500
C  14.37600 54.05600 25.40300
C  11.69200 55.05600 27.94200
C  12.13900 55.32800 24.66700
O  12.39500 55.31400 23.42900
C  10.80300 55.78600 25.10500
N  17.02600 52.51700 24.64700
C  16.27500 53.30000 23.83900
C  16.80800 53.31300 22.35000
C  18.20700 52.55800 22.54700
C  18.12100 52.04800 23.99400
C  15.84000 52.61800 21.37600
C  19.46600 53.56900 22.37200
C  20.17400 53.50200 21.02200
N  18.46400 51.38700 26.80000
C  19.30500 50.93100 25.87200
C  20.34400 50.14300 26.42100
C  20.20900 50.34100 27.80800
C  19.01600 51.05700 28.00900
C  21.39400 49.42900 25.66900
C  20.82600 50.16100 29.13400
O  21.95300 49.79300 29.41100
C  19.74700 50.64700 30.14400
C  19.36900 49.54000 31.07900
O  18.60400 48.58900 30.82700
O  19.96100 49.83200 32.35200
C  19.98800 48.61300 33.23100
H  13.49300 53.58500 29.70200
H  14.56900 54.46700 23.34300
H  19.84800 50.91500 23.77700
H  17.15900 51.16900 31.84000
H  15.05200 53.11000 31.56600
H  15.21300 50.51200 32.21100
H  14.38500 50.31300 30.69100
H  13.71200 51.24800 31.96700
H  17.47000 54.04700 31.62000
H  18.91700 53.19600 31.47600
H  17.78400 54.20300 33.85900
H  19.14600 53.25400 33.80700
H  10.70100 54.68100 27.68600
H  11.70600 56.13900 28.06500
H  11.81700 54.76500 28.98500
H  10.20300 54.97100 25.51200
H  10.22700 55.93200 24.19100
H  10.85200 56.62700 25.79700
H  16.89600 54.37300 22.11100
H  18.37100 51.76100 21.82200
H  15.50400 53.37400 20.66700
H  14.98700 52.13400 21.85300
H  16.18900 51.76300 20.79600
H  20.23900 53.44500 23.13000
H  19.09300 54.58900 22.46500
H  19.82700 52.64500 20.44600
H  21.21500 53.35800 21.31100
H  20.05000 54.42800 20.46000
H  22.21900 49.29700 26.36800
H  21.75800 50.03300 24.83800
H  21.10800 48.51300 25.15100
H  20.15100 51.44500 30.76800
H  18.96300 48.57300 33.60000
H  20.74100 48.70500 34.01300
H  20.22700 47.69900 32.68600

