158

Mg 16.29100 51.82000 26.21900
C  18.02200 50.33400 29.02200
C  13.99600 52.92200 28.44800
C  14.81100 53.29800 23.68000
C  18.80900 50.55800 24.18500
N  16.01400 51.51100 28.48500
C  16.90500 51.09000 29.40900
C  16.46000 51.44400 30.89000
C  15.03300 51.99600 30.63700
C  15.00200 52.14300 29.10200
C  13.95600 50.98300 31.10400
C  17.46800 52.53900 31.41200
C  17.68600 52.43200 32.88600
H  16.82800 51.51700 33.73100
N  14.59700 53.02300 26.03800
C  13.79800 53.30700 27.05600
C  12.64700 54.16300 26.45300
C  12.77200 54.08000 25.02900
C  14.08600 53.45100 24.84600
C  11.66900 54.89000 27.30800
C  11.98200 54.72900 23.90000
O  12.38500 54.73700 22.73800
C  10.63200 55.37600 24.22600
N  16.71500 51.88200 24.18700
C  15.97600 52.62300 23.29500
C  16.50000 52.44300 21.83600
C  17.89200 51.76700 22.08100
C  17.79900 51.40500 23.58400
C  15.58700 51.63100 20.83400
C  19.05100 52.76000 21.73700
C  20.33800 52.14800 21.11900
N  17.93700 50.64600 26.47500
C  18.88800 50.22000 25.53900
C  19.89600 49.37300 26.15900
C  19.53300 49.43300 27.54300
C  18.40200 50.22000 27.67700
C  21.14000 48.86900 25.48200
C  19.98600 48.97700 28.77900
O  20.92200 48.30400 29.10700
C  19.10500 49.70800 29.81500
C  18.75700 48.71900 30.86500
O  18.14200 47.70100 30.57000
O  19.29400 49.06200 32.06400
C  19.11800 48.04800 33.15000
H  13.25500 53.35700 29.12100
H  14.44500 53.73300 22.74800
H  19.59900 50.26700 23.48900
H  16.39100 50.50100 31.43100
H  14.85000 52.96600 31.10000
H  13.37100 51.48600 31.87400
H  14.32600 50.02600 31.47200
H  13.29700 50.76400 30.26500
H  17.23200 53.59500 31.27600
H  18.38000 52.35500 30.84400
H  17.49200 53.41600 33.31300
H  18.74800 52.22900 33.02400
H  11.93900 55.94500 27.25100
H  11.67700 54.52200 28.33400
H  10.68400 54.68200 26.89100
H  9.97700 55.54000 23.37000
H  10.71200 56.30200 24.79600
H  10.16200 54.56200 24.77700
H  16.56000 53.39300 21.30500
H  18.08600 50.89900 21.45200
H  16.09100 51.54500 19.87100
H  14.63400 52.13100 20.66300
H  15.30000 50.67800 21.27900
H  19.40000 53.16200 22.68800
H  18.87100 53.59700 21.06300
H  20.34900 51.05800 21.08500
H  21.17500 52.55600 21.68600
H  20.43100 52.53000 20.10300
H  22.01000 49.51500 25.60400
H  20.93700 48.79500 24.41400
H  21.42500 47.90000 25.89300
H  19.72100 50.47600 30.28300
H  18.07300 48.01600 33.45900
H  19.78400 48.39800 33.93800
H  19.49200 47.05300 32.90600
Mg -10.14700 39.34000 40.75200
C  -8.82200 36.31300 39.88100
C  -7.19700 40.92800 39.86000
C  -11.71000 42.35100 40.81900
C  -13.27500 37.77100 41.43100
N  -8.32500 38.74100 39.56900
C  -8.00100 37.43700 39.48200
C  -6.58400 37.34800 38.81400
C  -5.93900 38.68500 39.42000
C  -7.20500 39.53600 39.69800
C  -5.21700 38.51300 40.77000
C  -6.74800 37.38100 37.20800
C  -6.03100 36.26000 36.51700
H  -6.78000 35.70100 35.29700
N  -9.53200 41.30200 40.38400
C  -8.26100 41.75100 40.06600
C  -8.25400 43.15400 39.94600
C  -9.59800 43.58100 40.20800
C  -10.34400 42.41100 40.57100
C  -6.96800 43.88300 39.62100
C  -10.09900 44.96500 40.29000
O  -9.29100 45.82100 39.96700
C  -11.43400 45.42400 40.81500
N  -12.30800 39.97200 40.99300
C  -12.60400 41.27400 41.04800
C  -14.06700 41.50300 41.07000
C  -14.64300 40.02400 41.19700
C  -13.34700 39.17500 41.27200
C  -14.65800 42.44600 42.20400
C  -15.51700 39.54300 40.00700
C  -16.95600 39.49500 40.21200
N  -10.90400 37.37800 40.81300
C  -12.14100 36.86700 41.21900
C  -12.03600 35.42300 41.24000
C  -10.71100 35.18600 40.73200
C  -10.16300 36.35900 40.38900
C  -13.01100 34.42800 41.75500
C  -9.73700 34.11800 40.41000
O  -9.86700 32.89500 40.44200
C  -8.47400 34.84000 39.67200
C  -7.21400 34.33500 40.32700
O  -6.87500 34.50100 41.45200
O  -6.54200 33.54800 39.39000
C  -5.35400 32.80200 39.76200
H  -6.23900 41.42200 39.68600
H  -12.31200 43.25800 40.73300
H  -14.23600 37.28800 41.61800
H  -6.06900 36.43000 39.09600
H  -5.30700 39.19500 38.69300
H  -4.26300 39.04000 40.78500
H  -4.94600 37.47700 40.97400
H  -5.89300 38.87600 41.54500
H  -6.29100 38.28400 36.80500
H  -7.81500 37.35600 36.98700
H  -5.77400 35.40900 37.14800
H  -5.09200 36.68800 36.16500
H  -6.92400 44.36400 38.64400
H  -6.04700 43.33900 39.83200
H  -7.06300 44.74100 40.28600
H  -12.18100 45.53300 40.02900
H  -11.40600 46.44900 41.18600
H  -11.75700 44.85000 41.68300
H  -14.48600 42.09200 40.25300
H  -15.13400 39.97000 42.16900
H  -14.53900 43.47800 41.87300
H  -14.00300 42.31900 43.06600
H  -15.70900 42.27800 42.44100
H  -15.24300 38.53000 39.71200
H  -15.39800 40.20900 39.15200
H  -17.25800 39.79200 41.21600
H  -17.27100 38.45100 40.20500
H  -17.41900 39.92500 39.32300
H  -12.61700 33.41900 41.63400
H  -13.86900 34.50100 41.08700
H  -13.22500 34.51300 42.82000
H  -8.41000 34.66500 38.59800
H  -4.69400 32.78900 38.89500
H  -5.55200 31.80600 40.15700
H  -4.84800 33.27200 40.60500

