158

Mg -1.74100 17.33000 26.62400
C  -1.94800 14.87000 29.31800
C  -2.22200 19.84100 28.99000
C  -1.90800 19.48600 24.05900
C  -1.82200 14.63900 24.35600
N  -2.13900 17.25200 28.95000
C  -2.02200 16.19200 29.84300
C  -2.00100 16.75300 31.32500
C  -2.14200 18.32400 31.05800
C  -2.12600 18.50700 29.54500
C  -3.33900 19.01500 31.83600
C  -0.74200 16.21900 32.12900
C  -0.23400 17.06000 33.25800
H  0.05400 16.32400 34.54000
N  -2.06700 19.39300 26.56200
C  -2.19800 20.20900 27.64400
C  -2.23600 21.58000 27.12400
C  -1.95300 21.48000 25.71200
C  -1.98800 20.07900 25.40100
C  -2.50300 22.84300 28.03500
C  -1.59700 22.59600 24.67600
O  -1.42500 22.49400 23.44300
C  -1.57100 23.93300 25.17800
N  -1.84000 17.10500 24.54600
C  -1.83700 18.13600 23.67100
C  -1.68400 17.73000 22.23700
C  -1.64100 16.14900 22.36100
C  -1.80800 15.94200 23.85700
C  -2.87200 18.25900 21.40800
C  -0.33300 15.61700 21.82000
C  0.96800 15.87200 22.63100
N  -1.82800 15.21400 26.77400
C  -1.82400 14.25900 25.76700
C  -1.91100 12.96200 26.27800
C  -1.91700 13.14000 27.67000
C  -1.92100 14.53700 27.98800
C  -2.12100 11.68600 25.55700
C  -2.00600 12.41300 28.97600
O  -2.18900 11.26100 29.27300
C  -1.84700 13.55300 30.06100
C  -0.48000 13.34600 30.72100
O  0.60500 13.76300 30.31000
O  -0.56200 12.57200 31.94400
C  0.64500 12.27400 32.72000
H  -2.37600 20.63600 29.72300
H  -2.05400 20.13900 23.19600
H  -1.72100 13.84300 23.61500
H  -2.84500 16.31100 31.85500
H  -1.32800 18.84800 31.55800
H  -4.33100 18.92400 31.39400
H  -3.06100 20.03600 32.09900
H  -3.51300 18.56100 32.81200
H  0.00900 16.23700 31.33900
H  -0.90800 15.21100 32.50900
H  -0.91200 17.89800 33.42300
H  0.74900 17.45400 33.00300
H  -2.72900 22.62000 29.07800
H  -3.33600 23.37200 27.57200
H  -1.57100 23.40600 28.08400
H  -1.48400 24.77200 24.48900
H  -0.73700 23.88700 25.87800
H  -2.56100 24.06700 25.61500
H  -0.77100 18.15900 21.82400
H  -2.44600 15.73900 21.75000
H  -3.72600 18.45800 22.05500
H  -3.10500 17.46600 20.69700
H  -2.59700 19.14100 20.83000
H  -0.10300 16.09000 20.86500
H  -0.45900 14.56100 21.58200
H  0.81200 16.00500 23.70200
H  1.56400 16.73200 22.32300
H  1.58100 14.97600 22.53600
H  -2.13300 10.93000 26.34200
H  -1.39600 11.41600 24.78900
H  -3.14200 11.72000 25.17900
H  -2.63800 13.40800 30.79600
H  1.46700 12.94200 32.46400
H  1.00200 11.27500 32.46800
H  0.39400 12.29300 33.78100
Mg 54.88800 25.59900 44.67800
C  52.05500 27.49800 43.93600
C  53.01700 22.74000 43.80600
C  57.64100 23.73200 44.97300
C  56.74500 28.53500 45.01500
N  52.74400 25.23800 43.90400
C  51.73000 26.16100 43.71600
C  50.43600 25.47600 43.16300
C  50.73600 23.95600 43.49900
C  52.28400 23.93800 43.80000
C  49.95500 23.42100 44.78700
C  50.31700 25.62800 41.62500
C  48.92900 25.42100 40.99300
H  48.82500 24.61100 39.70600
N  55.26900 23.49300 44.46300
C  54.37900 22.55800 44.05700
C  55.01300 21.26900 43.99200
C  56.44500 21.46100 44.35400
C  56.48800 22.92900 44.66100
C  54.27300 19.96500 43.75000
C  57.51800 20.40800 44.26800
O  57.19800 19.27600 43.92700
C  58.90500 20.66300 44.70200
N  56.94500 26.05800 44.90400
C  57.92200 25.11500 45.15700
C  59.30700 25.77700 45.40500
C  58.93400 27.28700 45.53000
C  57.43000 27.33000 45.13800
C  60.17600 25.12700 46.51400
C  59.77900 28.22200 44.68900
C  60.21500 29.53500 45.27300
N  54.55100 27.55500 44.56700
C  55.36100 28.60400 44.81700
C  54.46200 29.78200 44.92200
C  53.20800 29.44500 44.44700
C  53.30100 28.03800 44.32500
C  54.87900 31.10700 45.34300
C  51.84400 29.96200 44.22800
O  51.29200 31.03900 44.47100
C  51.05300 28.70200 43.78900
C  50.71700 29.01500 42.36000
O  51.47200 29.25800 41.47200
O  49.30800 29.08500 42.24600
C  48.85700 29.53200 40.94000
H  52.42300 21.87000 43.51600
H  58.52600 23.09500 45.02700
H  57.12500 29.51900 45.29600
H  49.52500 25.84400 43.63400
H  50.42000 23.42500 42.60100
H  49.22900 24.14100 45.16400
H  50.65000 23.19700 45.59600
H  49.42600 22.54200 44.41800
H  51.02800 24.89700 41.24200
H  50.68500 26.58900 41.26600
H  48.68000 26.45000 40.73400
H  48.17700 25.11100 41.71800
H  54.31600 19.78800 42.67500
H  53.23400 19.88600 44.06900
H  54.87100 19.20500 44.25400
H  59.54300 21.26000 44.05000
H  59.38800 19.72100 44.95900
H  58.76900 21.19300 45.64500
H  59.81600 25.64600 44.45000
H  59.11700 27.64200 46.54400
H  60.98900 24.50600 46.13700
H  59.56700 24.68400 47.30200
H  60.57600 25.95000 47.10600
H  59.33100 28.48500 43.73000
H  60.66900 27.72000 44.31100
H  61.29900 29.53700 45.15500
H  59.97600 29.78000 46.30700
H  59.77900 30.31600 44.65000
H  54.28900 31.86200 44.82400
H  55.94100 31.33600 45.24700
H  54.64400 31.24700 46.39800
H  50.16200 28.62400 44.41200
H  49.57900 30.15000 40.40600
H  47.87200 29.98300 41.06400
H  48.75500 28.64300 40.31900

