158

Mg 6.95500 2.24700 27.69000
C  8.76200 1.06700 30.26200
C  5.02200 4.23300 29.72400
C  5.43600 3.52300 24.84800
C  8.39900 -0.27900 25.60600
N  6.81100 2.52400 29.81500
C  7.80200 2.05500 30.61700
C  7.64100 2.51600 32.01100
C  6.33400 3.44400 31.84800
C  6.00400 3.41800 30.37900
C  5.19300 2.90000 32.83900
C  8.87500 3.32300 32.52600
C  8.67700 4.11100 33.85200
H  9.77700 3.84900 34.84600
N  5.35000 3.63300 27.35300
C  4.75600 4.40300 28.34100
C  3.90500 5.36000 27.65700
C  3.99900 5.14200 26.26400
C  4.94800 4.02700 26.09700
C  3.04500 6.25500 28.42800
C  3.22100 5.81500 25.11100
O  3.31300 5.51300 23.95600
C  2.08500 6.73700 25.42100
N  6.62800 1.49800 25.55300
C  6.32800 2.43100 24.63200
C  6.81200 1.97900 23.15400
C  7.61800 0.66600 23.44400
C  7.51600 0.57900 24.97600
C  5.69000 1.79100 22.09800
C  9.03000 0.76700 22.80400
C  9.39000 -0.48200 22.03100
N  8.24000 0.59900 27.88500
C  8.77200 -0.29400 26.95000
C  9.70700 -1.14200 27.61300
C  9.74600 -0.69600 28.94300
C  8.87400 0.42700 29.03300
C  10.45700 -2.28600 26.96200
C  10.29400 -0.82900 30.32100
O  11.14100 -1.60600 30.75300
C  9.79000 0.33800 31.17100
C  9.17000 -0.37000 32.38300
O  8.43800 -1.34900 32.29000
O  9.57800 0.22900 33.54500
C  9.25700 -0.39600 34.78300
H  4.65200 5.01800 30.38700
H  5.09200 4.02500 23.94100
H  8.73700 -1.05000 24.91100
H  7.36700 1.66400 32.63400
H  6.62100 4.47800 32.04200
H  5.00100 3.51200 33.72100
H  5.45700 1.93400 33.27000
H  4.28800 2.78700 32.24300
H  9.14100 4.00400 31.71700
H  9.74000 2.67200 32.64900
H  7.73800 3.86400 34.34700
H  8.56400 5.13400 33.49300
H  3.49200 6.46400 29.40000
H  2.07200 5.79500 28.60000
H  2.93900 7.15200 27.81800
H  1.40000 6.98500 24.61100
H  2.53800 7.69600 25.67100
H  1.49200 6.30400 26.22600
H  7.45600 2.83200 22.94000
H  7.05800 -0.15200 22.99100
H  4.77200 1.62800 22.66400
H  5.99000 0.98200 21.43200
H  5.50600 2.72900 21.57300
H  9.88200 0.84400 23.47800
H  9.11800 1.64700 22.16700
H  10.05700 -0.22800 21.20800
H  8.53700 -1.07700 21.70300
H  9.85500 -1.13600 22.76900
H  10.61900 -1.99000 25.92500
H  9.79300 -3.14500 27.05800
H  11.33700 -2.47400 27.57800
H  10.57700 1.00600 31.51900
H  10.20000 -0.70600 35.23200
H  8.48400 -1.16500 34.79900
H  8.85100 0.41200 35.39100
Mg -6.14600 24.95900 25.86800
C  -4.26000 26.25700 28.54900
C  -8.09600 23.24400 28.25500
C  -7.38800 23.37500 23.35700
C  -3.82600 26.52000 23.63800
N  -5.89900 24.50600 28.13900
C  -5.32100 25.41300 28.97100
C  -5.72300 25.15900 30.48300
C  -6.58200 23.87700 30.32500
C  -6.87900 23.80900 28.83800
C  -5.99000 22.59300 30.84800
C  -6.46500 26.44600 31.05300
C  -6.47000 26.52200 32.62100
H  -5.77200 25.42200 33.49900
N  -7.73600 23.66700 25.78000
C  -8.40100 23.07200 26.79800
C  -9.49300 22.27600 26.23300
C  -9.24600 22.21500 24.80200
C  -8.08300 23.10900 24.55000
C  -10.35000 21.35000 27.09000
C  -9.92900 21.36500 23.74700
O  -9.52000 21.38500 22.61300
C  -11.11400 20.51200 23.97700
N  -5.57200 24.90900 23.73700
C  -6.31000 24.14800 22.89600
C  -5.75600 24.26800 21.41900
C  -4.74700 25.44400 21.56200
C  -4.68100 25.66900 23.04400
C  -5.03100 23.03700 20.78000
C  -5.17700 26.76500 20.75100
C  -4.34200 27.06900 19.52100
N  -4.39200 26.21600 25.99100
C  -3.61200 26.76000 25.02000
C  -2.59600 27.56900 25.67900
C  -2.77400 27.40700 27.02800
C  -3.90900 26.59200 27.19200
C  -1.49700 28.31700 24.93000
C  -2.24300 27.73500 28.35500
O  -1.25300 28.41900 28.71200
C  -3.14400 26.95400 29.34900
C  -2.34500 26.03500 30.29800
O  -1.66300 25.07000 29.97500
O  -2.42800 26.53100 31.62800
C  -1.49000 26.04800 32.69200
H  -8.74600 22.81500 29.02100
H  -7.81400 22.83400 22.50900
H  -3.06400 26.95200 22.98600
H  -4.82200 24.94400 31.05700
H  -7.54700 24.07700 30.79000
H  -4.96000 22.69100 31.19200
H  -6.15300 21.80500 30.11300
H  -6.56100 22.16300 31.67100
H  -7.50500 26.28400 30.76800
H  -6.00200 27.29300 30.54700
H  -7.49600 26.55900 32.98700
H  -6.07600 27.50300 32.88700
H  -10.49100 20.37200 26.63000
H  -11.33400 21.81000 27.18200
H  -10.07600 21.18900 28.13200
H  -10.69000 19.52400 24.16000
H  -11.76600 20.43300 23.10700
H  -11.59700 20.97600 24.83600
H  -6.65700 24.65000 20.94100
H  -3.71900 25.25800 21.25000
H  -5.16200 22.13400 21.37600
H  -3.97600 23.18900 20.55200
H  -5.64400 22.76200 19.92200
H  -5.20500 27.70900 21.29600
H  -6.23400 26.76700 20.48400
H  -3.84400 26.20600 19.07900
H  -3.59200 27.85100 19.64300
H  -4.94800 27.55700 18.75800
H  -0.73400 27.57500 24.69500
H  -1.14400 29.13300 25.56000
H  -2.02600 28.86600 24.15100
H  -3.76200 27.57000 30.00200
H  -0.52600 25.73800 32.29000
H  -1.86000 25.24000 33.32200
H  -1.34500 26.88500 33.37600

