158

Mg -1.97000 18.05900 26.96600
C  -2.26300 15.95900 29.79200
C  -2.65900 20.79400 29.22600
C  -1.66200 20.11800 24.52100
C  -2.12900 15.23300 24.85300
N  -2.32400 18.31700 29.21700
C  -2.37500 17.32400 30.16400
C  -2.60900 17.83300 31.54600
C  -2.97900 19.27700 31.25500
C  -2.60800 19.50500 29.78400
C  -4.45500 19.65500 31.58600
C  -1.45200 17.70400 32.66700
C  -2.01100 17.11200 33.92600
H  -1.01000 16.73800 35.02200
N  -2.06200 20.11300 26.92800
C  -2.36200 21.07400 27.88100
C  -2.16600 22.42700 27.37700
C  -1.76700 22.19700 26.04100
C  -1.79400 20.79000 25.78300
C  -2.47000 23.72000 28.11900
C  -1.43000 23.30400 24.95900
O  -1.12000 22.98200 23.78500
C  -1.40000 24.72200 25.33500
N  -2.15400 17.69600 24.90000
C  -1.88400 18.79100 24.12000
C  -1.74700 18.30900 22.64500
C  -2.20000 16.77200 22.74100
C  -2.10400 16.49400 24.23100
C  -2.53700 19.05000 21.53700
C  -1.47400 15.83500 21.76100
C  -0.09500 15.28400 22.11200
N  -2.11900 15.98600 27.16200
C  -2.15900 14.98700 26.25100
C  -2.32700 13.68300 26.86400
C  -2.34200 13.97600 28.26900
C  -2.18500 15.41200 28.41800
C  -2.63100 12.40200 26.22400
C  -2.51200 13.45200 29.62000
O  -2.69000 12.28500 29.99100
C  -2.43900 14.71300 30.66900
C  -1.32000 14.51800 31.63300
O  -0.09400 14.69800 31.34000
O  -1.71400 13.98300 32.80400
C  -0.68100 13.77100 33.88200
H  -2.90100 21.64600 29.86600
H  -1.36800 20.65200 23.61500
H  -1.92900 14.35900 24.22900
H  -3.46000 17.29500 31.96300
H  -2.35200 19.97100 31.81500
H  -4.55900 20.34300 32.42600
H  -5.03300 18.74900 31.76400
H  -4.88100 20.10400 30.68900
H  -1.08200 18.69400 32.93300
H  -0.64300 17.08200 32.28500
H  -2.67200 16.26900 33.72400
H  -2.58000 17.92600 34.37600
H  -1.57400 24.33600 28.20300
H  -2.89800 23.56100 29.10800
H  -3.30400 24.16000 27.57200
H  -0.59200 25.08600 25.97000
H  -2.40600 24.82200 25.74200
H  -1.39200 25.35500 24.44800
H  -0.66900 18.19200 22.53200
H  -3.26800 16.68000 22.54600
H  -3.06000 19.92200 21.92800
H  -3.29400 18.39700 21.10100
H  -1.74000 19.42600 20.89600
H  -1.25300 16.38600 20.84700
H  -2.12500 14.98600 21.55000
H  0.45600 15.72900 22.94000
H  0.45800 15.30000 21.17300
H  -0.15200 14.22700 22.37100
H  -3.62800 12.43100 25.78500
H  -2.65200 11.61600 26.97900
H  -1.84900 12.15200 25.50700
H  -3.30400 14.86600 31.31400
H  -1.20100 13.81900 34.83900
H  0.18100 14.42400 33.74800
H  -0.21500 12.79000 33.78900
Mg 36.06000 48.41300 25.96800
C  35.89500 46.63000 29.07300
C  35.37900 51.25100 27.56800
C  35.79200 49.87800 23.00800
C  36.74000 45.40200 24.44200
N  35.71200 48.87600 28.11700
C  35.75300 48.09200 29.20000
C  35.55700 48.85400 30.54200
C  35.27300 50.32800 30.00500
C  35.40900 50.18100 28.46500
C  33.83300 50.76800 30.57400
C  36.83900 48.75900 31.46200
C  36.58600 48.08100 32.81400
H  35.51200 48.67900 33.84800
N  35.69700 50.28000 25.35700
C  35.47700 51.33800 26.19600
C  35.24300 52.50900 25.46400
C  35.18400 52.11000 24.08700
C  35.53400 50.67000 24.09800
C  35.06900 53.95100 26.17500
C  34.88900 52.91800 22.86800
O  34.84100 52.47000 21.73900
C  34.73100 54.33000 23.06800
N  36.15200 47.72700 24.03800
C  36.01800 48.51800 22.94200
C  36.42600 47.80900 21.66700
C  36.96200 46.44700 22.18000
C  36.63300 46.54200 23.63800
C  35.23700 47.74400 20.67100
C  38.49100 46.23900 22.00400
C  38.80800 45.06600 21.09600
N  36.39100 46.43200 26.57000
C  36.66100 45.28100 25.83300
C  36.78400 44.16600 26.71900
C  36.47100 44.68500 27.99000
C  36.17300 46.00100 27.82400
C  37.17700 42.76800 26.38300
C  36.48700 44.27400 29.38800
O  36.77100 43.27400 29.96000
C  35.99400 45.59400 30.16200
C  34.65900 45.29400 30.69000
O  33.75900 44.78300 30.01100
O  34.68000 45.38100 32.09300
C  33.52900 44.78700 32.81100
H  35.07700 52.16600 28.08200
H  35.68900 50.31900 22.01400
H  37.06500 44.46300 23.98800
H  34.81100 48.29300 31.10500
H  36.07800 50.97800 30.34900
H  33.87100 51.81100 30.89200
H  33.43900 50.10400 31.34300
H  33.13200 50.68800 29.74300
H  37.22300 49.76100 31.65400
H  37.53400 48.13300 30.90200
H  37.54500 48.03900 33.33100
H  36.44900 47.00500 32.70800
H  35.42600 54.84000 25.65500
H  35.54500 53.95600 27.15500
H  34.03100 54.25700 26.31400
H  34.67200 54.78900 22.08100
H  35.61200 54.72300 23.57500
H  33.79600 54.52600 23.59300
H  37.25200 48.30900 21.16200
H  36.30700 45.67500 21.77600
H  34.32200 47.74300 21.26400
H  35.30600 46.83800 20.06900
H  35.25800 48.54300 19.93000
H  38.86000 45.97900 22.99600
H  39.02100 47.14700 21.71500
H  38.02400 44.31500 20.99400
H  39.67600 44.60400 21.56700
H  39.17600 45.34300 20.10800
H  36.91900 42.31600 25.42500
H  36.84500 42.15100 27.21900
H  38.26600 42.73000 26.40300
H  36.65500 45.85100 30.98900
H  33.15300 43.94600 32.22900
H  32.69300 45.47700 32.93400
H  33.84100 44.39600 33.77900

