158

Mg 26.03200 49.50500 26.69100
C  24.14600 50.95300 29.30600
C  28.51300 48.95000 28.92500
C  27.83200 48.36700 24.08200
C  23.84100 50.99900 24.39800
N  26.23500 49.93400 28.89800
C  25.29500 50.38000 29.76600
C  25.62700 50.06700 31.18800
C  27.15200 49.71000 31.00600
C  27.35000 49.55800 29.54900
C  28.23200 50.69000 31.67400
C  24.61700 49.03200 31.78700
C  24.04700 49.16800 33.28600
H  24.85600 50.04800 34.20600
N  27.93900 48.76600 26.50600
C  28.78400 48.56000 27.62300
C  30.03600 48.07600 27.09500
C  29.91900 47.94700 25.65400
C  28.53800 48.37200 25.34800
C  31.20100 47.84700 27.99600
C  30.99500 47.50000 24.61400
O  30.61800 47.33700 23.44500
C  32.40800 47.13700 25.01100
N  25.88100 49.61600 24.55800
C  26.59500 48.88200 23.69300
C  25.94300 48.77000 22.27800
C  24.70300 49.64200 22.46700
C  24.82800 50.13400 23.92400
C  26.89500 49.20800 21.10800
C  23.28100 48.97400 22.13600
C  22.60900 49.70200 20.98900
N  24.43300 50.79100 26.76200
C  23.63700 51.38200 25.75300
C  22.44800 52.03400 26.32700
C  22.67800 51.88600 27.70500
C  23.86100 51.13900 27.92000
C  21.32300 52.74900 25.63200
C  22.06700 52.21500 29.01600
O  21.01300 52.81800 29.29000
C  22.95400 51.54100 30.05600
C  23.40600 52.63400 31.00000
O  24.20200 53.51800 30.77200
O  22.73400 52.46100 32.24800
C  23.08000 53.45100 33.30000
H  29.24300 48.66100 29.68400
H  28.34300 47.97500 23.20100
H  23.07700 51.42000 23.74000
H  25.60600 51.01800 31.72100
H  27.30200 48.70500 31.39900
H  27.81900 51.66400 31.93200
H  29.09000 50.84000 31.01800
H  28.49600 50.13800 32.57600
H  25.16500 48.09000 31.75100
H  23.84200 48.83000 31.04700
H  23.89100 48.19800 33.75800
H  23.04700 49.60200 33.30500
H  32.10400 48.12500 27.45200
H  31.36300 46.78700 28.19200
H  31.34200 48.37400 28.93900
H  32.91800 47.98600 25.46400
H  32.98900 46.84800 24.13500
H  32.37700 46.37900 25.79400
H  25.75000 47.74800 21.95400
H  24.70400 50.57100 21.89600
H  27.89300 49.42400 21.48900
H  26.48700 50.09600 20.62500
H  26.98500 48.44900 20.33100
H  22.68600 49.09100 23.04200
H  23.37700 47.90800 21.92700
H  22.81700 49.06600 20.12900
H  23.00500 50.68600 20.73800
H  21.52600 49.75000 21.10600
H  20.35200 52.25400 25.62400
H  21.59500 53.12600 24.64600
H  21.02000 53.60200 26.23800
H  22.31000 50.81700 30.55400
H  24.13100 53.56900 33.56400
H  22.57400 53.26300 34.24700
H  22.68300 54.35300 32.83400
Mg -11.18600 17.30900 42.20200
C  -7.92400 18.30600 42.24800
C  -12.14300 20.64500 41.94500
C  -14.51500 16.36500 41.93300
C  -10.27900 13.95700 41.99300
N  -10.16000 19.21900 42.17300
C  -8.83000 19.37000 42.13900
C  -8.39400 20.86700 42.02800
C  -9.71900 21.61700 42.28600
C  -10.76900 20.43800 42.12100
C  -9.72200 22.43800 43.56800
C  -7.77900 21.15000 40.64700
C  -6.38100 21.84800 40.78300
H  -5.35700 21.14800 39.87800
N  -13.01300 18.36400 41.83300
C  -13.20000 19.72600 41.76400
C  -14.55600 20.06100 41.50100
C  -15.28200 18.80400 41.56900
C  -14.25000 17.75000 41.73600
C  -15.15000 21.48000 41.23300
C  -16.78300 18.73400 41.46900
O  -17.46400 19.76000 41.59100
C  -17.46200 17.45900 41.36200
N  -12.27100 15.52200 41.78600
C  -13.59100 15.33700 42.02100
C  -14.03700 13.93300 42.13800
C  -12.72900 13.15900 42.05300
C  -11.67500 14.28700 41.95500
C  -14.86200 13.64400 43.35400
C  -12.70000 12.23000 40.68600
C  -12.62200 10.68900 40.94100
N  -9.43600 16.28800 42.15700
C  -9.15400 14.92300 42.07000
C  -7.76200 14.73400 42.11800
C  -7.19100 16.06100 42.14500
C  -8.28200 16.93500 42.25600
C  -7.03700 13.47300 42.16500
C  -5.97500 16.77800 42.13800
O  -4.83200 16.28600 42.01800
C  -6.36400 18.30300 42.35400
C  -5.83600 18.82800 43.64400
O  -6.11800 18.41000 44.77800
O  -4.91900 19.76600 43.32500
C  -4.12000 20.36100 44.44000
H  -12.55800 21.63000 41.72400
H  -15.57700 16.11400 41.98000
H  -9.99100 12.90800 41.89600
H  -7.79400 21.24400 42.85700
H  -10.04600 22.28200 41.48700
H  -9.07600 23.28800 43.35200
H  -9.43000 21.84000 44.43200
H  -10.76600 22.73600 43.66400
H  -8.43100 21.80700 40.07100
H  -7.69100 20.29600 39.97500
H  -6.05200 21.84400 41.82200
H  -6.45200 22.91100 40.55200
H  -16.11500 21.51300 40.72800
H  -14.32700 21.93900 40.68500
H  -15.25600 21.93600 42.21700
H  -18.39100 17.64500 40.82400
H  -17.49300 17.00400 42.35200
H  -16.87500 16.79100 40.73100
H  -14.75600 13.76000 41.33700
H  -12.62100 12.57000 42.96400
H  -14.77500 14.50400 44.01800
H  -14.59900 12.77700 43.96000
H  -15.89000 13.50500 43.01900
H  -11.87500 12.53800 40.04400
H  -13.59200 12.30600 40.06500
H  -12.55100 10.58400 42.02300
H  -11.76800 10.31200 40.37800
H  -13.43800 10.11500 40.50300
H  -5.99000 13.60200 42.43900
H  -7.10200 12.96200 41.20400
H  -7.55300 12.84200 42.88800
H  -5.83800 18.72400 41.49700
H  -3.50700 21.12900 43.96900
H  -3.43600 19.65000 44.90500
H  -4.77400 20.78300 45.20300

