158

Mg 2.08400 -2.00200 44.93300
C  5.30900 -1.22300 44.10200
C  0.96200 0.47900 42.72900
C  -1.00800 -3.22700 45.08700
C  3.38300 -5.17100 46.06000
N  3.02800 -0.62200 43.51100
C  4.36900 -0.43500 43.41200
C  4.77500 0.74700 42.56600
C  3.42400 1.40200 42.16800
C  2.38500 0.45100 42.85700
C  3.25700 2.84700 42.57800
C  5.70400 0.35800 41.27700
C  6.97700 1.15200 41.13200
H  7.54400 1.22500 39.65100
N  0.24700 -1.38300 44.16700
C  0.02300 -0.36800 43.30900
C  -1.34400 -0.20300 43.11600
C  -2.06400 -1.22100 43.82900
C  -0.94000 -1.97800 44.39600
C  -1.84300 0.82600 42.18200
C  -3.54600 -1.56100 43.87500
O  -4.27600 -0.89400 43.21800
C  -4.19300 -2.68400 44.69600
N  1.32100 -3.96600 45.26900
C  0.00600 -4.11400 45.45400
C  -0.34100 -5.50000 46.13700
C  1.03900 -6.13000 46.28700
C  2.04300 -5.00800 45.86700
C  -1.25400 -5.33900 47.36500
C  1.20200 -7.48100 45.54000
C  1.58000 -8.73900 46.25100
N  3.98200 -2.98000 45.38000
C  4.36700 -4.22400 45.84400
C  5.79700 -4.32400 45.90000
C  6.14400 -3.06700 45.35200
C  5.05800 -2.34700 45.00000
C  6.63400 -5.46600 46.49100
C  7.34700 -2.26000 44.98300
O  8.51900 -2.55600 45.23100
C  6.82700 -1.01600 44.22500
C  7.32500 0.22600 44.95200
O  6.97600 0.64000 46.04200
O  8.23900 0.87400 44.14800
C  8.59800 2.15600 44.63100
H  0.70200 1.39000 42.18400
H  -1.97500 -3.71300 45.23100
H  3.63300 -6.13600 46.50400
H  5.37700 1.33600 43.25900
H  3.32000 1.41800 41.08300
H  2.72500 2.92400 43.52600
H  2.78000 3.36700 41.74700
H  4.20700 3.37500 42.65700
H  5.25900 0.32100 40.28200
H  6.13800 -0.62600 41.45300
H  7.70600 0.66200 41.77800
H  6.77500 2.09400 41.64100
H  -1.80800 0.41600 41.17200
H  -1.28700 1.76000 42.25600
H  -2.87200 1.11400 42.39600
H  -3.80800 -3.64300 44.34800
H  -5.27600 -2.73800 44.58900
H  -3.93300 -2.55000 45.74500
H  -0.87500 -6.18800 45.48300
H  1.32600 -6.23400 47.33400
H  -0.64400 -5.70800 48.18900
H  -2.21200 -5.85700 47.31300
H  -1.39400 -4.28000 47.58200
H  2.12300 -7.39300 44.96400
H  0.43600 -7.52200 44.76600
H  1.84800 -8.65200 47.30400
H  2.48200 -9.16000 45.80800
H  0.88400 -9.54100 46.00300
H  7.52100 -5.29400 45.88200
H  6.20800 -6.42600 46.20000
H  6.69100 -5.36800 47.57500
H  7.22300 -1.04400 43.21000
H  9.17300 2.68600 43.87100
H  9.19000 2.07300 45.54200
H  7.67400 2.67700 44.87900
Mg 17.53600 51.21500 25.80600
C  19.35700 50.06000 28.62900
C  15.17300 52.41300 28.10700
C  15.47600 51.97900 23.25700
C  19.73700 49.51700 23.75000
N  17.22500 51.13300 28.10400
C  18.11700 50.67300 29.03300
C  17.62800 50.95200 30.47200
C  16.21200 51.55500 30.24400
C  16.20300 51.69900 28.72400
C  14.95900 50.66400 30.74900
C  18.57100 51.91000 31.15400
C  18.31500 52.22400 32.65000
H  17.27200 51.49500 33.39500
N  15.64500 52.13900 25.70300
C  14.87100 52.59100 26.73100
C  13.63500 53.20100 26.13100
C  13.75900 53.16400 24.69200
C  14.99300 52.40200 24.45900
C  12.51000 53.76100 26.87500
C  12.89400 53.74200 23.59800
O  13.23200 53.74400 22.45700
C  11.62500 54.41200 24.02400
N  17.58200 50.75800 23.85100
C  16.63900 51.22600 22.97500
C  16.99700 50.77600 21.54400
C  18.36700 50.07100 21.66200
C  18.54400 50.08800 23.14700
C  15.89300 49.94300 20.84100
C  19.61200 50.68900 20.85200
C  20.51100 49.61700 20.26300
N  19.27300 50.07700 26.08400
C  20.12100 49.50400 25.12800
C  21.23100 48.81800 25.81000
C  20.95600 49.08100 27.18900
C  19.73400 49.75000 27.29700
C  22.33200 48.16000 25.06100
C  21.45400 48.67700 28.53200
O  22.45600 48.10400 28.90000
C  20.41700 49.41000 29.46400
C  19.82900 48.31600 30.36200
O  19.22800 47.27900 30.00700
O  20.07600 48.67100 31.66200
C  19.66900 47.77600 32.77800
H  14.40500 52.94900 28.66900
H  14.88700 52.31200 22.40000
H  20.41900 49.07500 23.02100
H  17.52100 50.07700 31.11300
H  16.07100 52.50000 30.76800
H  14.64700 50.11700 29.86000
H  14.19100 51.30200 31.18700
H  15.22100 49.91100 31.49200
H  18.54900 52.77700 30.49400
H  19.58600 51.54000 31.00900
H  18.22300 53.30900 32.60800
H  19.20400 52.07600 33.26400
H  12.63300 53.94000 27.94400
H  11.65700 53.18000 26.52500
H  12.34100 54.76000 26.47300
H  11.91900 55.29700 24.58700
H  10.90800 53.79200 24.56200
H  11.23000 54.75000 23.06600
H  17.04700 51.72700 21.01300
H  18.12700 49.05000 21.36700
H  15.28300 49.61200 21.68200
H  16.35100 49.08900 20.34300
H  15.32200 50.57800 20.16300
H  20.09900 51.29400 21.61600
H  19.19200 51.34600 20.09100
H  19.82000 48.80500 20.04000
H  21.29600 49.22200 20.90800
H  20.95800 50.04300 19.36500
H  23.04800 47.78000 25.79000
H  22.78600 48.93600 24.44400
H  22.08300 47.31500 24.41900
H  20.83200 50.10100 30.19800
H  18.63700 47.98400 33.05800
H  20.26200 47.95600 33.67500
H  19.75900 46.73700 32.46000

