158

Mg 9.29600 47.86600 27.42300
C  7.52000 47.44700 30.35100
C  12.10900 48.49700 29.28800
C  10.88200 48.53600 24.55400
C  6.18300 47.92600 25.58500
N  9.69300 48.13600 29.57700
C  8.87900 47.66100 30.58500
C  9.55900 47.98700 31.93400
C  11.07600 48.09000 31.57400
C  10.94500 48.20700 30.07100
C  11.68000 49.31700 32.26300
C  9.26800 46.92400 32.99600
C  10.33000 46.49300 34.06700
H  9.83800 45.80200 35.35300
N  11.24900 48.54300 26.96600
C  12.27000 48.68800 27.88100
C  13.46500 48.97500 27.20100
C  13.22200 48.90200 25.80400
C  11.75900 48.69500 25.73800
C  14.87500 49.08600 27.85800
C  14.16200 49.01600 24.60600
O  13.80300 48.95700 23.44800
C  15.60700 49.06500 24.89000
N  8.57400 48.14600 25.33000
C  9.52300 48.38700 24.35900
C  8.79000 48.59800 22.98100
C  7.29100 48.33800 23.29600
C  7.33800 48.06800 24.80000
C  9.14700 50.11400 22.49800
C  6.72400 47.18200 22.45600
C  6.66600 47.52600 20.95600
N  7.27400 47.51200 27.83200
C  6.18300 47.62500 26.99700
C  4.97300 47.37900 27.84000
C  5.48200 47.28700 29.13100
C  6.85300 47.38500 29.06800
C  3.51700 47.46400 27.47600
C  5.10500 47.09300 30.48200
O  3.95000 46.89700 30.90700
C  6.42100 47.19800 31.37700
C  6.48700 45.87200 32.11100
O  7.02500 44.86800 31.70300
O  5.66400 46.00500 33.24400
C  5.66500 44.85900 34.19800
H  13.10100 48.54900 29.74000
H  11.48200 48.60900 23.64400
H  5.19200 48.02800 25.13600
H  9.03000 48.90600 32.18500
H  11.56900 47.13000 31.73100
H  12.75200 49.32300 32.46300
H  11.09700 49.43100 33.17700
H  11.53500 50.14100 31.56500
H  9.03700 46.04200 32.39700
H  8.33900 47.23300 33.47500
H  10.70200 47.45900 34.40900
H  11.14100 45.96300 33.56800
H  15.45900 48.24200 27.49300
H  14.93300 49.04600 28.94500
H  15.22400 50.10400 27.68200
H  15.83500 49.88400 25.57200
H  16.09000 49.19900 23.92200
H  15.86300 48.05900 25.22100
H  9.31900 47.94600 22.28600
H  6.82500 49.31500 23.16900
H  9.88800 50.13700 21.69900
H  9.50800 50.70600 23.33900
H  8.23600 50.57800 22.12000
H  5.67500 47.04300 22.71800
H  7.12100 46.21900 22.77900
H  6.84400 46.64300 20.34200
H  7.35500 48.34500 20.74800
H  5.68200 47.81700 20.58700
H  3.11400 48.46100 27.65200
H  2.93400 46.76900 28.08100
H  3.40700 47.27900 26.40800
H  6.36700 48.02500 32.08500
H  5.62300 45.14400 35.24900
H  6.44800 44.10100 34.15800
H  4.64200 44.51100 34.05100
Mg -0.34400 43.49600 26.91900
C  2.05700 43.26500 29.34800
C  -2.70900 42.31100 29.19300
C  -2.68900 43.46800 24.37400
C  2.16400 44.13800 24.61700
N  -0.31600 42.85500 29.03500
C  0.76600 43.15500 29.86200
C  0.38500 43.15200 31.34600
C  -1.08600 42.55400 31.31300
C  -1.45000 42.61300 29.79700
C  -1.16000 41.07800 31.79900
C  0.45700 44.58600 32.03500
C  0.72100 44.47900 33.49800
H  0.43100 43.30900 34.37200
N  -2.44000 43.00800 26.77400
C  -3.14400 42.45500 27.85800
C  -4.45400 42.03400 27.23400
C  -4.45300 42.48400 25.89100
C  -3.16800 43.05500 25.64700
C  -5.46800 41.34900 28.17400
C  -5.56700 42.20300 24.96600
O  -5.39600 42.43000 23.76500
C  -6.85100 41.44300 25.30200
N  -0.29800 43.66100 24.77600
C  -1.40800 43.72700 23.99400
C  -1.00800 43.97300 22.55400
C  0.46100 44.37400 22.66600
C  0.80600 44.02200 24.12100
C  -1.18200 42.78200 21.53500
C  0.78500 45.82700 22.29100
C  0.24200 46.88900 23.24200
N  1.72800 43.55800 26.87700
C  2.64400 43.75800 25.86600
C  4.00700 43.71400 26.36200
C  3.78500 43.56200 27.76100
C  2.45400 43.49400 28.03700
C  5.25700 43.70800 25.46000
C  4.52100 43.41000 29.01100
O  5.69100 43.44200 29.15400
C  3.40700 43.39500 30.15700
C  3.62100 42.18300 30.99800
O  3.45600 41.04600 30.55100
O  4.21400 42.55400 32.16700
C  4.81100 41.43900 32.98400
H  -3.35100 41.99000 30.01600
H  -3.32300 43.31700 23.49800
H  2.88300 44.55000 23.90600
H  1.10800 42.48900 31.82100
H  -1.74300 43.16800 31.92900
H  -0.35700 40.46600 31.38900
H  -2.09200 40.75900 31.33300
H  -1.14500 40.98100 32.88500
H  -0.51000 45.08000 31.92900
H  1.21100 45.20200 31.54400
H  0.43400 45.43500 33.93400
H  1.80800 44.54800 33.52800
H  -6.39800 41.91500 28.10100
H  -5.24500 41.25400 29.23700
H  -5.67600 40.33500 27.83500
H  -7.37700 42.25700 25.80000
H  -6.66400 40.61600 25.98700
H  -7.38500 41.10000 24.41600
H  -1.69000 44.70000 22.11200
H  1.17200 43.79300 22.07800
H  -2.25600 42.60900 21.60300
H  -0.51500 42.02500 21.94700
H  -0.84500 42.96900 20.51500
H  0.32900 45.94100 21.30800
H  1.85800 45.80700 22.10100
H  -0.60900 47.40000 22.79200
H  1.16100 47.46100 23.36600
H  -0.15900 46.44800 24.15500
H  5.35700 42.77200 24.91000
H  6.10700 43.81000 26.13400
H  5.31300 44.57800 24.80600
H  3.38700 44.36400 30.65500
H  4.41200 40.47500 32.66900
H  4.48500 41.58900 34.01300
H  5.88300 41.42600 32.78600

