158

Mg 40.37500 9.05800 29.83600
C  42.12600 10.13600 32.52300
C  38.08400 7.65300 31.72600
C  38.74900 7.91100 26.99900
C  42.93700 10.29700 27.70600
N  40.32000 8.78000 31.89900
C  41.05500 9.36900 32.88600
C  40.34900 9.29100 34.24900
C  39.16500 8.41800 33.95400
C  39.19600 8.26200 32.40300
C  39.17200 7.07500 34.81900
C  39.85900 10.71400 34.77000
C  39.55900 10.74700 36.31300
H  40.09400 11.76700 37.30800
N  38.61400 7.88900 29.42500
C  37.78300 7.47100 30.38900
C  36.59900 6.90900 29.82700
C  36.81200 6.86900 28.39200
C  38.10400 7.60000 28.24800
C  35.57100 6.24400 30.68600
C  36.01500 6.22900 27.25400
O  36.40500 6.30200 26.09600
C  34.78200 5.45400 27.56800
N  40.75200 9.16900 27.57700
C  39.94500 8.52300 26.68200
C  40.37200 8.96900 25.27100
C  41.84500 9.53600 25.48500
C  41.86800 9.72700 27.01800
C  40.32200 7.87000 24.12700
C  42.04200 10.83400 24.66700
C  41.14800 12.02900 25.06700
N  42.16200 9.98500 30.04200
C  43.08900 10.46800 29.11300
C  44.26200 11.05400 29.79300
C  43.80300 10.98500 31.12100
C  42.58300 10.35300 31.22400
C  45.42600 11.79700 29.27600
C  44.25400 11.42100 32.45400
O  45.28500 11.97300 32.84600
C  43.15700 10.91400 33.41300
C  43.83100 10.05200 34.44100
O  44.43600 8.99600 34.20600
O  43.71300 10.63900 35.66400
C  44.41000 9.96900 36.76800
H  37.29600 7.34400 32.41700
H  38.23800 7.70200 26.05700
H  43.78100 10.69400 27.13600
H  41.07200 8.84500 34.93300
H  38.25600 8.98000 34.16600
H  39.40200 6.22800 34.17300
H  38.15800 6.96400 35.20300
H  39.85400 7.02100 35.66800
H  38.94900 11.05000 34.27300
H  40.59300 11.52000 34.78600
H  39.69000 9.75100 36.73400
H  38.47500 10.81700 36.22800
H  34.59700 6.22600 30.19500
H  35.61900 6.76800 31.64000
H  35.82300 5.19100 30.81700
H  34.84800 4.63800 28.28800
H  34.32900 5.19400 26.61200
H  34.16800 6.20600 28.06500
H  39.67900 9.74300 24.94100
H  42.62700 8.78800 25.35400
H  40.27400 6.91800 24.65500
H  41.21100 7.95800 23.50100
H  39.42400 7.90400 23.51000
H  41.81600 10.54800 23.64000
H  43.09000 11.12700 24.72500
H  40.50800 12.21800 24.20600
H  41.77400 12.87200 25.35900
H  40.48000 11.74900 25.88200
H  46.11700 11.10100 28.80000
H  46.00800 12.26700 30.06800
H  45.13000 12.58500 28.58300
H  42.61800 11.66500 33.99100
H  43.79500 9.96400 37.66800
H  45.34100 10.49200 36.98400
H  44.63300 8.92400 36.55300
Mg -5.04900 25.00900 26.81100
C  -3.68400 26.84400 29.30400
C  -6.74600 23.01100 29.08000
C  -6.26200 23.06300 24.22800
C  -2.87000 26.39700 24.57600
N  -4.94700 24.74100 28.88800
C  -4.53500 25.77300 29.73800
C  -4.96800 25.41200 31.15800
C  -5.55000 23.98000 31.06400
C  -5.82300 23.93700 29.58400
C  -4.60800 22.85700 31.46500
C  -6.02600 26.36000 31.70700
C  -6.16800 26.38200 33.25900
H  -5.43300 25.36700 34.13300
N  -6.42200 23.31000 26.66400
C  -7.06400 22.74200 27.75000
C  -8.06500 21.83600 27.19100
C  -7.86200 21.76200 25.78600
C  -6.88300 22.78200 25.48400
C  -9.11100 21.03900 28.00500
C  -8.49800 20.82300 24.70600
O  -8.23100 20.99000 23.50000
C  -9.42400 19.77900 25.08300
N  -4.54900 24.68100 24.69900
C  -5.22200 23.86200 23.84700
C  -4.69500 23.95100 22.38700
C  -3.64600 25.16600 22.46800
C  -3.65600 25.43000 23.99400
C  -4.11400 22.60500 22.04700
C  -3.81500 26.47300 21.59000
C  -3.12200 26.44100 20.20000
N  -3.63000 26.44300 26.84900
C  -2.81500 26.94100 25.86000
C  -2.04200 28.01700 26.39900
C  -2.32100 27.99300 27.81400
C  -3.27600 27.01300 27.98400
C  -1.19700 29.04800 25.59400
C  -2.02500 28.63800 29.04400
O  -1.30000 29.57200 29.34000
C  -2.96800 27.93100 30.09700
C  -2.11300 27.49600 31.17500
O  -1.39300 26.50300 31.12700
O  -2.42500 28.07900 32.31700
C  -1.97200 27.60200 33.63500
H  -7.47400 22.50800 29.72100
H  -6.66000 22.55600 23.34600
H  -2.18300 26.92800 23.91400
H  -4.09500 25.41200 31.81000
H  -6.42700 23.83500 31.69500
H  -4.80100 22.05800 30.74900
H  -4.95000 22.49200 32.43300
H  -3.55600 23.13400 31.40400
H  -7.00600 26.08000 31.32300
H  -5.69300 27.33500 31.35300
H  -7.22800 26.32300 33.50800
H  -5.77100 27.34300 33.58600
H  -8.90000 19.97000 27.96800
H  -10.07900 21.37800 27.63700
H  -9.11600 21.28800 29.06600
H  -9.00700 18.92400 25.61700
H  -9.75400 19.47200 24.09100
H  -10.27000 20.18400 25.63900
H  -5.38300 24.16200 21.56800
H  -2.65800 24.73800 22.29700
H  -4.85600 22.14900 21.39000
H  -3.86100 21.97900 22.90200
H  -3.32300 22.83500 21.33300
H  -3.46100 27.34800 22.13600
H  -4.85400 26.59500 21.28300
H  -2.36200 25.66200 20.26100
H  -2.61000 27.38500 20.01200
H  -3.90200 26.31300 19.44900
H  -1.77300 29.92300 25.29400
H  -0.80800 28.50200 24.73500
H  -0.33800 29.44100 26.13800
H  -3.75200 28.56100 30.51800
H  -2.81000 27.50300 34.32400
H  -1.10300 28.11900 34.04300
H  -1.68700 26.55000 33.63200

