158

Mg 25.09200 1.17800 29.72600
C  27.21500 1.05400 32.67100
C  22.43700 1.27700 31.87900
C  23.30100 1.43100 27.11900
C  27.98800 0.48300 27.90100
N  24.83000 1.13400 31.99300
C  25.78400 1.23500 32.92000
C  25.20800 1.42500 34.31000
C  23.67100 1.41000 34.04900
C  23.63800 1.17500 32.54800
C  22.78500 0.53000 35.01500
C  25.67800 2.68200 35.10500
C  26.23300 2.47300 36.53600
H  25.93000 3.69600 37.51400
N  23.05700 1.30100 29.51200
C  22.07800 1.28500 30.52900
C  20.77600 1.39900 29.89000
C  21.02800 1.52400 28.51200
C  22.52000 1.41700 28.31400
C  19.50200 1.41400 30.64500
C  20.00400 1.72000 27.43300
O  20.44900 1.80600 26.28600
C  18.51400 2.01000 27.68500
N  25.62900 0.98300 27.78900
C  24.64400 1.25100 26.83800
C  25.15900 1.38100 25.39600
C  26.72400 1.11100 25.61000
C  26.82100 0.84100 27.16100
C  24.31000 0.62700 24.26800
C  27.71600 2.31500 25.37600
C  27.25000 3.64400 26.09900
N  27.10600 0.62900 30.21500
C  28.15700 0.37800 29.33000
C  29.40300 0.18000 30.05400
C  29.02900 0.41900 31.36200
C  27.65400 0.66100 31.38700
C  30.75100 -0.22500 29.53700
C  29.55300 0.63900 32.76200
O  30.69000 0.51900 33.24500
C  28.35100 0.97900 33.61600
C  28.15400 0.05500 34.77400
O  27.64000 -1.03000 34.63400
O  28.74300 0.50100 35.93900
C  28.91100 -0.41600 37.07600
H  21.57100 1.52600 32.49600
H  22.84700 1.68800 26.16000
H  28.93300 0.49100 27.35300
H  25.45700 0.53600 34.88900
H  23.37600 2.43500 34.27100
H  22.21100 -0.26900 34.54500
H  22.14700 1.23700 35.54500
H  23.33300 0.04300 35.82200
H  24.87000 3.41300 35.08300
H  26.56800 3.12800 34.66000
H  27.31000 2.53100 36.37900
H  26.05600 1.48700 36.96500
H  19.10000 2.42700 30.62100
H  19.67200 1.08400 31.67000
H  18.83600 0.71400 30.14000
H  17.88000 1.14700 27.48200
H  18.30900 2.65200 26.82800
H  18.38200 2.58800 28.60000
H  24.97400 2.39100 25.03100
H  26.95600 0.18500 25.08500
H  23.46800 0.08200 24.69300
H  25.04600 -0.06800 23.86300
H  23.94100 1.28900 23.48400
H  27.51600 2.40600 24.30800
H  28.72500 1.95400 25.57400
H  26.55100 3.29600 26.85900
H  26.63100 4.25200 25.43900
H  28.08300 4.19800 26.53300
H  31.28800 0.67700 29.24500
H  30.85400 -1.00200 28.77900
H  31.23900 -0.77000 30.34500
H  28.53100 1.96400 34.04700
H  28.01900 -0.26100 37.68300
H  29.86300 -0.23600 37.57500
H  28.95300 -1.45200 36.73800
Mg 45.06700 3.65900 47.03800
C  43.17000 6.55800 46.93400
C  42.39700 1.78400 47.16200
C  47.14600 1.02600 46.28700
C  48.07300 5.89000 46.74200
N  43.03200 4.14800 46.88100
C  42.41500 5.35300 46.86800
C  40.90000 5.23700 46.93400
C  40.72900 3.68800 47.07800
C  42.14000 3.16500 47.05200
C  39.94900 3.10600 48.35500
C  40.07800 5.75200 45.72300
C  40.69600 5.68100 44.38700
H  40.98900 6.92400 43.59600
N  44.75800 1.70100 46.68900
C  43.56100 0.99600 46.87900
C  43.81300 -0.42600 46.69200
C  45.20200 -0.59800 46.35400
C  45.73600 0.78900 46.34900
C  42.76700 -1.48500 46.82500
C  45.85500 -1.88700 45.99300
O  45.24600 -2.94800 46.15400
C  47.25400 -1.94600 45.51600
N  47.36000 3.53100 46.76900
C  47.86000 2.30900 46.43900
C  49.40000 2.42500 46.27700
C  49.71500 3.91800 46.40800
C  48.31500 4.48700 46.71000
C  50.13800 1.53600 47.41000
C  50.50200 4.56400 45.20000
C  51.98400 4.77700 45.38000
N  45.60800 5.77300 46.99000
C  46.74500 6.49100 46.89300
C  46.49000 7.92600 46.87500
C  45.10000 8.04400 46.98600
C  44.61100 6.70500 46.94100
C  47.59600 8.99300 46.74000
C  43.95200 8.87900 47.06100
O  43.79500 10.08100 46.95800
C  42.67500 7.87500 46.98500
C  41.69700 8.22700 48.11100
O  41.67500 7.60800 49.17600
O  40.71700 9.00300 47.57300
C  39.49200 9.05300 48.33400
H  41.55300 1.10200 47.28200
H  47.93600 0.27700 46.19700
H  48.93100 6.54000 46.55400
H  40.38800 5.70100 47.77700
H  40.19900 3.21500 46.25100
H  39.26000 3.89000 48.67000
H  40.71700 2.89200 49.09800
H  39.44500 2.18200 48.07200
H  39.88800 6.82300 45.80200
H  39.09300 5.29300 45.81500
H  39.97900 5.01800 43.90300
H  41.65000 5.16600 44.50500
H  42.83000 -2.08500 45.91700
H  41.77100 -1.05600 46.71100
H  42.91600 -2.15200 47.67400
H  47.39800 -2.97800 45.19900
H  47.94800 -1.76400 46.33700
H  47.34600 -1.21500 44.71300
H  49.73700 2.18500 45.26800
H  50.28700 4.04400 47.32700
H  50.87700 2.21300 47.83900
H  50.67200 0.65500 47.05300
H  49.50000 1.23400 48.24000
H  50.11600 5.57000 45.03800
H  50.36600 4.04100 44.25300
H  52.22100 5.83800 45.46300
H  52.44000 4.32300 44.50000
H  52.33800 4.20000 46.23400
H  48.17500 8.70100 45.86400
H  48.17300 9.06600 47.66100
H  47.16900 9.99700 46.74600
H  42.14900 8.24800 46.10600
H  39.11200 8.03200 48.37200
H  38.74700 9.73700 47.93000
H  39.78500 9.40100 49.32400

