158

Mg 0.78700 7.24400 25.59400
C  1.92500 9.27900 28.26800
C  0.80600 4.56500 27.82500
C  0.08300 5.08500 23.02800
C  1.49300 9.71400 23.37700
N  1.46600 6.99800 27.82700
C  1.72900 7.92500 28.73200
C  1.62300 7.39500 30.12700
C  1.51000 5.84000 29.88900
C  1.28800 5.76100 28.39500
C  2.57900 5.04400 30.43400
C  0.40300 7.99300 30.93800
C  0.66500 8.21100 32.45400
H  1.76700 7.42000 33.16400
N  0.46500 5.17700 25.45200
C  0.43400 4.31200 26.48700
C  0.06300 2.98900 26.03400
C  -0.13000 3.06000 24.58800
C  0.12300 4.45200 24.32200
C  -0.11800 1.87300 26.93600
C  -0.57000 1.97000 23.65300
O  -0.89400 2.14200 22.48700
C  -0.61500 0.53900 24.19600
N  0.80400 7.38600 23.56600
C  0.38200 6.39600 22.67300
C  0.16900 6.92500 21.27100
C  0.61800 8.41600 21.33400
C  0.95300 8.53400 22.81200
C  0.75900 6.06700 20.10600
C  -0.40800 9.46300 20.78000
C  0.34100 10.62700 20.10200
N  1.53900 9.06300 25.74100
C  1.85400 9.93800 24.72600
C  2.40900 11.17900 25.30800
C  2.30900 10.94300 26.70700
C  1.89000 9.65800 26.89900
C  2.66500 12.45300 24.54600
C  2.52400 11.62500 28.03500
O  2.97700 12.73400 28.27800
C  2.18300 10.52300 29.08400
C  3.32600 10.52000 30.14200
O  4.53900 10.62800 29.91000
O  2.77800 10.61800 31.37100
C  3.53800 10.93000 32.60100
H  0.89600 3.79700 28.59600
H  -0.28000 4.41300 22.24800
H  1.54300 10.57400 22.70600
H  2.49900 7.68500 30.70800
H  0.70000 5.47500 30.52000
H  3.02200 4.58000 29.55300
H  2.29400 4.25900 31.13500
H  3.33400 5.65600 30.92900
H  -0.47200 7.37400 30.73700
H  0.29400 9.02000 30.59100
H  -0.30500 8.07600 32.93200
H  0.76000 9.26400 32.71700
H  0.72600 1.19200 26.81600
H  -1.05000 1.38200 26.65600
H  -0.12200 2.05300 28.01100
H  -1.58400 0.30600 24.63800
H  0.24300 0.35200 24.84200
H  -0.57600 -0.19800 23.39400
H  -0.90500 7.02200 21.11700
H  1.59700 8.59800 20.88900
H  1.27900 5.20300 20.51800
H  1.49400 6.53600 19.45300
H  0.00100 5.60800 19.47100
H  -1.00800 9.81200 21.62000
H  -1.00800 8.93000 20.04300
H  -0.01500 10.87800 19.10300
H  1.42800 10.59400 20.18300
H  0.02700 11.48800 20.69200
H  1.86700 12.61900 23.82200
H  3.59500 12.14300 24.07100
H  2.72200 13.40200 25.08100
H  1.28400 10.93600 29.54100
H  4.62500 10.87000 32.54600
H  3.21500 10.27300 33.40800
H  3.39800 11.94200 32.98200
Mg 26.41200 50.91500 26.76700
C  24.49900 52.20100 29.44800
C  28.62100 49.81600 28.99100
C  28.48400 50.47900 24.09600
C  24.16700 52.73100 24.60300
N  26.50900 50.98600 28.96300
C  25.62600 51.49000 29.86200
C  25.90500 51.14300 31.31100
C  27.28900 50.53800 31.20600
C  27.48100 50.38700 29.66600
C  28.37100 51.44500 31.82500
C  24.83800 50.09200 31.91600
C  24.33500 50.35400 33.32500
H  25.18900 51.17800 34.35000
N  28.28300 50.17800 26.54600
C  29.02900 49.63200 27.53900
C  30.24300 48.97600 27.03100
C  30.29000 49.37500 25.66400
C  28.99000 49.99300 25.33500
C  31.35500 48.39300 27.90200
C  31.37800 49.13700 24.67100
O  31.34700 49.57900 23.56100
C  32.52200 48.38500 25.02000
N  26.40400 51.71400 24.68500
C  27.34400 51.25000 23.84600
C  27.12100 51.73100 22.40900
C  25.63600 52.24200 22.44000
C  25.38500 52.28400 24.04300
C  28.14400 52.85400 22.02900
C  24.66900 51.34100 21.65000
C  23.24800 51.69400 21.29200
N  24.63300 52.18000 26.93000
C  23.90800 52.80400 26.02400
C  22.77400 53.54500 26.64800
C  23.07300 53.34300 28.01400
C  24.12300 52.55800 28.11300
C  21.62800 54.31200 25.92700
C  22.49300 53.57400 29.35100
O  21.49000 54.16700 29.74700
C  23.48300 52.84100 30.30200
C  24.05300 53.83500 31.19300
O  24.99400 54.55800 30.85100
O  23.18300 54.01500 32.24300
C  23.53500 55.04900 33.27700
H  29.23200 49.25300 29.70000
H  29.13400 50.22200 23.25700
H  23.41600 53.17100 23.94300
H  25.89800 52.06900 31.88500
H  27.22400 49.57400 31.71200
H  28.01900 52.13600 32.59200
H  28.94800 52.01500 31.09700
H  28.94900 50.69000 32.35800
H  25.19400 49.06300 31.95300
H  23.98300 50.18400 31.24500
H  24.08400 49.44500 33.87200
H  23.39300 50.89200 33.21500
H  31.77000 47.44300 27.56700
H  30.99600 48.23800 28.92000
H  32.24700 49.01300 27.98300
H  32.34300 47.31100 25.05600
H  33.08300 48.78900 25.86300
H  33.27100 48.45200 24.23000
H  27.29400 50.85700 21.78200
H  25.52400 53.29300 22.17400
H  28.52900 53.40600 22.88600
H  27.74800 53.59600 21.33600
H  28.95700 52.32600 21.53100
H  24.49400 50.43300 22.22700
H  25.12700 51.00300 20.72100
H  22.46000 51.12400 21.78400
H  23.02200 51.41900 20.26200
H  22.98800 52.73100 21.50500
H  21.11100 54.87100 26.70800
H  20.89100 53.77300 25.33200
H  22.12000 54.97700 25.21700
H  22.91800 52.12800 30.90200
H  22.65300 55.37000 33.83100
H  23.88400 55.92800 32.73700
H  24.32100 54.66200 33.92500

