158

Mg 47.21900 16.87300 27.74200
C  45.37200 16.49200 30.64600
C  49.31400 19.01500 29.44800
C  48.42900 18.05800 24.73300
C  44.51300 15.42900 25.97400
N  47.28100 17.73300 29.76900
C  46.54400 17.25100 30.83300
C  47.08400 17.73000 32.18300
C  48.19300 18.74000 31.78800
C  48.28200 18.53700 30.24200
C  47.97000 20.07600 32.46700
C  47.51400 16.52600 33.06700
C  47.45800 16.67900 34.63100
H  46.67500 17.88300 35.11900
N  48.73400 18.17400 27.18200
C  49.58400 18.91900 28.04500
C  50.62900 19.56600 27.26000
C  50.38900 19.29600 25.85600
C  49.12400 18.52800 25.89900
C  51.70400 20.47500 27.99500
C  51.13300 19.55300 24.54200
O  50.80900 19.23400 23.43600
C  52.48000 20.20300 24.60000
N  46.52800 16.75700 25.64100
C  47.29500 17.27300 24.60900
C  46.60400 16.88200 23.20800
C  45.63900 15.80600 23.70400
C  45.49700 16.02400 25.19500
C  45.91700 18.16800 22.66500
C  45.96400 14.37200 23.32600
C  45.08500 13.61500 22.25900
N  45.44400 15.95400 28.18600
C  44.39900 15.38000 27.39900
C  43.30400 14.99500 28.19700
C  43.63700 15.35800 29.47300
C  44.91500 15.99800 29.44000
C  42.02500 14.43400 27.71100
C  43.20900 15.31200 30.88400
O  42.21300 14.87700 31.36000
C  44.37500 16.07700 31.72800
C  43.66100 17.12600 32.47800
O  43.68000 18.30400 32.06200
O  43.08900 16.61400 33.65200
C  42.18900 17.56500 34.26800
H  49.93200 19.64100 30.09500
H  48.75200 18.31300 23.72200
H  43.72300 14.95300 25.39000
H  46.25600 18.25100 32.66400
H  49.17500 18.37000 32.08400
H  47.20000 20.14200 33.23600
H  47.65100 20.82300 31.74000
H  48.95300 20.40200 32.80600
H  48.59200 16.51300 32.90900
H  47.09900 15.58000 32.72000
H  48.45400 16.86700 35.03300
H  47.00800 15.80400 35.09800
H  52.66900 19.97600 28.08600
H  51.33700 20.68500 28.99900
H  51.93000 21.34800 27.38300
H  53.18800 19.80400 23.87300
H  53.02500 20.13600 25.54200
H  52.39800 21.25900 24.34200
H  47.40900 16.49700 22.58200
H  44.63700 15.92100 23.29100
H  46.67600 18.43900 21.93200
H  45.82000 19.03100 23.32400
H  45.00300 17.88900 22.14100
H  46.06400 13.78100 24.23600
H  46.94100 14.51800 22.86600
H  44.82200 12.64500 22.68100
H  45.71700 13.54000 21.37400
H  44.22000 14.21300 21.97500
H  41.71300 14.92500 26.78900
H  41.21400 14.60200 28.41900
H  42.18600 13.37100 27.53000
H  44.73000 15.36400 32.47200
H  42.72600 18.46500 34.56900
H  41.81400 17.07000 35.16400
H  41.35500 17.88000 33.64100
Mg 37.00100 50.16300 25.51300
C  37.09800 48.19900 28.45900
C  35.88400 52.77900 27.24900
C  36.59400 51.73300 22.56400
C  37.97500 47.25200 23.80100
N  36.34600 50.35700 27.60100
C  36.64600 49.58000 28.66600
C  36.32700 50.20100 30.00400
C  35.82800 51.53200 29.52300
C  35.96200 51.59100 28.04700
C  34.36400 51.86100 29.95600
C  37.59500 50.14000 30.91900
C  37.37300 50.00800 32.43600
H  35.99800 49.69800 32.98500
N  36.25700 51.96500 25.01900
C  35.93100 52.93600 25.86000
C  35.66100 54.16700 25.16200
C  35.93300 53.93300 23.77400
C  36.25600 52.45300 23.68100
C  35.51900 55.47300 25.91900
C  35.92200 54.86500 22.60800
O  35.75900 54.42900 21.45800
C  35.90400 56.36600 22.71500
N  37.08800 49.50600 23.53700
C  36.96700 50.37700 22.45200
C  37.43700 49.77900 21.07700
C  38.01800 48.40300 21.55600
C  37.62500 48.34700 23.06400
C  36.28300 49.58400 20.02300
C  39.50600 48.29700 21.22900
C  40.48200 49.28400 21.94900
N  37.47000 48.09800 25.97400
C  37.79100 47.05700 25.15200
C  38.12400 45.84100 25.88900
C  37.82700 46.24300 27.20400
C  37.48700 47.64500 27.18500
C  38.63300 44.50400 25.31200
C  37.76200 45.87000 28.59700
O  38.00500 44.75900 29.02100
C  37.31900 47.09500 29.46500
C  36.11800 46.69300 30.15600
O  35.04000 46.71500 29.63300
O  36.43400 46.26500 31.43700
C  35.35500 45.71000 32.24500
H  35.59400 53.64900 27.84200
H  36.60900 52.29900 21.63000
H  38.33800 46.40000 23.22300
H  35.46100 49.64300 30.36200
H  36.51700 52.30500 29.86400
H  33.91700 51.25100 30.74100
H  33.76300 51.99000 29.05500
H  34.45000 52.82300 30.46100
H  38.13600 51.08400 30.86800
H  38.20200 49.30300 30.57300
H  37.66000 50.92600 32.95000
H  38.06600 49.25500 32.81000
H  36.50400 55.74900 26.29400
H  34.81300 55.36500 26.74300
H  35.35200 56.24600 25.16900
H  34.91900 56.59900 23.12100
H  35.96300 56.89000 21.76000
H  36.71000 56.67300 23.38100
H  38.19400 50.43900 20.65200
H  37.36100 47.67000 21.08800
H  35.94300 48.54900 19.99600
H  36.60100 49.87600 19.02200
H  35.34500 50.06000 20.30800
H  39.57900 48.52600 20.16600
H  39.70200 47.22500 21.26800
H  41.19400 49.84800 21.34700
H  41.02400 48.68300 22.68000
H  39.86500 49.94900 22.55200
H  39.40600 44.09400 25.96200
H  38.99600 44.65200 24.29500
H  37.79800 43.82800 25.13100
H  38.13700 47.19000 30.17900
H  35.72800 45.60100 33.26300
H  34.86100 44.82200 31.84900
H  34.48500 46.36700 32.26900

