158

Mg 17.53700 -0.58600 27.95900
C  16.38800 1.63200 30.48100
C  19.16800 -2.42700 30.32500
C  18.85600 -2.47200 25.49800
C  15.94700 1.51300 25.58700
N  17.74000 -0.41200 30.13600
C  17.18500 0.54800 30.96100
C  17.48900 0.25100 32.38700
C  18.64200 -0.82500 32.23700
C  18.64100 -1.21400 30.78700
C  20.03600 -0.28600 32.57400
C  16.24200 -0.13000 33.21200
C  16.48300 -0.02500 34.78700
H  17.84100 0.50900 35.35800
N  18.84700 -2.22000 27.91600
C  19.26500 -2.92200 29.00800
C  19.96700 -4.16600 28.65400
C  19.99200 -4.14600 27.22800
C  19.23000 -2.94300 26.77100
C  20.53300 -5.21900 29.69200
C  20.59500 -5.15400 26.23000
O  20.66800 -4.89300 25.05300
C  21.04800 -6.52700 26.71700
N  17.40200 -0.55400 25.87400
C  18.10000 -1.36100 25.07100
C  18.03700 -0.84300 23.60600
C  17.02100 0.26000 23.68500
C  16.68000 0.39900 25.13500
C  19.39600 -0.55200 22.89600
C  15.75400 0.27200 22.78700
C  14.45200 -0.51400 23.24400
N  16.31500 1.12600 27.97600
C  15.73400 1.85300 26.93200
C  14.92400 2.98200 27.49100
C  15.19800 2.89800 28.93500
C  16.02200 1.80400 29.13700
C  14.05400 3.94300 26.62100
C  14.97900 3.57400 30.15600
O  14.37400 4.55700 30.40800
C  15.65900 2.68600 31.22600
C  16.61800 3.49700 32.03000
O  17.68700 3.87000 31.70200
O  16.04300 3.90100 33.18900
C  16.81000 4.71900 34.05100
H  19.59200 -2.93400 31.19400
H  19.18000 -2.88600 24.54000
H  15.54100 2.22400 24.86400
H  17.84000 1.12500 32.93500
H  18.37400 -1.67800 32.86100
H  19.97600 0.70000 33.03500
H  20.69200 -0.33500 31.70400
H  20.42600 -1.01400 33.28500
H  15.85800 -1.09900 32.89300
H  15.58100 0.71300 33.01200
H  16.41100 -1.06000 35.12200
H  15.63000 0.54300 35.15900
H  19.80500 -6.02100 29.56300
H  20.43700 -4.85500 30.71500
H  21.54600 -5.53800 29.44500
H  20.26100 -6.98300 27.31800
H  21.91600 -6.43600 27.36900
H  21.18000 -7.12700 25.81700
H  17.59300 -1.66200 23.04100
H  17.48700 1.16800 23.30200
H  19.35900 0.22000 22.12800
H  19.72700 -1.47800 22.42500
H  20.13400 -0.24600 23.63800
H  16.01300 -0.19100 21.83500
H  15.38700 1.28500 22.61900
H  13.78600 0.30500 23.51600
H  14.64400 -1.20500 24.06600
H  13.97400 -1.06200 22.43200
H  13.81600 3.46800 25.66900
H  14.64100 4.78500 26.25600
H  13.19200 4.26000 27.20700
H  14.78600 2.52700 31.85800
H  16.63700 5.74000 33.71100
H  17.80600 4.28800 34.16000
H  16.33300 4.56000 35.01800
Mg 48.46100 45.37100 42.29900
C  45.14300 45.73900 41.01700
C  48.37900 42.06200 41.29200
C  51.79800 45.48300 42.25200
C  48.39300 48.81500 43.04400
N  46.82900 44.05400 41.42300
C  45.61100 44.44400 40.97400
C  44.94800 43.30500 40.28100
C  45.87500 42.04000 40.70600
C  47.11300 42.71600 41.12600
C  45.34500 41.05600 41.75500
C  44.79300 43.50500 38.73100
C  43.67300 42.69800 38.01200
H  44.11000 41.45900 37.21700
N  49.91900 43.95800 41.88700
C  49.67900 42.69000 41.56000
C  50.93700 41.92500 41.45300
C  51.97900 42.90200 41.74900
C  51.27800 44.15600 42.02300
C  51.09900 40.47700 41.21300
C  53.42700 42.55900 41.87500
O  53.84700 41.41800 41.72600
C  54.42800 43.64900 42.16100
N  49.92500 46.96300 42.52700
C  51.26200 46.71100 42.47300
C  52.06800 47.96700 42.71900
C  50.96700 49.01400 43.20000
C  49.68300 48.22800 42.87800
C  53.26200 47.79400 43.79800
C  51.27400 50.45900 42.71800
C  51.23400 51.50500 43.76600
N  47.04000 46.96300 42.18000
C  47.18300 48.25500 42.51700
C  45.92000 48.91700 42.27500
C  45.05200 47.97100 41.67000
C  45.79300 46.82000 41.65900
C  45.51800 50.31300 42.55700
C  43.81200 47.73400 41.06200
O  42.91600 48.52100 40.77400
C  43.83000 46.28800 40.42000
C  42.48600 45.63300 40.84500
O  41.61500 45.23100 40.11400
O  42.55400 45.35900 42.13000
C  41.30600 44.95900 42.75500
H  48.33600 41.07700 40.82300
H  52.88800 45.52000 42.20900
H  48.39400 49.85800 43.36800
H  43.99300 43.22800 40.80200
H  45.94300 41.46100 39.78500
H  44.49000 41.55700 42.20900
H  46.08300 40.93100 42.54700
H  45.04100 40.09800 41.33200
H  45.72600 43.16900 38.27900
H  44.77600 44.57400 38.52000
H  43.08100 43.31900 37.33900
H  43.02500 42.30100 38.79300
H  51.65100 40.31500 40.28700
H  50.11800 40.00300 41.24700
H  51.67200 39.93200 41.96200
H  54.49100 44.44600 41.42000
H  55.43600 43.29200 42.36900
H  54.07700 44.00600 43.13000
H  52.44900 48.29800 41.75200
H  51.00200 49.01900 44.28900
H  53.40900 46.75200 44.08000
H  53.06300 48.34100 44.72000
H  54.10500 48.14700 43.20400
H  50.67900 50.71300 41.84100
H  52.21500 50.58400 42.18200
H  51.69900 51.16300 44.69100
H  50.22000 51.86300 43.94400
H  51.84900 52.37500 43.53700
H  46.27000 51.02900 42.22300
H  45.50000 50.32900 43.64700
H  44.50600 50.62600 42.30200
H  43.74300 46.35500 39.33600
H  40.41400 45.02900 42.13200
H  41.22400 45.40700 43.74600
H  41.53200 43.90300 42.90600

