158

Mg 44.21800 3.70500 47.02500
C  41.76400 6.29200 46.74700
C  41.70200 1.40100 47.07200
C  46.56600 1.46700 46.80300
C  46.58200 6.38200 46.54300
N  42.04000 3.83200 46.75800
C  41.23700 4.96000 46.82400
C  39.72800 4.56900 46.68700
C  39.78400 3.14000 47.25400
C  41.26300 2.72800 47.06700
C  39.25800 2.92000 48.65300
C  39.24200 4.45900 45.19700
C  38.38000 5.58800 44.57300
H  38.97500 6.33300 43.36100
N  44.17300 1.64000 46.82900
C  43.05600 0.93100 46.95700
C  43.39100 -0.44600 47.11000
C  44.83100 -0.54400 47.08300
C  45.29200 0.84700 46.89600
C  42.49700 -1.51400 47.38000
C  45.65200 -1.74100 47.19900
O  45.16200 -2.83400 47.35900
C  47.17600 -1.79100 47.16500
N  46.24700 3.89600 46.65100
C  47.09800 2.80300 46.75000
C  48.54900 3.24300 46.84700
C  48.44500 4.71000 46.25000
C  47.03300 5.06000 46.56300
C  49.19000 3.07400 48.25100
C  48.71600 4.92600 44.75200
C  50.22800 4.65400 44.49900
N  44.25100 5.93900 46.81900
C  45.29100 6.84800 46.66600
C  44.76700 8.20800 46.65400
C  43.34600 8.04000 46.65300
C  43.14700 6.62600 46.74200
C  45.55400 9.48900 46.51200
C  42.03700 8.67600 46.52700
O  41.68000 9.84200 46.34800
C  41.02000 7.64700 46.67800
C  40.12800 7.73300 47.92100
O  40.51800 7.48100 49.04400
O  38.87200 8.08800 47.54300
C  37.91000 8.15200 48.61500
H  40.87900 0.69200 47.18600
H  47.40300 0.76600 46.81700
H  47.40900 7.09200 46.46600
H  39.09100 5.36600 47.07000
H  39.20700 2.34500 46.78200
H  38.72400 3.84000 48.88800
H  40.17800 2.73400 49.20800
H  38.52800 2.11000 48.64700
H  38.65900 3.54300 45.10800
H  40.12700 4.39200 44.56400
H  38.05200 6.41300 45.20400
H  37.49800 5.16400 44.09400
H  42.89000 -2.41800 46.91600
H  41.45500 -1.38800 47.08300
H  42.46300 -1.67000 48.45900
H  47.60600 -1.20400 47.97600
H  47.47600 -1.49000 46.16100
H  47.57300 -2.78700 47.36100
H  49.10400 2.57800 46.18600
H  49.05700 5.44300 46.77700
H  49.62500 4.03600 48.52100
H  50.03300 2.40400 48.08100
H  48.41700 2.73700 48.94100
H  48.73900 5.98900 44.50900
H  48.00800 4.45300 44.07100
H  50.85400 5.51800 44.72100
H  50.41400 4.34200 43.47200
H  50.60800 3.81500 45.08200
H  45.11300 10.34500 46.00200
H  46.61800 9.34000 46.33400
H  45.49600 9.80300 47.55500
H  40.34300 7.70200 45.82500
H  37.16000 7.41800 48.32100
H  37.40200 9.11700 48.61900
H  38.08700 7.93900 49.66900
Mg 53.27000 24.40400 44.66100
C  50.45900 26.35300 44.42100
C  51.36500 21.54700 44.36400
C  56.16200 22.57000 44.24200
C  55.09800 27.37700 44.74100
N  51.15200 23.98700 44.30500
C  50.16800 25.00300 44.39000
C  48.78200 24.35200 44.24000
C  49.07300 22.88100 44.65000
C  50.59500 22.74100 44.40900
C  48.80900 22.47800 46.14500
C  48.02700 24.59500 42.92700
C  48.84000 24.50500 41.61400
H  48.46700 23.30300 40.62900
N  53.73400 22.36800 44.29300
C  52.79400 21.33600 44.27600
C  53.45700 20.09200 44.15400
C  54.86600 20.34100 44.05700
C  54.95500 21.79000 44.21700
C  52.82400 18.71500 44.03000
C  55.96600 19.28600 43.80200
O  55.65100 18.15500 43.41700
C  57.39400 19.59900 43.88600
N  55.28900 24.95100 44.36200
C  56.26400 23.99200 44.24200
C  57.61400 24.70200 43.95700
C  57.31800 26.18400 44.43300
C  55.78300 26.18300 44.53200
C  58.79700 24.09300 44.80600
C  58.03600 27.31800 43.56300
C  58.76200 28.30000 44.42600
N  52.94100 26.50200 44.71800
C  53.74500 27.57400 44.82600
C  52.98500 28.76400 45.07000
C  51.65400 28.34000 44.84500
C  51.75700 26.90100 44.61500
C  53.53400 30.11300 45.33300
C  50.35900 28.79200 44.69700
O  49.94200 29.91500 44.76100
C  49.52800 27.56900 44.42900
C  48.80300 27.78600 43.18300
O  49.31900 27.80700 42.10400
O  47.45900 28.04200 43.44600
C  46.71000 28.20500 42.17500
H  50.70300 20.69400 44.52600
H  57.15800 22.12700 44.18200
H  55.78000 28.22900 44.78600
H  48.20600 24.80800 45.04400
H  48.59000 22.09000 44.07600
H  48.13000 23.01900 46.80300
H  49.77200 22.45300 46.65500
H  48.64100 21.40100 46.14700
H  47.45100 25.52100 42.94400
H  47.30900 23.77500 42.91800
H  49.84300 24.25600 41.96000
H  48.80900 25.41200 41.01000
H  53.08800 18.25400 43.07800
H  51.74400 18.80600 44.14400
H  53.10400 18.03800 44.83700
H  57.99000 18.70300 43.71600
H  57.63000 20.00700 44.86800
H  57.60500 20.38400 43.15900
H  57.88100 24.78100 42.90400
H  57.63600 26.32400 45.46600
H  58.73800 23.01400 44.94800
H  58.97700 24.54500 45.78100
H  59.68100 24.28900 44.19900
H  57.30900 27.80600 42.91400
H  58.70800 26.87100 42.83000
H  58.70800 28.05700 45.48700
H  58.35400 29.30900 44.37500
H  59.75700 28.41300 43.99500
H  52.64600 30.73600 45.44400
H  54.20800 30.48400 44.56100
H  53.98300 30.03100 46.32200
H  48.80200 27.54100 45.24200
H  45.65100 28.45800 42.22500
H  46.88000 27.38000 41.48300
H  47.19200 29.04000 41.66600

