158

Mg 24.03900 -4.62300 46.08400
C  26.18400 -2.22300 44.52300
C  21.54100 -3.29400 44.10100
C  22.22000 -7.25400 46.76400
C  26.83900 -5.95500 47.69600
N  23.88300 -3.00400 44.37700
C  24.92700 -2.17000 44.04000
C  24.38900 -1.01700 43.12100
C  22.82400 -1.26900 43.21100
C  22.70800 -2.60600 43.95700
C  22.01300 -0.09100 43.72300
C  25.00800 -1.24800 41.64800
C  25.02000 -0.04400 40.77200
H  24.39700 -0.30000 39.37000
N  22.17600 -5.20400 45.56400
C  21.26100 -4.51600 44.70000
C  20.02100 -5.30400 44.62300
C  20.17500 -6.46100 45.47800
C  21.51000 -6.29200 46.06600
C  18.91500 -4.79100 43.77100
C  19.09700 -7.55400 45.71100
O  18.07900 -7.45800 45.03900
C  19.21400 -8.55200 46.79100
N  24.43100 -6.27800 47.12300
C  23.52300 -7.30000 47.26500
C  24.10400 -8.56100 47.85900
C  25.41700 -7.96100 48.44300
C  25.58100 -6.62800 47.76000
C  23.26100 -9.34900 48.89600
C  26.59000 -8.98100 48.33700
C  27.65800 -8.92200 49.45100
N  26.15500 -4.20400 46.20700
C  27.13100 -4.79600 46.92100
C  28.42900 -4.17800 46.66200
C  28.07100 -3.10900 45.73000
C  26.68900 -3.14200 45.51200
C  29.69600 -4.72000 46.97900
C  28.62000 -1.98400 44.92200
O  29.76600 -1.63600 44.75100
C  27.46400 -1.36900 44.08600
C  27.24300 0.11400 44.40300
O  26.79400 0.55800 45.44700
O  27.54500 0.85500 43.35600
C  27.45800 2.32000 43.53300
H  20.67100 -2.76100 43.71300
H  21.67100 -8.18500 46.91900
H  27.66100 -6.44500 48.22000
H  24.66200 -0.06400 43.57300
H  22.44200 -1.53900 42.22700
H  22.72000 0.73800 43.75000
H  21.66600 -0.35400 44.72200
H  21.23200 0.05800 42.97800
H  24.43000 -1.97800 41.08200
H  26.02600 -1.63400 41.70800
H  25.99700 0.40500 40.59600
H  24.41500 0.68600 41.31000
H  19.08900 -5.24000 42.79200
H  18.87400 -3.70900 43.64500
H  17.92100 -5.18800 43.97800
H  18.34000 -9.20200 46.83200
H  19.33100 -8.17600 47.80700
H  20.01100 -9.26000 46.56300
H  24.40200 -9.24500 47.06400
H  25.13700 -7.74500 49.47400
H  22.60400 -10.18900 48.67400
H  22.70100 -8.55500 49.39000
H  23.95600 -9.68600 49.66500
H  27.12000 -8.74200 47.41500
H  26.26500 -10.01600 48.22500
H  27.95400 -9.91100 49.80100
H  27.28300 -8.36200 50.30700
H  28.41800 -8.34200 48.92700
H  30.49100 -4.05900 46.63400
H  29.76700 -5.76300 46.66900
H  29.74600 -4.62700 48.06400
H  27.67400 -1.68100 43.06300
H  27.93500 2.62700 44.46300
H  26.41000 2.59700 43.64800
H  28.02500 2.81100 42.74200
Mg -12.73100 17.00700 41.31100
C  -9.63800 15.25500 41.20800
C  -11.36200 19.38000 39.20400
C  -15.86300 18.36500 40.90300
C  -14.23800 13.98200 42.04900
N  -10.74800 17.20900 40.26100
C  -9.56100 16.51500 40.58300
C  -8.41600 17.01800 39.64100
C  -9.00100 18.36500 39.11200
C  -10.50300 18.30200 39.54000
C  -8.20600 19.67600 39.60200
C  -7.97400 16.03900 38.49300
C  -6.44400 16.04100 38.25800
H  -5.96700 16.42000 36.90800
N  -13.43700 18.79000 40.44700
C  -12.72600 19.54200 39.54800
C  -13.56400 20.65000 39.19100
C  -14.88200 20.32700 39.60800
C  -14.75900 19.11800 40.33400
C  -13.14400 21.86100 38.32000
C  -16.07900 21.15400 39.39300
O  -16.09700 22.16800 38.69800
C  -17.33000 21.06100 40.21100
N  -14.76700 16.27900 41.40400
C  -15.89300 17.06400 41.37300
C  -17.17900 16.20000 41.67300
C  -16.59800 14.76500 41.79200
C  -15.08000 14.99900 41.78300
C  -17.86100 16.69600 43.01400
C  -17.09200 13.71900 40.68300
C  -17.18400 12.25500 41.00000
N  -12.04600 15.00200 41.67400
C  -12.81700 13.89500 41.93100
C  -12.00700 12.75900 42.15600
C  -10.68900 13.25700 41.96900
C  -10.78800 14.58200 41.69800
C  -12.45800 11.42100 42.57000
C  -9.29100 12.88200 41.92800
O  -8.73200 11.80300 42.12300
C  -8.51500 14.12500 41.40100
C  -7.49800 14.67500 42.31800
O  -7.60600 15.57800 43.14400
O  -6.32500 13.88400 42.09400
C  -5.13500 14.55500 42.64000
H  -10.76300 20.01300 38.54600
H  -16.82200 18.70400 40.50500
H  -14.81800 13.07400 42.22300
H  -7.54100 17.20200 40.26400
H  -8.87000 18.46700 38.03500
H  -8.10000 20.32600 38.73400
H  -7.23200 19.41600 40.01600
H  -8.77500 20.23500 40.34500
H  -8.38100 16.42200 37.55800
H  -8.37800 15.03200 38.59400
H  -6.12600 15.01800 38.45800
H  -5.92900 16.61000 39.03300
H  -13.93200 22.22700 37.66200
H  -12.28600 21.60100 37.70000
H  -12.83900 22.78600 38.81000
H  -17.08200 20.80800 41.24200
H  -18.00900 20.39900 39.67400
H  -17.89600 21.99000 40.28500
H  -17.85900 16.14800 40.82300
H  -16.70700 14.34800 42.79300
H  -17.32900 17.52600 43.47800
H  -17.91000 15.88000 43.73500
H  -18.85600 17.06000 42.75600
H  -16.38200 13.62300 39.86200
H  -17.94500 14.12100 40.13700
H  -16.49800 11.67300 40.38500
H  -18.14900 11.81300 40.75200
H  -16.86900 12.12500 42.03500
H  -13.36200 11.19000 42.00700
H  -12.61100 11.53700 43.64300
H  -11.59800 10.75800 42.47400
H  -7.98900 13.92500 40.46700
H  -4.27500 14.02500 42.23100
H  -5.17500 14.67000 43.72400
H  -5.09000 15.58300 42.27900

