158

Mg 8.01100 3.47700 28.17000
C  9.36200 1.99500 30.95800
C  6.23900 5.64300 30.33900
C  6.20100 4.69200 25.62400
C  9.26700 0.97700 26.16400
N  7.67600 3.65800 30.43900
C  8.57800 3.06500 31.35100
C  8.40100 3.66200 32.77400
C  7.28200 4.75600 32.50900
C  7.00300 4.67000 30.97100
C  5.98500 4.44500 33.26900
C  9.69400 4.15000 33.45600
C  9.94900 3.61100 34.90900
H  10.25500 4.59200 36.01900
N  6.56200 5.02900 27.95700
C  6.00800 5.73700 28.95600
C  5.09200 6.68400 28.43700
C  5.10200 6.49700 27.04600
C  6.02800 5.42700 26.78300
C  4.08500 7.47800 29.29100
C  4.25600 7.14700 26.01300
O  4.27200 6.82900 24.81500
C  3.31500 8.21000 26.40100
N  7.68200 2.92300 26.23400
C  7.04400 3.65800 25.35100
C  7.17700 3.07700 23.97900
C  8.42600 2.15500 24.11600
C  8.43600 1.94700 25.61300
C  5.87500 2.46800 23.39600
C  9.72500 2.75100 23.59000
C  10.65600 3.49100 24.57100
N  9.20300 1.90700 28.46700
C  9.62300 0.98600 27.58000
C  10.48100 -0.04000 28.23000
C  10.48500 0.35200 29.56400
C  9.61200 1.53500 29.69100
C  11.23700 -1.23000 27.59300
C  10.94000 0.06900 30.92400
O  11.64100 -0.91600 31.31900
C  10.15600 1.05000 31.84900
C  9.20200 0.34300 32.78200
O  8.12100 -0.11900 32.50900
O  9.89000 0.32600 34.04900
C  9.00500 -0.25400 35.09700
H  5.66800 6.33600 30.96000
H  5.66500 5.10600 24.76700
H  9.87100 0.24600 25.62200
H  8.01000 2.86600 33.40800
H  7.70600 5.73800 32.71800
H  5.22100 4.12900 32.55900
H  5.63600 5.45200 33.49600
H  6.05800 3.91700 34.21900
H  9.70300 5.24000 33.47800
H  10.50700 3.88100 32.78100
H  10.81900 2.95600 34.87900
H  9.12100 3.01300 35.28900
H  4.37800 8.50000 29.05200
H  4.04500 7.32300 30.36900
H  3.13300 7.12400 28.89500
H  2.43500 7.71900 26.81500
H  3.07100 8.71800 25.46800
H  3.77400 8.99100 27.00900
H  7.34000 3.96100 23.36300
H  8.27000 1.21800 23.58100
H  5.99800 1.44200 23.05100
H  5.58400 3.10200 22.55800
H  5.12000 2.53700 24.17900
H  9.37100 3.53800 22.92300
H  10.28700 2.06500 22.95700
H  11.54800 2.90800 24.80100
H  10.10000 3.71500 25.48200
H  11.00900 4.43800 24.16400
H  10.47900 -1.91100 27.20500
H  11.85000 -1.72900 28.34300
H  11.90600 -1.01700 26.75900
H  10.92300 1.61400 32.38000
H  9.71400 -0.40900 35.91000
H  8.51400 -1.19200 34.83700
H  8.30600 0.51000 35.43800
Mg 9.96000 48.24700 25.67800
C  8.09500 48.55000 28.67300
C  12.38200 50.11000 27.09700
C  11.58100 48.14700 22.73700
C  7.11200 46.95400 24.14100
N  10.23000 49.17800 27.67500
C  9.39200 49.10500 28.75800
C  10.03900 49.62800 29.99200
C  11.29800 50.40700 29.43000
C  11.35900 49.83300 27.98600
C  11.17300 51.98100 29.51300
C  10.45000 48.59700 31.11600
C  9.68500 48.54500 32.46600
H  10.28400 49.24500 33.73100
N  11.77100 48.93300 25.03700
C  12.67400 49.59600 25.76000
C  13.92500 49.73800 25.10800
C  13.76500 49.01900 23.85400
C  12.31800 48.65900 23.80700
C  15.17700 50.25900 25.83700
C  14.77600 48.68300 22.86700
O  14.41900 48.16600 21.81200
C  16.21100 49.02600 23.12700
N  9.32300 47.84200 23.64500
C  10.30000 47.72200 22.72400
C  9.81700 46.87200 21.56100
C  8.47400 46.34200 22.06400
C  8.29200 47.08400 23.40600
C  9.72300 47.45900 20.12000
C  8.38600 44.78900 22.18800
C  9.31700 43.99300 23.13300
N  7.95900 47.82100 26.23700
C  6.94600 47.33200 25.48500
C  5.78500 47.24000 26.35200
C  6.19700 47.62400 27.60600
C  7.51500 47.95500 27.51100
C  4.34800 46.94300 25.88000
C  5.79600 47.85400 28.94100
O  4.66100 47.77800 29.44900
C  7.05000 48.28300 29.77500
C  7.33100 47.09100 30.60100
O  8.16800 46.23300 30.34400
O  6.47300 46.96300 31.76000
C  6.81100 45.88300 32.71200
H  13.16300 50.80000 27.42200
H  12.19700 47.80600 21.90200
H  6.23600 46.40300 23.79100
H  9.27700 50.20800 30.51300
H  12.19300 50.13600 29.99100
H  11.16600 52.46200 28.53500
H  11.93800 52.42800 30.14900
H  10.23100 52.23000 30.00100
H  11.47800 48.86900 31.35300
H  10.36500 47.62700 30.62500
H  9.65100 47.48600 32.72200
H  8.65800 48.90100 32.39300
H  15.90000 50.80800 25.23300
H  15.64000 49.45200 26.40400
H  14.99600 51.09400 26.51400
H  16.46600 48.67500 24.12700
H  16.22600 50.09500 22.91600
H  16.79500 48.57700 22.32300
H  10.45000 45.98600 21.51600
H  7.63200 46.68900 21.46400
H  9.92100 48.52300 20.25200
H  8.70100 47.36900 19.75200
H  10.30800 47.09600 19.27500
H  8.61700 44.27500 21.25500
H  7.39100 44.37600 22.35500
H  9.82600 44.73000 23.75300
H  10.01100 43.30500 22.65000
H  8.81500 43.45000 23.93400
H  3.88100 47.83100 25.45300
H  3.72700 46.55400 26.68600
H  4.47000 46.13000 25.16500
H  6.80500 49.10000 30.45400
H  6.15800 45.01000 32.68800
H  6.72300 46.37800 33.67900
H  7.85200 45.56400 32.66300

