158

Mg 8.76700 4.18000 27.42200
C  10.29400 2.62300 30.21600
C  6.81700 6.09300 29.74800
C  7.42600 5.85600 24.85600
C  10.26000 1.87200 25.41400
N  8.59100 4.34600 29.77500
C  9.31800 3.56800 30.65400
C  9.00900 4.01200 32.04600
C  7.69800 4.94800 31.89300
C  7.63800 5.13900 30.36100
C  6.39200 4.42500 32.49600
C  10.21500 4.84200 32.64800
C  9.95300 5.26600 34.08100
H  10.91600 4.68300 35.07700
N  7.46800 5.88500 27.31900
C  6.81300 6.53600 28.37900
C  6.03100 7.72000 27.77100
C  6.15500 7.59700 26.34200
C  7.07100 6.43800 26.08900
C  5.21300 8.56100 28.60100
C  5.63600 8.50800 25.22000
O  6.00200 8.29100 24.09200
C  4.44700 9.42300 25.53100
N  8.94800 3.99200 25.50600
C  8.25600 4.74600 24.57200
C  8.41400 4.20900 23.14500
C  9.45700 3.00600 23.41000
C  9.50800 2.87800 24.90300
C  7.01700 3.88300 22.35400
C  10.85500 3.13200 22.80300
C  11.96400 3.96000 23.51400
N  9.86200 2.45700 27.67100
C  10.51100 1.68800 26.73600
C  11.43800 0.78100 27.41600
C  11.36400 1.08300 28.80200
C  10.43500 2.12700 28.93000
C  12.38600 -0.18600 26.69500
C  11.89600 0.77900 30.10800
O  12.75600 -0.02000 30.47900
C  11.28100 1.86300 31.03000
C  10.66900 1.08100 32.16800
O  10.11700 0.03100 32.10100
O  10.84000 1.75100 33.41400
C  10.46800 1.09600 34.69300
H  6.16100 6.61700 30.44600
H  6.93700 6.12800 23.91900
H  10.56200 1.08400 24.72000
H  8.78300 3.15200 32.67700
H  7.87800 5.85700 32.46700
H  5.63200 5.14500 32.80200
H  6.68200 3.82700 33.36000
H  5.92200 3.76800 31.76500
H  10.26000 5.71100 31.99200
H  11.20100 4.41300 32.47000
H  8.92100 5.13900 34.40800
H  10.05800 6.33900 34.24100
H  4.16700 8.26700 28.51500
H  5.40200 9.55000 28.18300
H  5.44400 8.56900 29.66600
H  3.65800 8.84100 26.00600
H  4.08000 9.83600 24.59100
H  4.59000 10.20000 26.28200
H  8.98600 4.97200 22.61600
H  9.03500 2.03000 23.16600
H  6.10900 3.74400 22.94200
H  7.13400 2.91400 21.86800
H  6.92400 4.62400 21.56000
H  10.69500 3.60300 21.83200
H  11.23000 2.11900 22.65900
H  11.64400 4.56800 24.36000
H  12.40000 4.73400 22.88300
H  12.80200 3.30200 23.74600
H  11.82700 -1.07000 26.38900
H  13.04600 -0.56400 27.47600
H  12.87200 0.27700 25.83700
H  11.98700 2.61100 31.39300
H  11.11400 1.57400 35.43000
H  10.68500 0.03000 34.62700
H  9.41000 1.27500 34.88700
Mg 48.10000 24.81900 28.76600
C  48.78700 27.21500 31.30100
C  47.08400 22.65700 31.22300
C  47.98900 22.52300 26.43400
C  49.34400 27.19400 26.47900
N  47.99300 24.91700 31.01900
C  48.29100 26.03100 31.84400
C  48.04800 25.69100 33.32700
C  47.47900 24.20100 33.23000
C  47.54200 23.91600 31.74300
C  48.30900 23.20900 34.07400
C  47.05800 26.69500 33.92900
C  46.54800 26.31900 35.29600
H  47.14000 27.07800 36.48200
N  47.49400 22.84900 28.80100
C  47.03100 22.16300 29.90600
C  46.63300 20.84000 29.45400
C  46.88300 20.77600 27.99200
C  47.47700 22.05200 27.68200
C  46.01700 19.84700 30.38500
C  46.51100 19.80800 26.91300
O  46.83100 19.93900 25.68800
C  45.73900 18.56600 27.29700
N  48.60000 24.84800 26.70400
C  48.38900 23.73300 25.95200
C  48.75000 24.07300 24.50400
C  48.79400 25.64800 24.40800
C  48.88800 25.96700 25.95600
C  50.08400 23.42000 23.92800
C  47.52300 26.14200 23.61100
C  47.71800 27.51800 22.87900
N  48.91100 26.83300 28.83700
C  49.40600 27.61200 27.82600
C  49.85000 28.88200 28.25500
C  49.72400 28.76600 29.66800
C  49.10500 27.48700 29.94400
C  50.35700 29.96800 27.43800
C  49.82700 29.47100 30.91900
O  50.11800 30.60600 31.26100
C  49.35200 28.45000 32.04900
C  50.39000 28.18100 32.99800
O  51.26300 27.31900 32.85400
O  50.17700 28.93500 34.09400
C  51.17200 28.74000 35.16800
H  46.74900 21.94400 31.97900
H  48.11100 21.89500 25.54900
H  49.57000 27.92900 25.70300
H  49.03200 25.78700 33.78500
H  46.45000 24.14300 33.58400
H  48.62900 23.67200 35.00700
H  49.08900 23.03100 33.33400
H  47.67100 22.33900 34.23200
H  46.21500 26.73200 33.23900
H  47.61600 27.62400 34.04400
H  46.63100 25.24500 35.46400
H  45.48500 26.55100 35.23800
H  44.94000 19.69800 30.31100
H  46.22000 20.08000 31.43000
H  46.49000 18.87700 30.23400
H  44.86000 18.65900 27.93600
H  46.53700 17.92200 27.66900
H  45.42100 18.16900 26.33300
H  47.85400 23.73100 23.98600
H  49.67300 26.06100 23.91300
H  50.57700 22.88400 24.73800
H  50.75000 24.18700 23.53200
H  49.84200 22.70600 23.14100
H  46.69800 26.26400 24.31400
H  47.20300 25.42700 22.85300
H  48.70000 27.90800 23.14900
H  47.08700 28.33100 23.23700
H  47.69500 27.45000 21.79100
H  50.74200 30.77000 28.06800
H  49.58300 30.40700 26.80900
H  51.13100 29.42300 26.89600
H  48.45700 28.92900 32.44500
H  52.18800 28.79700 34.77700
H  50.92100 27.76100 35.57800
H  51.00300 29.52300 35.90600

