158

Mg 8.61600 3.50000 26.95400
C  9.87500 2.38800 30.05100
C  6.47800 5.64200 28.71200
C  7.18500 4.40100 24.00600
C  10.23500 0.99700 25.31100
N  8.05800 3.87000 29.20100
C  8.92400 3.42000 30.20400
C  8.44100 4.09400 31.50000
C  7.47900 5.19100 31.04600
C  7.24900 4.84600 29.59700
C  6.22000 5.25800 31.96300
C  9.69200 4.65900 32.28500
C  9.34500 5.32400 33.69200
H  9.82800 4.69900 35.00500
N  7.21900 4.99300 26.43300
C  6.43500 5.68400 27.29900
C  5.71200 6.75600 26.51800
C  5.91800 6.36100 25.10400
C  6.80600 5.16500 25.13400
C  4.80800 7.85000 27.16500
C  5.31400 7.02700 23.83500
O  5.60100 6.74500 22.65200
C  4.46000 8.32900 23.96800
N  8.70900 2.79100 24.83500
C  7.98300 3.29200 23.82300
C  8.30100 2.61600 22.47600
C  9.37100 1.62700 22.93100
C  9.44900 1.77000 24.48100
C  7.17300 1.97900 21.77200
C  10.81100 1.79300 22.24200
C  11.70900 2.98100 22.76700
N  9.79700 1.97400 27.48600
C  10.45500 1.04600 26.71700
C  11.20300 0.13700 27.55700
C  11.08800 0.65200 28.82000
C  10.14100 1.74200 28.77000
C  11.96000 -1.03700 27.02600
C  11.46700 0.49300 30.26100
O  12.18300 -0.30400 30.85300
C  10.76100 1.54200 31.03000
C  10.04800 0.94100 32.09300
O  8.89500 0.50600 32.05500
O  10.87200 0.87200 33.15800
C  10.28200 0.31900 34.41900
H  5.95700 6.38700 29.31700
H  6.77000 4.80700 23.08100
H  10.78800 0.14100 24.91900
H  7.93600 3.30200 32.05200
H  7.85500 6.20000 31.21800
H  6.08600 6.26000 32.37100
H  6.29900 4.46800 32.71000
H  5.40900 5.06700 31.26000
H  10.24900 5.34800 31.65000
H  10.36000 3.84300 32.56300
H  8.26800 5.32500 33.85800
H  9.66400 6.36400 33.76700
H  3.78300 7.71100 26.82200
H  5.10100 8.88200 26.97000
H  4.72000 7.67000 28.23700
H  5.13900 9.07700 24.37700
H  3.59100 8.21900 24.61600
H  4.20700 8.63900 22.95400
H  8.73600 3.40500 21.86200
H  9.15300 0.56300 22.83200
H  6.23400 2.06700 22.31800
H  7.43100 0.92100 21.73100
H  7.00900 2.36200 20.76500
H  10.67000 1.80600 21.16100
H  11.35600 0.87200 22.45100
H  11.16000 3.53600 23.52700
H  11.89700 3.68600 21.95800
H  12.70400 2.74700 23.14500
H  12.24600 -1.51300 27.96400
H  12.88700 -0.66900 26.58700
H  11.42400 -1.70900 26.35600
H  11.55300 2.13800 31.48500
H  9.77000 -0.64200 34.37600
H  9.67100 1.07800 34.90900
H  11.19300 0.18800 35.00300
Mg 48.84600 47.06800 42.20600
C  45.44900 47.53500 41.42900
C  48.57200 43.92700 40.70100
C  52.00500 46.66600 42.71300
C  49.00000 50.46500 43.25600
N  47.22600 45.97000 41.00400
C  45.93800 46.29500 40.95200
C  45.14200 45.31600 40.11200
C  46.12600 44.14700 40.00400
C  47.40600 44.71000 40.60800
C  45.51200 42.80700 40.64100
C  44.62500 45.98000 38.85100
C  43.12100 45.83700 38.58700
H  42.65200 45.40500 37.27500
N  50.14300 45.49600 41.67700
C  49.86500 44.29300 41.10800
C  51.02400 43.44500 41.13100
C  52.06800 44.19700 41.76600
C  51.43600 45.50200 42.13300
C  51.04300 42.05200 40.58600
C  53.52700 43.73200 42.09900
O  53.85800 42.64100 41.68900
C  54.51400 44.52900 42.80500
N  50.34800 48.45200 42.55500
C  51.54400 47.96500 42.90500
C  52.47000 49.08000 43.21500
C  51.52200 50.30100 43.49200
C  50.20500 49.75100 43.12300
C  53.37700 48.81000 44.40600
C  51.87900 51.63800 42.75700
C  52.27900 52.81500 43.65200
N  47.54100 48.72400 42.38900
C  47.76300 50.00200 42.90400
C  46.44600 50.69400 43.08200
C  45.53100 49.70100 42.55800
C  46.21900 48.58100 42.08100
C  46.28800 52.09600 43.61400
C  44.10400 49.43800 42.23100
O  43.12600 50.09000 42.50000
C  44.06800 48.11100 41.46000
C  43.13700 47.25600 42.21800
O  43.40500 46.85100 43.38500
O  41.97600 46.87600 41.56700
C  41.13200 45.91900 42.29500
H  48.39900 42.90700 40.35000
H  53.03700 46.44300 42.99400
H  48.94000 51.49800 43.60700
H  44.27500 45.07500 40.72800
H  46.43400 43.84300 39.00400
H  44.53600 42.60500 40.20000
H  45.25500 42.89000 41.69700
H  46.09800 41.91900 40.40400
H  44.99900 45.43300 37.98600
H  45.00000 46.99100 38.68800
H  42.68000 46.80400 38.82700
H  42.85800 45.08800 39.33400
H  51.34900 42.05700 39.54000
H  50.04500 41.64500 40.74800
H  51.75100 41.49600 41.20200
H  54.78700 45.42200 42.24300
H  55.44000 43.96100 42.89100
H  54.19300 44.81100 43.80800
H  53.13700 49.19300 42.36100
H  51.60000 50.59500 44.53900
H  53.43400 49.58800 45.16700
H  54.41100 48.75100 44.06600
H  53.00400 47.91600 44.90500
H  51.09600 52.08800 42.14700
H  52.81800 51.46000 42.23100
H  53.35100 53.01700 43.65500
H  52.01100 52.63300 44.69200
H  51.70600 53.68800 43.34100
H  45.28700 52.47500 43.82100
H  46.78400 52.68600 42.84400
H  46.83300 52.16600 44.55600
H  43.61800 48.25700 40.47900
H  40.19000 46.11400 41.78300
H  41.01800 46.08600 43.36600
H  41.37900 44.87200 42.11500

