158

Mg 0.75600 7.09000 25.22500
C  1.55400 9.17500 28.02500
C  0.89100 4.41300 27.19800
C  0.19800 5.30600 22.48500
C  1.28500 9.90600 23.17900
N  1.20300 6.85500 27.36000
C  1.36200 7.80300 28.36700
C  1.33700 7.19600 29.69000
C  1.11800 5.66600 29.40900
C  1.15200 5.60500 27.88200
C  2.18800 4.71400 30.07500
C  0.17000 7.74700 30.54200
C  0.41400 7.97300 32.08100
H  1.64000 7.47900 32.81000
N  0.58500 5.11200 24.89200
C  0.68500 4.15200 25.83400
C  0.45200 2.89100 25.24300
C  0.21400 3.05400 23.85400
C  0.27500 4.54300 23.65700
C  0.51700 1.56900 26.05800
C  -0.01700 2.07400 22.73800
O  -0.37000 2.44900 21.61400
C  -0.00600 0.59500 22.94300
N  0.83100 7.52200 23.17100
C  0.32600 6.62400 22.30200
C  0.13600 7.23900 20.83600
C  0.33000 8.69700 21.15800
C  0.82600 8.75700 22.62900
C  1.29600 6.64100 19.90200
C  -0.94800 9.58500 21.10300
C  -1.18600 10.38600 19.81200
N  1.35700 9.06400 25.47500
C  1.56600 10.08400 24.53400
C  1.93900 11.35500 25.16400
C  1.87500 10.97200 26.58000
C  1.55600 9.63200 26.66000
C  2.13000 12.64300 24.53700
C  2.06300 11.58500 27.91400
O  2.30900 12.70200 28.28000
C  1.64300 10.42200 28.95100
C  2.65900 10.36200 29.98700
O  3.72900 9.74000 29.78700
O  2.35000 11.24900 30.98800
C  3.37200 11.37900 32.06000
H  0.81900 3.55700 27.87200
H  -0.28000 4.84000 21.62000
H  1.29100 10.79400 22.54300
H  2.26100 7.44600 30.21100
H  0.08000 5.40600 29.61700
H  3.03000 4.38500 29.46600
H  1.61600 3.87800 30.47700
H  2.66200 5.21800 30.91700
H  -0.75500 7.17300 30.49400
H  -0.18900 8.68200 30.11300
H  -0.45500 7.46000 32.49200
H  0.42600 9.03200 32.33900
H  -0.23900 0.87000 25.69900
H  0.18700 1.73100 27.08400
H  1.54000 1.21700 26.19000
H  -0.85400 0.22500 23.51900
H  0.89300 0.37200 23.51700
H  0.02600 -0.01300 22.03800
H  -0.86000 6.94100 20.50700
H  1.08500 9.16500 20.52700
H  1.88800 5.87000 20.39500
H  1.82400 7.35600 19.27100
H  0.73400 5.98200 19.23900
H  -0.97400 10.25800 21.96000
H  -1.77900 8.90900 21.30300
H  -2.04800 10.13600 19.19300
H  -0.34700 10.28300 19.12400
H  -1.18800 11.43900 20.09100
H  3.02100 12.70800 23.91300
H  2.35200 13.32100 25.36100
H  1.22900 12.88100 23.97000
H  0.70000 10.65000 29.44800
H  4.03700 12.22700 31.89100
H  4.06500 10.53800 32.04200
H  2.91900 11.33000 33.05000
Mg 46.65500 24.41000 28.57600
C  47.21600 26.98900 30.88000
C  45.63300 22.33500 31.04800
C  46.57600 22.10700 26.26900
C  47.82900 26.68900 26.06800
N  46.34400 24.69900 30.72100
C  46.61300 25.83300 31.49200
C  46.32800 25.52400 32.96500
C  45.55600 24.10200 32.89900
C  45.89700 23.66900 31.47200
C  45.88700 23.02900 33.92300
C  45.55600 26.65500 33.73000
C  44.50500 26.17400 34.82400
H  44.34400 26.87800 36.21100
N  46.14500 22.46400 28.61200
C  45.79100 21.78600 29.72400
C  45.70400 20.38300 29.35400
C  46.00600 20.20700 28.02500
C  46.25600 21.63600 27.53200
C  45.34700 19.40400 30.50400
C  45.94300 19.03400 27.08200
O  46.19000 19.04500 25.90300
C  45.48200 17.72100 27.65100
N  46.93800 24.49900 26.42800
C  46.80100 23.32500 25.72100
C  47.13300 23.53700 24.26200
C  47.44500 25.08100 24.26000
C  47.44900 25.47200 25.65300
C  48.28800 22.71300 23.67000
C  46.33000 25.90300 23.43900
C  44.95400 25.91400 24.13800
N  47.34500 26.41300 28.45500
C  47.85900 27.16500 27.37600
C  48.40500 28.37100 27.84000
C  48.20000 28.35200 29.22500
C  47.55700 27.12700 29.55800
C  49.13900 29.40300 27.13500
C  48.39700 29.04300 30.44300
O  48.95100 30.09900 30.61500
C  47.72200 28.20200 31.55900
C  48.63900 27.99800 32.64800
O  49.48300 27.12000 32.78800
O  48.34500 28.89700 33.58400
C  48.96100 28.75900 34.91100
H  45.08000 21.72300 31.76400
H  46.66300 21.34700 25.49000
H  48.20200 27.32600 25.26400
H  47.28000 25.47700 33.49200
H  44.49100 24.32100 32.96700
H  46.70700 22.35700 33.66800
H  45.08600 22.41000 34.32800
H  46.24900 23.60200 34.77600
H  45.21900 27.49100 33.11700
H  46.39800 27.04100 34.30300
H  44.68600 25.11700 35.02200
H  43.53700 26.12700 34.32700
H  44.32300 19.50800 30.86200
H  46.11300 19.48400 31.27600
H  45.35500 18.39000 30.10400
H  45.19000 16.96800 26.92000
H  44.60200 17.98300 28.23900
H  46.27300 17.31900 28.28400
H  46.19400 23.47300 23.71200
H  48.46400 25.31300 23.95000
H  47.94000 22.10500 22.83500
H  48.59500 22.08000 24.50200
H  49.21400 23.19300 23.35200
H  46.21200 25.35200 22.50500
H  46.70300 26.91200 23.26300
H  44.99700 26.54400 25.02600
H  44.77200 24.88100 24.43500
H  44.16700 26.43200 23.59100
H  48.69200 29.63800 26.16900
H  50.14400 28.99800 27.01700
H  49.21800 30.20200 27.87100
H  46.86200 28.74100 31.95800
H  49.96800 29.16200 34.80300
H  48.89400 27.74100 35.29500
H  48.49600 29.42000 35.64200

