158

Mg 23.67500 -5.67400 45.88500
C  25.73900 -3.35900 44.11600
C  21.13200 -4.90300 43.59500
C  21.82500 -8.10300 47.18700
C  26.36600 -6.60600 47.86500
N  23.50500 -4.27200 44.06300
C  24.42000 -3.42200 43.59700
C  23.87100 -2.65000 42.35800
C  22.30500 -2.88200 42.53000
C  22.29900 -4.14400 43.40400
C  21.60500 -1.74400 43.32800
C  24.49200 -3.01400 40.97400
C  24.98500 -1.81300 40.17900
H  24.80000 -1.88700 38.59100
N  21.69600 -6.43000 45.44100
C  20.81900 -5.93900 44.48100
C  19.55100 -6.58900 44.70000
C  19.76200 -7.66900 45.55500
C  21.14100 -7.41900 46.13000
C  18.34800 -6.07800 43.93700
C  18.75200 -8.71700 45.96600
O  17.70200 -8.63900 45.36100
C  18.93000 -9.70000 47.05300
N  24.10200 -7.25400 47.23900
C  23.06800 -8.05700 47.72000
C  23.58600 -9.05300 48.75000
C  24.91700 -8.38700 49.24000
C  25.18500 -7.38800 48.05600
C  22.60600 -9.44000 49.89800
C  26.07400 -9.41200 49.54600
C  26.44600 -9.68800 50.97300
N  25.68000 -5.10400 46.02600
C  26.63000 -5.49200 46.93400
C  27.89000 -4.88200 46.62700
C  27.49500 -3.92400 45.64100
C  26.22100 -4.13300 45.26000
C  29.32800 -5.11200 47.26500
C  28.01600 -2.84600 44.83000
O  29.16400 -2.32000 44.82400
C  26.84500 -2.44500 43.78400
C  26.48000 -0.99400 44.01300
O  26.55900 -0.39700 45.08600
O  26.16300 -0.38700 42.90100
C  26.00400 1.04900 42.80400
H  20.34600 -4.57600 42.91100
H  21.17000 -8.87600 47.59400
H  27.21400 -6.58700 48.55300
H  24.08300 -1.62800 42.67300
H  21.74600 -3.00100 41.60200
H  22.31400 -0.93600 43.51100
H  21.30100 -2.14700 44.29400
H  20.81100 -1.23800 42.78100
H  23.70900 -3.53000 40.41800
H  25.30500 -3.73100 41.08900
H  25.94100 -1.38300 40.47900
H  24.29700 -1.02100 40.47100
H  17.96600 -5.35100 44.65400
H  17.59000 -6.84400 43.77700
H  18.57700 -5.72700 42.93100
H  18.14800 -10.45800 47.09100
H  19.04700 -9.19700 48.01300
H  19.81800 -10.30700 46.87700
H  23.77600 -9.92400 48.12300
H  24.75800 -7.88000 50.19100
H  21.62900 -8.95900 49.85700
H  23.04300 -9.26800 50.88200
H  22.49900 -10.49500 49.64700
H  27.04900 -9.13700 49.14500
H  25.80100 -10.29500 48.96800
H  27.29300 -9.12400 51.36300
H  26.65500 -10.74000 51.16600
H  25.49400 -9.48500 51.46400
H  29.59500 -6.14300 47.03200
H  29.20700 -4.94300 48.33500
H  30.11400 -4.47000 46.86700
H  27.27200 -2.53400 42.78500
H  26.01800 1.59100 43.75000
H  24.96000 1.21100 42.53700
H  26.50900 1.49700 41.94900
Mg 53.93900 24.41900 44.22200
C  51.14700 26.70400 43.86800
C  51.61500 21.92400 43.31500
C  56.39400 22.39000 43.85300
C  56.06300 27.15300 44.50500
N  51.66000 24.39800 43.36300
C  50.69100 25.37900 43.49500
C  49.30400 24.82700 43.13100
C  49.50000 23.28600 43.41600
C  51.03500 23.14500 43.39800
C  48.93800 22.76400 44.79900
C  49.01900 25.18000 41.68300
C  47.56100 25.14100 41.22900
H  47.40200 24.65000 39.77600
N  54.04600 22.48400 43.68200
C  53.03500 21.62000 43.30900
C  53.53100 20.26300 43.20500
C  54.93000 20.30000 43.46100
C  55.20900 21.73200 43.67100
C  52.58700 19.01700 42.91900
C  55.78600 19.08800 43.41300
O  55.30200 17.96700 43.17600
C  57.27900 19.13500 43.81600
N  55.98800 24.78700 43.95900
C  56.80400 23.72700 44.06500
C  58.24300 24.12400 44.31400
C  58.12600 25.62100 44.41400
C  56.62200 25.88800 44.28000
C  58.94100 23.38400 45.46000
C  58.95400 26.39400 43.32200
C  59.84600 27.52600 43.88400
N  53.71100 26.48900 44.34200
C  54.66200 27.47200 44.51100
C  53.94600 28.72200 44.71300
C  52.61100 28.48000 44.53200
C  52.50600 27.09200 44.21800
C  54.52300 30.01300 45.07400
C  51.36600 29.10200 44.57300
O  51.11600 30.25200 44.84100
C  50.34600 28.04700 44.09500
C  49.92900 28.47700 42.72300
O  50.65200 28.75100 41.75300
O  48.58500 28.72000 42.68400
C  47.86900 29.20200 41.43700
H  50.83400 21.20200 43.06800
H  57.28200 21.75500 43.89600
H  56.80900 27.93200 44.67700
H  48.53100 25.37100 43.67300
H  49.06300 22.71100 42.60000
H  49.00900 23.47000 45.62600
H  49.37400 21.80600 45.08000
H  47.86800 22.61100 44.65800
H  49.63700 24.52800 41.06500
H  49.33700 26.19900 41.46100
H  47.05400 26.08600 41.42400
H  47.14500 24.34300 41.84300
H  53.01200 18.48800 42.06500
H  51.58000 19.28700 42.60100
H  52.57500 18.39300 43.81300
H  57.62900 18.11800 43.99800
H  57.23600 19.70500 44.74300
H  57.83700 19.62600 43.01900
H  58.80800 23.68200 43.49400
H  58.25000 26.01000 45.42400
H  59.15800 24.11400 46.24000
H  59.79600 22.77400 45.16700
H  58.31400 22.68300 46.01200
H  58.32000 26.86100 42.56800
H  59.55800 25.66400 42.78400
H  59.80500 28.42800 43.27300
H  60.88100 27.19400 43.80000
H  59.50700 27.79600 44.88400
H  54.20700 30.39200 46.04600
H  54.07700 30.72200 44.37600
H  55.58600 29.89000 44.86700
H  49.46500 27.96000 44.73000
H  46.84500 29.49700 41.66500
H  47.89200 28.40300 40.69700
H  48.45800 30.00600 40.99500

