158

Mg 34.81300 3.50600 29.72800
C  32.85900 4.52800 32.36900
C  37.49400 3.22000 31.80800
C  36.82600 3.02100 27.07900
C  32.04500 3.83400 27.53500
N  35.17800 4.08400 31.91800
C  34.14000 4.15800 32.84400
C  34.76100 4.06000 34.23500
C  36.33100 3.84200 34.01000
C  36.36700 3.74600 32.43200
C  37.30900 4.98800 34.45200
C  34.09600 2.80900 34.94200
C  33.60300 3.07600 36.42600
H  34.27300 4.21400 37.15000
N  36.92700 3.08800 29.53000
C  37.82700 2.94200 30.49500
C  39.08800 2.42200 29.89000
C  38.88700 2.38700 28.46400
C  37.52700 2.86200 28.28500
C  40.28300 2.05500 30.70500
C  39.78700 1.90800 27.34200
O  39.49500 2.00200 26.12700
C  41.08000 1.23000 27.76800
N  34.42600 3.19200 27.62100
C  35.44500 3.17800 26.74300
C  34.93200 3.04100 25.32900
C  33.41800 2.98600 25.49800
C  33.25800 3.40400 26.96000
C  35.33100 4.32800 24.48600
C  32.76300 1.58800 25.19800
C  31.96600 1.47000 23.85900
N  32.89300 4.13300 29.88600
C  31.86700 4.24700 28.92100
C  30.64400 4.63800 29.58700
C  31.06400 4.84700 30.95500
C  32.41300 4.58800 31.03200
C  29.30500 4.71500 29.03000
C  30.52100 5.13700 32.26600
O  29.33500 5.32400 32.57700
C  31.66300 4.95300 33.25700
C  31.97800 6.16900 33.96300
O  32.52800 7.18300 33.60400
O  31.28100 6.06900 35.14000
C  31.09400 7.30000 35.90300
H  38.30000 3.02600 32.51900
H  37.34900 2.80900 26.14400
H  31.15000 3.68100 26.92800
H  34.61600 5.01000 34.75000
H  36.76900 2.92800 34.41000
H  38.13600 4.56600 35.02400
H  36.89400 5.81000 35.03400
H  37.78100 5.43100 33.57500
H  34.88100 2.05300 34.93400
H  33.29400 2.40000 34.32800
H  33.64600 2.17700 37.04100
H  32.56800 3.39900 36.31600
H  41.16400 2.47600 30.21900
H  40.44500 0.97800 30.66600
H  40.11900 2.42600 31.71600
H  41.39600 0.66900 26.88800
H  41.09900 0.57600 28.63900
H  41.81600 2.02500 27.88800
H  35.24100 2.17900 24.73800
H  32.95500 3.73200 24.85200
H  36.07400 4.83500 25.10200
H  34.55200 5.05900 24.26900
H  35.67700 4.05400 23.48900
H  32.19000 1.23600 26.05600
H  33.59000 0.88200 25.11900
H  30.96100 1.37700 24.27000
H  32.20900 0.63400 23.20200
H  31.99100 2.31400 23.16900
H  28.83500 5.68100 29.21000
H  28.64800 3.97800 29.49300
H  29.29500 4.64800 27.94200
H  31.61000 4.25600 34.09400
H  30.97300 7.13500 36.97400
H  30.38600 7.90400 35.33700
H  31.99900 7.90700 35.88800
Mg 54.52400 23.73600 44.06600
C  52.01400 26.01700 43.35500
C  52.36800 21.19500 43.37100
C  57.22000 21.71700 43.76400
C  56.69200 26.46900 44.72100
N  52.39500 23.61600 43.21600
C  51.53900 24.69000 42.99800
C  50.07500 24.22400 42.73600
C  50.24800 22.66200 43.09900
C  51.77100 22.42100 43.25800
C  49.54400 22.02000 44.28900
C  49.35600 24.56700 41.41200
C  50.29400 24.63100 40.13700
H  49.71200 25.40200 38.94200
N  54.78900 21.72400 43.69400
C  53.75600 20.83800 43.49000
C  54.30300 19.54400 43.27000
C  55.69200 19.63600 43.62800
C  55.96800 21.07800 43.67500
C  53.43200 18.33500 43.02400
C  56.61000 18.51600 43.96300
O  56.28800 17.32700 43.82500
C  58.02200 18.78400 44.57400
N  56.62300 24.12100 44.11800
C  57.51200 23.10600 44.00200
C  59.00900 23.50400 44.27600
C  58.83800 25.02700 44.32000
C  57.28500 25.21600 44.46100
C  59.64300 22.88400 45.54000
C  59.58400 25.83600 43.21200
C  58.79700 25.81800 41.86400
N  54.46900 25.79400 44.16700
C  55.34100 26.77000 44.55100
C  54.69700 28.05700 44.55800
C  53.32100 27.84900 44.23200
C  53.28800 26.43400 43.85600
C  55.30800 29.37200 44.86200
C  51.91000 28.39000 44.05400
O  51.45900 29.53500 44.22700
C  51.12800 27.23800 43.40900
C  50.72200 27.68000 42.02900
O  51.44600 27.56600 41.04000
O  49.43100 28.17600 42.02600
C  49.02200 28.69000 40.72600
H  51.74400 20.31900 43.18400
H  58.03800 21.02800 43.54400
H  57.35600 27.29400 44.98700
H  49.48500 24.62200 43.56200
H  49.95000 22.05000 42.24800
H  49.06700 21.10300 43.94300
H  48.86500 22.68600 44.82200
H  50.27400 21.63900 45.00300
H  48.88400 25.53100 41.60000
H  48.50000 23.91700 41.22800
H  50.32500 23.63600 39.69300
H  51.30700 24.83000 40.48600
H  54.03100 17.45400 42.79200
H  52.81200 18.43600 42.13200
H  52.84400 18.13200 43.91900
H  58.75500 18.82400 43.76800
H  58.19900 17.85700 45.11900
H  58.18800 19.56600 45.31500
H  59.51200 23.09000 43.40200
H  59.20100 25.40900 45.27400
H  58.92200 22.21500 46.00900
H  59.85700 23.74500 46.17300
H  60.52300 22.28500 45.31000
H  60.57600 25.40500 43.07900
H  59.72500 26.72600 43.82600
H  58.15800 24.93500 41.87900
H  59.49700 25.75200 41.03000
H  58.06900 26.62700 41.82400
H  55.78900 29.84400 44.00500
H  56.13700 29.25400 45.55900
H  54.55600 30.03900 45.28500
H  50.25100 27.09100 44.03900
H  48.18100 29.36800 40.86900
H  48.65900 27.97200 39.99100
H  49.77600 29.28700 40.21200

