158

Mg 3.03800 -1.55100 44.33100
C  6.56800 -1.50700 44.09600
C  2.91100 1.16600 42.53400
C  -0.24500 -2.29700 43.66000
C  3.41800 -4.84500 45.55300
N  4.60900 -0.38400 43.30600
C  5.96300 -0.49700 43.34200
C  6.70200 0.53900 42.52400
C  5.48100 1.48800 42.16400
C  4.19600 0.74100 42.77200
C  5.51400 2.99800 42.62700
C  7.58900 -0.04200 41.32200
C  8.91100 0.63600 40.95700
H  8.99200 1.03300 39.47900
N  1.49100 -0.58000 43.31700
C  1.66900 0.56400 42.70500
C  0.41500 1.03100 42.15500
C  -0.53300 -0.01300 42.39800
C  0.18500 -1.02100 43.12900
C  0.24600 2.29600 41.34800
C  -2.02700 -0.04800 41.89100
O  -2.53300 0.91000 41.39600
C  -2.89300 -1.27400 42.07800
N  1.77800 -3.32100 44.57800
C  0.46800 -3.33500 44.25800
C  -0.23300 -4.70300 44.64300
C  1.03200 -5.54000 45.22800
C  2.13500 -4.46200 45.15100
C  -1.45900 -4.54300 45.63900
C  1.31300 -6.92700 44.46200
C  1.00000 -8.20400 45.22300
N  4.61300 -2.87500 44.97900
C  4.60000 -4.15800 45.30800
C  5.92600 -4.68100 45.55400
C  6.70200 -3.57600 45.27000
C  5.91500 -2.55800 44.73000
C  6.26600 -6.05500 46.09700
C  8.08200 -3.13600 45.29900
O  9.01400 -3.73100 45.70300
C  8.07500 -1.78200 44.43800
C  8.57200 -0.77600 45.41500
O  8.35100 -0.71400 46.58800
O  9.31700 0.12300 44.72600
C  9.54600 1.42900 45.30300
H  2.90400 2.09400 41.95800
H  -1.27600 -2.63300 43.52600
H  3.51000 -5.88600 45.86800
H  7.43600 1.01900 43.17000
H  5.29600 1.53600 41.09100
H  5.51700 3.57500 41.70300
H  6.38700 3.36000 43.17000
H  4.59000 3.22800 43.15700
H  6.92500 0.06300 40.46300
H  7.73200 -1.10800 41.49700
H  9.63200 -0.16800 41.10800
H  9.21800 1.51400 41.52600
H  0.59100 3.18200 41.88200
H  -0.80600 2.32200 41.06300
H  0.82900 2.18400 40.43400
H  -3.95500 -1.20400 41.84300
H  -2.85000 -1.48400 43.14700
H  -2.44200 -2.12000 41.56100
H  -0.53900 -5.09100 43.67100
H  0.83400 -5.77100 46.27500
H  -1.55100 -3.52600 46.02100
H  -1.40000 -5.22700 46.48500
H  -2.35800 -4.78700 45.07400
H  2.33500 -7.10400 44.12600
H  0.78700 -7.03400 43.51400
H  0.08900 -8.62700 44.79900
H  0.82600 -7.96300 46.27200
H  1.83500 -8.90300 45.18700
H  6.57900 -6.64300 45.23400
H  5.38800 -6.49200 46.57400
H  7.02000 -5.94000 46.87600
H  8.58100 -1.85600 43.47500
H  9.15800 2.14300 44.57700
H  10.56700 1.71400 45.55600
H  8.91200 1.57700 46.17700
Mg 54.03900 23.75900 44.82200
C  51.60200 26.16300 43.90400
C  51.97000 21.30400 43.82900
C  56.72700 21.60000 44.81600
C  56.12900 26.45800 45.62100
N  52.11200 23.79200 43.89100
C  51.29600 24.83800 43.52900
C  49.97200 24.35100 42.98000
C  49.99000 22.84300 43.42600
C  51.45400 22.60300 43.70600
C  49.08300 22.35900 44.66600
C  49.84400 24.51000 41.41400
C  48.34800 24.45500 40.96200
H  48.06400 24.11300 39.49000
N  54.32300 21.67300 44.46900
C  53.27400 20.87700 44.15800
C  53.72000 19.51700 44.30200
C  55.14200 19.50000 44.44100
C  55.48200 20.97800 44.61600
C  52.78000 18.39400 44.33900
C  56.12900 18.36900 44.30800
O  55.68600 17.24600 44.17800
C  57.69000 18.48300 44.15900
N  56.18500 24.05500 44.96500
C  56.98900 22.98300 45.10600
C  58.42700 23.47300 45.34100
C  58.21200 24.95200 45.67700
C  56.73700 25.22200 45.36200
C  59.21800 22.58000 46.41000
C  59.12100 25.94200 44.86900
C  60.24100 26.53700 45.74600
N  53.90100 25.91500 45.02200
C  54.80500 26.85300 45.35600
C  54.22200 28.20100 45.34400
C  52.92400 27.92900 44.78700
C  52.85000 26.52400 44.51200
C  54.70700 29.46400 45.83700
C  51.68900 28.61900 44.38200
O  51.23500 29.77500 44.53500
C  50.84100 27.47700 43.69400
C  50.78200 27.73800 42.29700
O  51.76000 27.85300 41.57800
O  49.48300 27.96800 41.88100
C  49.31600 28.36800 40.48200
H  51.26700 20.47400 43.72300
H  57.53500 20.87300 44.92500
H  56.81900 27.24600 45.93100
H  49.17800 24.88100 43.50600
H  49.68300 22.14700 42.64500
H  49.64100 21.82800 45.43600
H  48.36900 21.59000 44.37000
H  48.57800 23.28300 44.94800
H  50.36500 23.70100 40.90100
H  50.31300 25.46200 41.16600
H  47.91600 25.38500 41.33000
H  47.97200 23.58900 41.50600
H  53.20400 17.52300 44.83800
H  52.36500 18.22100 43.34600
H  51.88400 18.72500 44.86400
H  58.14300 19.16000 43.43600
H  57.88800 17.46400 43.82700
H  58.18600 18.44000 45.12900
H  59.02300 23.45200 44.42800
H  58.42300 25.04600 46.74300
H  59.38800 23.17500 47.30700
H  60.19600 22.30700 46.01300
H  58.66700 21.71100 46.77000
H  58.53800 26.78700 44.50300
H  59.56200 25.53200 43.96100
H  61.21100 26.48900 45.25200
H  60.20400 26.23400 46.79200
H  60.00900 27.60000 45.66900
H  54.12200 30.23900 45.34100
H  55.68200 29.69800 45.41000
H  54.53800 29.46800 46.91300
H  49.82600 27.42900 44.08900
H  48.69300 27.59000 40.03900
H  50.22300 28.44300 39.88300
H  48.81200 29.33400 40.48100

