158

Mg 23.80000 -6.15900 46.92400
C  25.95400 -3.61600 45.84700
C  21.38500 -4.78700 44.86400
C  21.92000 -8.76100 47.69800
C  26.49400 -7.68800 48.54500
N  23.77100 -4.52500 45.38900
C  24.70300 -3.57400 45.31700
C  24.27500 -2.38700 44.40600
C  22.72000 -2.65300 44.37600
C  22.59800 -4.07600 44.91000
C  21.83400 -1.70500 45.18900
C  24.97500 -2.55300 43.03600
C  25.74000 -1.23200 42.50200
H  25.01400 -0.59700 41.16500
N  21.90800 -6.73800 46.28200
C  21.09600 -6.05400 45.43200
C  19.84300 -6.76600 45.29800
C  19.98700 -7.88700 46.15800
C  21.34200 -7.83400 46.76200
C  18.82600 -6.37600 44.31600
C  18.94300 -8.91600 46.38000
O  17.80700 -8.79500 45.90600
C  19.14900 -10.14700 47.22100
N  24.19700 -7.97800 47.93100
C  23.20400 -8.86300 48.12000
C  23.67400 -10.10800 48.93900
C  25.19100 -9.78200 49.19000
C  25.32200 -8.40900 48.53300
C  22.86400 -10.48400 50.20700
C  26.16000 -10.83800 48.46900
C  26.92300 -11.84200 49.49000
N  25.75300 -5.72300 47.27400
C  26.72400 -6.42700 47.95900
C  27.98400 -5.67800 47.94900
C  27.66300 -4.53000 47.13600
C  26.35200 -4.67800 46.72700
C  29.14500 -6.02900 48.74000
C  28.19600 -3.31400 46.58800
O  29.29100 -2.74600 46.76600
C  27.12900 -2.68900 45.73700
C  26.87400 -1.35700 46.13600
O  26.11500 -1.03900 47.06200
O  27.75400 -0.46100 45.52800
C  27.42300 0.96000 45.86400
H  20.53000 -4.22600 44.48000
H  21.22600 -9.47200 48.15100
H  27.34100 -8.13000 49.07400
H  24.41500 -1.42800 44.90600
H  22.40900 -2.59800 43.33300
H  21.37900 -2.28300 45.99500
H  21.00700 -1.33600 44.58200
H  22.38000 -0.93200 45.72900
H  24.25900 -2.80400 42.25300
H  25.71800 -3.35000 43.01300
H  26.75500 -1.52900 42.23800
H  25.73100 -0.53400 43.33900
H  18.50800 -7.13600 43.60200
H  19.29300 -5.58700 43.72600
H  17.96700 -5.88900 44.77800
H  18.34800 -10.87000 47.06500
H  19.22100 -9.91400 48.28400
H  20.06800 -10.58400 46.82900
H  23.52900 -10.97200 48.29000
H  25.46700 -9.57100 50.22300
H  21.95800 -9.87700 50.23800
H  23.37000 -10.23100 51.13900
H  22.70900 -11.56100 50.25800
H  26.97000 -10.36600 47.91500
H  25.56300 -11.32700 47.69900
H  26.34600 -11.76500 50.41100
H  27.98400 -11.61200 49.57900
H  26.84300 -12.89000 49.20000
H  28.75300 -6.53800 49.62100
H  29.75200 -5.15600 48.97700
H  29.81200 -6.62000 48.11300
H  27.42100 -2.61700 44.68900
H  28.22000 1.30800 46.52200
H  26.43500 1.15900 46.27700
H  27.53500 1.45200 44.89700
Mg 43.45000 4.89800 47.01300
C  41.20200 7.56900 47.12900
C  40.75700 2.80200 47.01400
C  45.66700 2.31600 46.64500
C  46.10300 7.13300 46.27400
N  41.23300 5.21000 47.08200
C  40.54000 6.32000 47.10400
C  39.02600 6.07100 47.19300
C  38.92700 4.55800 47.43300
C  40.40300 4.14200 47.11300
C  38.69100 4.23200 48.92500
C  38.23500 6.56500 45.92200
C  39.05600 6.61300 44.64500
H  38.30200 7.01100 43.36400
N  43.18500 2.81300 46.91700
C  42.01600 2.14600 46.87100
C  42.33600 0.73100 46.84100
C  43.78100 0.52800 46.98100
C  44.29500 1.94800 46.91600
C  41.24200 -0.30100 46.92400
C  44.51000 -0.76400 47.18500
O  43.85000 -1.76900 47.07800
C  46.08200 -0.85100 47.44400
N  45.52500 4.76300 46.43900
C  46.21900 3.60500 46.50400
C  47.73300 3.79700 46.20000
C  47.77200 5.38800 45.80800
C  46.37400 5.81900 46.19200
C  48.79300 3.46600 47.30500
C  48.16700 5.63700 44.27800
C  49.68000 5.91500 44.02500
N  43.67000 6.95000 46.62500
C  44.80900 7.70900 46.51200
C  44.37100 9.16300 46.59000
C  42.95400 9.13500 46.84200
C  42.65100 7.75300 46.87100
C  45.35100 10.28800 46.46900
C  41.81400 9.97600 47.15900
O  41.65300 11.22000 47.16900
C  40.63000 8.98300 47.21700
C  39.95200 9.23200 48.55000
O  40.37700 8.75100 49.58400
O  38.73900 9.76900 48.35000
C  37.69400 9.49000 49.40100
H  39.96000 2.08400 47.21900
H  46.44400 1.54900 46.66300
H  46.94600 7.81100 46.12700
H  38.55500 6.43500 48.10700
H  38.28400 4.09000 46.68700
H  38.09100 4.93400 49.50300
H  39.69100 4.08400 49.33400
H  38.25600 3.23300 48.89400
H  37.94800 7.55100 46.28800
H  37.33000 5.96000 45.85600
H  39.58800 5.67500 44.48800
H  39.88300 7.31300 44.76200
H  40.26600 0.11700 46.67700
H  41.17600 -0.57200 47.97700
H  41.45300 -1.23600 46.40500
H  46.31100 -0.17200 48.26500
H  46.72600 -0.73300 46.57300
H  46.33200 -1.84000 47.83000
H  47.85500 3.13100 45.34500
H  48.50600 5.90800 46.42400
H  49.47500 4.28300 47.54100
H  49.44600 2.64500 47.00800
H  48.24500 3.05500 48.15200
H  47.48300 6.37100 43.85000
H  47.92600 4.68400 43.80700
H  49.60500 6.68400 43.25500
H  50.21900 5.08900 43.56100
H  50.11700 6.39600 44.90000
H  45.58200 10.64100 47.47400
H  44.99100 11.19300 45.98000
H  46.24300 10.03600 45.89500
H  39.90500 9.08100 46.40900
H  36.96800 10.30100 49.34800
H  38.06200 9.29500 50.40800
H  37.20700 8.55100 49.13800

