158

Mg 44.09400 3.54400 46.84100
C  42.16400 6.33100 46.60700
C  41.33200 1.67600 46.12300
C  46.08300 0.84300 46.54100
C  47.00600 5.62000 47.30800
N  42.01100 4.03600 46.36900
C  41.41500 5.20800 46.31600
C  39.90800 5.17800 45.97700
C  39.68900 3.61300 45.92500
C  41.15400 3.05500 46.14200
C  38.68400 3.03900 46.97800
C  39.63000 5.92200 44.61000
C  40.70500 6.06400 43.54900
H  40.24700 6.29700 42.06700
N  43.69100 1.49600 46.61200
C  42.48600 0.93000 46.40400
C  42.68000 -0.51000 46.31800
C  44.10400 -0.73800 46.42900
C  44.70200 0.60900 46.51800
C  41.58500 -1.53700 45.98100
C  44.76500 -2.10100 46.33700
O  44.05600 -3.12600 46.27000
C  46.25000 -2.31000 46.35600
N  46.24400 3.29500 46.86700
C  46.76900 2.01300 46.87100
C  48.38500 2.10000 46.83500
C  48.62300 3.62500 46.95100
C  47.20200 4.21800 47.07400
C  49.06800 1.27600 48.05600
C  49.48200 4.24600 45.78300
C  50.97700 4.43200 46.06600
N  44.55800 5.56800 46.93700
C  45.72400 6.27400 47.32400
C  45.41800 7.69600 47.57300
C  43.99000 7.70500 47.19800
C  43.56300 6.43100 46.89000
C  46.44300 8.64500 47.98000
C  42.90800 8.67600 47.14900
O  42.81500 9.87900 47.41100
C  41.61000 7.78800 46.73700
C  40.61700 8.08700 47.83100
O  40.52300 7.56100 48.94300
O  39.69200 8.98800 47.33700
C  38.63800 9.21700 48.32800
H  40.46500 1.05400 45.89100
H  46.67400 -0.06400 46.40000
H  47.93100 6.19800 47.35300
H  39.29700 5.51700 46.81400
H  39.21400 3.41500 44.96400
H  38.57400 3.72200 47.82000
H  39.02200 2.06300 47.32600
H  37.64500 2.91400 46.67200
H  39.41300 6.94700 44.91000
H  38.64200 5.76000 44.17700
H  41.13300 5.06200 43.58500
H  41.44700 6.78700 43.88700
H  41.57300 -1.71600 44.90500
H  40.60100 -1.08900 46.12100
H  41.70900 -2.43100 46.59200
H  46.82400 -1.98500 45.48900
H  46.35100 -3.39000 46.46600
H  46.71900 -1.92400 47.26100
H  48.72800 1.64200 45.90700
H  49.07400 3.91400 47.90100
H  49.48200 0.34400 47.67100
H  48.27800 1.06500 48.77600
H  49.84400 1.92000 48.47000
H  49.08500 5.23200 45.53800
H  49.41400 3.57000 44.93100
H  51.18400 3.90500 46.99800
H  51.33900 5.45700 46.14000
H  51.55900 4.08400 45.21200
H  46.48600 9.53000 47.34600
H  47.44800 8.23100 47.89800
H  46.26400 8.94900 49.01100
H  41.14400 8.21600 45.85000
H  37.94900 8.39000 48.49800
H  38.03500 10.01700 47.89800
H  39.10000 9.62800 49.22600
Mg 47.65500 15.78400 28.35500
C  45.78900 15.36200 31.20300
C  49.72500 17.95500 30.11200
C  49.31400 16.48900 25.45400
C  45.20900 14.13000 26.54900
N  47.68400 16.59700 30.30300
C  46.94600 16.09700 31.31500
C  47.36600 16.76700 32.66000
C  48.42100 17.83600 32.29400
C  48.61600 17.45800 30.78500
C  47.99000 19.27900 32.62300
C  47.91300 15.75400 33.73000
C  47.40100 16.09500 35.14400
H  48.20700 15.73700 36.37600
N  49.37900 16.97500 27.89500
C  50.06700 17.76300 28.72100
C  51.26200 18.27700 28.03800
C  51.17000 17.94500 26.70600
C  49.93100 17.08500 26.64100
C  52.35400 19.07500 28.73500
C  52.03500 18.29000 25.55600
O  51.83100 17.90800 24.42700
C  53.24500 19.21400 25.81400
N  47.33100 15.34400 26.37200
C  48.17900 15.65400 25.32300
C  47.78700 15.00800 23.98000
C  46.45900 14.27600 24.28900
C  46.29800 14.64400 25.82700
C  47.56500 16.03800 22.76200
C  46.42500 12.78900 23.93100
C  45.83900 12.42100 22.58800
N  45.88400 14.80400 28.69600
C  44.96900 14.18700 27.90800
C  43.84600 13.75600 28.65200
C  44.17800 14.21800 29.93600
C  45.40200 14.83800 29.95300
C  42.67300 12.86700 28.41300
C  43.60300 14.29600 31.21100
O  42.57700 13.79600 31.65000
C  44.62400 15.04400 32.12200
C  43.90400 16.18700 32.63200
O  43.50800 17.12500 31.98000
O  43.64200 15.99200 34.00100
C  42.75200 16.89400 34.61200
H  50.35500 18.69500 30.61100
H  49.75900 16.80300 24.50800
H  44.41000 13.75400 25.90600
H  46.51200 17.25100 33.13500
H  49.34200 17.70300 32.86000
H  48.73700 19.76900 33.24700
H  47.08400 19.21000 33.22600
H  47.78800 19.84400 31.71200
H  49.00300 15.78600 33.73500
H  47.61900 14.73500 33.47700
H  46.37500 15.72600 35.12300
H  47.33100 17.18200 35.18200
H  53.33500 18.66600 28.49300
H  52.35900 19.08600 29.82500
H  52.28600 20.11100 28.40600
H  54.02600 18.79600 26.44900
H  52.94500 20.19300 26.18700
H  53.65800 19.43600 24.82900
H  48.59900 14.35100 23.66900
H  45.61600 14.72000 23.75900
H  48.44100 16.63100 22.50000
H  46.74900 16.66400 23.12500
H  47.15300 15.40100 21.97800
H  45.96000 12.11000 24.64500
H  47.47500 12.50500 23.99000
H  46.53200 11.88800 21.93600
H  45.48900 13.34500 22.12800
H  45.02200 11.71800 22.74900
H  42.50900 12.77200 27.34000
H  41.81600 13.35300 28.87800
H  42.98400 11.90100 28.81300
H  44.92900 14.34300 32.89800
H  41.84100 16.30600 34.50400
H  42.53600 17.81600 34.07300
H  42.87200 17.17400 35.65800

