158

Mg 48.28000 34.98000 27.36100
C  46.49400 33.45200 30.06600
C  49.08100 37.47600 29.35200
C  49.88500 36.28800 24.73400
C  46.96800 32.46000 25.31900
N  47.78500 35.30200 29.47000
C  47.15900 34.57300 30.45200
C  47.38800 35.14100 31.86200
C  47.89200 36.57600 31.49100
C  48.25200 36.48000 29.94700
C  46.85200 37.78600 31.85600
C  48.31900 34.24100 32.70300
C  47.87100 33.94100 34.13700
H  46.98900 35.00700 34.85000
N  49.43000 36.56900 27.14000
C  49.69300 37.53200 28.05900
C  50.63100 38.50900 27.52700
C  50.95200 38.15900 26.17500
C  50.11100 36.97400 25.95600
C  51.10500 39.70700 28.38700
C  51.74100 38.92900 25.14700
O  51.91300 38.61700 23.94000
C  52.31100 40.20300 25.64700
N  48.44000 34.35000 25.34200
C  49.10500 35.09200 24.41200
C  49.03100 34.47200 22.96800
C  48.29300 33.16100 23.26600
C  47.84500 33.29500 24.73100
C  48.29600 35.32500 21.88000
C  49.22600 32.01500 23.07700
C  48.72200 30.75000 22.39600
N  46.95600 33.35700 27.55500
C  46.59900 32.36300 26.67100
C  45.92200 31.20300 27.38400
C  45.80000 31.72400 28.66600
C  46.49900 32.94900 28.76200
C  45.38100 29.93600 26.69300
C  45.25800 31.46300 29.95200
O  44.55000 30.55400 30.27200
C  45.60700 32.62600 30.90300
C  46.16500 31.87400 32.03100
O  47.36200 31.49100 32.03300
O  45.15800 31.53700 32.96700
C  45.58000 30.52000 33.85800
H  49.52100 38.10800 30.12600
H  50.37600 36.75100 23.87500
H  46.75400 31.55600 24.74600
H  46.45400 35.08300 32.42100
H  48.85900 36.75500 31.96200
H  47.37100 38.35300 32.62900
H  45.90600 37.36500 32.19600
H  46.57800 38.32600 30.95000
H  49.26000 34.72900 32.95800
H  48.54300 33.43800 32.00200
H  48.78300 33.79600 34.71700
H  47.41100 32.97300 34.33500
H  50.86500 39.52600 29.43400
H  50.48400 40.55500 28.09900
H  52.11900 40.05700 28.18900
H  53.06600 39.98400 26.40300
H  51.55300 40.92200 25.95800
H  52.77300 40.64600 24.76500
H  50.05900 34.37300 22.61700
H  47.51900 33.05700 22.50500
H  48.98300 35.68300 21.11300
H  47.64300 36.06600 22.34100
H  47.59800 34.75200 21.26800
H  49.66400 31.67800 24.01700
H  50.08500 32.36700 22.50700
H  49.31600 30.43900 21.53600
H  47.66500 30.84500 22.14600
H  48.84000 29.99000 23.16800
H  44.58400 30.19800 25.99700
H  45.16700 29.21100 27.47700
H  46.18400 29.55800 26.06000
H  44.70500 33.15500 31.21100
H  45.63500 29.54900 33.36700
H  44.87400 30.32200 34.66400
H  46.55300 30.64700 34.33300
Mg -4.29400 25.47700 26.21300
C  -2.99700 26.82800 29.17500
C  -6.20400 23.37100 28.08000
C  -5.06900 23.85400 23.36400
C  -2.29000 27.62100 24.38200
N  -4.39100 25.02100 28.33300
C  -3.90200 25.75900 29.37200
C  -4.34500 25.26300 30.77700
C  -5.30000 24.05600 30.35200
C  -5.30300 24.16300 28.82600
C  -4.99200 22.66000 31.08700
C  -5.21500 26.39700 31.40200
C  -5.27000 26.61700 32.96500
H  -4.89500 25.39300 33.85200
N  -5.57900 23.92900 25.74900
C  -6.32600 23.26500 26.68100
C  -7.29700 22.41100 25.98900
C  -6.98300 22.52100 24.54800
C  -5.81500 23.46100 24.50600
C  -8.44300 21.52100 26.72100
C  -7.67300 21.90700 23.30700
O  -7.34700 22.20300 22.13200
C  -8.80200 20.96400 23.51100
N  -3.67400 25.72000 24.11500
C  -4.13900 24.86600 23.17600
C  -3.49300 25.18200 21.84400
C  -2.74700 26.52000 22.14300
C  -2.88700 26.65500 23.58300
C  -2.71400 23.90200 21.22100
C  -3.36100 27.73800 21.35500
C  -2.37200 28.62800 20.64000
N  -2.87300 26.86000 26.63400
C  -2.21300 27.73600 25.83100
C  -1.41500 28.66800 26.55600
C  -1.69400 28.30700 27.86800
C  -2.59100 27.25300 27.88500
C  -0.47400 29.78200 26.08700
C  -1.36500 28.61700 29.18700
O  -0.55300 29.44000 29.61500
C  -2.26500 27.72600 30.15500
C  -1.42700 26.98500 31.12500
O  -0.68300 25.98500 30.94700
O  -1.79700 27.49100 32.34700
C  -1.06900 26.82400 33.41500
H  -6.84800 22.74600 28.70200
H  -5.29400 23.33800 22.42900
H  -1.64600 28.30100 23.82100
H  -3.60600 24.81400 31.44200
H  -6.34100 24.29900 30.56600
H  -4.81700 21.97400 30.25800
H  -5.93400 22.43900 31.58800
H  -4.11700 22.77900 31.72600
H  -6.25200 26.35400 31.07000
H  -4.91100 27.33500 30.93900
H  -6.26200 27.03900 33.12400
H  -4.54800 27.38000 33.25500
H  -9.37700 21.70100 26.18800
H  -8.51100 21.87500 27.75000
H  -8.10600 20.48400 26.72300
H  -8.37700 20.09600 24.01500
H  -9.15700 20.68300 22.52000
H  -9.68800 21.40900 23.96400
H  -4.39700 25.35600 21.26000
H  -1.72100 26.23400 21.91200
H  -3.19200 23.48000 20.33700
H  -2.54000 23.08500 21.92100
H  -1.72500 24.26600 20.94300
H  -4.10800 28.28000 21.93500
H  -4.00900 27.26400 20.61800
H  -1.32800 28.54700 20.94300
H  -2.67500 29.66700 20.76500
H  -2.39800 28.43000 19.56800
H  -1.13900 30.54300 25.67800
H  0.24000 29.38300 25.36700
H  0.07700 30.16700 26.94400
H  -2.95800 28.31100 30.75900
H  -1.24500 25.75000 33.35000
H  -1.41300 27.18600 34.38400
H  -0.02200 27.03200 33.19700

