158

Mg 48.77100 35.20500 27.92100
C  46.77800 33.57000 30.33500
C  48.58400 38.01200 30.00400
C  50.14600 36.98300 25.46900
C  48.43600 32.38400 25.88100
N  47.90900 35.72100 30.01400
C  47.20800 34.82300 30.81900
C  47.15200 35.37800 32.20000
C  47.17000 36.88400 31.86000
C  47.93500 36.92700 30.59100
C  45.72800 37.60400 31.83100
C  48.43200 34.97900 33.08700
C  48.05400 34.80100 34.58600
H  47.21900 35.85600 35.26900
N  49.38000 37.19800 27.75400
C  49.29100 38.12500 28.80600
C  49.91700 39.35200 28.24900
C  50.33900 39.15500 26.89500
C  49.99600 37.71900 26.64000
C  50.07800 40.58800 29.12400
C  51.08100 40.08400 25.78600
O  51.56600 39.75600 24.72400
C  51.37100 41.52400 26.15600
N  49.15900 34.74200 25.96300
C  49.81000 35.65400 25.11100
C  49.94300 35.08300 23.75700
C  49.63000 33.58300 23.94000
C  49.08200 33.52800 25.35500
C  49.00800 35.89400 22.73000
C  50.92500 32.65600 23.86100
C  50.87300 31.75100 22.63600
N  47.76900 33.35300 28.01600
C  47.77200 32.34400 27.10700
C  47.00200 31.20000 27.71900
C  46.48600 31.68200 28.93000
C  47.08800 32.95900 29.12600
C  46.84700 29.81900 27.20700
C  45.79500 31.31700 30.12900
O  45.20700 30.28400 30.41700
C  45.78900 32.60600 30.97200
C  45.93700 32.20100 32.39000
O  46.99400 31.95500 32.92700
O  44.68800 32.19100 33.01800
C  44.74500 32.04200 34.49000
H  48.63100 38.90500 30.63100
H  50.51200 37.52800 24.59700
H  48.50800 31.49000 25.25800
H  46.31300 35.04300 32.80800
H  47.84700 37.40000 32.54000
H  44.87500 36.95500 32.03300
H  45.51600 37.95700 30.82100
H  45.67000 38.55400 32.36200
H  49.27300 35.67000 33.13400
H  48.78000 34.02000 32.70300
H  49.01700 34.65800 35.07800
H  47.44800 33.91200 34.75800
H  49.22200 41.26200 29.08400
H  50.95100 41.20700 28.91900
H  50.10500 40.34500 30.18700
H  52.07900 41.73700 26.95800
H  50.34300 41.83000 26.34800
H  51.78100 42.03500 25.28500
H  50.96200 35.22900 23.40100
H  48.82800 33.31600 23.25100
H  48.45200 36.50900 23.43700
H  48.21700 35.27300 22.31100
H  49.51400 36.49400 21.97400
H  50.96900 31.95200 24.69200
H  51.88400 33.17100 23.82400
H  51.13900 30.72300 22.88300
H  51.70400 32.01500 21.98100
H  49.97400 31.77700 22.02000
H  47.68400 29.48900 26.59100
H  45.95300 29.80000 26.58400
H  46.69700 29.18200 28.07800
H  44.79600 33.03300 30.83100
H  43.75200 32.01000 34.93700
H  45.22800 32.94400 34.86700
H  45.39400 31.21900 34.79300
Mg 0.70900 42.34500 26.02900
C  2.28900 42.40200 29.25200
C  -2.18800 41.31800 27.77400
C  -0.61600 41.58300 23.15200
C  3.63400 43.35200 24.67500
N  0.07500 42.16600 28.37900
C  0.93800 42.16900 29.44800
C  0.20400 41.96000 30.79500
C  -1.16200 41.48300 30.28800
C  -1.14200 41.71100 28.70500
C  -1.41400 40.01500 30.73100
C  0.19000 43.35700 31.59000
C  0.40600 43.38400 33.13000
H  0.14800 42.10300 33.88400
N  -1.16300 41.66200 25.46400
C  -2.21300 41.30900 26.35300
C  -3.34700 40.86600 25.56100
C  -2.92200 41.01300 24.21000
C  -1.53900 41.39400 24.23000
C  -4.66000 40.54500 26.26500
C  -3.74400 40.73300 22.96300
O  -3.36100 40.93000 21.80700
C  -5.16800 40.28300 23.12300
N  1.48100 42.18800 24.24400
C  0.74700 41.97000 23.14300
C  1.51300 42.31400 21.80600
C  2.79400 42.98400 22.35400
C  2.59500 42.95500 23.85100
C  1.73200 41.00100 21.10600
C  3.03700 44.45900 21.76600
C  1.84200 45.41800 21.67200
N  2.66600 42.82800 26.70100
C  3.77300 43.19000 26.00900
C  4.88300 43.27200 26.92000
C  4.38200 42.93700 28.17000
C  2.96400 42.72000 28.04900
C  6.30000 43.72600 26.69300
C  4.72400 42.74900 29.57200
O  5.78000 42.68200 30.18900
C  3.29700 42.56700 30.30600
C  3.45100 41.42200 31.25000
O  3.19400 40.26200 30.99500
O  3.93000 41.88200 32.43600
C  4.08000 40.83000 33.47300
H  -3.01800 40.94400 28.37800
H  -1.00200 41.45600 22.13900
H  4.45100 43.80600 24.10800
H  0.76400 41.26500 31.42200
H  -1.97600 42.08200 30.69500
H  -2.39100 39.99300 31.21400
H  -0.66100 39.75700 31.47600
H  -1.32400 39.30500 29.90900
H  -0.79200 43.82200 31.49700
H  0.93800 44.04300 31.19400
H  -0.24000 44.11300 33.61700
H  1.43600 43.69700 33.30300
H  -4.29000 40.02200 27.14700
H  -5.36900 39.94700 25.69200
H  -5.19000 41.42600 26.62500
H  -5.60000 40.11200 22.13700
H  -5.77500 41.08900 23.53500
H  -5.10800 39.41400 23.77900
H  1.01700 42.96500 21.08600
H  3.72700 42.45900 22.14600
H  2.73100 40.98900 20.67000
H  0.95700 40.92200 20.34400
H  1.63200 40.10000 21.71100
H  3.59200 44.46500 20.82700
H  3.69100 45.06200 22.39600
H  0.93000 45.04500 22.13900
H  1.76100 45.64900 20.61000
H  2.10300 46.36000 22.15500
H  6.91700 42.88200 26.38700
H  6.63100 44.18200 27.62700
H  6.26300 44.51100 25.93800
H  3.13600 43.44300 30.93500
H  5.10900 40.47000 33.47300
H  3.47000 39.95300 33.25800
H  3.83300 41.26600 34.44100

