158

Mg 5.32600 54.12900 41.38000
C  5.00800 50.69900 40.88500
C  8.73400 53.79500 40.41000
C  5.76900 57.39400 41.54600
C  2.00600 54.22700 42.07000
N  6.61400 52.55200 40.48800
C  6.18900 51.25100 40.40100
C  7.38800 50.38100 39.90500
C  8.58800 51.32200 40.18400
C  7.92500 52.62600 40.37500
C  9.61200 50.91200 41.32500
C  7.27800 49.84600 38.45300
C  6.52000 50.84500 37.41700
H  5.83600 50.20000 36.16500
N  7.03100 55.43300 41.01800
C  8.30100 55.13800 40.65100
C  9.07800 56.35500 40.64000
C  8.29400 57.45300 41.04900
C  6.97000 56.77900 41.28100
C  10.54900 56.41500 40.25400
C  8.70600 58.94200 41.15200
O  9.78800 59.36200 40.68400
C  7.77300 59.97000 41.79700
N  4.07200 55.67100 41.71500
C  4.48300 56.90300 41.87000
C  3.20600 57.84700 41.96600
C  2.07900 56.82000 42.12800
C  2.76000 55.48000 41.90800
C  3.23000 58.82500 43.08600
C  0.96500 56.94700 41.16100
C  0.45200 58.32900 40.70400
N  3.79000 52.76300 41.52800
C  2.51500 52.91300 41.94500
C  1.89600 51.60400 42.01900
C  2.85700 50.73600 41.65300
C  3.94200 51.44600 41.36600
C  0.42800 51.35800 42.51500
C  3.08900 49.29100 41.54300
O  2.34700 48.30000 41.67800
C  4.57500 49.25800 41.04500
C  4.44900 48.55000 39.79000
O  4.09100 49.07500 38.74400
O  4.72000 47.24400 39.95400
C  4.65500 46.33200 38.77400
H  9.82000 53.68400 40.36700
H  5.71300 58.48400 41.50500
H  0.93200 54.36700 42.20600
H  7.46400 49.53400 40.58700
H  9.14800 51.49700 39.26600
H  9.51600 49.84600 41.53300
H  9.45100 51.47100 42.24700
H  10.62500 51.16300 41.00900
H  6.76200 48.88600 38.42000
H  8.29500 49.87000 38.06200
H  7.21900 51.58500 37.02900
H  5.71000 51.36100 37.93300
H  10.65000 56.82000 39.24700
H  10.96300 55.41000 40.16700
H  11.19600 56.99200 40.91400
H  8.39200 60.82100 42.08000
H  7.49200 59.48000 42.72900
H  6.94000 60.10400 41.10700
H  3.14100 58.38300 41.01900
H  1.62000 56.83800 43.11600
H  3.14100 59.80000 42.60800
H  4.21200 58.79800 43.55900
H  2.47600 58.72400 43.86700
H  0.14900 56.47100 41.70500
H  1.23500 56.34900 40.29100
H  0.85800 58.46000 39.70100
H  0.83600 59.11700 41.35100
H  -0.63700 58.28700 40.70600
H  0.49800 51.66200 43.55900
H  0.20100 50.31900 42.27500
H  -0.16000 52.09400 41.96500
H  5.19500 48.68600 41.73600
H  5.04900 46.71500 37.83300
H  3.66600 45.93100 38.55400
H  5.42200 45.56500 38.88500
Mg 16.68700 52.45400 26.39700
C  18.41300 50.90200 29.12400
C  14.11700 53.19400 28.63300
C  14.84600 53.52600 23.75900
C  18.79200 50.69000 24.17300
N  16.28700 51.95700 28.60500
C  17.19100 51.49900 29.53500
C  16.75900 51.74800 30.92800
C  15.23700 52.13800 30.71600
C  15.18900 52.51200 29.19300
C  14.17700 51.10500 31.29000
C  17.65700 52.83300 31.58300
C  18.01300 52.59400 33.10900
H  17.05500 51.68600 33.91000
N  14.77000 53.47600 26.27700
C  13.91800 53.61900 27.27300
C  12.74700 54.41200 26.75200
C  12.96700 54.57400 25.31100
C  14.19300 53.81100 25.07200
C  11.65300 54.87800 27.62100
C  12.09400 55.25000 24.25600
O  12.52000 55.31800 23.08700
C  10.84400 55.91900 24.69600
N  16.81200 52.17700 24.29600
C  16.04100 52.86000 23.40300
C  16.51800 52.63600 21.93700
C  17.91800 52.03200 22.15200
C  17.78000 51.45100 23.61100
C  15.60200 51.76300 21.11300
C  19.15900 52.95600 21.93400
C  20.15900 52.55600 20.80600
N  18.34500 51.13300 26.54000
C  19.10000 50.54100 25.54600
C  20.19300 49.79000 26.20000
C  19.96900 49.89400 27.54800
C  18.80100 50.68400 27.71800
C  21.31600 49.02500 25.53500
C  20.46400 49.58100 28.83400
O  21.41400 48.96000 29.25200
C  19.48900 50.21600 29.91700
C  18.92300 49.03500 30.66700
O  18.26700 48.18500 30.10000
O  19.10500 49.17400 31.99100
C  18.80000 48.04900 32.89400
H  13.33100 53.36000 29.37200
H  14.41900 54.00100 22.87300
H  19.48800 50.29300 23.43100
H  16.81200 50.76300 31.39100
H  15.05200 53.09800 31.19800
H  14.58000 50.18100 31.70400
H  13.56100 50.81100 30.43900
H  13.74600 51.64300 32.13400
H  17.12700 53.78000 31.48700
H  18.60100 52.85900 31.03900
H  17.94000 53.63400 33.42600
H  19.02900 52.22500 33.24400
H  10.65400 54.58200 27.30100
H  11.73200 55.96400 27.67700
H  11.69300 54.52000 28.65000
H  11.04700 56.62700 25.49900
H  10.09400 55.18400 24.98900
H  10.38600 56.43900 23.85400
H  16.59600 53.66900 21.59800
H  18.00500 51.15500 21.51100
H  16.16000 51.26000 20.32300
H  14.83600 52.39100 20.65700
H  14.97000 51.02200 21.60100
H  19.85000 52.80600 22.76300
H  18.97600 54.02700 21.85600
H  20.16700 53.38000 20.09200
H  19.74200 51.67700 20.31500
H  21.15700 52.46900 21.23500
H  21.89100 48.38100 26.20000
H  22.03800 49.75500 25.16800
H  20.95500 48.29300 24.81400
H  20.08400 50.86700 30.55800
H  19.60000 47.95500 33.63000
H  18.89800 47.06900 32.42700
H  17.80700 48.08600 33.34300

