158

Mg -12.18400 38.72000 41.36700
C  -9.86600 36.08900 40.58200
C  -9.89700 40.94800 39.69200
C  -14.47700 41.17300 41.29800
C  -14.51500 36.47500 42.18800
N  -10.09900 38.45700 40.14600
C  -9.38500 37.31600 40.04300
C  -8.12300 37.51700 39.17500
C  -8.08600 39.08900 39.00800
C  -9.45600 39.58500 39.66300
C  -6.79600 39.80600 39.55100
C  -8.15400 36.80100 37.78400
C  -7.00600 35.89200 37.42300
H  -5.90600 36.51000 36.56400
N  -12.12900 40.84700 40.79800
C  -11.04900 41.51300 40.24700
C  -11.44100 42.89100 40.02000
C  -12.79700 43.01500 40.38600
C  -13.22900 41.66200 40.85000
C  -10.54300 43.92800 39.33100
C  -13.63800 44.29600 40.36500
O  -13.05400 45.28500 40.00700
C  -15.09900 44.41400 40.76000
N  -14.12700 38.80000 41.65300
C  -14.83700 39.91400 41.73300
C  -16.23100 39.67600 42.26000
C  -16.30100 38.15100 42.28100
C  -14.90300 37.77800 42.08000
C  -16.48600 40.51300 43.48800
C  -17.30100 37.46900 41.34300
C  -18.15100 36.29700 41.94700
N  -12.16000 36.74100 41.54100
C  -13.21800 35.92100 41.92700
C  -12.75700 34.61400 42.15100
C  -11.45400 34.66900 41.55800
C  -11.14100 35.99200 41.20700
C  -13.47700 33.48700 42.81100
C  -10.30700 33.82500 41.26800
O  -10.11700 32.61200 41.53200
C  -9.28900 34.72400 40.65600
C  -7.98600 34.47800 41.42300
O  -7.27000 33.52900 41.27200
O  -7.77100 35.45100 42.37100
C  -6.73100 35.09000 43.26100
H  -9.24700 41.58400 39.08700
H  -15.33300 41.85000 41.30700
H  -15.34000 35.79200 42.40100
H  -7.29600 37.16500 39.79200
H  -8.17500 39.38300 37.96300
H  -6.23600 39.12700 40.19300
H  -6.92700 40.72000 40.13100
H  -6.09800 40.11200 38.77100
H  -8.42000 37.44500 36.94500
H  -8.98900 36.11900 37.93800
H  -7.22800 34.97300 36.88100
H  -6.51400 35.65100 38.36500
H  -11.07900 44.65900 38.72500
H  -9.81100 43.39200 38.72700
H  -9.87100 44.29200 40.10900
H  -15.41300 45.45300 40.65400
H  -15.27900 44.26100 41.82400
H  -15.84900 43.80900 40.25000
H  -16.92700 39.93900 41.46400
H  -16.62200 37.90500 43.29300
H  -15.62400 41.16600 43.62800
H  -16.60100 39.95600 44.41700
H  -17.35600 41.13400 43.27300
H  -16.65900 37.13700 40.52800
H  -17.92000 38.23400 40.87500
H  -19.13200 36.27800 41.47200
H  -18.28000 36.45900 43.01700
H  -17.65700 35.34000 41.78300
H  -12.71700 32.84300 43.25400
H  -14.14000 33.07400 42.05100
H  -13.94700 33.98100 43.66100
H  -9.10500 34.46200 39.61400
H  -5.81200 34.91300 42.70100
H  -6.91400 34.17400 43.82200
H  -6.65400 35.90100 43.98500
Mg -2.20600 34.79300 26.34600
C  -3.72600 33.61200 29.32800
C  -0.36900 36.92500 28.40400
C  -0.97000 36.12500 23.67000
C  -4.10800 32.61000 24.41500
N  -2.20900 35.31200 28.57000
C  -2.78500 34.58600 29.60000
C  -2.28800 34.99900 31.01100
C  -1.34000 36.25300 30.68100
C  -1.28400 36.13300 29.12900
C  -2.00400 37.61800 31.13000
C  -1.60300 33.87500 31.82000
C  -1.59800 33.95700 33.34200
H  -2.52700 33.10300 34.15800
N  -0.78100 36.30900 26.02200
C  -0.11200 36.99200 27.02700
C  0.91200 37.81100 26.35800
C  0.78000 37.61900 24.93600
C  -0.40200 36.66500 24.82700
C  1.94100 38.62500 27.09400
C  1.76900 37.97700 23.85700
O  1.67700 37.49900 22.77000
C  3.05500 38.71800 24.24400
N  -2.53600 34.51700 24.36400
C  -1.95100 35.24500 23.37600
C  -2.19500 34.62400 22.03100
C  -2.88400 33.25000 22.25200
C  -3.18200 33.41700 23.76700
C  -2.87100 35.48800 20.94600
C  -2.00100 32.01800 22.00200
C  -2.68600 30.83400 21.18600
N  -3.66600 33.43900 26.72300
C  -4.29000 32.57500 25.86000
C  -5.12000 31.66500 26.63400
C  -4.93200 32.01100 27.95400
C  -4.04000 33.14200 27.99900
C  -6.01200 30.62900 26.07300
C  -5.28200 31.59300 29.32300
O  -5.96600 30.68400 29.78900
C  -4.56400 32.68500 30.21600
C  -5.70000 33.29000 30.88500
O  -6.68000 33.84800 30.41800
O  -5.58200 32.96600 32.19600
C  -6.70000 33.47100 33.08600
H  0.26800 37.47900 29.09600
H  -0.51300 36.53300 22.76600
H  -4.61400 31.84100 23.82800
H  -3.20100 35.22100 31.56300
H  -0.35800 36.13400 31.14000
H  -1.43600 38.00000 31.97800
H  -3.07000 37.47800 31.30900
H  -1.94900 38.39400 30.36600
H  -0.54900 33.87800 31.54000
H  -1.91300 32.87400 31.51900
H  -1.69500 34.97200 33.72700
H  -0.59100 33.68500 33.65800
H  1.80300 38.60400 28.17500
H  1.81400 39.69400 26.92300
H  3.00000 38.42400 26.93000
H  2.87100 39.57600 24.89100
H  3.56300 38.97900 23.31500
H  3.54300 37.92300 24.80800
H  -1.17200 34.45000 21.69800
H  -3.85500 33.29300 21.75800
H  -2.14900 35.83900 20.20900
H  -3.31200 36.38600 21.37800
H  -3.72600 34.95700 20.52600
H  -1.80900 31.58500 22.98300
H  -1.01900 32.22700 21.57800
H  -1.95400 30.03000 21.10900
H  -3.02200 31.19600 20.21500
H  -3.52900 30.49200 21.78600
H  -6.88900 31.20500 25.77800
H  -6.31600 29.89200 26.81700
H  -5.56900 30.17100 25.18900
H  -3.84700 32.24200 30.90700
H  -6.83400 34.53300 32.88200
H  -6.29100 33.48800 34.09700
H  -7.67100 32.98100 33.01300

