158

Mg 43.89300 3.01200 46.96300
C  42.04700 6.04200 46.82800
C  40.78400 1.31100 46.96400
C  45.62700 0.15900 46.64800
C  46.91700 4.85900 46.70900
N  41.72400 3.55900 46.81300
C  41.25800 4.84500 46.76700
C  39.77900 4.87500 47.19800
C  39.35800 3.36400 47.30300
C  40.69400 2.69500 47.04200
C  38.84300 2.96100 48.69700
C  38.77000 5.74800 46.23000
C  39.15000 6.25100 44.80900
H  38.24300 5.90600 43.60300
N  43.33200 1.04400 46.67500
C  42.03700 0.57600 46.69300
C  42.03200 -0.87900 46.57500
C  43.37900 -1.24300 46.34100
C  44.20500 -0.03500 46.57700
C  40.69100 -1.81900 46.61400
C  43.74200 -2.68600 45.97600
O  42.84600 -3.57600 45.83500
C  45.16100 -3.04300 45.70400
N  46.01600 2.63900 46.59300
C  46.46100 1.33500 46.63900
C  47.99300 1.27700 46.60400
C  48.43700 2.81400 46.65200
C  47.04900 3.48900 46.69900
C  48.53200 0.27300 47.59800
C  49.28700 3.34500 45.45700
C  50.40700 4.33700 45.74900
N  44.39200 5.04800 46.81800
C  45.66900 5.63500 46.72100
C  45.51900 7.12500 46.72800
C  44.09200 7.30200 46.88600
C  43.44100 6.00300 46.87600
C  46.60200 8.06400 46.67600
C  43.02000 8.30000 47.09700
O  42.93900 9.51900 47.17800
C  41.71500 7.44500 46.98700
C  40.98700 7.78900 48.26200
O  41.17000 7.31300 49.37300
O  39.93100 8.63000 47.92000
C  38.97800 8.93200 48.98400
H  39.86000 0.74700 47.10600
H  46.28000 -0.71200 46.73300
H  47.90700 5.30800 46.81600
H  39.66000 5.30800 48.19100
H  38.65300 3.06500 46.52800
H  38.39500 3.70000 49.36100
H  39.75400 2.58500 49.16300
H  38.17000 2.10500 48.73900
H  38.54100 6.59800 46.87200
H  37.82000 5.21600 46.27800
H  40.08300 5.72800 44.60200
H  39.27500 7.33100 44.88100
H  40.84800 -2.69800 47.23800
H  40.38700 -2.15000 45.62100
H  39.84700 -1.41700 47.17500
H  45.72400 -3.05300 46.63700
H  45.75900 -2.49700 44.97500
H  45.10200 -4.03500 45.25500
H  48.32500 0.99500 45.60500
H  48.95600 2.99100 47.59400
H  48.72000 -0.58000 46.94600
H  47.77900 0.03600 48.35000
H  49.43500 0.64300 48.08400
H  48.61400 3.70200 44.67700
H  49.83100 2.44900 45.15900
H  51.33300 3.89100 45.38700
H  50.42700 4.54000 46.82000
H  50.32300 5.28800 45.22300
H  46.73200 8.33000 47.72500
H  46.37600 8.89000 46.00000
H  47.58200 7.67500 46.40000
H  41.17600 7.90900 46.16200
H  38.43500 9.83100 48.69100
H  39.48500 9.14700 49.92400
H  38.30100 8.10300 49.19200
Mg 40.43600 8.87600 28.90200
C  42.33100 10.01700 31.70100
C  38.62600 7.12100 31.22600
C  38.91700 7.44200 26.43400
C  42.97800 9.97100 26.81900
N  40.51500 8.58500 31.17100
C  41.29700 9.23600 32.13000
C  40.90100 8.93000 33.56800
C  39.85100 7.75300 33.31000
C  39.68400 7.77800 31.82800
C  40.36600 6.39500 33.82600
C  40.29900 10.14000 34.22600
C  39.58600 9.90600 35.55600
H  39.97900 10.70700 36.71300
N  38.84200 7.55900 28.77900
C  38.22600 6.95700 29.85900
C  37.07500 6.22400 29.38700
C  37.08100 6.44000 27.92400
C  38.28700 7.21400 27.68300
C  36.05800 5.49400 30.21200
C  36.07000 6.02600 26.91300
O  36.08700 6.44800 25.76500
C  35.05100 5.07000 27.34000
N  40.90500 8.65200 26.92700
C  40.16200 8.00500 26.11200
C  40.62300 8.11300 24.59600
C  41.82500 9.01700 24.69800
C  41.92600 9.25600 26.24400
C  40.87600 6.68400 23.93900
C  41.70100 10.38600 23.88100
C  41.03600 11.70300 24.54000
N  42.26100 9.77100 29.13800
C  43.15100 10.16300 28.19000
C  44.27400 10.87900 28.82700
C  43.95600 10.92900 30.20900
C  42.81100 10.13700 30.35800
C  45.43000 11.56000 28.17300
C  44.30600 11.42800 31.54800
O  45.28400 12.05400 31.85700
C  43.29000 10.81400 32.58300
C  44.01400 10.09900 33.53000
O  44.66100 9.08000 33.31600
O  43.92500 10.70400 34.74700
C  44.34600 9.88900 35.89000
H  38.05700 6.56800 31.97500
H  38.44600 6.94600 25.58300
H  43.71600 10.41900 26.15100
H  41.74200 8.63000 34.19300
H  38.92200 7.89700 33.86200
H  40.80100 5.73400 33.07600
H  39.59500 5.88000 34.39900
H  41.13800 6.51800 34.58500
H  39.65700 10.68100 33.53100
H  41.13700 10.81600 34.39400
H  39.71600 8.85800 35.82900
H  38.53300 10.14200 35.40400
H  35.04900 5.75600 29.89300
H  36.10300 5.87000 31.23500
H  36.20100 4.41400 30.18500
H  34.31500 5.42700 28.06000
H  35.52800 4.19600 27.78400
H  34.67900 4.74200 26.36900
H  39.84500 8.54900 23.96900
H  42.76600 8.63500 24.30300
H  40.89900 5.85200 24.64300
H  41.75300 6.78500 23.30100
H  40.02200 6.46600 23.29700
H  41.18000 10.12100 22.96200
H  42.71900 10.65800 23.60100
H  40.52400 11.47400 25.47400
H  40.29000 12.05200 23.82600
H  41.73700 12.53800 24.58000
H  46.33600 11.06600 28.52500
H  45.53400 12.63100 28.35000
H  45.31900 11.46600 27.09300
H  42.61100 11.55700 33.00200
H  43.57500 9.73300 36.64400
H  45.12500 10.48600 36.36400
H  44.82700 8.92600 35.72100

