158

Mg 36.29600 49.29700 24.85400
C  36.39300 47.45900 27.80300
C  34.87800 51.93400 26.72800
C  35.83700 51.00600 22.00700
C  37.30200 46.53900 23.11900
N  35.66100 49.63700 26.95100
C  36.02600 48.81600 27.97600
C  35.82800 49.41900 29.37000
C  35.06400 50.79000 29.02100
C  35.22500 50.81100 27.45300
C  33.57800 50.81600 29.45700
C  37.18500 49.71200 30.04500
C  37.27800 49.60800 31.57300
H  35.95900 49.66400 32.43500
N  35.49400 51.27100 24.43200
C  35.04200 52.16200 25.31400
C  34.86800 53.41400 24.61900
C  35.18000 53.27500 23.27300
C  35.53800 51.80700 23.15900
C  34.49900 54.68000 25.38000
C  35.33000 54.27400 22.21000
O  35.70100 53.97200 21.11300
C  34.78600 55.63700 22.43800
N  36.33900 48.71600 22.78900
C  36.23800 49.66900 21.78700
C  36.58300 49.11600 20.37000
C  37.29100 47.82500 20.85800
C  36.98400 47.65100 22.32200
C  35.28400 48.92900 19.50600
C  38.82000 47.74100 20.75900
C  39.57400 48.22700 19.50400
N  36.76600 47.33400 25.29100
C  37.15200 46.32000 24.53600
C  37.51100 45.20700 25.34200
C  37.17700 45.55600 26.64100
C  36.75800 46.90000 26.51800
C  38.18900 44.01900 24.90200
C  37.03100 45.10200 27.96100
O  37.20100 43.98400 28.48900
C  36.68800 46.37500 28.83100
C  35.53500 46.01600 29.70100
O  34.38100 45.63200 29.41800
O  35.89000 46.02900 31.02900
C  34.96200 45.25600 31.87300
H  34.49100 52.73800 27.35700
H  35.78000 51.45000 21.01100
H  37.74200 45.69800 22.57800
H  35.31900 48.73900 30.05300
H  35.61200 51.64500 29.41600
H  32.87400 51.04500 28.65600
H  33.33500 51.54100 30.23300
H  33.36100 49.81100 29.82000
H  37.54300 50.70400 29.77200
H  37.80400 48.95100 29.56900
H  37.91900 50.41300 31.93100
H  37.77400 48.64500 31.70100
H  34.14700 54.45800 26.38700
H  33.67800 55.15900 24.84600
H  35.41500 55.26700 25.30600
H  35.47200 56.02200 23.19200
H  33.73900 55.44900 22.67800
H  34.93600 56.36300 21.63900
H  37.36000 49.72300 19.90500
H  36.87100 46.93600 20.38700
H  34.44700 49.00700 20.20100
H  35.37300 47.98700 18.96500
H  35.34700 49.78400 18.83300
H  38.90900 46.65600 20.71100
H  39.29600 48.04400 21.69200
H  38.99900 48.50500 18.62100
H  40.23400 47.41900 19.18600
H  40.27200 49.03600 19.71900
H  37.96800 43.14400 25.51400
H  39.26100 44.20900 24.95900
H  37.72300 43.86800 23.92900
H  37.56000 46.72600 29.38200
H  35.64900 45.01500 32.68300
H  34.58700 44.33300 31.43000
H  34.21000 45.96200 32.22600
Mg -12.22700 16.75200 41.21800
C  -9.12400 14.99600 41.22300
C  -10.51400 19.66700 40.56700
C  -15.13700 18.09900 40.82700
C  -13.74300 13.56800 41.78700
N  -10.01800 17.19900 40.78300
C  -8.92800 16.35300 40.90400
C  -7.65000 17.13800 40.60500
C  -8.10700 18.68600 40.54700
C  -9.64100 18.53500 40.62900
C  -7.53800 19.43500 41.73400
C  -6.84500 16.59000 39.32600
C  -5.33700 16.94600 39.20600
H  -4.95000 17.57800 37.82900
N  -12.81000 18.69500 40.66500
C  -11.95400 19.83000 40.52400
C  -12.80500 20.93600 40.12200
C  -14.15300 20.44000 40.02000
C  -14.10300 19.02900 40.51300
C  -12.14500 22.29700 39.69600
C  -15.28800 21.20200 39.50200
O  -15.20200 22.38300 39.33600
C  -16.58600 20.49300 39.23000
N  -14.15100 15.96100 41.36100
C  -15.23200 16.79700 41.27700
C  -16.58000 16.04400 41.41500
C  -16.10700 14.61600 41.58900
C  -14.57800 14.69100 41.53800
C  -17.49500 16.78900 42.46300
C  -16.56400 13.52800 40.55200
C  -17.21900 12.30900 41.11600
N  -11.63700 14.63700 41.58000
C  -12.37700 13.48800 41.77300
C  -11.46100 12.37800 41.98600
C  -10.16700 12.95300 41.68300
C  -10.32600 14.31200 41.46500
C  -11.79500 11.04100 42.39500
C  -8.78100 12.62800 41.60100
O  -8.19700 11.54800 41.64900
C  -8.02200 13.95800 41.20200
C  -6.98600 14.26000 42.27100
O  -7.11800 13.98700 43.44700
O  -5.80300 14.82300 41.80900
C  -4.87000 15.26600 42.90000
H  -10.01800 20.63700 40.49100
H  -16.14700 18.50900 40.75800
H  -14.17700 12.59100 42.00900
H  -6.87500 17.01200 41.36200
H  -7.71700 19.16300 39.64800
H  -7.01800 20.35100 41.45400
H  -6.96500 18.79600 42.40600
H  -8.41100 19.71700 42.32500
H  -7.22400 17.06800 38.42300
H  -6.84300 15.51600 39.14000
H  -4.72700 16.07100 39.43100
H  -5.10200 17.66800 39.98800
H  -12.72500 22.76900 38.90300
H  -11.15000 22.10000 39.29700
H  -12.10900 22.95600 40.56400
H  -16.34900 19.48600 38.88700
H  -17.04400 20.96700 38.36200
H  -17.08000 20.44700 40.20100
H  -17.04000 16.12900 40.43000
H  -16.32700 14.32400 42.61600
H  -18.50200 16.91000 42.06300
H  -17.05000 17.74500 42.73700
H  -17.63300 16.12500 43.31700
H  -15.65100 13.19500 40.05700
H  -17.14900 13.95300 39.73600
H  -16.83400 12.18000 42.12700
H  -16.96000 11.40000 40.57300
H  -18.30500 12.39500 41.13200
H  -11.85100 10.43400 41.49100
H  -12.74700 10.86300 42.89600
H  -11.03600 10.55300 43.00600
H  -7.61300 13.78600 40.20700
H  -3.83400 15.48000 42.63800
H  -4.83900 14.57400 43.74200
H  -5.38300 16.11100 43.35900

