158

Mg 53.85700 23.92900 43.73700
C  51.06600 26.07200 43.24100
C  51.93300 21.29700 42.71900
C  56.64500 21.91100 44.04600
C  55.69600 26.62900 44.82500
N  51.77000 23.78700 42.89800
C  50.81800 24.79800 42.65700
C  49.54900 24.18000 42.01200
C  49.78500 22.66300 42.26300
C  51.30100 22.55500 42.64700
C  48.95900 22.03600 43.41200
C  49.28600 24.61300 40.57200
C  50.48400 24.61600 39.63600
H  50.13600 24.93400 38.17300
N  54.26100 21.91400 43.34300
C  53.30700 21.00000 42.99100
C  53.95200 19.71700 42.83100
C  55.23900 19.85400 43.21500
C  55.43900 21.26900 43.48400
C  53.20300 18.43100 42.42400
C  56.23300 18.69000 43.16900
O  55.83400 17.54600 43.07400
C  57.67300 19.00400 42.97100
N  55.83300 24.25100 44.22100
C  56.79700 23.28000 44.26200
C  58.11800 23.76000 44.94200
C  57.83100 25.30100 45.07800
C  56.38300 25.43700 44.60000
C  58.54700 23.12100 46.29900
C  58.84300 26.30900 44.37200
C  59.80200 27.13300 45.28000
N  53.47800 25.87000 44.18000
C  54.31800 26.88500 44.64900
C  53.59900 28.06600 44.89700
C  52.34200 27.83600 44.29400
C  52.30700 26.46000 43.90100
C  54.12200 29.31300 45.43400
C  50.93900 28.34800 44.11200
O  50.34500 29.40200 44.38000
C  50.22300 27.30700 43.19400
C  50.00800 27.90400 41.87000
O  50.91300 28.21100 41.14700
O  48.68400 28.13300 41.61700
C  48.30500 28.68100 40.31800
H  51.39500 20.40400 42.39400
H  57.54300 21.37800 44.36500
H  56.43100 27.36900 45.14600
H  48.63500 24.51000 42.50700
H  49.71500 21.96200 41.43100
H  48.36900 22.78500 43.94100
H  49.60300 21.51800 44.12200
H  48.38300 21.25800 42.91000
H  48.81500 25.58500 40.42600
H  48.58900 23.89300 40.14200
H  50.84900 23.59000 39.66900
H  51.16000 25.35500 40.06500
H  53.23700 17.61600 43.14700
H  53.63500 18.15500 41.46200
H  52.14700 18.56900 42.18700
H  58.25900 18.99600 43.89000
H  57.89900 19.88300 42.36800
H  57.97400 18.24500 42.24900
H  58.89600 23.65000 44.18600
H  57.70900 25.59800 46.12000
H  57.83200 22.35300 46.59300
H  58.61500 23.84200 47.11400
H  59.52000 22.67600 46.09000
H  58.28700 26.92500 43.66500
H  59.39600 25.62000 43.73400
H  59.94600 28.17900 45.00800
H  60.73800 26.58300 45.18700
H  59.51200 27.01300 46.32300
H  53.49400 30.13800 45.09900
H  55.16300 29.49700 45.16900
H  54.10300 29.32500 46.52300
H  49.34100 27.24000 43.83200
H  49.12900 28.92400 39.64700
H  47.60300 29.50700 40.43400
H  47.69200 27.83300 40.01300
Mg 48.12600 34.46400 27.38100
C  46.07200 32.72200 29.66900
C  48.26600 37.03100 29.40900
C  49.59000 36.15300 24.91000
C  47.52300 31.65700 25.06800
N  47.29200 34.82200 29.30300
C  46.53200 33.95500 30.14500
C  46.33300 34.51300 31.52800
C  46.84100 36.01200 31.37400
C  47.55400 35.99600 30.02100
C  45.73300 37.03600 31.37400
C  47.03900 33.67400 32.63000
C  48.02700 34.42900 33.50900
H  47.50200 35.36400 34.65100
N  48.93600 36.31700 27.23300
C  48.94700 37.25000 28.25300
C  49.60700 38.39500 27.74200
C  49.99100 38.20300 26.40500
C  49.46900 36.87200 26.10000
C  49.74600 39.61700 28.50800
C  50.86800 39.03300 25.49300
O  51.10100 38.73600 24.32300
C  51.52700 40.30900 25.93100
N  48.46100 33.97800 25.31000
C  49.17000 34.89000 24.51800
C  49.58400 34.20800 23.18000
C  48.95100 32.82900 23.29600
C  48.30800 32.75100 24.67000
C  49.23100 35.00600 21.82100
C  49.83300 31.58200 22.93000
C  51.10200 31.26900 23.83800
N  47.13900 32.46300 27.35300
C  46.95800 31.51300 26.36700
C  46.15900 30.46400 26.86400
C  45.68900 30.91700 28.13700
C  46.36200 32.15100 28.41800
C  45.75200 29.25700 26.17300
C  44.93800 30.56300 29.23600
O  44.17500 29.57400 29.50100
C  44.99800 31.73400 30.23100
C  45.10800 31.13500 31.53900
O  45.95100 30.21600 31.86500
O  44.17400 31.72000 32.38300
C  44.11600 31.12000 33.75100
H  48.28600 37.86500 30.11300
H  50.03900 36.74400 24.10900
H  47.45100 30.82600 24.36300
H  45.26600 34.63100 31.71700
H  47.61200 36.34200 32.06900
H  44.73000 36.73100 31.67200
H  45.56200 37.44700 30.37900
H  45.89800 37.79300 32.14100
H  47.67000 32.86200 32.27000
H  46.29300 33.24400 33.29900
H  48.73300 34.88300 32.81400
H  48.55500 33.72700 34.15400
H  49.38800 40.52700 28.02700
H  50.81500 39.67200 28.71700
H  49.23300 39.45500 29.45500
H  52.15700 40.16300 26.80800
H  50.75300 41.06700 26.05400
H  52.25200 40.61900 25.17900
H  50.67100 34.20900 23.25500
H  48.11900 32.78300 22.59400
H  49.26100 34.40400 20.91200
H  50.00900 35.76200 21.71400
H  48.26000 35.49900 21.86100
H  50.23900 31.74800 21.93200
H  49.08800 30.78600 22.95500
H  51.99100 31.58900 23.29500
H  51.28800 30.30600 24.31400
H  51.11600 32.06600 24.58100
H  45.95900 28.38500 26.79300
H  46.20200 29.04600 25.20300
H  44.69800 29.17700 25.90500
H  44.05300 32.27200 30.16100
H  43.34000 30.36800 33.60700
H  43.71800 31.84500 34.46000
H  45.05300 30.65500 34.05900

