158

Mg 25.77300 -7.33300 47.38800
C  28.08300 -4.94900 46.34300
C  23.47500 -6.03400 45.04300
C  23.82000 -10.16100 47.79800
C  28.27900 -8.78100 49.38900
N  25.85700 -5.74200 45.90700
C  26.91200 -4.88000 45.66100
C  26.51600 -3.75300 44.60700
C  24.99900 -4.10200 44.38700
C  24.69400 -5.33600 45.25500
C  24.02800 -2.89500 44.57000
C  27.35700 -3.90400 43.30400
C  27.86900 -2.51600 42.70700
H  27.66400 -2.23600 41.19700
N  23.90400 -8.00800 46.60600
C  23.13900 -7.30100 45.66200
C  21.98400 -8.06400 45.33600
C  22.02100 -9.31500 46.06600
C  23.28400 -9.19900 46.92400
C  20.99200 -7.68000 44.24000
C  21.01900 -10.41300 45.94700
O  20.15600 -10.41100 45.08300
C  21.10300 -11.48400 46.87400
N  26.03800 -9.16000 48.46400
C  25.01900 -10.09400 48.55100
C  25.49100 -11.28900 49.56800
C  26.65400 -10.50900 50.31200
C  27.11100 -9.47900 49.29900
C  24.35400 -11.79600 50.51100
C  27.74600 -11.55900 50.61300
C  28.55600 -12.20000 49.56600
N  27.84600 -6.97200 47.78700
C  28.74300 -7.62000 48.63200
C  30.01100 -6.84800 48.59800
C  29.78900 -5.72400 47.74400
C  28.42900 -5.92500 47.26200
C  31.24300 -7.10700 49.39500
C  30.31600 -4.52900 47.16300
O  31.36600 -3.94800 47.23500
C  29.27000 -4.03200 46.18300
C  28.84700 -2.70400 46.58900
O  28.18000 -2.38200 47.54100
O  29.51200 -1.84300 45.84700
C  29.06000 -0.46100 45.69500
H  22.83300 -5.52100 44.32500
H  23.28500 -11.10500 47.92100
H  28.97000 -9.18600 50.13100
H  26.68000 -2.74700 44.99400
H  24.75900 -4.44300 43.38000
H  24.57900 -1.95600 44.51200
H  23.61100 -3.00800 45.57100
H  23.25300 -2.89100 43.80400
H  26.74800 -4.44500 42.58000
H  28.23400 -4.54800 43.37700
H  28.92900 -2.57300 42.95500
H  27.53400 -1.69200 43.33700
H  21.30300 -7.95800 43.23400
H  20.94800 -6.59200 44.29000
H  19.97500 -8.03800 44.40000
H  21.25900 -11.18900 47.91100
H  21.85400 -12.16700 46.47700
H  20.17100 -12.04300 46.78700
H  25.88900 -12.04200 48.88700
H  26.25700 -9.93600 51.15100
H  24.38900 -11.34300 51.50200
H  24.34500 -12.88300 50.58500
H  23.37000 -11.57100 50.09900
H  27.39000 -12.37100 51.24800
H  28.33400 -11.00000 51.34100
H  28.49200 -11.60500 48.65500
H  28.36600 -13.24200 49.30900
H  29.58100 -12.25800 49.93400
H  31.72800 -6.14300 49.55100
H  31.84900 -7.71600 48.72400
H  31.06900 -7.46300 50.41000
H  29.63600 -3.98300 45.15800
H  27.98200 -0.42600 45.85700
H  29.37000 -0.06600 44.72700
H  29.57300 0.12500 46.45800
Mg 47.29900 35.95700 28.98600
C  45.78800 34.06700 31.41900
C  47.72400 38.54100 31.43900
C  48.11000 38.13500 26.56300
C  46.37800 33.50800 26.58300
N  46.91600 36.24300 31.15000
C  46.32300 35.26100 31.92200
C  46.46800 35.60200 33.42900
C  46.49000 37.19800 33.29200
C  47.04500 37.42600 31.86300
C  45.07900 37.77800 33.56400
C  47.78700 35.08400 34.01100
C  47.82300 34.67000 35.47400
H  47.00400 35.39200 36.47900
N  48.05000 37.98400 28.97400
C  48.14500 38.86500 30.05800
C  48.76100 40.08700 29.68100
C  48.91500 39.98200 28.25500
C  48.44200 38.64800 27.87400
C  48.94100 41.25500 30.64700
C  49.54000 40.93600 27.24100
O  49.97600 40.55600 26.19200
C  49.84000 42.36600 27.62900
N  47.22000 35.88200 26.94900
C  47.65600 36.89000 26.13700
C  47.48100 36.57200 24.64800
C  46.94400 35.06400 24.68400
C  46.93900 34.73100 26.18400
C  46.42500 37.50500 24.01100
C  47.84100 34.12900 23.83700
C  47.10900 33.01600 23.17300
N  46.25500 34.18000 28.95500
C  46.05700 33.23000 27.96300
C  45.43500 32.04800 28.51600
C  45.24200 32.35200 29.89300
C  45.86200 33.62200 30.06400
C  45.12300 30.75400 27.76800
C  44.72200 31.84200 31.12600
O  44.20100 30.78800 31.50500
C  44.94600 33.01000 32.10500
C  45.46500 32.45900 33.43700
O  46.58100 32.07400 33.61900
O  44.45300 32.30300 34.27700
C  44.68000 31.50000 35.46000
H  47.69600 39.35900 32.16200
H  48.15300 38.89400 25.77900
H  46.07400 32.73500 25.87400
H  45.61000 35.24800 34.00100
H  47.15500 37.66100 34.02100
H  45.18200 38.31000 34.50900
H  44.31500 37.00400 33.63700
H  44.82700 38.48000 32.76900
H  48.62900 35.74100 33.79400
H  47.99200 34.21800 33.38100
H  48.87100 34.64300 35.77200
H  47.33900 33.69700 35.55600
H  48.25200 41.34400 31.48600
H  48.84100 42.20500 30.12200
H  49.93000 41.22500 31.10300
H  50.71300 42.27400 28.27500
H  48.91100 42.69800 28.09100
H  49.91700 43.08000 26.80900
H  48.43300 36.61100 24.11900
H  45.89400 35.10200 24.39400
H  45.98800 38.09100 24.82000
H  45.68100 37.00800 23.38700
H  46.96100 38.18600 23.35000
H  48.52800 33.60500 24.50100
H  48.28400 34.69400 23.01700
H  47.11000 33.17500 22.09400
H  46.04400 32.94400 23.39200
H  47.57300 32.04600 23.35500
H  44.99700 29.86600 28.38800
H  45.90500 30.42800 27.08200
H  44.20700 30.92900 27.20400
H  44.00500 33.53200 32.28100
H  45.45900 30.75000 35.31800
H  43.72600 31.02400 35.68800
H  44.99500 32.07900 36.32800

