158

Mg 47.41800 35.23300 27.68800
C  45.86700 33.48200 30.25900
C  47.64400 37.93600 29.87600
C  48.38100 37.27700 25.12800
C  46.75000 32.60500 25.50200
N  46.97400 35.59500 29.82800
C  46.34900 34.73900 30.74100
C  46.38900 35.26400 32.20600
C  46.38200 36.83300 31.85000
C  47.04300 36.81000 30.44300
C  45.07200 37.56400 31.84300
C  47.71600 34.88700 32.88700
C  47.48700 34.30500 34.30600
H  47.59800 35.38300 35.41900
N  48.09200 37.22800 27.52800
C  48.14300 38.16300 28.53300
C  48.74500 39.40900 28.02700
C  48.96800 39.23000 26.61400
C  48.44000 37.87600 26.35700
C  49.06100 40.51600 29.04400
C  49.56200 40.17000 25.54000
O  49.73700 39.86200 24.38300
C  49.96300 41.55900 26.05900
N  47.62600 34.96100 25.61200
C  48.03100 35.96700 24.72800
C  48.06500 35.37600 23.30200
C  47.63100 33.88500 23.49500
C  47.38500 33.75700 24.99000
C  47.19400 36.22900 22.30400
C  48.64700 32.79000 22.93100
C  50.04600 32.66600 23.61800
N  46.58900 33.35600 27.82500
C  46.40800 32.34900 26.89700
C  45.66700 31.18300 27.46900
C  45.42300 31.70000 28.76900
C  46.04900 32.93500 28.93400
C  45.23300 29.91800 26.80500
C  44.80700 31.37300 30.04000
O  44.18200 30.33100 30.37700
C  44.94700 32.51700 30.94700
C  45.28000 32.02400 32.27500
O  46.34400 31.48300 32.58200
O  44.22100 32.20800 33.16400
C  44.47500 31.51800 34.44800
H  47.65300 38.75100 30.60300
H  48.67900 37.70500 24.16800
H  46.56600 31.75600 24.84100
H  45.58400 35.05600 32.91100
H  46.90500 37.36800 32.64200
H  44.79300 38.09300 32.75500
H  44.27100 36.83100 31.74700
H  45.04900 38.23600 30.98600
H  48.32600 35.78700 32.96000
H  48.33200 34.18200 32.32900
H  48.25500 33.53200 34.27500
H  46.45200 33.96300 34.35000
H  49.90400 41.11200 28.69200
H  49.22200 40.26700 30.09300
H  48.21000 41.19300 28.97500
H  49.11700 42.07700 26.51100
H  50.39900 42.12600 25.23600
H  50.75400 41.42000 26.79600
H  49.11200 35.34700 23.00000
H  46.68900 33.77900 22.95700
H  46.84900 37.18200 22.70600
H  46.26800 35.80500 21.91700
H  47.87900 36.43600 21.48200
H  48.83900 32.89000 21.86200
H  48.22800 31.78500 22.98600
H  50.88100 32.78400 22.92700
H  50.15800 31.72500 24.15600
H  50.10700 33.49500 24.32400
H  45.65600 29.90100 25.80100
H  44.15300 29.77300 26.79000
H  45.61500 29.09100 27.40400
H  43.94300 32.93500 31.01400
H  44.86600 30.53500 34.18800
H  43.59000 31.39100 35.07200
H  45.10600 32.04700 35.16200
Mg 30.64300 59.17600 39.11800
C  27.61200 57.51700 37.95700
C  32.36700 56.61900 37.91300
C  33.23400 61.23700 39.27800
C  28.48000 62.15600 39.52200
N  30.03800 57.41800 37.96800
C  28.78800 56.91100 37.66000
C  28.87800 55.46500 37.09100
C  30.41900 55.11800 37.42900
C  30.94700 56.42800 37.89800
C  30.67600 53.98900 38.43700
C  28.70600 55.43000 35.56500
C  27.69100 54.38000 34.99600
H  26.78700 54.84400 33.81300
N  32.57400 58.90800 38.92200
C  33.15000 57.77500 38.35400
C  34.58200 57.94600 38.47800
C  34.80400 59.23600 39.03800
C  33.50600 59.87900 39.10500
C  35.63500 57.00800 38.06200
C  36.19100 59.75100 39.45900
O  37.20400 59.14900 39.23200
C  36.36600 61.08500 40.17200
N  30.81000 61.45600 39.37800
C  32.08100 62.04600 39.43700
C  31.98400 63.55200 39.57300
C  30.48300 63.71800 40.00800
C  29.83200 62.37300 39.60400
C  33.11900 64.24400 40.38800
C  29.88600 65.01400 39.45600
C  28.88400 65.80200 40.39200
N  28.45200 59.70000 38.96500
C  27.81700 60.87600 39.22500
C  26.43200 60.74300 38.89200
C  26.31000 59.36500 38.46100
C  27.55300 58.79400 38.45500
C  25.34700 61.81300 38.86100
C  25.28900 58.34200 37.99300
O  24.06200 58.35300 37.79500
C  26.11500 57.08600 37.71400
C  25.61100 56.11500 38.68900
O  25.98500 55.95000 39.90000
O  24.80400 55.23400 38.02300
C  24.33200 54.06100 38.83400
H  33.03100 55.79400 37.64600
H  34.06400 61.94600 39.28100
H  27.84600 63.04400 39.53000
H  28.24600 54.71000 37.55700
H  31.06700 54.92700 36.57400
H  30.94000 54.45500 39.38600
H  31.46700 53.28300 38.18500
H  29.78500 53.38700 38.61500
H  29.64300 55.32700 35.01800
H  28.30200 56.34800 35.13700
H  27.00900 54.13600 35.81000
H  28.17800 53.45400 34.69200
H  36.46100 56.76800 38.73100
H  36.11100 57.43800 37.18100
H  35.27600 56.04200 37.70800
H  37.26900 61.22500 40.76700
H  35.46400 61.19700 40.77300
H  36.30500 61.86900 39.41700
H  32.19000 63.76200 38.52300
H  30.35800 63.75000 41.09100
H  32.66800 64.87600 41.15300
H  33.81800 64.75600 39.72700
H  33.74200 63.54200 40.94200
H  29.35200 64.61800 38.59100
H  30.62900 65.64800 38.97200
H  29.04000 65.61400 41.45400
H  27.83500 65.92500 40.12500
H  29.31300 66.78800 40.21300
H  25.60900 62.71500 38.30900
H  25.11100 62.12700 39.87800
H  24.50200 61.40900 38.30200
H  25.88400 56.70700 36.71900
H  25.06200 53.70700 39.56100
H  24.11900 53.21700 38.17700
H  23.43100 54.23200 39.42300

