158

Mg 24.06600 -4.00900 46.30900
C  26.37800 -1.68600 44.93000
C  21.62800 -2.66800 44.41300
C  22.31300 -6.80100 46.76100
C  26.84900 -5.50900 47.92800
N  24.10800 -2.46400 44.76300
C  25.04700 -1.54600 44.41900
C  24.39400 -0.54000 43.51700
C  22.88500 -0.53700 43.77100
C  22.85600 -1.97000 44.33500
C  22.27800 0.52000 44.70400
C  24.73900 -0.89400 42.07000
C  24.99000 0.31400 41.14300
H  24.61500 0.07500 39.68300
N  22.15200 -4.65700 45.69700
C  21.34800 -3.97100 44.86400
C  20.17100 -4.77200 44.61400
C  20.31400 -5.94000 45.37600
C  21.63600 -5.84900 46.01700
C  19.06600 -4.38900 43.64600
C  19.30800 -7.01100 45.43300
O  18.25100 -6.81800 44.86300
C  19.35900 -8.23700 46.19300
N  24.48900 -5.91600 47.28600
C  23.58600 -6.89800 47.34900
C  24.19000 -8.14900 48.00100
C  25.63100 -7.65100 48.44800
C  25.66600 -6.25800 47.84100
C  23.41900 -8.80300 49.14500
C  26.83200 -8.61400 47.95200
C  27.53400 -8.18000 46.62200
N  26.08500 -3.56300 46.67000
C  27.09700 -4.25300 47.33200
C  28.42400 -3.61600 47.17200
C  28.13500 -2.59300 46.25100
C  26.74100 -2.60900 45.91000
C  29.72100 -3.94100 47.92700
C  28.75200 -1.50900 45.49800
O  29.91800 -1.14100 45.56400
C  27.55700 -0.81800 44.62100
C  27.47200 0.67500 44.88200
O  26.62600 1.25300 45.54900
O  28.48100 1.26700 44.14300
C  28.69100 2.73800 44.21300
H  20.76400 -2.12000 44.03100
H  21.78900 -7.75100 46.89000
H  27.68500 -5.89200 48.51900
H  24.79500 0.46400 43.65800
H  22.32600 -0.49100 42.83700
H  22.95600 1.37300 44.68300
H  22.21300 0.20900 45.74700
H  21.34300 0.87600 44.27100
H  23.91000 -1.51700 41.73400
H  25.58000 -1.58100 41.97600
H  26.04100 0.55100 41.31000
H  24.41400 1.11300 41.61000
H  19.01600 -5.17100 42.88900
H  19.12400 -3.37200 43.25900
H  18.19000 -4.43400 44.29300
H  18.46700 -8.81100 45.94200
H  19.35800 -7.98000 47.25200
H  20.22100 -8.85000 45.92900
H  24.40700 -8.95100 47.29500
H  25.69300 -7.51600 49.52800
H  22.44800 -8.34000 49.32200
H  23.96300 -8.86700 50.08700
H  23.19900 -9.78900 48.73600
H  26.52200 -9.62700 47.69800
H  27.52100 -8.76800 48.78200
H  26.81800 -7.78600 45.90000
H  27.99400 -9.06600 46.18300
H  28.32000 -7.44700 46.80000
H  29.66000 -4.92100 48.40000
H  30.02500 -3.19300 48.65900
H  30.45200 -4.00700 47.12200
H  27.87200 -0.89300 43.58100
H  27.72100 3.19500 44.01800
H  29.40200 3.03700 43.44300
H  29.06300 3.03800 45.19200
Mg -11.80800 37.81200 41.79000
C  -9.52600 35.36600 40.98000
C  -10.03700 39.84400 39.64600
C  -14.44000 39.91300 41.55000
C  -14.01100 35.40200 43.12300
N  -10.04700 37.58200 40.35000
C  -9.21600 36.48600 40.23900
C  -7.94000 36.77100 39.46400
C  -8.15000 38.26000 39.08900
C  -9.49700 38.60700 39.72500
C  -6.94600 39.14300 39.41700
C  -7.72800 35.88300 38.21900
C  -6.24100 35.29500 37.93700
H  -5.22700 36.17800 37.12800
N  -12.03500 39.72100 40.96800
C  -11.13600 40.40800 40.26400
C  -11.53600 41.76400 40.11200
C  -12.91300 41.82400 40.62900
C  -13.16800 40.43100 41.05100
C  -10.64400 42.85000 39.49500
C  -13.72000 43.09500 40.78800
O  -13.35500 44.13600 40.27100
C  -14.93200 43.08300 41.66900
N  -13.95300 37.67000 42.21000
C  -14.80200 38.71800 41.99500
C  -16.16500 38.46400 42.58500
C  -16.01000 36.93700 43.06800
C  -14.55900 36.59900 42.78600
C  -16.59700 39.41400 43.66500
C  -16.95600 35.87900 42.44900
C  -18.19200 35.43700 43.17500
N  -11.79300 35.77800 42.02800
C  -12.64600 34.95700 42.85300
C  -12.00600 33.64200 43.00200
C  -10.74200 33.79900 42.34200
C  -10.68400 35.08800 41.70800
C  -12.50100 32.42000 43.79800
C  -9.48700 33.12200 42.02900
O  -9.15500 32.00100 42.33400
C  -8.56400 34.09500 41.15800
C  -7.29500 34.23100 41.93900
O  -6.50800 33.27800 42.07700
O  -7.13900 35.55200 42.35600
C  -5.99700 35.85200 43.23800
H  -9.52600 40.51500 38.95300
H  -15.21100 40.68500 41.51400
H  -14.69800 34.77100 43.69100
H  -7.09700 36.63500 40.14200
H  -8.33300 38.42600 38.02700
H  -7.19900 39.89700 40.16300
H  -6.62900 39.63500 38.49800
H  -6.07900 38.60800 39.80200
H  -7.92000 36.56700 37.39200
H  -8.41100 35.05000 38.04900
H  -6.37700 34.30400 37.50500
H  -5.84100 35.19300 38.94600
H  -10.82800 43.77800 40.03600
H  -10.87400 43.03300 38.44600
H  -9.59600 42.66600 39.72900
H  -15.22600 44.06900 42.03000
H  -14.75900 42.48200 42.56200
H  -15.71500 42.73200 40.99700
H  -16.85800 38.44100 41.74400
H  -16.16500 36.85100 44.14300
H  -17.38700 40.09500 43.34900
H  -15.72200 39.91400 44.08100
H  -17.07100 38.84700 44.46700
H  -16.44800 34.99000 42.07400
H  -17.21300 36.25100 41.45700
H  -18.43700 36.18200 43.93200
H  -17.90700 34.54700 43.73600
H  -19.00900 35.16000 42.50900
H  -12.96100 31.69000 43.13200
H  -13.20500 32.79400 44.54200
H  -11.69200 31.86300 44.27000
H  -8.29600 33.77400 40.15100
H  -6.41800 36.47300 44.02900
H  -5.28700 36.35300 42.58000
H  -5.54400 34.97700 43.70400

