158

Mg 35.15700 49.12700 26.56300
C  35.84300 47.09700 29.45800
C  34.46800 51.65300 28.68500
C  34.69700 51.04500 23.81400
C  35.87500 46.33400 24.50800
N  35.08400 49.29800 28.84700
C  35.39800 48.35400 29.79100
C  35.43200 48.97500 31.12200
C  34.63100 50.29000 30.89200
C  34.77200 50.47300 29.38100
C  33.09200 50.23400 31.35200
C  36.91200 49.13300 31.68600
C  36.97900 48.56500 33.10300
H  36.99600 49.55200 34.21900
N  34.54600 51.05400 26.27900
C  34.24500 51.91900 27.22800
C  33.82200 53.21200 26.65100
C  33.95500 53.06200 25.24600
C  34.41200 51.65300 25.00200
C  33.44200 54.50600 27.50700
C  33.64600 54.07800 24.09900
O  33.68500 53.77600 22.91100
C  33.22500 55.60200 24.47000
N  35.28100 48.73200 24.50000
C  34.96200 49.69000 23.59700
C  35.08800 49.13600 22.13000
C  35.69500 47.77700 22.33200
C  35.54900 47.56700 23.86400
C  33.79200 49.21200 21.31500
C  37.03600 47.49300 21.67200
C  37.02100 46.57900 20.43500
N  35.60300 46.99400 26.89800
C  35.91100 46.08000 25.95000
C  36.30300 44.84200 26.68500
C  36.26700 45.20200 28.04200
C  35.94600 46.53500 28.11100
C  36.71200 43.49700 26.07800
C  36.60500 44.81000 29.38400
O  37.00100 43.69700 29.69300
C  36.29300 45.97000 30.39900
C  35.30200 45.50500 31.35600
O  34.21600 45.17100 31.11300
O  35.91200 45.26100 32.57600
C  35.07200 44.71900 33.66500
H  34.41000 52.55000 29.30400
H  34.58100 51.65100 22.91400
H  36.17900 45.55200 23.80900
H  34.82500 48.34400 31.77200
H  35.12900 51.14400 31.35100
H  32.83600 50.80400 32.24500
H  32.73300 49.20700 31.43000
H  32.44800 50.70200 30.60800
H  37.34400 50.13200 31.63200
H  37.62700 48.56300 31.09200
H  37.85400 47.92600 33.22200
H  36.19800 47.82400 33.27400
H  32.48200 54.73900 27.04700
H  34.11300 55.31700 27.22400
H  33.43900 54.46000 28.59600
H  34.10400 56.04000 24.94100
H  32.29400 55.66000 25.03400
H  32.98800 56.12000 23.54000
H  35.74300 49.83500 21.61100
H  34.97500 47.11900 21.84500
H  32.95500 49.46700 21.96400
H  33.53200 48.31800 20.74800
H  33.96700 50.01200 20.59600
H  37.65000 46.90700 22.35600
H  37.58100 48.43700 21.63900
H  37.48500 45.60800 20.61200
H  37.57300 47.17400 19.70800
H  36.04000 46.31900 20.03700
H  35.78400 42.94000 25.95000
H  37.43700 42.95200 26.68300
H  37.21800 43.57100 25.11500
H  37.16100 46.32700 30.95300
H  34.37600 45.48500 34.00500
H  35.70700 44.36500 34.47700
H  34.48200 43.89300 33.26700
Mg 10.11900 48.30300 25.77100
C  7.80200 48.32300 28.52900
C  12.38500 49.75900 27.91200
C  12.21500 48.27300 23.19200
C  7.49200 47.37900 23.76900
N  9.96800 49.15300 27.98000
C  9.07400 48.83200 28.95700
C  9.56100 49.16900 30.35100
C  10.97900 49.85600 30.04900
C  11.12300 49.61000 28.54100
C  11.07100 51.35700 30.49000
C  9.55100 48.03900 31.41400
C  10.62300 48.07900 32.51000
H  10.41800 47.23000 33.75600
N  12.05500 48.83100 25.63900
C  12.83900 49.41100 26.62300
C  14.12900 49.50300 26.05700
C  14.16800 48.94300 24.75700
C  12.75600 48.61200 24.44900
C  15.27600 50.01700 26.83500
C  15.36000 48.67800 23.77900
O  15.27500 48.37300 22.61700
C  16.72800 48.90800 24.36600
N  9.88500 47.88100 23.65400
C  10.93100 47.91200 22.74400
C  10.49100 47.48000 21.32900
C  8.99900 47.14800 21.54300
C  8.76000 47.46200 23.11700
C  10.86000 48.67600 20.34100
C  8.49700 45.74300 21.08500
C  8.75400 44.55400 22.11400
N  7.97700 48.03400 26.00900
C  7.08000 47.60000 25.07800
C  5.83000 47.39000 25.70300
C  6.08200 47.54700 27.08300
C  7.37900 48.03500 27.19000
C  4.51000 46.98300 25.06500
C  5.52100 47.44000 28.37700
O  4.45600 46.99600 28.74800
C  6.60200 47.92000 29.38300
C  6.70300 46.78500 30.32100
O  7.16500 45.68900 30.04200
O  6.14100 47.10000 31.55300
C  6.63700 46.14200 32.53600
H  13.09900 50.15400 28.63800
H  12.95500 48.30000 22.39000
H  6.70300 47.03300 23.09800
H  8.88700 49.97300 30.64600
H  11.86600 49.40700 30.49500
H  11.76700 51.21900 31.31800
H  10.16500 51.81700 30.88300
H  11.44100 52.02600 29.71300
H  9.55200 47.10800 30.84800
H  8.61400 48.22800 31.93800
H  10.66800 49.12100 32.82700
H  11.52900 47.77600 31.98500
H  15.14500 50.51400 27.79600
H  15.73400 50.80100 26.23200
H  16.01900 49.23100 26.96800
H  16.93200 48.23800 25.20100
H  16.96000 49.96100 24.52900
H  17.45100 48.62100 23.60200
H  11.13800 46.61400 21.18800
H  8.40400 47.85000 20.95900
H  10.96100 49.64300 20.83300
H  10.11700 48.70700 19.54400
H  11.77800 48.57700 19.76200
H  9.06900 45.60800 20.16700
H  7.44500 45.88400 20.83700
H  9.33100 44.82100 22.99900
H  9.07900 43.65000 21.60000
H  7.76600 44.28000 22.48500
H  4.38600 45.90000 25.06900
H  4.44500 47.21800 24.00300
H  3.78100 47.49600 25.69300
H  6.17100 48.71100 29.99800
H  6.33800 45.11500 32.33000
H  6.13400 46.37800 33.47400
H  7.72400 46.21500 32.57300

