158

Mg 47.20100 25.55700 28.73500
C  48.16900 27.63100 31.43600
C  46.12700 23.26900 30.95200
C  46.77800 23.53500 26.08900
C  48.70900 27.95000 26.52200
N  47.09300 25.56000 30.88800
C  47.50400 26.47800 31.82500
C  47.15400 26.03300 33.24800
C  46.55200 24.61200 33.08200
C  46.58200 24.45900 31.56100
C  47.16900 23.52300 33.90700
C  46.25200 27.12900 34.00700
C  46.84700 27.74400 35.21100
H  45.76900 28.27700 36.19200
N  46.43100 23.71300 28.53300
C  45.97900 22.95200 29.58900
C  45.40000 21.78600 29.00200
C  45.57100 21.80800 27.57300
C  46.26700 23.06600 27.33800
C  44.98000 20.57900 29.86200
C  45.18000 20.76600 26.56700
O  45.55400 20.90000 25.40300
C  44.35600 19.60300 26.90500
N  47.90500 25.59100 26.62800
C  47.52200 24.62800 25.71400
C  47.82900 25.08600 24.26300
C  48.10500 26.61500 24.45200
C  48.31600 26.72400 25.97400
C  49.04900 24.28300 23.77000
C  46.93000 27.47000 23.95100
C  45.57800 27.36900 24.64400
N  48.33000 27.34800 28.89100
C  48.86400 28.16600 27.94100
C  49.47300 29.35200 28.42700
C  49.22100 29.13900 29.83900
C  48.55300 27.90500 30.07600
C  50.25200 30.43000 27.73400
C  49.49400 29.79100 31.14700
O  50.06100 30.82500 31.39500
C  48.93200 28.71500 32.21900
C  49.96200 28.31500 33.20200
O  50.66000 27.33800 33.11500
O  49.83100 29.07700 34.29200
C  50.64500 28.67100 35.47700
H  45.71900 22.53000 31.64400
H  46.34800 23.02300 25.22600
H  49.08300 28.67000 25.79100
H  48.12000 25.99800 33.75200
H  45.46700 24.67900 33.16900
H  47.84400 23.80400 34.71600
H  47.70300 22.79600 33.29600
H  46.38500 22.93200 34.38000
H  45.32200 26.62700 34.27300
H  46.00200 27.92900 33.31100
H  47.33900 28.69100 34.98900
H  47.45900 27.01600 35.74400
H  43.90400 20.44700 29.98000
H  45.35600 20.57400 30.88500
H  45.41600 19.72600 29.34200
H  44.93700 18.83900 27.42300
H  43.90100 19.30000 25.96200
H  43.61000 19.95000 27.61900
H  46.89100 24.83500 23.76700
H  48.96700 27.04500 23.94300
H  49.32200 23.38000 24.31700
H  49.86600 24.96600 23.53800
H  48.75100 23.89300 22.79600
H  46.64000 27.08000 22.97500
H  47.28400 28.50100 23.92700
H  45.79300 26.85300 25.58000
H  44.88700 26.76000 24.06000
H  45.12100 28.34100 24.83200
H  50.45400 30.09900 26.71500
H  51.15500 30.63000 28.31200
H  49.48400 31.20200 27.69400
H  48.18900 29.22000 32.83600
H  50.13300 27.87500 36.01800
H  50.65100 29.57300 36.09000
H  51.68800 28.38400 35.34700
Mg 16.96200 51.72900 26.00600
C  18.58100 50.08300 28.69500
C  14.64900 52.85100 28.12600
C  15.38800 52.82700 23.34100
C  19.46700 50.41000 23.84600
N  16.72500 51.56400 28.10800
C  17.53200 50.94300 29.07700
C  17.10100 51.35700 30.43000
C  15.69500 52.05500 30.24500
C  15.67500 52.23900 28.70900
C  14.40900 51.34200 30.83300
C  18.22500 52.11500 31.26000
C  18.71300 51.47200 32.51100
H  17.95200 51.64600 33.82800
N  15.21400 52.72100 25.78700
C  14.37300 53.09700 26.74800
C  13.26800 53.82300 26.20900
C  13.51800 53.84800 24.77900
C  14.77400 53.09800 24.52700
C  12.13300 54.21500 26.96400
C  12.71200 54.44800 23.69000
O  12.93500 54.23300 22.54000
C  11.53400 55.39800 24.09100
N  17.31800 51.60500 23.92700
C  16.54500 52.13900 23.03500
C  16.99800 51.83100 21.59600
C  18.51100 51.61600 21.94400
C  18.41500 51.11000 23.33700
C  16.31200 50.54100 21.07200
C  19.40100 52.82700 21.72700
C  20.19300 52.77400 20.45300
N  18.67700 50.54200 26.19300
C  19.56200 50.08000 25.20100
C  20.55900 49.21700 25.85000
C  20.26500 49.35900 27.23000
C  19.03800 50.00800 27.37900
C  21.67100 48.40600 25.25500
C  20.76000 48.94600 28.55800
O  21.71300 48.22300 28.88200
C  19.61400 49.42900 29.53800
C  19.08500 48.35100 30.28300
O  18.16400 47.59400 30.01700
O  19.95800 48.33200 31.39100
C  19.83800 47.20000 32.17700
H  13.96200 53.26000 28.87000
H  14.97300 53.15600 22.38600
H  20.28000 50.01300 23.23400
H  16.74900 50.50400 31.01000
H  15.59400 53.01000 30.76000
H  13.71400 52.08500 31.22400
H  14.72200 50.51900 31.47500
H  13.95200 50.89700 29.94900
H  17.86900 53.10800 31.53100
H  19.10700 52.33300 30.65700
H  19.64800 51.99600 32.71000
H  18.89800 50.39700 32.50900
H  11.27800 53.73900 26.48400
H  12.03000 55.29700 26.88100
H  12.07800 53.91400 28.01000
H  11.10700 55.82200 23.18200
H  11.86900 56.16200 24.79300
H  10.72200 54.87600 24.59700
H  16.74800 52.58900 20.85400
H  18.92000 50.79300 21.35900
H  15.40000 50.37200 21.64400
H  17.01700 49.71300 21.15200
H  16.00600 50.60800 20.02900
H  20.01100 52.90300 22.62700
H  18.69200 53.65400 21.77500
H  21.16500 53.25800 20.55600
H  19.68200 53.35800 19.68800
H  20.46800 51.77100 20.12600
H  21.87800 47.61200 25.97200
H  22.56400 49.00000 25.06100
H  21.27400 47.88800 24.38100
H  20.09400 50.24000 30.08600
H  19.58500 47.49200 33.19600
H  20.75900 46.61800 32.21300
H  19.08300 46.45100 31.94300

