158

Mg 2.46500 -1.58000 44.25900
C  5.53000 -0.47200 43.37400
C  0.96800 0.86000 42.32500
C  -0.51800 -3.24100 44.49200
C  4.07100 -4.44200 45.70800
N  3.19500 -0.08300 42.96800
C  4.50300 0.30100 42.84600
C  4.62100 1.52800 41.92900
C  3.25400 2.11000 42.05200
C  2.40100 0.89100 42.38300
C  3.03800 3.30200 43.03600
C  5.12300 1.04800 40.58200
C  6.21200 1.90600 39.94200
H  5.72000 2.57700 38.63300
N  0.49600 -1.14700 43.62700
C  0.04300 -0.07900 42.83900
C  -1.30000 -0.18900 42.59400
C  -1.81700 -1.32400 43.27700
C  -0.60700 -1.94900 43.88000
C  -2.08700 0.71000 41.70900
C  -3.29200 -1.78200 43.37200
O  -4.16800 -1.14100 42.74700
C  -3.69600 -3.10400 44.07100
N  1.88000 -3.40800 45.09600
C  0.59800 -3.90700 45.05900
C  0.42200 -5.33700 45.62500
C  1.97000 -5.66000 45.88600
C  2.66800 -4.45600 45.55900
C  -0.39700 -5.47000 46.96800
C  2.51600 -6.87200 44.98900
C  3.39700 -7.93300 45.61500
N  4.38500 -2.24600 44.70700
C  4.91200 -3.40200 45.30300
C  6.32300 -3.34300 45.31100
C  6.66400 -2.23600 44.54300
C  5.39200 -1.63400 44.20100
C  7.34300 -4.40600 45.88900
C  7.68000 -1.35700 44.01700
O  8.89500 -1.43200 44.03300
C  7.00000 -0.19800 43.27300
C  7.38200 1.11200 44.00500
O  6.72400 1.54900 44.94800
O  8.50200 1.60700 43.39800
C  8.83000 2.96900 43.94900
H  0.54600 1.62400 41.66900
H  -1.41200 -3.86800 44.44800
H  4.47900 -5.36900 46.11500
H  5.27000 2.24900 42.42700
H  2.89800 2.51700 41.10500
H  3.97700 3.68600 43.43600
H  2.50600 2.93600 43.91400
H  2.36000 4.06400 42.65200
H  4.19000 1.10700 40.02200
H  5.38000 -0.00400 40.71200
H  7.09100 1.36500 39.59400
H  6.45500 2.73500 40.60600
H  -2.77300 1.30200 42.31500
H  -2.65400 0.06200 41.04100
H  -1.63400 1.34900 40.95100
H  -4.76300 -3.13900 44.29300
H  -3.24500 -3.15600 45.06200
H  -3.40300 -3.95900 43.46200
H  -0.03100 -5.87400 44.79100
H  2.16200 -5.97100 46.91200
H  0.17400 -5.69000 47.87000
H  -1.15700 -6.24100 46.84300
H  -0.87500 -4.50000 47.11100
H  3.13600 -6.47900 44.18400
H  1.64500 -7.43700 44.65700
H  2.93900 -8.92100 45.57400
H  3.41900 -7.60000 46.65300
H  4.35900 -8.00200 45.10700
H  7.42000 -5.19500 45.14100
H  6.86800 -4.76000 46.80500
H  8.35000 -4.01100 46.01800
H  7.27200 -0.13500 42.21900
H  9.70300 2.71800 44.55000
H  8.09700 3.54800 44.51100
H  9.16600 3.48400 43.04900
Mg 53.63300 24.04700 44.62600
C  50.90700 25.95800 43.56900
C  52.06200 21.33400 43.27300
C  56.48300 22.56300 45.02500
C  55.08000 27.17300 45.88400
N  51.76100 23.70700 43.42400
C  50.83700 24.61600 43.07700
C  49.72900 23.97700 42.16800
C  49.80800 22.50200 42.57100
C  51.31000 22.47800 43.07200
C  48.80300 22.10000 43.68800
C  50.03500 24.36500 40.70700
C  48.89300 24.82300 39.76400
H  49.20700 25.23900 38.31900
N  54.20300 22.09500 44.28500
C  53.42200 21.10000 43.69800
C  54.08300 19.86200 43.86600
C  55.41400 20.20100 44.33400
C  55.44800 21.70200 44.58500
C  53.44500 18.56500 43.38700
C  56.52600 19.17900 44.48100
O  56.39300 17.96800 44.24600
C  57.83400 19.57100 45.01500
N  55.57300 24.84700 45.18100
C  56.58700 23.92600 45.26100
C  57.83500 24.52800 45.96200
C  57.36500 26.12100 45.99200
C  55.90700 26.03800 45.69400
C  58.32800 24.00200 47.37600
C  58.07100 27.00200 44.90400
C  58.92600 28.05300 45.55700
N  53.21500 26.18300 44.71700
C  53.79600 27.25900 45.34000
C  52.86400 28.39800 45.36900
C  51.75300 27.91200 44.70100
C  51.99600 26.51100 44.31800
C  53.06300 29.70900 45.95500
C  50.42800 28.23900 44.26600
O  49.80900 29.26600 44.39100
C  49.83600 26.97700 43.52800
C  49.29200 27.39200 42.26600
O  49.96800 27.71300 41.31200
O  47.92100 27.43500 42.27400
C  47.17400 27.84900 41.03200
H  51.43200 20.45900 43.09300
H  57.49000 22.14000 45.03700
H  55.57200 28.03500 46.34000
H  48.71800 24.28800 42.43200
H  49.71200 21.90600 41.66300
H  49.26400 21.21200 44.12100
H  47.88800 21.81000 43.17200
H  48.63700 22.92500 44.38100
H  50.49900 23.48500 40.26200
H  50.75800 25.17500 40.79200
H  48.23500 25.55500 40.23200
H  48.24300 23.95000 39.69800
H  52.44600 18.39000 43.78800
H  54.08300 17.69200 43.52300
H  53.40100 18.78200 42.32000
H  57.54500 20.11500 45.91400
H  58.43200 20.25600 44.41300
H  58.39600 18.68900 45.32200
H  58.70200 24.42500 45.30900
H  57.55100 26.41600 47.02500
H  58.03700 22.96100 47.52000
H  57.88000 24.56000 48.19800
H  59.39500 24.11000 47.57000
H  57.33400 27.38800 44.20100
H  58.87900 26.46200 44.41100
H  59.97900 27.81400 45.41000
H  58.83500 28.14200 46.63900
H  58.81200 29.04400 45.11800
H  52.59900 30.31400 45.17600
H  54.12700 29.92700 46.04600
H  52.58800 29.73200 46.93600
H  49.02100 26.57100 44.12800
H  46.58800 28.72700 41.30100
H  46.54700 27.04300 40.65000
H  47.85600 28.05400 40.20700

