158

Mg 41.52700 8.63800 29.74500
C  43.31900 9.69300 32.36500
C  39.18500 7.32400 31.97700
C  39.95500 7.17100 27.08200
C  44.19400 9.44000 27.54800
N  41.35300 8.47700 31.87200
C  42.10100 9.19500 32.75800
C  41.65800 9.05600 34.16100
C  40.50000 8.04500 34.13700
C  40.32000 7.92000 32.59200
C  40.83800 6.63300 34.71800
C  41.37100 10.47400 34.67600
C  40.96200 10.67300 36.15100
H  41.73700 9.94800 37.25700
N  39.75800 7.47000 29.53600
C  38.90800 7.08000 30.59100
C  37.83100 6.25600 30.01900
C  37.94500 6.32300 28.59600
C  39.30400 6.90000 28.33300
C  36.68000 5.48800 30.82300
C  36.84100 6.01500 27.49400
O  37.10900 6.24700 26.30300
C  35.44600 5.63100 27.89400
N  42.09500 8.28500 27.71100
C  41.18700 7.77300 26.82200
C  41.63900 7.94300 25.35700
C  42.86700 8.85000 25.53500
C  43.09200 8.86200 26.96900
C  42.06600 6.59900 24.65600
C  42.68300 10.28000 25.04400
C  43.84200 10.78500 24.24000
N  43.40300 9.39400 29.90500
C  44.37300 9.65700 28.95400
C  45.52500 10.22300 29.66300
C  45.08800 10.29000 30.98700
C  43.88000 9.76800 31.11300
C  46.85000 10.68300 29.10300
C  45.49600 10.77300 32.27300
O  46.44200 11.40700 32.70300
C  44.37600 10.33300 33.25200
C  45.02300 9.37800 34.24600
O  44.85600 8.17200 34.16100
O  45.61700 10.13100 35.23100
C  46.07100 9.36700 36.42200
H  38.56300 6.88600 32.76000
H  39.56800 6.58800 26.24400
H  44.92000 9.92500 26.89200
H  42.43100 8.61700 34.79100
H  39.60600 8.42600 34.62900
H  41.88800 6.48200 34.97000
H  40.55200 5.86800 33.99700
H  40.16500 6.67300 35.57400
H  40.37200 10.73500 34.32800
H  42.02300 11.25000 34.27500
H  39.88000 10.62200 36.27700
H  41.26900 11.69600 36.36800
H  35.78700 6.10300 30.71200
H  36.91800 5.32300 31.87400
H  36.49300 4.50400 30.39400
H  34.92100 6.35700 28.51500
H  35.52300 4.66400 28.39100
H  34.95400 5.45200 26.93800
H  40.81500 8.41200 24.81900
H  43.85500 8.47500 25.26600
H  41.80200 5.77600 25.32000
H  43.13800 6.50800 24.48000
H  41.58300 6.41500 23.69700
H  42.45900 11.00800 25.82400
H  41.86400 10.26500 24.32500
H  44.27600 11.63400 24.76900
H  43.47700 11.26100 23.33000
H  44.69600 10.12100 24.10900
H  47.17800 10.06900 28.26500
H  47.58000 10.57900 29.90600
H  46.74600 11.72100 28.78700
H  44.14600 11.27500 33.75000
H  45.36300 9.59400 37.22000
H  47.05800 9.73900 36.69900
H  46.00600 8.29600 36.23000
Mg 36.59900 48.50500 25.83900
C  36.04700 46.50200 28.72300
C  35.97300 51.32100 27.63000
C  36.34100 50.32000 22.98300
C  36.62100 45.59400 23.98600
N  36.04100 48.81200 27.91800
C  35.95400 47.89300 28.96200
C  35.86500 48.65000 30.32100
C  35.48500 50.09000 29.85600
C  35.83500 50.12700 28.39300
C  34.06800 50.65900 30.08700
C  37.29300 48.57500 31.08400
C  37.22700 48.01100 32.49500
H  35.85300 48.27900 33.20400
N  36.44400 50.56100 25.38700
C  36.17000 51.59100 26.25900
C  36.19600 52.88500 25.63400
C  36.43700 52.58700 24.22600
C  36.47200 51.10100 24.12200
C  35.95100 54.15500 26.42900
C  36.63700 53.58000 23.09200
O  36.94400 53.24500 21.96000
C  36.45300 55.09300 23.33500
N  36.36700 48.04100 23.77300
C  36.40700 48.96400 22.78000
C  36.31900 48.27400 21.37400
C  36.73600 46.81500 21.76900
C  36.57400 46.78000 23.25200
C  34.91400 48.23900 20.66600
C  38.19700 46.65400 21.40700
C  38.67700 46.16500 20.01600
N  36.37100 46.39900 26.20900
C  36.57100 45.40400 25.33700
C  36.64700 44.15900 26.12100
C  36.46800 44.58000 27.43800
C  36.24300 45.92800 27.42700
C  36.91500 42.75100 25.60800
C  36.47600 44.04100 28.80900
O  36.67000 42.89100 29.24400
C  36.34200 45.32100 29.74500
C  35.23100 45.19400 30.65900
O  34.09200 45.55400 30.40600
O  35.63600 44.60000 31.77300
C  34.61400 44.41300 32.81600
H  35.88000 52.25600 28.18600
H  36.26700 50.84000 22.02500
H  36.82800 44.70400 23.38800
H  35.01300 48.15900 30.79300
H  36.06200 50.86300 30.36200
H  34.05500 51.57200 30.68200
H  33.49700 49.88400 30.60000
H  33.43900 50.87000 29.22300
H  37.78400 49.54400 31.17700
H  37.95000 47.98600 30.44500
H  37.99900 48.29900 33.20900
H  37.44100 46.96800 32.26400
H  35.43400 54.05500 27.38300
H  35.26900 54.77400 25.84700
H  36.93200 54.58900 26.62200
H  36.74800 55.55800 22.39500
H  37.23500 55.42200 24.02100
H  35.43000 55.37300 23.58500
H  36.97800 48.77100 20.66200
H  36.10100 46.07600 21.28200
H  34.69400 47.17400 20.59900
H  35.05000 48.73300 19.70300
H  34.02400 48.64200 21.14900
H  38.65200 46.00200 22.15300
H  38.69600 47.61800 21.49800
H  39.29100 46.95600 19.58600
H  37.85800 45.83200 19.37800
H  39.31000 45.29400 20.18400
H  37.99300 42.62200 25.51100
H  36.25900 42.48800 24.77800
H  36.55500 42.09000 26.39600
H  37.28900 45.57300 30.22300
H  34.08300 45.33100 33.07000
H  35.11200 43.96400 33.67500
H  33.86400 43.63900 32.64800

