158

Mg 41.61800 8.57900 29.78900
C  43.57000 9.81500 32.43000
C  39.36300 7.24900 31.96800
C  39.94000 7.38000 27.14100
C  44.19600 9.69600 27.53800
N  41.57500 8.37100 31.94100
C  42.45300 8.99800 32.84200
C  41.97500 8.62000 34.27700
C  40.81300 7.58800 34.03500
C  40.53600 7.72400 32.54900
C  41.21900 6.19200 34.50800
C  41.51700 9.74000 35.12100
C  41.22800 9.50200 36.63400
H  41.85300 10.52200 37.63100
N  39.86700 7.50600 29.55500
C  39.00100 7.20800 30.61200
C  37.81600 6.62100 30.05700
C  37.90900 6.76000 28.60500
C  39.25800 7.23100 28.39000
C  36.62600 5.96000 30.73100
C  36.92800 6.57300 27.50100
O  37.08100 6.62100 26.28700
C  35.51200 6.54000 27.94800
N  41.99600 8.58900 27.61700
C  41.20500 7.92900 26.77500
C  41.65600 8.13400 25.35000
C  43.02500 8.76000 25.54900
C  43.09900 9.00600 26.98900
C  41.55900 6.83200 24.54000
C  43.26800 10.00600 24.64900
C  42.65900 11.34300 25.21900
N  43.48700 9.59800 29.87900
C  44.36900 10.03700 28.89600
C  45.48600 10.74900 29.59800
C  45.16000 10.78400 30.93500
C  43.95300 10.02600 31.04900
C  46.65000 11.43100 29.02700
C  45.59100 11.18700 32.23800
O  46.57900 11.83500 32.52500
C  44.53900 10.57500 33.19700
C  45.32300 9.79500 34.23400
O  45.64800 8.62800 34.05600
O  45.60100 10.53000 35.35500
C  46.27700 9.82900 36.49800
H  38.58900 6.77000 32.57200
H  39.34400 7.19500 26.24500
H  45.05100 9.92200 26.89700
H  42.91300 8.26700 34.70600
H  39.90800 7.89000 34.56200
H  41.07600 5.44000 33.73200
H  40.59600 5.85200 35.33500
H  42.28200 6.13500 34.74500
H  40.52600 10.03600 34.77600
H  42.11900 10.64300 35.01700
H  41.43000 8.46900 36.91800
H  40.14800 9.60600 36.73000
H  36.96000 5.60700 31.70700
H  36.38300 5.00600 30.26300
H  35.75500 6.61100 30.81100
H  34.91600 6.51300 27.03600
H  35.29700 7.50300 28.41000
H  35.41500 5.64900 28.56900
H  40.81700 8.72700 24.98600
H  43.69500 7.94300 25.28100
H  40.86200 6.93500 23.70800
H  41.18600 6.09800 25.25400
H  42.57800 6.56700 24.26000
H  42.86900 9.74000 23.67100
H  44.33600 10.11800 24.46400
H  43.41800 12.11900 25.11800
H  42.21600 11.29000 26.21300
H  41.83000 11.59800 24.55900
H  47.13300 10.85900 28.23400
H  47.34300 11.70200 29.82400
H  46.31600 12.33900 28.52500
H  43.95800 11.38200 33.64400
H  47.24500 10.27100 36.73400
H  46.52800 8.78600 36.31000
H  45.65300 9.85000 37.39200
Mg -2.78100 35.05800 26.85000
C  -4.66300 33.04100 29.10800
C  -1.96500 37.14500 29.43400
C  -1.03300 36.61300 24.69500
C  -4.49300 33.30200 24.27300
N  -3.14700 34.99500 28.93100
C  -3.90200 34.14300 29.66700
C  -3.70200 34.43100 31.18000
C  -2.90200 35.78400 31.28900
C  -2.71300 36.01800 29.73300
C  -3.55100 36.91300 32.08600
C  -3.07200 33.11400 31.94700
C  -3.70700 32.64400 33.22900
H  -2.89800 33.06200 34.47200
N  -1.72200 36.75900 27.01800
C  -1.41000 37.48200 28.13600
C  -0.47400 38.51200 27.83800
C  -0.18900 38.31500 26.45100
C  -0.97600 37.25100 25.99100
C  -0.10700 39.51400 28.83900
C  0.65100 39.12900 25.48800
O  0.73200 38.92400 24.25800
C  1.31800 40.38100 26.06600
N  -2.74000 34.87500 24.71100
C  -1.85000 35.69700 24.05400
C  -1.96300 35.43400 22.51400
C  -3.07700 34.34300 22.37600
C  -3.43900 34.15800 23.84300
C  -2.30800 36.78100 21.70900
C  -2.53600 33.05800 21.74500
C  -3.49300 32.32100 20.85700
N  -4.22200 33.42300 26.63200
C  -4.87000 32.85900 25.52900
C  -5.88200 31.85900 25.94200
C  -5.78800 31.89400 27.32900
C  -4.86400 32.87800 27.70700
C  -6.72200 31.07900 25.00900
C  -6.29700 31.34500 28.51600
O  -7.15300 30.50200 28.63700
C  -5.64700 32.05400 29.78000
C  -6.76800 32.69500 30.51800
O  -7.31200 33.72000 30.07100
O  -7.08900 32.16800 31.76000
C  -8.02400 33.03900 32.50100
H  -1.58000 37.68600 30.30000
H  -0.32600 36.96000 23.93900
H  -5.09300 32.76700 23.53500
H  -4.67200 34.70600 31.59500
H  -1.93700 35.69600 31.78800
H  -4.57600 36.58900 32.26500
H  -3.60400 37.89200 31.61000
H  -3.04300 37.12800 33.02600
H  -2.05300 33.47300 32.09200
H  -3.05500 32.22700 31.31300
H  -3.81400 31.56100 33.29600
H  -4.72100 33.03600 33.30500
H  0.97400 39.65100 28.86800
H  -0.35800 39.33800 29.88500
H  -0.65000 40.41600 28.55800
H  0.51500 41.09800 26.23800
H  1.94300 40.78200 25.26800
H  1.92400 40.13600 26.93800
H  -1.01800 34.98400 22.21100
H  -3.96500 34.62500 21.80900
H  -1.76800 36.82500 20.76300
H  -2.06100 37.61400 22.36700
H  -3.38900 36.84200 21.58700
H  -2.27200 32.40400 22.57500
H  -1.61700 33.13500 21.16400
H  -3.08100 31.48300 20.29500
H  -3.89200 33.02800 20.13000
H  -4.33500 31.92800 21.42800
H  -6.07800 30.70100 24.21500
H  -7.49600 31.69300 24.54800
H  -7.24600 30.33100 25.60300
H  -5.25100 31.18800 30.31100
H  -7.91700 32.94100 33.58200
H  -8.99600 32.60000 32.27700
H  -7.93500 34.11300 32.33400

