158

Mg 25.78600 0.90000 29.58300
C  27.83700 0.83200 32.39200
C  23.12700 1.45500 31.53000
C  23.96200 1.21900 26.79900
C  28.57000 0.22600 27.49700
N  25.51600 1.00000 31.69600
C  26.48500 1.05500 32.70200
C  25.85700 1.23500 34.10200
C  24.32100 1.28700 33.75600
C  24.27700 1.16100 32.25000
C  23.30700 0.41600 34.53500
C  26.53500 2.47000 34.85400
C  25.66200 2.95500 36.08000
H  26.45300 3.16300 37.34400
N  23.79400 1.27300 29.16400
C  22.83600 1.48900 30.11100
C  21.62300 1.88500 29.49200
C  21.76300 1.65700 28.08600
C  23.22300 1.38400 27.94000
C  20.26600 2.07700 30.28500
C  20.75900 1.81900 26.97000
O  20.98300 1.68500 25.79000
C  19.33000 2.28800 27.26600
N  26.19400 0.76600 27.43500
C  25.30200 0.94600 26.47500
C  25.79200 0.86600 25.10200
C  27.26200 0.45700 25.27000
C  27.38100 0.55200 26.83700
C  24.95900 0.04100 24.06800
C  28.18400 1.46000 24.53700
C  29.50800 0.78100 23.96400
N  27.83400 0.43200 29.87300
C  28.79500 0.06500 28.91900
C  30.06000 -0.14000 29.65600
C  29.69800 0.22300 31.04800
C  28.35000 0.51300 31.08200
C  31.36600 -0.40200 29.00200
C  30.21300 0.46500 32.34700
O  31.36800 0.35000 32.69500
C  29.03800 0.87700 33.28700
C  28.91800 0.01200 34.39500
O  28.24700 -1.00900 34.40600
O  29.53700 0.59300 35.47800
C  29.39300 -0.13900 36.69200
H  22.23400 1.72800 32.09600
H  23.24900 1.15000 25.97500
H  29.40300 0.05500 26.81200
H  26.16400 0.37300 34.69500
H  24.05700 2.30500 34.04100
H  22.91500 -0.35600 33.87200
H  22.47600 0.99700 34.93600
H  23.79500 -0.04000 35.39600
H  26.57600 3.24600 34.08900
H  27.50900 2.18000 35.24900
H  24.89600 2.19000 36.20600
H  25.32600 3.95200 35.79500
H  19.75300 3.03700 30.22800
H  20.32100 2.04500 31.37300
H  19.60900 1.29500 29.90600
H  18.62100 1.97000 26.50100
H  19.34100 3.37700 27.24400
H  18.95100 1.81200 28.17100
H  25.63200 1.86100 24.68600
H  27.48200 -0.51600 24.83100
H  24.30500 -0.62500 24.63000
H  25.60500 -0.52700 23.39900
H  24.36300 0.69100 23.42800
H  28.28900 2.29700 25.22700
H  27.70600 1.83100 23.63000
H  30.41200 1.13100 24.46300
H  29.62900 1.01100 22.90600
H  29.48600 -0.30100 24.10000
H  31.69400 0.47700 28.44800
H  31.26900 -1.23700 28.30700
H  32.10800 -0.50800 29.79300
H  29.17200 1.94400 33.46300
H  30.26100 0.18400 37.26700
H  29.58000 -1.20800 36.59000
H  28.49600 0.21900 37.19800
Mg 8.91700 48.81600 26.12900
C  7.11600 49.13100 28.93800
C  11.70000 49.98900 27.56600
C  10.58300 48.46200 23.08200
C  5.83100 48.63400 24.18900
N  9.32400 49.49500 28.05600
C  8.50800 49.40800 29.13700
C  9.26900 49.96200 30.42400
C  10.58500 50.57800 29.84700
C  10.51800 50.05700 28.33800
C  10.77900 52.06200 30.01400
C  9.62700 48.81500 31.39300
C  9.01300 48.90700 32.73700
H  8.99000 47.64400 33.49300
N  10.88400 48.99600 25.45200
C  11.92000 49.48800 26.27200
C  13.17200 49.31600 25.50500
C  12.89500 48.78600 24.17000
C  11.37500 48.67800 24.19600
C  14.54000 49.43300 26.16400
C  13.82100 48.23800 23.09800
O  13.36000 47.76200 22.03500
C  15.29700 48.32500 23.26000
N  8.25700 48.62300 23.85000
C  9.16800 48.48200 22.83500
C  8.45100 48.15200 21.46000
C  7.00300 48.60800 21.79800
C  6.94600 48.59600 23.36300
C  8.96400 48.71800 20.10400
C  5.98800 47.52800 21.22400
C  5.27100 47.94800 19.97600
N  6.90300 48.84700 26.44800
C  5.78300 48.62700 25.61100
C  4.55000 48.71000 26.45800
C  5.05400 48.91100 27.77900
C  6.45300 48.96500 27.69700
C  3.21100 48.46600 25.96500
C  4.69100 48.98800 29.12400
O  3.56100 48.89700 29.65000
C  6.00400 49.13100 29.94900
C  6.05200 47.99000 30.92900
O  6.78200 47.00300 30.82100
O  5.13100 48.24300 31.92700
C  4.83900 47.05100 32.72700
H  12.60600 50.37600 28.03700
H  11.08900 48.43300 22.11400
H  4.87700 48.46700 23.68400
H  8.69600 50.63000 31.06500
H  11.48100 50.10400 30.24900
H  10.11800 52.46200 30.78200
H  10.63800 52.62800 29.09300
H  11.78400 52.19100 30.41600
H  10.68500 48.77800 31.65100
H  9.30800 47.86400 30.96600
H  8.05700 49.43000 32.76300
H  9.54400 49.66400 33.31400
H  14.97100 48.43100 26.15500
H  14.33100 49.74000 27.18800
H  15.12200 50.23800 25.71500
H  15.64300 49.35800 23.23000
H  15.79900 47.90900 22.38600
H  15.71200 47.72700 24.07000
H  8.52500 47.06600 21.39700
H  6.80400 49.62300 21.45700
H  9.83100 49.31900 20.37900
H  8.24100 49.44000 19.72400
H  9.21800 47.96900 19.35400
H  5.19500 47.17500 21.88400
H  6.50500 46.59200 21.01100
H  5.39600 49.02200 19.83500
H  4.20800 47.72600 20.06600
H  5.83600 47.48500 19.16800
H  2.49100 48.99500 26.59000
H  2.93600 47.41200 26.00900
H  3.06700 48.76700 24.92700
H  5.95900 50.06100 30.51700
H  3.76600 46.85800 32.74000
H  5.09900 47.35500 33.74000
H  5.40300 46.16000 32.45000

