158

Mg -3.35600 16.77800 27.36000
C  -3.12400 14.72100 30.32300
C  -3.32100 19.63100 29.34100
C  -3.49600 18.53700 24.66100
C  -3.44800 13.84500 25.52400
N  -3.23700 17.09600 29.55900
C  -3.11000 16.12700 30.57600
C  -3.12000 16.76400 31.94900
C  -3.28600 18.24300 31.56600
C  -3.20800 18.39600 30.05000
C  -4.59500 18.83500 32.18200
C  -1.87400 16.41300 32.81100
C  -1.51900 17.31800 34.07300
H  -0.84000 16.72000 35.29300
N  -3.36500 18.77300 27.00700
C  -3.35200 19.77800 27.95900
C  -3.23400 21.01200 27.34600
C  -3.31200 20.78900 25.92700
C  -3.45300 19.30400 25.79700
C  -3.18500 22.31800 28.06500
C  -3.09500 21.78400 24.64600
O  -3.15300 21.43400 23.48000
C  -2.57500 23.20000 24.93200
N  -3.41800 16.23000 25.33500
C  -3.48700 17.16500 24.37400
C  -3.43800 16.51400 22.96300
C  -3.28700 15.02500 23.29000
C  -3.40400 15.03900 24.78500
C  -4.68800 16.79800 22.05000
C  -1.96500 14.36700 22.84300
C  -1.88700 13.94300 21.39500
N  -3.43200 14.74600 27.76100
C  -3.40500 13.68300 26.89700
C  -3.36200 12.39200 27.59200
C  -3.23700 12.79600 28.93200
C  -3.32500 14.22300 28.98800
C  -3.43900 11.02700 27.06400
C  -3.23500 12.28500 30.28500
O  -3.12700 11.13400 30.74800
C  -3.02900 13.56600 31.25600
C  -1.66200 13.36400 31.80000
O  -0.72100 13.94600 31.34200
O  -1.68700 12.69900 32.97600
C  -0.43200 12.63800 33.73000
H  -3.38400 20.41600 30.09800
H  -3.50000 19.12400 23.74000
H  -3.49700 12.97900 24.86000
H  -4.02200 16.43600 32.46500
H  -2.49700 18.82200 32.04500
H  -4.58400 19.92400 32.13200
H  -4.53500 18.69100 33.26100
H  -5.44900 18.35900 31.70100
H  -1.01800 16.35600 32.13800
H  -1.93300 15.39600 33.19800
H  -2.45000 17.79300 34.38400
H  -0.86200 18.11900 33.73400
H  -2.23300 22.82700 27.91000
H  -3.33500 22.22500 29.14100
H  -3.93900 23.01400 27.69700
H  -1.67600 23.06900 25.53400
H  -3.26400 23.82900 25.49500
H  -2.36700 23.74400 24.01000
H  -2.56400 16.95300 22.48100
H  -4.16500 14.51600 22.89100
H  -5.34300 17.54300 22.50100
H  -5.37700 16.02500 21.70900
H  -4.31600 17.30600 21.16000
H  -1.73300 13.46200 23.40400
H  -1.16500 15.09600 22.97800
H  -2.76700 14.35800 20.90100
H  -1.86800 12.85700 21.30300
H  -0.98300 14.33500 20.93000
H  -4.45400 10.66000 27.21900
H  -2.67900 10.49900 27.63900
H  -3.05900 10.90200 26.05000
H  -3.77100 13.42600 32.04300
H  -0.31400 13.46100 34.43400
H  0.47900 12.48900 33.14900
H  -0.57900 11.68600 34.23900
Mg 43.76600 4.88300 47.75500
C  41.66700 7.80600 47.57300
C  40.91400 2.97500 47.67900
C  45.65700 2.35100 47.08600
C  46.42200 7.06900 47.11100
N  41.61900 5.36200 47.51900
C  40.99800 6.60400 47.58000
C  39.45700 6.49700 47.48800
C  39.26900 4.88700 47.65100
C  40.71000 4.34600 47.69300
C  38.43200 4.45100 48.86100
C  38.72100 7.09800 46.25200
C  39.37600 6.96200 44.85800
H  39.56700 8.25300 43.95700
N  43.37300 2.89600 47.50900
C  42.14300 2.29000 47.54900
C  42.22500 0.85200 47.35900
C  43.66100 0.64700 47.00500
C  44.28500 2.01900 47.13400
C  41.06800 -0.10500 47.35800
C  44.26200 -0.62700 46.65800
O  43.60000 -1.67300 46.62400
C  45.74700 -0.71000 46.26800
N  45.73200 4.73000 47.16600
C  46.34600 3.53600 47.09400
C  47.87900 3.58600 46.83700
C  48.04200 5.09100 46.60700
C  46.63600 5.66600 46.97400
C  48.73900 3.01700 47.95300
C  48.59200 5.48200 45.20600
C  50.10300 5.87700 45.06200
N  44.04900 7.03600 47.61900
C  45.19500 7.69900 47.39000
C  44.97700 9.11900 47.49200
C  43.57400 9.22800 47.58900
C  43.04800 7.94900 47.55200
C  46.05200 10.21900 47.33800
C  42.43900 10.09600 47.68400
O  42.31200 11.36800 47.70500
C  41.17100 9.20900 47.55200
C  40.22100 9.49000 48.65100
O  40.30700 8.99000 49.72800
O  39.30000 10.36400 48.24800
C  38.39800 10.75300 49.36000
H  39.96900 2.43500 47.77000
H  46.43600 1.60500 46.91600
H  47.30000 7.70400 46.98200
H  39.08500 7.09200 48.32200
H  38.73400 4.48400 46.79100
H  39.08100 3.96300 49.58800
H  37.73800 3.65400 48.59400
H  37.95700 5.29100 49.36800
H  38.49300 8.13900 46.47700
H  37.70300 6.74600 46.08400
H  38.84200 6.12800 44.40100
H  40.41900 6.66500 44.96400
H  40.11300 0.41500 47.42900
H  41.17600 -0.77200 48.21300
H  41.15500 -0.67300 46.43100
H  46.42100 -0.56300 47.11200
H  46.11200 -0.09600 45.44500
H  46.12400 -1.66400 45.90100
H  47.88700 2.98800 45.92600
H  48.61200 5.47000 47.45500
H  49.18200 2.13100 47.49800
H  48.17600 2.65600 48.81300
H  49.52800 3.68700 48.29400
H  48.03200 6.30100 44.75600
H  48.42000 4.61200 44.57100
H  50.52200 5.21100 44.30800
H  50.59700 5.83800 46.03300
H  50.06500 6.90900 44.71400
H  46.74300 10.16500 48.17900
H  45.58900 11.20100 47.24000
H  46.62000 9.95100 46.44800
H  40.81900 9.43900 46.54600
H  37.75300 9.97400 49.76700
H  37.71700 11.46300 48.89100
H  38.97100 11.23600 50.15200

