158

Mg 8.27500 2.37600 28.08100
C  9.68300 1.03500 30.90200
C  6.58400 4.61500 30.09700
C  6.46800 3.34600 25.31100
C  9.69100 -0.19700 26.14300
N  8.01000 2.65500 30.22900
C  8.92600 2.13500 31.13100
C  8.78000 2.78900 32.52300
C  7.62900 3.78700 32.26100
C  7.38000 3.67200 30.72600
C  6.31200 3.51000 33.05500
C  10.09600 3.41900 33.01600
C  10.57000 3.00500 34.45800
H  10.76900 4.11700 35.57900
N  6.66700 3.74600 27.76300
C  6.16600 4.59000 28.73600
C  5.14600 5.38900 28.15200
C  5.08200 5.06500 26.72400
C  6.09600 4.00100 26.52000
C  4.23600 6.26800 28.96800
C  4.07400 5.64800 25.63700
O  4.14100 5.24900 24.50600
C  3.01200 6.63000 25.97800
N  8.19200 1.74500 26.03500
C  7.42400 2.27500 25.08900
C  7.65100 1.72500 23.71000
C  8.80500 0.70400 24.01400
C  8.92300 0.76300 25.50000
C  6.51200 1.10400 22.99600
C  10.21200 1.02700 23.20000
C  10.82500 -0.00000 22.23400
N  9.45900 0.76900 28.35200
C  9.99100 -0.18800 27.51100
C  10.81700 -1.13400 28.28000
C  10.66000 -0.71300 29.64700
C  9.88200 0.51200 29.61200
C  11.66000 -2.25000 27.79800
C  11.02800 -1.01000 31.01100
O  11.78700 -1.92200 31.42800
C  10.41100 0.15700 31.87000
C  9.54500 -0.42200 32.99500
O  8.33400 -0.46300 32.97700
O  10.40900 -0.76700 34.06700
C  9.75800 -1.04200 35.28000
H  6.11100 5.22500 30.87000
H  5.81200 3.50300 24.45200
H  9.99000 -0.98900 25.45300
H  8.45000 2.07400 33.27700
H  7.83400 4.82000 32.54200
H  5.38000 3.72900 32.53300
H  6.32900 4.08100 33.98300
H  6.30700 2.44100 33.26600
H  10.02200 4.50200 32.91000
H  10.96400 3.12100 32.42800
H  11.60200 2.68000 34.33100
H  10.12800 2.08500 34.84100
H  3.25400 5.81300 28.83900
H  4.18000 7.25000 28.49700
H  4.46900 6.32000 30.03100
H  3.46600 7.45100 26.53200
H  2.31000 6.12600 26.64300
H  2.65400 7.14200 25.08500
H  8.00600 2.49400 23.02400
H  8.37400 -0.28900 23.89000
H  5.65300 1.25200 23.65100
H  6.64700 0.04800 22.76300
H  6.46700 1.62700 22.04100
H  10.93800 1.30700 23.96300
H  10.11000 1.92800 22.59600
H  11.90300 -0.04600 22.38600
H  10.57000 0.31700 21.22300
H  10.34300 -0.96000 22.42100
H  11.87500 -2.12400 26.73700
H  11.16800 -3.20700 27.97200
H  12.59100 -2.23300 28.36500
H  11.20500 0.78600 32.27400
H  8.99600 -1.79700 35.08500
H  9.36400 -0.08100 35.61200
H  10.44600 -1.43200 36.03000
Mg 16.82600 -2.62100 28.87900
C  15.60600 -0.24300 31.14300
C  18.58800 -4.09300 31.36700
C  17.99600 -4.60400 26.52100
C  15.04100 -0.91500 26.22400
N  17.27100 -1.98800 30.99000
C  16.54600 -1.08700 31.76500
C  16.93400 -1.25000 33.24000
C  18.04800 -2.39900 33.22600
C  17.94800 -2.86400 31.75500
C  19.54900 -1.87300 33.62900
C  15.73800 -1.48900 34.16600
C  15.55700 -0.73800 35.49000
H  16.83300 -0.07600 35.97500
N  18.07000 -4.22300 28.95400
C  18.69100 -4.70900 30.05000
C  19.45300 -5.81400 29.70200
C  19.43200 -5.99100 28.28400
C  18.40000 -4.99400 27.85100
C  20.27300 -6.54400 30.75000
C  20.21300 -6.83600 27.31800
O  19.96100 -6.69400 26.09800
C  21.20900 -7.85000 27.78900
N  16.56500 -2.65900 26.63700
C  17.21700 -3.60400 25.92500
C  17.12100 -3.24800 24.42800
C  15.95100 -2.24400 24.36200
C  15.84200 -1.90800 25.79900
C  18.38400 -2.68600 23.86300
C  14.65300 -2.84000 23.60600
C  14.45500 -2.32300 22.14800
N  15.49400 -1.01100 28.72400
C  14.85600 -0.42400 27.60000
C  14.12100 0.76600 28.02200
C  14.30400 0.82900 29.39700
C  15.10400 -0.24700 29.81100
C  13.26100 1.66500 27.19300
C  13.93200 1.50200 30.64800
O  13.17800 2.39700 30.86500
C  14.77000 0.85400 31.80300
C  15.63100 1.91800 32.34300
O  16.62400 2.48200 31.87100
O  15.13000 2.17300 33.57600
C  15.68000 3.28100 34.32500
H  18.98600 -4.72300 32.16500
H  18.46300 -5.18700 25.72400
H  14.57700 -0.29600 25.45300
H  17.33300 -0.27600 33.52200
H  17.81600 -3.18500 33.94500
H  19.74700 -2.36500 34.58100
H  19.53500 -0.81300 33.88200
H  20.18000 -1.95600 32.74400
H  15.58900 -2.55700 34.32300
H  14.83100 -1.37200 33.57300
H  15.11700 -1.31600 36.30300
H  14.89600 0.10300 35.28200
H  20.41600 -6.02700 31.69800
H  21.30400 -6.59900 30.40000
H  19.92400 -7.57000 30.86900
H  20.94500 -8.35200 28.71900
H  22.20000 -7.39600 27.82900
H  21.17100 -8.58400 26.98400
H  16.85200 -4.19000 23.94900
H  16.21900 -1.36300 23.77800
H  18.58400 -1.65300 24.14700
H  18.38800 -2.71000 22.77300
H  19.24700 -3.32200 24.06300
H  13.68400 -2.70200 24.08500
H  14.66500 -3.91300 23.41600
H  15.12800 -1.47900 21.99600
H  13.52200 -1.77500 22.01400
H  14.35700 -3.10600 21.39600
H  12.88000 1.33200 26.22700
H  13.87800 2.54900 27.03000
H  12.37900 1.89200 27.79100
H  14.08000 0.49200 32.56600
H  16.71700 3.49300 34.06600
H  15.70200 3.02600 35.38400
H  14.97900 4.09800 34.15400

