158

Mg 16.22900 -1.66700 27.78100
C  15.20700 0.54400 30.23000
C  18.18000 -3.34400 29.98500
C  17.73200 -3.13700 25.13000
C  14.43700 0.30900 25.38900
N  16.76700 -1.30300 29.81300
C  16.12400 -0.42700 30.70100
C  16.59600 -0.62800 32.13900
C  17.51700 -1.89600 32.10000
C  17.49400 -2.24000 30.55200
C  18.93300 -1.76200 32.57300
C  15.46700 -0.80800 33.25700
C  15.71000 -0.29400 34.65400
H  17.13700 0.28100 34.96000
N  17.66600 -2.98800 27.53100
C  18.27700 -3.68600 28.60000
C  19.21100 -4.64100 28.05500
C  19.07100 -4.62800 26.66200
C  18.14400 -3.54800 26.38000
C  20.04800 -5.49700 28.97300
C  19.77300 -5.43000 25.62400
O  19.56500 -5.32800 24.40600
C  20.84800 -6.42300 26.02300
N  16.13400 -1.42000 25.51500
C  16.85600 -2.16900 24.65100
C  16.51600 -1.88600 23.12100
C  15.36900 -0.78000 23.40000
C  15.21200 -0.71900 24.87000
C  17.66700 -1.27900 22.30400
C  13.96000 -1.00200 22.65100
C  13.52300 -0.07300 21.52200
N  14.95000 -0.03800 27.75100
C  14.23900 0.54400 26.77500
C  13.34400 1.49300 27.31900
C  13.63100 1.50000 28.64600
C  14.66200 0.63500 28.89900
C  12.39300 2.45400 26.55400
C  13.28600 2.21300 29.84700
O  12.47300 3.10600 30.06800
C  14.26200 1.55300 30.97000
C  14.97800 2.65200 31.61600
O  15.71300 3.44300 31.10000
O  14.48300 2.85700 32.90000
C  14.79100 4.14600 33.47900
H  18.53600 -3.98600 30.79400
H  18.16700 -3.62900 24.25800
H  13.77400 0.77000 24.65400
H  17.24100 0.22900 32.33400
H  17.16900 -2.75600 32.67400
H  19.50000 -1.07700 31.94400
H  19.43800 -2.71700 32.71900
H  18.68100 -1.40700 33.57200
H  15.22100 -1.86900 33.30200
H  14.57600 -0.27600 32.92500
H  15.49500 -1.02800 35.43100
H  14.98200 0.51700 34.68600
H  19.60500 -5.52400 29.96800
H  21.04900 -5.06900 29.02200
H  20.06000 -6.51700 28.58900
H  20.51100 -7.23900 26.66200
H  21.65300 -5.89200 26.53100
H  21.18600 -6.81700 25.06400
H  15.98800 -2.65800 22.56200
H  15.71700 0.19300 23.05300
H  18.56300 -1.42000 22.90900
H  17.63400 -0.21000 22.09200
H  17.82100 -1.79600 21.35800
H  13.20600 -1.02100 23.43800
H  14.00100 -2.00200 22.21800
H  14.31100 0.67800 21.45100
H  12.60500 0.45900 21.77100
H  13.34100 -0.65700 20.62000
H  11.58200 1.84500 26.15400
H  12.96100 2.94000 25.76200
H  11.98200 3.24500 27.18200
H  13.58700 1.08900 31.68800
H  14.31300 4.95500 32.92600
H  15.86800 4.27300 33.37600
H  14.43700 4.22800 34.50700
Mg 34.41100 2.86400 29.20300
C  32.43100 4.11800 31.72900
C  37.05800 2.46300 31.67600
C  36.59700 2.49400 26.72800
C  31.96500 3.74100 26.86100
N  34.70600 3.20900 31.48300
C  33.70300 3.69100 32.24200
C  34.09500 3.66100 33.74900
C  35.60100 3.40000 33.63400
C  35.83700 3.05900 32.19600
C  36.45500 4.71900 34.00500
C  33.27600 2.67600 34.60000
C  33.07500 3.26500 36.02200
H  34.05800 4.28400 36.58600
N  36.45800 2.30900 29.18000
C  37.30300 2.19200 30.28200
C  38.60400 1.79300 29.78300
C  38.65900 1.99500 28.36700
C  37.20800 2.31400 28.00900
C  39.74800 1.55000 30.67300
C  39.80000 1.86600 27.33800
O  39.56900 1.99900 26.11600
C  41.23300 1.54700 27.63600
N  34.26500 3.13700 27.18700
C  35.26800 2.81600 26.37700
C  34.97700 3.00800 24.90800
C  33.47300 3.08100 24.90800
C  33.17400 3.25400 26.41800
C  35.74300 4.10700 24.28600
C  32.66000 1.84400 24.35400
C  32.32500 0.64500 25.14200
N  32.56900 3.77800 29.21800
C  31.64200 3.93900 28.21900
C  30.36900 4.42500 28.75600
C  30.59100 4.47200 30.14700
C  31.99000 4.15200 30.35300
C  29.18400 4.65900 27.94100
C  30.05100 4.84700 31.41000
O  28.94200 5.27600 31.73000
C  31.21400 4.55200 32.50300
C  31.31300 5.82800 33.21100
O  32.11500 6.69700 32.99500
O  30.37500 5.93200 34.22900
C  30.46200 7.04900 35.18000
H  37.77500 2.30600 32.48500
H  37.22500 2.46600 25.83400
H  31.25400 3.92100 26.05300
H  33.86000 4.66800 34.09600
H  36.00500 2.63100 34.29200
H  36.92100 4.43200 34.94700
H  35.83300 5.56100 34.30800
H  37.08900 4.93700 33.14500
H  33.95800 1.84800 34.79000
H  32.32800 2.38700 34.14500
H  33.09800 2.43400 36.72600
H  32.15100 3.84000 35.97300
H  40.14000 0.56900 30.40500
H  39.53800 1.53100 31.74200
H  40.43200 2.39500 30.59500
H  41.53100 2.12200 28.51200
H  41.93700 1.77400 26.83500
H  41.33200 0.48400 27.85900
H  35.16000 2.06600 24.39100
H  33.07200 4.02500 24.53800
H  36.44000 4.67200 24.90600
H  35.03900 4.74700 23.75400
H  36.35100 3.58600 23.54700
H  33.27600 1.41500 23.56400
H  31.79100 2.29500 23.87400
H  31.23600 0.61600 25.11400
H  32.54700 0.82100 26.19400
H  32.81500 -0.25100 24.76300
H  29.32200 5.42400 27.17700
H  28.26300 4.67700 28.52300
H  29.04700 3.70800 27.42500
H  30.95300 3.84000 33.28600
H  29.55000 7.10200 35.77400
H  30.54600 7.92000 34.53000
H  31.34000 6.97700 35.82200

