158

Mg 54.14900 24.41300 45.16700
C  51.30100 26.35400 44.08600
C  52.57400 21.75000 43.56700
C  57.01200 22.79100 45.34700
C  55.55000 27.36400 46.14500
N  52.12400 24.08300 43.98100
C  51.25500 25.05800 43.58400
C  50.19900 24.40800 42.66900
C  50.30900 22.91600 43.07700
C  51.74900 22.87100 43.59400
C  49.19400 22.44800 44.06500
C  50.49900 24.76800 41.21600
C  49.36100 25.38900 40.42300
H  49.10300 24.79200 39.02800
N  54.71500 22.43900 44.58800
C  53.95600 21.52800 43.99100
C  54.64200 20.30300 43.89900
C  55.93400 20.49200 44.42900
C  55.99200 21.94300 44.77400
C  54.05800 18.98300 43.34000
C  56.93700 19.43800 44.68800
O  56.77100 18.26600 44.39600
C  58.29500 19.78900 45.13300
N  56.06200 25.04200 45.46200
C  57.07900 24.11600 45.63600
C  58.35100 24.88300 46.09600
C  57.86100 26.31800 46.49500
C  56.36800 26.24100 46.01500
C  59.32300 24.13100 47.17500
C  58.70200 27.42500 45.87800
C  58.98900 28.67900 46.66900
N  53.55900 26.42400 45.21000
C  54.18500 27.50200 45.79000
C  53.29900 28.66900 45.87000
C  52.16500 28.27000 45.20000
C  52.34300 26.93900 44.81300
C  53.58900 30.03700 46.37000
C  50.82300 28.61400 44.74100
O  50.18600 29.68000 44.74600
C  50.18600 27.38400 44.11500
C  49.78800 27.89900 42.73900
O  50.52200 28.36500 41.94100
O  48.45100 27.92900 42.66700
C  47.93800 28.68700 41.50200
H  51.95900 20.90500 43.25000
H  57.87700 22.26800 45.76100
H  55.89400 28.27900 46.63300
H  49.23100 24.82900 42.94100
H  50.18900 22.39900 42.12500
H  49.08600 21.37600 43.89900
H  48.34300 23.12500 43.99600
H  49.51400 22.56600 45.10100
H  50.79700 23.84500 40.71700
H  51.35800 25.43900 41.21900
H  49.50700 26.44600 40.20200
H  48.45700 25.27400 41.02200
H  53.00200 19.02100 43.07200
H  54.19700 18.08900 43.94800
H  54.61300 18.64300 42.46600
H  58.98300 18.94500 45.17900
H  58.31600 20.03200 46.19500
H  58.76200 20.55400 44.51200
H  59.01300 24.93200 45.23100
H  57.79400 26.33400 47.58300
H  60.29800 24.09900 46.69000
H  59.10000 23.11300 47.49400
H  59.41300 24.83600 48.00200
H  58.12700 27.78100 45.02400
H  59.68500 27.01000 45.65500
H  60.06800 28.72100 46.81300
H  58.42100 28.81100 47.59000
H  58.77900 29.61400 46.15100
H  53.64100 30.80200 45.59500
H  54.50900 30.06900 46.95300
H  52.76800 30.32500 47.02600
H  49.31500 27.02400 44.66300
H  46.88800 28.86800 41.73200
H  48.06700 28.18500 40.54300
H  48.37000 29.68700 41.45900
Mg 47.52800 16.60900 29.65400
C  45.51000 16.13000 32.48700
C  49.77800 18.30600 31.65300
C  49.26900 17.64900 26.96800
C  45.12000 15.31100 27.72600
N  47.64100 17.11500 31.80900
C  46.72500 16.74800 32.74000
C  47.29000 17.10100 34.12200
C  48.51900 17.94800 33.83100
C  48.67900 17.82300 32.32900
C  48.55500 19.41000 34.57300
C  47.54400 15.76400 34.96800
C  46.94200 15.61900 36.40700
H  46.89800 16.89200 37.27700
N  49.40700 17.67500 29.40100
C  50.14900 18.26400 30.31000
C  51.42300 18.74300 29.71800
C  51.29100 18.62000 28.33200
C  49.91600 17.93800 28.17800
C  52.70900 19.30600 30.45400
C  52.19400 18.91700 27.20400
O  51.90400 18.70900 26.05600
C  53.57900 19.45600 27.50100
N  47.37400 16.21800 27.57000
C  48.15400 16.86400 26.63600
C  47.58300 16.67300 25.21500
C  46.22300 15.96900 25.50000
C  46.20300 15.78300 27.04500
C  47.38800 17.93900 24.32600
C  45.99500 14.66700 24.65100
C  45.50800 14.97200 23.18600
N  45.69500 15.79200 29.93500
C  44.79000 15.30200 29.05400
C  43.60200 14.86800 29.80100
C  43.78900 15.14200 31.14400
C  45.10300 15.69700 31.18000
C  42.36900 14.19700 29.25800
C  43.28300 15.01900 32.52800
O  42.28200 14.56500 32.98500
C  44.42900 15.56500 33.43000
C  43.70900 16.62300 34.22900
O  43.47400 17.80500 33.98700
O  43.15800 15.93500 35.32800
C  42.50300 16.86000 36.22100
H  50.37900 18.95300 32.29500
H  49.73900 18.05300 26.06900
H  44.24600 15.12300 27.09900
H  46.50500 17.71700 34.56100
H  49.31000 17.33900 34.26600
H  47.94200 19.44200 35.47400
H  48.12900 20.15700 33.90300
H  49.60000 19.65200 34.76700
H  48.61400 15.55700 34.98800
H  47.12000 14.91000 34.44000
H  47.45800 14.84200 36.97100
H  45.86900 15.42800 36.41800
H  53.47400 18.54100 30.58000
H  52.36100 19.49100 31.47000
H  52.99700 20.15800 29.83800
H  53.54400 20.50600 27.79100
H  54.27800 19.38100 26.66800
H  54.00800 18.78000 28.24000
H  48.22900 16.01000 24.63900
H  45.40200 16.62700 25.21600
H  47.63500 18.87500 24.82800
H  46.46900 18.01900 23.74500
H  48.09000 17.89800 23.49300
H  45.23100 14.09400 25.17700
H  46.85700 14.02000 24.49200
H  45.69100 16.03200 23.01200
H  44.42700 14.84500 23.12000
H  46.03200 14.33400 22.47500
H  41.45200 14.69200 29.57900
H  42.32100 13.17500 29.63300
H  42.25900 14.18300 28.17300
H  44.91600 14.79300 34.02500
H  41.90400 17.53300 35.60900
H  43.19500 17.32600 36.92300
H  41.81400 16.24400 36.80000

