158

Mg 1.72700 -1.06900 43.98700
C  5.18900 -0.67600 43.47800
C  1.14100 1.70400 42.11800
C  -1.44100 -2.13200 43.78200
C  2.55000 -4.34900 45.39100
N  3.10000 0.30500 42.77700
C  4.42500 0.31100 42.77000
C  4.99200 1.58400 42.02400
C  3.65500 2.31000 41.63200
C  2.55500 1.44200 42.29500
C  3.53300 3.80900 42.14900
C  6.01000 1.22700 40.88300
C  5.86800 -0.03400 40.03000
H  5.69300 0.08700 38.50900
N  0.01200 -0.22100 43.23200
C  -0.01800 0.98300 42.59600
C  -1.32100 1.26700 42.19700
C  -2.11500 0.10400 42.47700
C  -1.22500 -0.84300 43.23300
C  -1.83400 2.48800 41.44100
C  -3.62500 -0.20000 42.17800
O  -4.24200 0.67200 41.60700
C  -4.36500 -1.42900 42.64800
N  0.70700 -3.08000 44.45900
C  -0.56700 -3.17300 44.38600
C  -1.11600 -4.58200 44.74200
C  0.11700 -5.11400 45.56700
C  1.20700 -4.16200 45.09700
C  -2.52700 -4.74400 45.31500
C  0.32300 -6.62300 45.28100
C  0.99000 -7.49400 46.43500
N  3.46400 -2.29300 44.39600
C  3.59200 -3.53700 44.95800
C  4.97000 -3.87900 45.06700
C  5.63000 -2.80000 44.54500
C  4.71600 -1.84500 44.09600
C  5.51600 -5.13300 45.68900
C  6.96100 -2.25700 44.25200
O  8.07900 -2.65800 44.57100
C  6.71800 -0.81300 43.63200
C  7.29400 0.20000 44.56900
O  6.99300 0.34500 45.72800
O  8.13300 1.10700 43.94300
C  8.63200 2.30900 44.68500
H  0.92300 2.62800 41.57800
H  -2.39500 -2.62500 43.58300
H  2.79400 -5.32200 45.82300
H  5.63300 2.25400 42.59600
H  3.60700 2.19800 40.54800
H  3.37100 4.00400 43.21000
H  2.68400 4.25600 41.63100
H  4.45700 4.24800 41.77400
H  6.94900 1.23900 41.43600
H  6.16400 2.08000 40.22200
H  4.92900 -0.49300 40.34000
H  6.61300 -0.74700 40.38200
H  -2.67200 2.97800 41.93600
H  -2.16100 2.37700 40.40700
H  -1.15800 3.34200 41.48100
H  -5.27200 -1.34200 42.04800
H  -4.52600 -1.53200 43.72100
H  -3.87700 -2.31800 42.25000
H  -1.24900 -5.06600 43.77400
H  -0.09900 -4.97100 46.62600
H  -3.25900 -5.13600 44.60900
H  -2.95500 -3.75400 45.47200
H  -2.51900 -5.26700 46.27100
H  0.99200 -6.74300 44.42900
H  -0.65400 -7.08000 45.12400
H  0.24000 -8.21800 46.75000
H  1.36600 -6.92300 47.28400
H  1.88400 -7.94300 46.00300
H  4.84900 -5.99300 45.62200
H  5.86800 -4.99600 46.71100
H  6.38900 -5.45900 45.12300
H  7.33900 -0.82000 42.73700
H  8.36000 2.33800 45.74000
H  8.32300 3.14800 44.06200
H  9.71900 2.29800 44.60100
Mg -4.91100 25.63500 25.82400
C  -3.59800 26.94600 28.82600
C  -6.64300 23.35000 27.70500
C  -5.66200 23.95100 22.98100
C  -2.75800 27.67500 24.06900
N  -5.00300 25.18400 27.99300
C  -4.43700 25.88900 29.04300
C  -5.06900 25.48400 30.38000
C  -5.86000 24.14900 29.95600
C  -5.80900 24.20500 28.41300
C  -5.38300 22.80100 30.45800
C  -5.91100 26.58800 31.01100
C  -5.66100 26.81100 32.50700
H  -5.18200 25.59200 33.40600
N  -6.17600 24.02300 25.37100
C  -6.83200 23.20600 26.28600
C  -7.82800 22.39600 25.61700
C  -7.59400 22.63300 24.20800
C  -6.39000 23.49100 24.07800
C  -8.76700 21.42800 26.35700
C  -8.30100 21.94600 23.01100
O  -8.03600 22.27600 21.85900
C  -9.32700 20.92600 23.23900
N  -4.46100 25.91000 23.74500
C  -4.84500 25.01400 22.73800
C  -4.13000 25.37900 21.44800
C  -3.36600 26.75600 21.71800
C  -3.55600 26.77900 23.27000
C  -3.21300 24.27000 20.94300
C  -4.10900 27.88700 21.00600
C  -3.19400 29.12200 20.63200
N  -3.47700 27.02800 26.26500
C  -2.66700 27.79200 25.43100
C  -1.75300 28.63800 26.30300
C  -2.14800 28.34700 27.61600
C  -3.13100 27.33000 27.55300
C  -0.73400 29.65000 25.95500
C  -1.86600 28.67700 28.94900
O  -1.08800 29.49800 29.42100
C  -2.86300 27.83700 29.82400
C  -2.15100 27.22700 30.90600
O  -1.75400 26.06100 30.85600
O  -2.07200 28.02700 31.95800
C  -1.36700 27.46600 33.09600
H  -7.29400 22.78700 28.37800
H  -5.90700 23.34900 22.10300
H  -2.08800 28.35000 23.53200
H  -4.24500 25.09300 30.97800
H  -6.90800 24.28300 30.22600
H  -4.50800 22.92300 31.09700
H  -4.99800 22.22000 29.62100
H  -6.12500 22.23800 31.02400
H  -6.95300 26.27500 31.08100
H  -5.87500 27.55100 30.50100
H  -6.61100 27.07600 32.97200
H  -4.94900 27.61400 32.69600
H  -8.56100 20.38400 26.11900
H  -9.76100 21.77200 26.07300
H  -8.70500 21.52900 27.44100
H  -8.92400 20.06800 23.77600
H  -9.63000 20.38800 22.34100
H  -10.19800 21.40200 23.68900
H  -4.98900 25.46600 20.78300
H  -2.31000 26.74500 21.44600
H  -2.17600 24.52000 20.72100
H  -3.62600 23.75600 20.07500
H  -3.06100 23.46600 21.66200
H  -4.84300 28.24300 21.72800
H  -4.59700 27.56600 20.08500
H  -3.52400 29.93100 21.28400
H  -3.46600 29.39200 19.61200
H  -2.14100 28.89000 20.79300
H  -0.52900 29.67500 24.88400
H  0.20200 29.54800 26.50400
H  -1.15300 30.59600 26.29800
H  -3.65000 28.52600 30.13100
H  -1.97600 27.86600 33.90600
H  -0.36100 27.87800 33.17800
H  -1.20800 26.39200 33.19500

