158

Mg 24.02400 -5.04800 45.77500
C  25.98500 -2.50100 44.34600
C  21.46200 -4.04900 43.73100
C  22.55200 -8.03300 46.12600
C  26.95700 -6.31000 47.14500
N  23.74900 -3.39800 44.24200
C  24.67700 -2.41800 43.91100
C  24.06500 -1.45200 42.96000
C  22.51800 -1.74200 43.17500
C  22.56800 -3.13800 43.78100
C  21.78000 -0.79900 44.14700
C  24.59900 -1.62900 41.49200
C  24.80100 -0.27700 40.68600
H  24.75400 -0.21500 39.14800
N  22.18400 -5.86200 45.17900
C  21.32400 -5.30100 44.28600
C  20.19000 -6.14500 44.07700
C  20.39600 -7.27000 44.93200
C  21.81600 -7.11400 45.42200
C  18.98600 -5.88100 43.10500
C  19.33400 -8.34300 45.22800
O  18.20300 -8.31300 44.73900
C  19.64200 -9.50500 46.17300
N  24.67000 -6.88100 46.51200
C  23.82600 -7.94500 46.66800
C  24.51700 -9.16100 47.34700
C  25.92500 -8.64600 47.71500
C  25.87500 -7.15900 47.09100
C  23.78200 -9.67400 48.66900
C  26.98100 -9.57600 47.03000
C  28.27700 -9.83900 47.73000
N  26.03100 -4.47200 45.86800
C  27.11000 -5.05800 46.51800
C  28.24500 -4.25700 46.44900
C  27.86200 -3.30000 45.48100
C  26.51100 -3.47100 45.24600
C  29.66900 -4.54400 47.01600
C  28.35800 -2.08200 44.83800
O  29.42500 -1.59700 44.92300
C  27.18100 -1.55800 43.99600
C  26.93900 -0.05500 44.08500
O  26.56900 0.49900 45.07000
O  27.28700 0.57000 42.92400
C  27.12300 1.99300 43.01700
H  20.61400 -3.69600 43.14000
H  22.15000 -9.04100 46.24400
H  27.83500 -6.69200 47.67100
H  24.31400 -0.47800 43.38200
H  22.00400 -1.85600 42.22100
H  22.32000 0.08700 44.48000
H  21.31100 -1.39600 44.92900
H  20.98500 -0.29400 43.59900
H  23.82300 -2.20000 40.98200
H  25.53700 -2.17400 41.59700
H  25.72400 0.18500 41.03500
H  23.95400 0.32500 41.01300
H  18.86300 -6.63300 42.32600
H  19.24800 -4.96700 42.57200
H  18.05700 -5.70700 43.64900
H  20.06300 -9.31400 47.15900
H  20.13700 -10.21500 45.51000
H  18.70800 -9.97500 46.48200
H  24.52700 -9.91800 46.56200
H  26.27800 -8.52000 48.73900
H  23.28900 -10.64300 48.59500
H  23.02100 -8.93000 48.90600
H  24.45200 -9.71600 49.52800
H  27.20600 -9.21700 46.02600
H  26.52500 -10.56300 46.95700
H  28.53400 -9.15800 48.54100
H  29.09400 -9.63200 47.03900
H  28.29700 -10.84700 48.14500
H  29.95800 -5.57500 46.81400
H  29.65600 -4.47200 48.10400
H  30.36300 -3.84500 46.55000
H  27.50400 -1.87200 43.00400
H  27.68000 2.33900 42.14600
H  27.66600 2.33800 43.89700
H  26.11200 2.39900 43.02500
Mg 41.06700 9.90300 30.28800
C  42.91300 10.51100 33.15100
C  38.68600 8.25700 32.30600
C  39.51300 8.83800 27.50100
C  43.62800 11.09800 28.29700
N  40.84700 9.45400 32.51800
C  41.76600 9.82500 33.48900
C  41.23700 9.38100 34.87000
C  40.06900 8.38600 34.50700
C  39.84300 8.73700 32.99500
C  40.22900 6.83600 34.76700
C  40.87200 10.65100 35.80500
C  41.43400 10.86400 37.19500
H  40.80300 12.00200 38.08100
N  39.27700 8.76200 29.91300
C  38.40100 8.33100 30.93900
C  37.32900 7.68100 30.28300
C  37.40200 7.94600 28.89300
C  38.80600 8.54700 28.68200
C  36.30400 6.88100 30.98100
C  36.43900 7.61100 27.74800
O  36.61900 7.84100 26.58600
C  35.06300 7.03700 28.12100
N  41.54800 10.00300 28.24400
C  40.74200 9.44800 27.29200
C  41.25400 9.69200 25.88500
C  42.33100 10.74900 26.15700
C  42.51900 10.65000 27.62800
C  41.73400 8.34500 25.30300
C  41.98000 12.13700 25.70200
C  40.70600 12.72100 26.34600
N  42.87800 10.68100 30.64200
C  43.83200 11.11700 29.73500
C  44.93200 11.70300 30.42700
C  44.60900 11.52900 31.76200
C  43.36300 10.83600 31.85000
C  46.12600 12.28500 29.98100
C  45.06300 11.75400 33.18400
O  46.11800 12.32000 33.59300
C  43.97700 11.12400 34.10900
C  44.70900 10.20100 34.96200
O  45.04000 9.08400 34.59700
O  44.88600 10.80500 36.22500
C  45.59200 9.98700 37.20200
H  37.99200 7.67900 32.92000
H  38.90200 8.66500 26.61300
H  44.45300 11.61200 27.79800
H  42.03700 8.82800 35.36300
H  39.24700 8.81600 35.08000
H  40.35100 6.27600 33.84000
H  39.31300 6.51600 35.26400
H  41.01500 6.74300 35.51700
H  39.80800 10.64600 36.04300
H  41.11600 11.48800 35.15200
H  42.45900 11.20600 37.05300
H  41.59200 9.94800 37.76400
H  35.29900 7.29600 30.90600
H  36.49600 6.89300 32.05400
H  36.24100 5.86800 30.58500
H  34.28700 7.18800 27.37000
H  34.80500 7.73000 28.92200
H  35.07200 6.01900 28.51100
H  40.44000 10.15400 25.32600
H  43.25900 10.57500 25.61200
H  41.41200 7.43200 25.80400
H  42.80900 8.26700 25.13900
H  41.30800 8.34100 24.30000
H  41.86600 12.14800 24.61800
H  42.90300 12.69500 25.85500
H  40.92900 13.68700 26.79900
H  40.18900 12.14200 27.11200
H  39.89400 12.76300 25.62100
H  45.96300 13.20500 29.41900
H  46.68100 11.49600 29.47300
H  46.76500 12.56400 30.81900
H  43.60300 11.97600 34.67800
H  45.17400 8.99000 37.06300
H  45.44500 10.34400 38.22100
H  46.67500 9.97300 37.07900

