158

Mg 24.30300 -5.61100 45.67200
C  26.33800 -3.30800 44.06000
C  21.64000 -4.34700 43.73100
C  22.48200 -8.38900 46.25200
C  27.09700 -7.16500 46.98100
N  24.06600 -4.13300 43.84700
C  25.03000 -3.21200 43.59900
C  24.38900 -2.09500 42.68300
C  22.88000 -2.46000 42.64400
C  22.82200 -3.71900 43.49800
C  21.90100 -1.34400 43.13500
C  25.00900 -2.18400 41.24700
C  25.60200 -0.87300 40.63200
H  25.63400 -0.78100 39.06400
N  22.37000 -6.21700 45.15000
C  21.42300 -5.53800 44.44200
C  20.11800 -6.25400 44.47300
C  20.30900 -7.37500 45.34300
C  21.75600 -7.35100 45.65000
C  18.99400 -5.71700 43.64300
C  19.25800 -8.41400 45.67600
O  18.09500 -8.29800 45.24700
C  19.60700 -9.58800 46.50200
N  24.78700 -7.60700 46.29900
C  23.80600 -8.50100 46.61300
C  24.39800 -9.72700 47.28400
C  25.92200 -9.33800 47.38300
C  25.99200 -8.05400 46.78300
C  23.81300 -10.17200 48.65900
C  26.88000 -10.37800 46.83500
C  27.81100 -11.03400 47.84600
N  26.27800 -5.21100 45.79100
C  27.29000 -5.84900 46.48800
C  28.50100 -5.06200 46.43900
C  28.20200 -4.07400 45.48300
C  26.84700 -4.25300 45.04800
C  29.79000 -5.33000 47.10600
C  28.75300 -2.91300 44.80400
O  29.85600 -2.33200 44.84400
C  27.52800 -2.39200 43.84600
C  27.21700 -1.00300 44.24000
O  26.52200 -0.66100 45.13000
O  27.72200 -0.17300 43.18200
C  27.51000 1.27000 43.29200
H  20.77000 -3.91400 43.23300
H  21.96300 -9.32000 46.48600
H  27.93200 -7.64600 47.49500
H  24.56900 -1.09100 43.06700
H  22.51900 -2.65900 41.63500
H  21.50800 -0.81700 42.26600
H  22.53100 -0.62200 43.65500
H  21.14800 -1.69000 43.84300
H  24.61900 -2.73100 40.38800
H  25.93500 -2.73900 41.40000
H  26.62100 -0.85000 41.01700
H  25.13200 0.04400 40.98700
H  19.30800 -5.48100 42.62600
H  18.61600 -4.85700 44.19700
H  18.17500 -6.43500 43.65000
H  20.12100 -9.25800 47.40500
H  20.19800 -10.34800 45.99200
H  18.63400 -9.97100 46.81000
H  24.26900 -10.49900 46.52600
H  26.17600 -9.03600 48.39900
H  23.60200 -11.24100 48.68500
H  23.02500 -9.48600 48.97000
H  24.54100 -10.11700 49.46900
H  27.42300 -9.98600 45.97500
H  26.30700 -11.18700 46.38300
H  28.78700 -11.00800 47.36100
H  27.64800 -12.07500 48.12700
H  27.78900 -10.42500 48.74900
H  30.25800 -6.27600 46.83300
H  29.63600 -5.45600 48.17700
H  30.52300 -4.58500 46.79800
H  28.05300 -2.44000 42.89100
H  28.46000 1.63000 42.89700
H  27.36200 1.51600 44.34400
H  26.72700 1.54100 42.58400
Mg 49.05500 35.64100 27.19100
C  47.22400 33.84400 29.61600
C  49.11100 38.33700 29.49800
C  50.38500 37.48200 24.87100
C  48.43300 32.99700 24.97300
N  48.40900 35.94300 29.34300
C  47.75900 35.00700 30.11500
C  47.49500 35.56000 31.51700
C  47.68500 37.12200 31.28200
C  48.42900 37.15200 29.93600
C  46.48100 38.06700 31.35300
C  48.35400 34.89000 32.64300
C  48.63900 35.76200 33.89700
H  47.47500 36.52200 34.48900
N  49.82600 37.55400 27.24700
C  49.74800 38.49300 28.23200
C  50.45600 39.63200 27.80600
C  50.68800 39.48600 26.41500
C  50.27200 38.09600 26.15500
C  50.65500 40.83900 28.76500
C  51.10900 40.47200 25.40500
O  51.34900 40.25800 24.23600
C  51.22100 41.91800 25.83200
N  49.39700 35.26900 25.27600
C  50.06900 36.17700 24.55000
C  50.47100 35.52700 23.16400
C  50.19800 33.97800 23.38800
C  49.26100 34.03100 24.60700
C  49.60400 36.17300 22.09600
C  51.48000 33.18100 23.74300
C  51.99200 32.29200 22.61700
N  47.93500 33.86200 27.20500
C  47.73100 32.92100 26.16600
C  46.88300 31.84500 26.67900
C  46.61500 32.19700 27.98600
C  47.30800 33.41400 28.28000
C  46.62500 30.59300 25.96700
C  46.00200 31.70600 29.29100
O  45.23200 30.74400 29.51000
C  46.32700 32.71900 30.32800
C  47.03700 32.08400 31.43300
O  48.23100 31.85300 31.51200
O  46.15500 31.77900 32.43600
C  46.61900 31.02800 33.61000
H  49.04100 39.14100 30.23300
H  51.09600 37.96700 24.19800
H  48.36600 32.13400 24.30700
H  46.44600 35.37200 31.74200
H  48.40900 37.55600 31.97100
H  46.30800 38.67600 30.46600
H  46.72000 38.79400 32.12800
H  45.70100 37.37900 31.67900
H  49.28800 34.44200 32.30400
H  47.74100 34.09900 33.07300
H  49.54500 36.34900 33.74500
H  48.85500 35.25100 34.83500
H  49.98800 41.65500 28.48600
H  51.64900 41.27100 28.65000
H  50.56500 40.52600 29.80500
H  50.25100 42.23800 26.21400
H  51.61400 42.53400 25.02300
H  51.99200 41.89200 26.60200
H  51.53800 35.61400 22.96000
H  49.70700 33.56800 22.50500
H  48.70200 36.59400 22.53800
H  49.41400 35.42500 21.32600
H  50.14700 37.00300 21.64400
H  51.30500 32.56300 24.62300
H  52.28900 33.88600 23.93700
H  51.44200 32.47400 21.69400
H  51.86700 31.22400 22.79800
H  53.04600 32.49600 22.43000
H  47.51200 29.97300 26.10000
H  46.42800 30.69200 24.90000
H  45.69800 30.20900 26.39400
H  45.41400 33.14900 30.73900
H  45.90300 30.73900 34.37900
H  47.32200 31.66200 34.15000
H  47.00000 30.10300 33.17700

