158

Mg 54.69400 25.00900 44.78300
C  52.35300 27.40700 43.64000
C  52.59400 22.64200 43.72800
C  57.34100 23.02900 44.86200
C  56.62200 27.75100 45.94900
N  52.87200 25.15400 43.45300
C  52.08800 26.17500 43.00100
C  50.75700 25.71100 42.31100
C  50.74600 24.28200 42.98400
C  52.23000 23.96600 43.40700
C  49.69400 24.05900 44.13400
C  50.73400 25.77000 40.76400
C  51.79300 26.45100 39.93600
H  52.89400 25.62000 39.25200
N  54.94400 23.03800 44.33300
C  53.91100 22.18600 44.06200
C  54.43100 20.79700 44.21400
C  55.80500 20.83800 44.52600
C  56.13600 22.35000 44.54500
C  53.57500 19.66000 43.91300
C  56.77100 19.68900 44.74000
O  56.33400 18.57700 44.77300
C  58.11000 19.86700 45.07800
N  56.69000 25.38700 45.20400
C  57.61700 24.37100 45.17000
C  59.07700 24.89400 45.55200
C  58.70700 26.27800 46.19600
C  57.26600 26.51600 45.79500
C  59.97500 23.96700 46.43100
C  59.73600 27.44700 45.89500
C  60.48800 27.98700 47.01100
N  54.50200 27.09300 44.93000
C  55.31300 28.02800 45.58300
C  54.63800 29.34400 45.61300
C  53.51100 29.08600 44.84100
C  53.43000 27.74100 44.47600
C  55.09100 30.57200 46.24700
C  52.32000 29.71800 44.40800
O  51.90300 30.85000 44.49400
C  51.47600 28.66900 43.70600
C  51.17600 29.16800 42.32400
O  51.91100 29.65300 41.51100
O  49.81500 28.89000 42.08700
C  49.06900 29.53900 41.01900
H  51.85300 21.89000 43.44900
H  58.21300 22.37200 44.83800
H  57.27400 28.54900 46.31000
H  49.98400 26.35500 42.73200
H  50.62800 23.56400 42.17300
H  50.19300 23.57100 44.97100
H  48.90800 23.40500 43.75800
H  49.35400 25.05400 44.42200
H  49.72500 26.13900 40.58100
H  50.59400 24.75100 40.40100
H  52.29200 27.14100 40.61600
H  51.26300 27.02100 39.17300
H  54.11100 18.79500 44.30500
H  53.15300 19.40200 42.94200
H  52.69700 19.71100 44.55700
H  58.43200 18.92100 45.51400
H  58.25500 20.59200 45.87800
H  58.59200 20.13300 44.13700
H  59.65000 25.14300 44.65900
H  58.59000 26.15300 47.27200
H  61.02300 24.20500 46.24600
H  59.67900 22.93100 46.26800
H  59.65500 24.06300 47.46800
H  59.32500 28.25700 45.29300
H  60.51400 27.06100 45.23600
H  61.51400 27.62700 47.08200
H  60.06100 27.74600 47.98400
H  60.40300 29.07300 47.00300
H  55.26400 30.37700 47.30500
H  54.32900 31.33700 46.09300
H  55.98000 30.82800 45.67000
H  50.52800 28.57000 44.23500
H  49.40100 29.30600 40.00700
H  49.03700 30.57300 41.36300
H  48.04300 29.18100 41.10600
Mg 47.43000 16.70500 28.49700
C  45.89400 16.72600 31.52700
C  49.80900 18.87900 29.74400
C  48.65600 17.07400 25.26800
C  44.69500 15.05600 27.05900
N  47.94300 17.51300 30.45900
C  47.11600 17.38400 31.58000
C  47.78700 17.92900 32.83400
C  48.78100 18.97800 32.16900
C  48.89000 18.43200 30.70800
C  48.43600 20.53100 32.27400
C  48.27700 16.73300 33.73900
C  48.09600 16.84700 35.26100
H  47.79300 18.30600 35.80200
N  49.04500 17.70600 27.72200
C  49.96300 18.52300 28.39000
C  50.88300 19.10500 27.46000
C  50.60800 18.52900 26.17500
C  49.38600 17.74400 26.36200
C  51.77600 20.26400 27.78200
C  51.32300 18.77400 24.80200
O  50.83500 18.50500 23.76900
C  52.69400 19.49700 24.79100
N  46.70600 16.23600 26.41100
C  47.48700 16.37900 25.27000
C  46.77700 15.80500 24.02200
C  45.56300 15.02900 24.58600
C  45.66900 15.40100 26.12200
C  46.45000 16.90000 23.05500
C  45.51000 13.45600 24.40300
C  44.87700 13.01800 23.08700
N  45.65100 15.97300 29.09200
C  44.59800 15.32800 28.46300
C  43.61200 14.98600 29.43900
C  44.04200 15.54800 30.65200
C  45.30700 16.07400 30.41600
C  42.32000 14.31000 29.17800
C  43.68400 15.74400 32.03000
O  42.70000 15.31200 32.63400
C  44.83800 16.51600 32.69400
C  44.32300 17.79300 33.30500
O  43.90600 18.73300 32.71600
O  43.98900 17.46800 34.61600
C  43.28400 18.43200 35.44600
H  50.39600 19.72500 30.10800
H  48.99000 17.22600 24.24000
H  43.96000 14.34500 26.67900
H  47.10000 18.55900 33.39900
H  49.71400 18.74000 32.68000
H  49.33600 21.14100 32.35900
H  47.87500 20.72900 33.18700
H  47.90000 20.89500 31.39800
H  49.34600 16.67000 33.53400
H  47.83200 15.80900 33.36700
H  49.12900 16.63900 35.54000
H  47.32700 16.13700 35.56800
H  51.44000 21.16200 27.26300
H  52.78000 19.96400 27.48100
H  51.89200 20.43900 28.85200
H  52.35800 20.53300 24.81900
H  53.24900 19.29700 23.87400
H  53.32700 19.22600 25.63500
H  47.50200 15.14000 23.55200
H  44.65400 15.48600 24.19600
H  45.49500 16.69300 22.57300
H  47.23500 17.06000 22.31600
H  46.31900 17.84400 23.58500
H  45.12600 12.88900 25.25100
H  46.57300 13.21400 24.38100
H  45.49900 13.35500 22.25800
H  43.85200 13.34700 22.91800
H  44.77800 11.94100 23.22000
H  41.95800 14.53500 28.17400
H  41.45200 14.53600 29.79700
H  42.42400 13.23200 29.30300
H  45.21200 15.91500 33.52400
H  43.20800 19.32800 34.83100
H  43.85600 18.60100 36.35800
H  42.31600 17.94500 35.57200

