158

Mg 8.32300 2.97500 28.00600
C  9.95600 1.64400 30.91700
C  6.42900 4.86300 30.15500
C  6.90700 4.07800 25.26200
C  10.21000 0.65900 26.10300
N  8.21800 3.12500 30.30200
C  9.04600 2.64500 31.23100
C  8.73000 3.24200 32.61400
C  7.46400 4.15100 32.33100
C  7.39400 4.08500 30.85400
C  6.19000 3.80000 33.01600
C  9.98400 4.01100 33.20400
C  9.78400 4.65400 34.58300
H  10.73900 4.29800 35.77200
N  6.83100 4.30800 27.77700
C  6.17900 5.03200 28.75600
C  5.25700 6.01000 28.04000
C  5.41900 5.70700 26.66300
C  6.36100 4.60300 26.50900
C  4.29900 7.02300 28.73900
C  4.64100 6.37900 25.44100
O  4.70600 6.04800 24.23400
C  3.81200 7.55700 25.70300
N  8.66000 2.53300 25.97300
C  7.90200 3.13300 25.00300
C  8.43800 2.73500 23.62300
C  9.42300 1.59200 23.86400
C  9.49000 1.61000 25.38900
C  7.36200 2.32100 22.61300
C  10.75600 1.68900 23.08500
C  11.06200 0.45200 22.25900
N  9.70900 1.43900 28.38700
C  10.44000 0.57400 27.51700
C  11.22500 -0.33300 28.27100
C  11.11300 0.05800 29.59800
C  10.18600 1.13400 29.64000
C  12.04800 -1.39000 27.73200
C  11.58300 -0.17600 30.95700
O  12.41700 -0.94100 31.39600
C  10.90000 0.90400 31.85300
C  10.14600 0.11400 32.88400
O  9.02800 -0.41100 32.71400
O  10.93300 -0.03900 33.96200
C  10.48700 -0.85900 35.05200
H  5.83500 5.54900 30.76300
H  6.48600 4.45100 24.32600
H  10.77500 -0.13200 25.60600
H  8.56600 2.34000 33.20300
H  7.69500 5.18200 32.59800
H  6.40400 3.28200 33.95100
H  5.63600 3.05400 32.44700
H  5.58300 4.68100 33.22400
H  10.14500 4.73700 32.40600
H  10.87100 3.38000 33.18200
H  8.79600 4.61000 35.04100
H  10.09300 5.65900 34.29300
H  4.33000 6.97000 29.82700
H  3.26600 6.78400 28.48900
H  4.64800 8.03000 28.51200
H  3.38500 8.02000 24.81400
H  4.52700 8.31100 26.03300
H  2.98600 7.22900 26.33500
H  8.97800 3.55100 23.14300
H  8.91400 0.66200 23.61200
H  7.44900 1.27400 22.32400
H  7.40000 2.94300 21.71800
H  6.32800 2.35200 22.95800
H  11.56400 1.76300 23.81200
H  10.70400 2.50200 22.36000
H  10.22600 0.02400 21.70400
H  11.55900 -0.35400 22.79900
H  11.89000 0.74000 21.61200
H  12.50700 -1.11900 26.78100
H  11.31900 -2.18100 27.55700
H  12.86700 -1.60500 28.41800
H  11.63300 1.55700 32.32500
H  9.99300 -0.36900 35.89200
H  11.34900 -1.35200 35.50300
H  9.89900 -1.75200 34.84100
Mg 17.58400 52.25100 26.26200
C  19.63500 50.65200 28.44700
C  15.29800 52.71400 28.84300
C  15.43100 53.50200 24.06700
C  19.57700 51.00800 23.68400
N  17.57700 51.90600 28.34500
C  18.52200 51.21100 29.12300
C  18.17800 51.22900 30.59700
C  16.58600 51.38700 30.40300
C  16.52600 52.15200 29.15100
C  15.81900 50.00100 30.48900
C  18.84700 52.42800 31.25900
C  18.85200 52.40800 32.82600
H  17.90700 51.51000 33.67400
N  15.62000 53.11700 26.47200
C  14.85900 53.22200 27.60300
C  13.66000 54.02300 27.24700
C  13.70700 54.28400 25.83400
C  14.89700 53.57300 25.33900
C  12.66700 54.51200 28.30200
C  12.73300 55.06800 24.96500
O  12.95000 55.18600 23.80400
C  11.42800 55.45700 25.64000
N  17.68200 52.43100 24.14600
C  16.56300 52.91300 23.48200
C  16.78900 52.79300 21.93600
C  18.16800 52.13400 21.87200
C  18.52400 51.83100 23.31700
C  15.66000 52.01200 21.25300
C  19.27600 52.96000 21.08200
C  20.53500 53.55700 21.69700
N  19.28700 51.11500 26.08000
C  19.88600 50.63900 25.02400
C  21.06600 49.85600 25.39100
C  20.93000 49.76100 26.75000
C  19.89900 50.64400 27.08000
C  21.94300 49.04700 24.48600
C  21.46600 49.14500 27.94700
O  22.38000 48.40800 28.16800
C  20.70000 49.84100 29.05400
C  20.27300 48.86000 30.04600
O  19.67300 47.82100 29.80200
O  20.78500 49.09100 31.28700
C  20.52500 48.12400 32.40700
H  14.66600 52.90400 29.71300
H  14.74700 53.81400 23.27500
H  20.20700 50.77900 22.82200
H  18.53100 50.30400 31.05200
H  16.28200 51.97800 31.26700
H  15.61600 49.80600 29.43600
H  15.01400 50.06400 31.22100
H  16.36400 49.07300 30.66300
H  18.33300 53.35800 31.01400
H  19.87500 52.47600 30.90100
H  18.60100 53.38900 33.23000
H  19.86600 52.15200 33.13500
H  13.03400 54.15400 29.26400
H  11.68500 54.07500 28.11900
H  12.57100 55.59700 28.26700
H  11.68800 56.13500 26.45300
H  10.87900 54.56600 25.94200
H  10.91800 56.00800 24.85000
H  16.81300 53.82300 21.58200
H  18.05700 51.14400 21.43100
H  15.82000 50.98100 20.93600
H  15.48500 52.57300 20.33400
H  14.68700 52.14800 21.72300
H  18.77300 53.83900 20.67800
H  19.47900 52.27900 20.25500
H  20.65900 54.55100 21.26500
H  21.38800 52.91500 21.47800
H  20.51300 53.56000 22.78600
H  22.98900 49.17900 24.76200
H  21.92200 49.38400 23.44900
H  21.63200 48.00700 24.58300
H  21.43800 50.49800 29.51600
H  20.65600 47.08700 32.09600
H  19.54400 48.35200 32.82400
H  21.35700 48.43200 33.04000

