158

Mg 43.91700 3.37500 46.72900
C  41.84200 6.40300 46.32500
C  41.05300 1.63000 46.33500
C  45.90200 0.70800 46.38300
C  46.69000 5.48200 46.62400
N  41.76400 4.00500 46.29100
C  41.11400 5.22700 46.20700
C  39.62700 5.08100 46.33500
C  39.43200 3.55800 46.58200
C  40.84700 3.01900 46.51600
C  38.74200 3.32500 47.94400
C  38.98400 5.64300 45.01400
C  39.28500 4.89200 43.71500
H  39.62200 5.63000 42.40600
N  43.45400 1.44000 46.37400
C  42.26600 0.83600 46.20500
C  42.40700 -0.53200 46.00600
C  43.80900 -0.77000 45.94500
C  44.49800 0.44300 46.25200
C  41.33900 -1.47500 45.97100
C  44.38400 -2.21200 45.68000
O  43.62600 -3.17300 45.56000
C  45.80100 -2.55800 45.69300
N  46.05000 3.11000 46.41900
C  46.51800 1.91900 46.64400
C  47.98900 1.92900 46.89100
C  48.26400 3.50700 46.92000
C  46.93900 4.07600 46.66600
C  48.56100 1.08900 48.09800
C  49.45600 4.05900 45.97500
C  50.87600 3.47800 46.25600
N  44.31500 5.52700 46.54300
C  45.48200 6.19100 46.59000
C  45.25500 7.62800 46.61700
C  43.83100 7.70500 46.58700
C  43.28000 6.43600 46.48900
C  46.24300 8.67500 46.48700
C  42.70100 8.69600 46.59800
O  42.60800 9.91000 46.72800
C  41.40600 7.80500 46.50300
C  40.60400 8.00800 47.74300
O  40.75700 7.55700 48.84000
O  39.41800 8.60400 47.41400
C  38.42800 8.68500 48.50500
H  40.25400 0.92400 46.09900
H  46.54000 -0.17500 46.44900
H  47.54300 6.13900 46.80800
H  39.23700 5.65800 47.17400
H  38.74400 3.20100 45.81600
H  38.36100 4.27700 48.31400
H  39.46300 2.98500 48.68700
H  37.96600 2.59000 47.72700
H  39.37300 6.62000 44.73000
H  37.94400 5.86000 45.25700
H  38.48000 4.24500 43.36600
H  40.11500 4.22300 43.94000
H  41.18800 -2.00800 45.03200
H  40.33700 -1.08200 46.14400
H  41.49600 -2.31100 46.65200
H  46.13300 -1.99400 44.82200
H  46.06000 -3.60100 45.51200
H  46.34200 -2.45600 46.63400
H  48.50700 1.52900 46.01900
H  48.38300 3.74900 47.97600
H  49.31600 0.41300 47.69600
H  47.76500 0.51100 48.56800
H  48.98900 1.80700 48.79800
H  49.58200 5.12900 46.14400
H  49.22900 3.88500 44.92300
H  50.84900 2.60100 46.90200
H  51.40600 4.32800 46.68600
H  51.27400 3.08300 45.32100
H  45.87500 9.59000 46.02300
H  47.00400 8.35700 45.77400
H  46.70000 8.73800 47.47400
H  40.83400 8.04700 45.60700
H  37.91100 7.75800 48.75300
H  37.69400 9.37700 48.09400
H  38.66700 9.20000 49.43500
Mg 53.91600 23.98500 44.82900
C  50.93200 25.79100 44.00800
C  52.28100 21.16800 43.96700
C  56.81500 22.31000 45.24300
C  55.58100 27.00400 45.44000
N  51.92600 23.60800 43.97100
C  50.85200 24.42800 43.72700
C  49.69300 23.66300 43.24400
C  49.97300 22.15500 43.72200
C  51.49200 22.34700 43.91300
C  49.15600 21.69700 45.00100
C  49.55500 23.91800 41.69100
C  48.20900 23.94600 41.04200
H  48.03800 23.23600 39.68600
N  54.44800 22.08000 44.54300
C  53.64800 21.01300 44.27400
C  54.32100 19.79700 44.35900
C  55.58900 20.11600 44.82500
C  55.66300 21.56700 44.82300
C  53.68400 18.46800 43.94900
C  56.65600 19.05900 45.24500
O  56.37800 17.85500 45.19100
C  57.93900 19.42000 45.86400
N  55.99200 24.57700 45.08800
C  57.00600 23.69500 45.30700
C  58.24000 24.46400 45.69100
C  57.80900 25.96200 45.85600
C  56.34300 25.83800 45.38800
C  59.03300 23.76000 46.91700
C  58.78500 27.03700 45.14700
C  59.24900 28.22400 46.04300
N  53.41600 25.97900 44.69300
C  54.20700 27.08400 45.14600
C  53.24200 28.24100 45.17500
C  51.98900 27.75800 44.80100
C  52.13600 26.35600 44.46400
C  53.71700 29.62800 45.62500
C  50.56800 28.13100 44.66200
O  50.05200 29.22600 44.82900
C  49.87900 26.93300 43.96900
C  49.43900 27.36500 42.69800
O  50.11300 27.58600 41.70000
O  48.03500 27.34600 42.63400
C  47.51000 27.90500 41.39500
H  51.70000 20.27300 43.73800
H  57.72000 21.72400 45.41000
H  55.99000 27.92400 45.86400
H  48.79900 23.95800 43.79300
H  49.69400 21.47100 42.92000
H  49.74400 21.90400 45.89500
H  48.78800 20.67400 44.92200
H  48.31900 22.35500 45.23600
H  50.23300 23.21100 41.21400
H  49.89600 24.93100 41.47900
H  47.80800 24.95000 40.90100
H  47.55600 23.42200 41.74000
H  54.50000 17.79300 43.69300
H  52.98200 18.59000 43.12400
H  53.19200 18.12800 44.86100
H  58.66100 19.92900 45.22700
H  58.36900 18.49100 46.23900
H  57.59500 20.05900 46.67700
H  58.85100 24.39300 44.79100
H  57.73700 26.12000 46.93200
H  58.51800 22.93000 47.40200
H  59.32800 24.50000 47.66000
H  59.91200 23.39200 46.38700
H  58.43600 27.45700 44.20300
H  59.68300 26.50800 44.82800
H  58.89100 29.16200 45.61900
H  60.33400 28.28900 46.12300
H  58.83700 28.16900 47.05000
H  54.79500 29.68900 45.77200
H  53.18900 29.84400 46.55400
H  53.30500 30.38300 44.95600
H  48.96200 26.72000 44.51900
H  48.11200 27.68700 40.51300
H  47.42800 28.98400 41.52700
H  46.55100 27.40100 41.27900

