158

Mg 25.82100 -0.13200 29.05000
C  27.61900 -0.65800 32.01400
C  22.94400 -0.03500 30.84000
C  24.14700 0.20800 26.22500
C  28.82900 -0.81500 27.19500
N  25.36900 -0.31400 31.13400
C  26.23800 -0.44500 32.21600
C  25.49100 -0.34400 33.60600
C  23.98600 -0.26200 33.18500
C  24.09600 -0.25400 31.61900
C  23.05000 -1.33400 33.83100
C  26.00300 0.88300 34.49500
C  26.46200 0.70200 35.94900
H  26.21400 1.79500 36.99000
N  23.85900 0.17900 28.60400
C  22.76300 0.20400 29.45000
C  21.49900 0.24300 28.77100
C  21.83900 0.34800 27.38100
C  23.35300 0.30800 27.35600
C  20.10800 0.12200 29.32000
C  21.02300 0.45900 26.13900
O  21.58100 0.48400 25.01300
C  19.58200 0.41300 26.22800
N  26.40900 -0.44500 26.98700
C  25.54100 -0.00200 26.03800
C  26.11400 -0.10600 24.56800
C  27.66600 -0.28100 24.88100
C  27.69000 -0.52800 26.41500
C  25.40400 -1.08300 23.67400
C  28.56100 0.92900 24.44600
C  28.19600 2.23900 25.01500
N  27.79000 -0.62700 29.45000
C  28.85300 -0.88000 28.58500
C  30.00500 -1.22900 29.38700
C  29.54200 -1.10200 30.72500
C  28.23900 -0.74100 30.74100
C  31.40600 -1.40100 28.87400
C  30.02700 -1.23300 32.09500
O  31.16200 -1.49100 32.47200
C  28.77200 -0.82900 33.03200
C  28.51400 -2.07000 33.84300
O  27.74200 -2.95200 33.48100
O  29.20100 -1.88400 35.05200
C  28.84000 -2.97600 35.99100
H  21.95700 0.01400 31.30500
H  23.84300 0.59300 25.24900
H  29.74400 -1.00000 26.62800
H  25.65800 -1.25100 34.18600
H  23.56000 0.72600 33.36000
H  23.50500 -1.74000 34.73400
H  22.81800 -2.14900 33.14600
H  22.11800 -0.86400 34.14600
H  25.18500 1.59700 34.59300
H  26.86600 1.38400 34.05700
H  27.55000 0.67900 35.88000
H  26.07200 -0.23800 36.33900
H  20.15700 -0.02100 30.40000
H  19.41700 -0.53900 28.79600
H  19.63300 1.10300 29.33100
H  19.21600 1.12200 26.97000
H  19.37800 -0.64100 26.41600
H  19.23000 0.73100 25.24700
H  25.95100 0.87100 24.11200
H  28.10200 -1.18700 24.46200
H  26.11700 -1.76100 23.20300
H  25.03300 -0.43000 22.88400
H  24.57000 -1.60000 24.14600
H  28.49000 1.16700 23.38500
H  29.59500 0.73500 24.73200
H  29.03900 2.65000 25.57000
H  27.33900 2.18200 25.68700
H  27.93700 3.00000 24.28000
H  31.45300 -2.04300 27.99500
H  32.04700 -1.59800 29.73300
H  31.51000 -0.40000 28.45600
H  29.03300 0.13000 33.47800
H  29.73200 -3.01700 36.61700
H  28.72200 -3.92300 35.46300
H  27.98200 -2.65800 36.58300
Mg 25.82500 50.87900 26.42100
C  23.50200 51.88700 28.89000
C  28.09300 50.36200 29.02200
C  28.22200 50.76700 24.07900
C  23.52300 51.97700 24.04500
N  25.75400 51.07500 28.69500
C  24.68100 51.24900 29.41400
C  24.90500 50.96200 30.89600
C  26.48000 50.76200 30.88600
C  26.80400 50.73900 29.37000
C  27.27900 51.85300 31.62500
C  24.15700 49.71200 31.47100
C  23.14200 49.92500 32.64300
H  23.37000 49.17500 33.93800
N  27.82800 50.37100 26.50600
C  28.51700 50.18500 27.64900
C  29.85500 49.74300 27.24900
C  29.91300 49.86300 25.82900
C  28.62200 50.33600 25.39500
C  30.91100 49.31200 28.21100
C  31.06100 49.51800 24.91800
O  30.92200 49.64000 23.73300
C  32.30800 49.01300 25.51300
N  25.90700 51.28000 24.29500
C  26.98300 51.17500 23.52800
C  26.62400 51.49700 21.98900
C  25.08300 51.72100 22.06300
C  24.79400 51.64500 23.53700
C  27.49800 52.71800 21.64100
C  24.20400 50.70600 21.20100
C  23.85400 51.15600 19.77000
N  23.96300 51.80200 26.40400
C  23.10500 52.11400 25.36300
C  21.86200 52.64100 25.91300
C  21.99400 52.61700 27.28400
C  23.25600 52.05800 27.55200
C  20.73000 53.20400 25.05600
C  21.32500 52.89100 28.52100
O  20.21600 53.35400 28.78900
C  22.35500 52.41400 29.68600
C  22.74900 53.62100 30.47700
O  23.66900 54.41700 30.21000
O  21.81500 53.77900 31.48000
C  22.14300 54.86800 32.41200
H  28.84300 50.05700 29.75400
H  29.04000 50.84200 23.36000
H  22.69800 52.20300 23.36600
H  24.64200 51.86000 31.45600
H  26.66400 49.78500 31.33200
H  27.59900 51.69400 32.65500
H  26.80100 52.81200 31.42200
H  28.25600 51.97800 31.15900
H  24.91000 49.02300 31.85300
H  23.48000 49.28700 30.73000
H  22.16600 49.63100 32.25800
H  23.31700 50.97100 32.89300
H  31.04400 48.23200 28.26500
H  30.77800 49.77800 29.18800
H  31.85500 49.77900 27.92800
H  32.17100 48.25900 26.28800
H  32.81400 49.93500 25.80000
H  32.84800 48.56100 24.68200
H  26.91000 50.62800 21.39600
H  24.89400 52.71100 21.64800
H  28.57300 52.53600 21.61800
H  27.34600 53.62800 22.22100
H  27.30700 52.91800 20.58600
H  23.24100 50.60000 21.70200
H  24.63300 49.71700 21.04300
H  24.06700 50.39700 19.01800
H  24.45000 52.02900 19.50400
H  22.79000 51.38200 19.69800
H  19.87900 53.32600 25.72600
H  20.36200 52.55900 24.25800
H  21.04000 54.18500 24.69800
H  21.99800 51.66800 30.39600
H  23.03000 54.69400 33.02000
H  21.35900 55.07800 33.13900
H  22.31000 55.84900 31.96700

