158

Mg 35.12100 2.23400 29.72900
C  32.97000 3.34000 32.07800
C  37.66900 2.32800 31.97200
C  37.60100 1.86900 27.15900
C  32.65000 2.54700 27.39200
N  35.28200 2.79500 31.72700
C  34.28600 3.12500 32.58000
C  34.82700 3.51800 33.93300
C  36.30400 3.40000 33.79000
C  36.42600 2.74200 32.43500
C  37.17000 4.61600 33.90900
C  34.21200 2.58600 35.10900
C  34.03000 3.20400 36.43400
H  35.14200 4.23300 36.97100
N  37.28200 1.95300 29.65200
C  38.07100 1.91600 30.69300
C  39.40200 1.49500 30.28500
C  39.39500 1.37900 28.85400
C  38.04500 1.70900 28.47600
C  40.53100 1.38100 31.31500
C  40.45100 1.05600 27.91800
O  40.31000 0.85400 26.68900
C  41.89200 0.92800 28.50400
N  35.18100 2.60500 27.59900
C  36.24600 2.24000 26.79500
C  35.81000 1.98500 25.35600
C  34.24900 1.84500 25.42800
C  34.00600 2.51000 26.82300
C  36.30700 3.13300 24.37300
C  33.67500 0.44300 25.30800
C  32.19000 0.22200 24.84700
N  33.15500 2.75100 29.67100
C  32.31700 2.80600 28.64100
C  30.99900 3.19100 29.10100
C  31.16600 3.37100 30.48600
C  32.48900 3.17500 30.79900
C  29.76600 3.25700 28.27500
C  30.54500 3.74000 31.75200
O  29.35900 3.92500 32.00600
C  31.69100 3.75700 32.86500
C  31.74200 5.07800 33.39500
O  31.86000 6.11100 32.76000
O  31.54300 5.02600 34.74500
C  31.13700 6.23200 35.48300
H  38.46700 2.22000 32.71000
H  38.13300 1.65600 26.22900
H  31.92500 2.42700 26.58500
H  34.57700 4.55400 34.15900
H  36.75400 2.76200 34.55000
H  36.63800 5.39800 34.45100
H  37.32000 5.12000 32.95400
H  38.06900 4.21600 34.37600
H  34.76500 1.64900 35.17500
H  33.20400 2.32800 34.78700
H  34.13800 2.31600 37.05700
H  33.06600 3.69100 36.29000
H  40.75300 0.31400 31.33300
H  40.14000 1.74200 32.26600
H  41.47000 1.79700 30.94900
H  42.00900 0.01000 29.07900
H  42.23100 1.88600 28.89900
H  42.51400 0.84600 27.61200
H  36.23900 1.02000 25.08500
H  33.73600 2.53500 24.75700
H  36.57600 4.03200 24.92700
H  35.46200 3.37700 23.72900
H  37.16200 2.72900 23.83100
H  33.80900 -0.09400 26.24700
H  34.30400 -0.09500 24.59800
H  32.24900 -0.26200 23.87200
H  31.62200 1.15200 24.81200
H  31.63000 -0.37500 25.56800
H  29.40500 4.27000 28.10000
H  28.97500 2.75500 28.83200
H  29.88800 2.78600 27.29900
H  31.59500 2.91300 33.54900
H  30.87200 7.06400 34.83100
H  32.04500 6.53700 36.00300
H  30.33400 5.97500 36.17400
Mg 54.05700 24.59900 44.40800
C  51.46800 26.98500 44.02100
C  51.68800 22.20500 43.53100
C  56.56100 22.61100 43.54300
C  56.31100 27.30800 45.04000
N  51.87100 24.65100 43.73400
C  51.02700 25.70700 43.78500
C  49.62800 25.21100 43.38000
C  49.67800 23.77700 43.87300
C  51.15900 23.54400 43.69500
C  49.03100 23.57400 45.22300
C  49.29600 25.32300 41.80100
C  50.48000 25.51100 40.81000
H  51.22000 24.31300 40.47000
N  54.14200 22.61600 43.67800
C  53.06800 21.81700 43.43100
C  53.54600 20.47900 43.14300
C  54.95400 20.60200 43.09000
C  55.29900 21.97600 43.43100
C  52.60800 19.33700 42.75900
C  55.89500 19.45900 42.81500
O  55.46600 18.35900 42.50600
C  57.41900 19.58800 43.11200
N  56.10200 24.84100 44.51400
C  56.95000 23.82600 44.11300
C  58.36900 24.24900 44.38200
C  58.30400 25.77900 44.53600
C  56.80900 26.01300 44.75000
C  59.10500 23.44500 45.44600
C  58.80900 26.63100 43.44500
C  58.09800 26.53800 42.03300
N  53.89700 26.68200 44.69600
C  54.93100 27.67300 45.04400
C  54.34500 28.92600 45.14100
C  52.98500 28.67400 44.73400
C  52.77800 27.35200 44.41900
C  55.06000 30.14700 45.61700
C  51.76000 29.29800 44.51400
O  51.48600 30.46600 44.48200
C  50.71900 28.31200 43.90900
C  50.29700 28.73100 42.49400
O  51.07700 29.01400 41.60200
O  48.99900 28.66500 42.32900
C  48.47000 29.02600 41.03900
H  50.93000 21.42200 43.46600
H  57.53300 22.16600 43.31600
H  57.06100 28.09800 45.12200
H  48.88100 25.85000 43.85000
H  49.22600 23.11000 43.13900
H  48.20200 22.86700 45.23700
H  48.52800 24.48900 45.53300
H  49.77700 23.27100 45.95800
H  48.65400 26.18700 41.62800
H  48.68800 24.45900 41.53300
H  51.07500 26.34400 41.18200
H  50.13600 25.95500 39.87600
H  53.25500 18.45900 42.74400
H  52.13800 19.55800 41.80100
H  51.78200 19.21200 43.45900
H  57.98000 20.08800 42.32200
H  57.84600 18.58900 43.20600
H  57.68700 20.16300 43.99800
H  58.94900 23.93700 43.51300
H  58.77400 26.02500 45.48800
H  59.68200 22.66100 44.95800
H  58.37700 22.89700 46.04500
H  59.75000 24.06200 46.07200
H  59.83800 26.27700 43.38300
H  58.78500 27.69200 43.69500
H  57.79800 27.55600 41.78600
H  57.22800 25.88300 42.07000
H  58.66000 26.05000 41.23700
H  55.02400 30.16700 46.70600
H  54.44500 31.01200 45.36900
H  56.06100 30.15600 45.18600
H  49.86800 28.49600 44.56500
H  47.58900 29.66700 41.01900
H  48.22700 28.23400 40.33100
H  49.05000 29.79100 40.52200

