158

Mg 8.57800 3.56100 27.75600
C  10.07100 2.18200 30.65900
C  6.72500 5.61100 29.69000
C  7.29700 4.95300 24.97500
C  10.08700 1.05700 25.86600
N  8.46000 3.89200 29.95800
C  9.23300 3.27100 30.94400
C  8.87100 3.86700 32.34100
C  7.62200 4.71400 31.94300
C  7.58600 4.78000 30.39300
C  6.37700 4.11500 32.61000
C  10.06200 4.73600 33.01300
C  10.88900 4.05600 34.02500
H  11.32900 4.77700 35.30700
N  7.24200 5.07200 27.39300
C  6.55400 5.83800 28.33700
C  5.78000 6.75400 27.67400
C  5.83600 6.51600 26.26000
C  6.78000 5.46600 26.15200
C  4.90700 7.71400 28.43300
C  5.01400 7.12900 25.12800
O  5.16000 6.84200 23.96000
C  4.00000 8.19500 25.47600
N  8.68400 3.08800 25.80600
C  8.16700 3.85500 24.81500
C  8.48300 3.45400 23.42400
C  9.32800 2.12300 23.67700
C  9.45100 2.12600 25.16100
C  7.22700 3.10900 22.65200
C  10.79100 2.11000 23.01800
C  11.18100 0.81500 22.25500
N  9.69400 1.90500 28.16300
C  10.28400 0.99700 27.24800
C  11.16900 0.08900 27.97000
C  11.10300 0.52800 29.35800
C  10.19700 1.60900 29.38600
C  12.05100 -0.99300 27.37500
C  11.69900 0.39200 30.64300
O  12.55500 -0.37200 31.05500
C  11.02700 1.47600 31.52200
C  10.50500 0.87400 32.79600
O  9.34000 0.62800 33.04900
O  11.50800 0.80600 33.68500
C  11.06500 0.30800 35.07600
H  6.22100 6.24500 30.42300
H  6.79100 5.40100 24.11700
H  10.74600 0.34700 25.36200
H  8.69200 2.98600 32.95700
H  7.59700 5.73100 32.33500
H  5.91700 4.92000 33.18400
H  6.55600 3.27200 33.27700
H  5.74900 3.69200 31.82600
H  9.69000 5.67000 33.43300
H  10.74400 5.01100 32.20900
H  11.76800 3.62000 33.55000
H  10.36400 3.15700 34.34900
H  5.22300 8.73900 28.23900
H  5.04900 7.61200 29.50900
H  3.84600 7.51400 28.28700
H  4.39900 9.03400 26.04700
H  3.16900 7.71400 25.99000
H  3.60000 8.61400 24.55300
H  9.05600 4.24300 22.93800
H  8.70900 1.26000 23.43000
H  6.31700 3.44400 23.14900
H  7.06500 2.06000 22.40100
H  7.20800 3.60500 21.68100
H  11.41500 2.19900 23.90700
H  10.90200 2.94200 22.32300
H  12.24200 0.68400 22.46700
H  11.17300 0.97900 21.17800
H  10.79000 -0.16400 22.53300
H  12.85100 -1.22000 28.08000
H  12.65800 -0.68800 26.52300
H  11.51600 -1.91800 27.16000
H  11.79300 2.23900 31.66500
H  10.20400 0.90800 35.37100
H  11.77900 0.29300 35.89900
H  10.77800 -0.73900 34.96900
Mg 46.56900 24.37400 28.95500
C  47.63000 26.71400 31.29700
C  45.72100 22.32200 31.55800
C  46.10600 21.92700 26.70300
C  47.85500 26.48500 26.41800
N  46.79800 24.44600 31.21200
C  47.03400 25.61200 31.96800
C  46.76100 25.44000 33.47200
C  46.29900 23.95800 33.49700
C  46.18100 23.53600 32.03400
C  47.15600 22.99100 34.35700
C  45.69100 26.39900 33.97500
C  45.52500 26.83400 35.52800
H  46.33900 26.15700 36.70300
N  45.85200 22.45500 29.11100
C  45.52100 21.82000 30.26600
C  45.09100 20.45500 29.90900
C  45.10900 20.27200 28.50600
C  45.73800 21.53800 28.05000
C  44.66500 19.40600 30.89800
C  44.67900 19.13200 27.60200
O  44.71700 19.19100 26.37600
C  44.05600 18.06900 28.25900
N  47.19900 24.14800 26.88000
C  46.70100 23.09900 26.16200
C  46.93400 23.28400 24.64700
C  47.49600 24.71000 24.59100
C  47.47800 25.21900 26.01600
C  47.89500 22.24500 24.03500
C  46.79700 25.66900 23.56700
C  47.79200 26.53700 22.71500
N  47.66500 26.15800 28.86200
C  47.98400 26.94000 27.72600
C  48.67900 28.20100 28.15900
C  48.48300 28.12300 29.55100
C  47.93000 26.87300 29.93600
C  49.46900 29.14500 27.36400
C  48.75400 28.89800 30.77300
O  49.29800 29.99000 30.92200
C  48.13600 27.93000 31.91600
C  49.17900 27.89400 32.99500
O  50.31900 27.33100 32.92200
O  48.70900 28.43400 34.12500
C  49.50500 28.51700 35.37200
H  45.43800 21.68400 32.39800
H  46.07900 21.12800 25.95900
H  48.29600 27.15200 25.67500
H  47.69600 25.57400 34.01500
H  45.25400 23.85000 33.78800
H  47.79700 23.63600 34.95700
H  47.72200 22.37600 33.65700
H  46.51400 22.27600 34.87100
H  44.68500 26.10100 33.68000
H  45.90000 27.32300 33.43600
H  44.46600 26.70100 35.75100
H  45.54300 27.92300 35.57200
H  44.76700 19.67800 31.94800
H  45.32800 18.57200 30.66700
H  43.62800 19.13500 30.70100
H  43.16700 18.38900 28.80300
H  44.86400 17.63900 28.85000
H  43.86000 17.34200 27.47100
H  46.03200 23.14600 24.05000
H  48.53900 24.58500 24.30300
H  48.31100 21.68700 24.87400
H  48.77000 22.64100 23.52000
H  47.46500 21.58300 23.28400
H  46.15200 26.28300 24.19600
H  46.12800 25.14400 22.88600
H  47.43700 27.56700 22.69200
H  47.76700 26.25200 21.66300
H  48.79300 26.64100 23.13500
H  50.31000 29.45800 27.98200
H  48.92200 30.08300 27.27300
H  49.84800 28.64500 26.47300
H  47.36100 28.59000 32.30800
H  49.46900 29.55800 35.69500
H  50.53900 28.17300 35.33800
H  49.00600 27.83200 36.05700

