158

Mg 0.15700 7.97400 26.95600
C  0.79300 9.93700 29.86300
C  0.28000 5.19600 28.86300
C  -0.28600 6.24700 24.13300
C  0.41600 10.95800 25.08300
N  0.50000 7.60100 29.11900
C  0.63800 8.55500 30.15000
C  0.60000 7.89400 31.55300
C  0.52300 6.36700 31.13700
C  0.37100 6.37900 29.62700
C  1.73000 5.51800 31.62200
C  -0.62500 8.34400 32.48200
C  -0.16800 8.90700 33.84500
H  0.77100 8.08700 34.67200
N  0.04300 5.99000 26.55100
C  0.12800 4.98900 27.44700
C  -0.05700 3.77100 26.76800
C  -0.37400 4.03700 25.40700
C  -0.26100 5.46800 25.30000
C  0.24800 2.37800 27.42200
C  -0.76600 3.09000 24.31700
O  -0.91900 3.53100 23.17300
C  -0.93200 1.69100 24.64400
N  0.01500 8.56200 24.92300
C  -0.13100 7.67300 23.93700
C  -0.01300 8.43000 22.50900
C  -0.14500 9.90300 22.89700
C  0.01100 9.80200 24.39400
C  1.24900 8.05800 21.69000
C  -1.53500 10.53500 22.51900
C  -1.75100 10.75800 20.95900
N  0.65000 10.00200 27.34100
C  0.75800 11.10000 26.46100
C  0.99700 12.36900 27.22100
C  1.04200 11.88500 28.57200
C  0.84900 10.48900 28.59800
C  1.15200 13.76300 26.83000
C  1.25200 12.35300 29.95200
O  1.59800 13.41700 30.31900
C  1.03500 11.17200 30.84300
C  2.24600 11.05800 31.64800
O  3.23100 10.35600 31.31000
O  2.19700 11.77700 32.76000
C  3.27600 11.51700 33.75400
H  0.46900 4.27400 29.41900
H  -0.53300 5.70200 23.21900
H  0.52800 11.91000 24.56100
H  1.51800 8.25000 32.01900
H  -0.34900 5.84200 31.52600
H  2.25000 5.03400 30.79500
H  1.44300 4.78800 32.37900
H  2.43900 6.15400 32.15300
H  -1.25100 7.48600 32.72600
H  -1.22000 9.04400 31.89600
H  -0.98700 9.13700 34.52700
H  0.32800 9.87300 33.74600
H  0.93700 1.81500 26.79100
H  -0.64600 1.78700 27.61800
H  0.86600 2.42900 28.31800
H  0.08000 1.28700 24.64900
H  -1.35600 1.25700 23.73900
H  -1.54100 1.57100 25.54000
H  -0.84800 8.08000 21.90300
H  0.67200 10.48800 22.47300
H  0.85200 7.39900 20.91800
H  1.95400 7.55000 22.34800
H  1.69400 8.90800 21.17300
H  -1.68500 11.49000 23.02400
H  -2.21900 9.89100 23.07100
H  -1.16800 10.16500 20.25400
H  -1.56900 11.80600 20.71900
H  -2.79900 10.59400 20.71100
H  0.22800 14.17200 27.23600
H  1.55300 13.74700 25.81600
H  1.80500 14.38200 27.44500
H  0.23400 11.36200 31.55700
H  3.65200 12.48200 34.09500
H  4.05600 10.90700 33.29800
H  2.80600 10.91000 34.52700
Mg 50.17900 35.71700 28.09200
C  47.70200 34.14900 30.03700
C  50.38200 38.23400 30.33700
C  52.21400 37.22500 25.97900
C  49.48000 33.33200 25.45000
N  49.21500 35.98700 30.05700
C  48.29200 35.23700 30.72300
C  48.16300 35.65900 32.27800
C  48.81900 37.06000 32.18400
C  49.53500 37.12400 30.78700
C  47.74600 38.21800 32.34100
C  49.12400 34.71400 33.12000
C  48.75600 34.33100 34.60700
H  47.72300 35.19800 35.29100
N  51.13900 37.42700 28.16800
C  51.20900 38.35100 29.22700
C  52.18700 39.39800 28.91900
C  52.74800 39.15700 27.68000
C  52.03600 37.88000 27.19200
C  52.57500 40.39600 29.96700
C  53.69600 40.03400 26.89800
O  54.02200 39.74400 25.73600
C  54.06800 41.36100 27.50800
N  50.63000 35.32900 25.90600
C  51.57600 36.15000 25.36500
C  51.76200 35.78600 23.83400
C  51.05000 34.41200 23.74700
C  50.33900 34.37300 25.05300
C  51.32200 36.84100 22.82100
C  52.02400 33.25600 23.60200
C  51.89100 32.37200 22.41700
N  48.96700 33.98400 27.79200
C  48.76500 33.17400 26.71400
C  47.70100 32.19700 26.94200
C  47.27100 32.52300 28.26400
C  48.08000 33.62000 28.77700
C  47.09200 31.26800 25.93200
C  46.26700 32.25200 29.27500
O  45.45200 31.29900 29.27900
C  46.50000 33.28600 30.51900
C  46.68000 32.44300 31.77600
O  47.34800 31.41600 31.79000
O  46.03800 33.01600 32.86500
C  46.00700 32.20000 34.09100
H  50.38800 38.98300 31.13200
H  52.87200 37.77900 25.30500
H  49.16600 32.49600 24.82100
H  47.12800 35.71600 32.61500
H  49.58700 37.17600 32.94900
H  47.82700 38.96200 31.54900
H  47.84800 38.73500 33.29500
H  46.76600 37.75700 32.22200
H  50.15200 35.07300 33.17100
H  49.12900 33.70600 32.70600
H  49.69800 34.27600 35.15300
H  48.29900 33.34800 34.71700
H  52.14700 40.21000 30.95200
H  52.39400 41.43200 29.68100
H  53.64000 40.26400 30.15900
H  54.71200 41.22100 28.37600
H  53.13700 41.84800 27.79900
H  54.70000 41.90800 26.80700
H  52.82700 35.73600 23.61100
H  50.34300 34.29300 22.92600
H  50.88500 37.67100 23.37700
H  50.54700 36.44200 22.16700
H  52.12900 37.25300 22.21500
H  51.81700 32.61500 24.45900
H  53.01800 33.70100 23.64400
H  51.16100 32.77500 21.71500
H  51.52500 31.36300 22.60700
H  52.85900 32.23200 21.93400
H  47.78700 30.43900 25.80000
H  46.84500 31.85300 25.04600
H  46.14200 30.93000 26.34500
H  45.63800 33.91100 30.75100
H  46.91600 31.63800 34.30500
H  45.13000 31.55200 34.09100
H  45.92300 32.89100 34.93000

