158

Mg 54.50700 23.35200 43.60300
C  51.87600 25.54800 42.92200
C  52.39500 20.72500 43.02600
C  57.20600 21.46900 43.42000
C  56.63200 26.22200 43.98400
N  52.45900 23.21700 43.06100
C  51.56400 24.16700 42.89700
C  50.22500 23.55500 42.38300
C  50.26800 22.11400 42.93000
C  51.80500 22.00900 43.04500
C  49.51300 21.88900 44.25800
C  50.03700 23.64900 40.85100
C  48.78900 24.22900 40.29300
H  48.74200 24.81500 38.80600
N  54.79000 21.40100 43.23000
C  53.78900 20.44700 43.08300
C  54.38800 19.14300 42.84800
C  55.78400 19.36400 42.98500
C  56.00900 20.77900 43.23500
C  53.59400 17.83600 42.68100
C  56.71800 18.23600 42.83400
O  56.38300 17.03800 42.64300
C  58.10100 18.50900 42.76600
N  56.60200 23.85500 43.41900
C  57.47300 22.81400 43.45200
C  58.92300 23.34700 43.67700
C  58.84900 24.92100 43.80700
C  57.28000 25.03000 43.76900
C  59.58800 22.63500 44.88900
C  59.60400 25.69800 42.70900
C  60.15900 27.06500 43.07000
N  54.32400 25.50700 43.66300
C  55.23800 26.49000 43.86000
C  54.57400 27.72100 43.87400
C  53.24200 27.43200 43.44200
C  53.15800 26.06100 43.36300
C  55.20100 29.10900 43.93600
C  51.85900 27.92200 43.20800
O  51.41200 29.05300 43.31500
C  50.96000 26.72400 42.65700
C  50.72600 27.08300 41.28300
O  51.49800 27.07800 40.28200
O  49.38500 27.48200 41.05500
C  49.15600 28.03500 39.74100
H  51.65600 19.93100 42.89800
H  58.07900 20.81900 43.51500
H  57.24200 27.12700 44.00800
H  49.43900 24.14300 42.85500
H  49.94600 21.41600 42.15800
H  49.50100 22.73300 44.94700
H  49.90600 21.03600 44.81100
H  48.44400 21.71900 44.12700
H  50.08000 22.66400 40.38700
H  50.91800 24.18500 40.49500
H  48.41500 24.96600 41.00300
H  48.00400 23.47400 40.34400
H  54.04000 17.07000 42.04700
H  52.58500 17.93900 42.28200
H  53.53600 17.40000 43.67900
H  58.20200 19.37800 42.11600
H  58.64900 17.72500 42.24400
H  58.60700 18.85300 43.66800
H  59.44500 23.23400 42.72600
H  59.03000 25.26700 44.82400
H  59.34900 23.24300 45.76200
H  60.64500 22.80400 44.68400
H  59.36300 21.58200 45.05700
H  58.94700 25.69300 41.83900
H  60.42300 25.04700 42.40400
H  61.11200 27.07000 42.54000
H  60.31400 27.14500 44.14600
H  59.47800 27.81500 42.66600
H  55.78200 29.31100 43.03600
H  55.91100 29.13400 44.76200
H  54.35200 29.77200 44.10300
H  50.00600 26.70800 43.18400
H  49.57700 27.35400 39.00000
H  49.75600 28.93700 39.62100
H  48.10900 28.31500 39.62600
Mg 36.03000 49.60100 26.07400
C  36.39600 47.64800 28.94000
C  34.95300 52.29800 27.94400
C  35.39200 51.31300 23.21200
C  36.42200 46.75200 24.20800
N  35.68100 49.92300 28.13200
C  35.84300 48.96500 29.12700
C  35.45700 49.54300 30.48100
C  34.90300 50.97800 30.21100
C  35.10300 51.08400 28.68100
C  33.33300 51.12900 30.43700
C  36.73000 49.62000 31.47600
C  36.41400 49.34400 32.98400
H  34.96100 49.42200 33.54700
N  35.38400 51.60400 25.63300
C  35.12000 52.59500 26.56300
C  34.94100 53.85700 25.81000
C  35.02700 53.51900 24.44200
C  35.24000 52.12300 24.37500
C  34.67800 55.23000 26.54200
C  34.86100 54.37200 23.17200
O  34.83100 54.00500 22.03600
C  34.55600 55.87900 23.36700
N  35.97500 49.06000 24.00900
C  35.83500 49.96200 22.99700
C  35.69400 49.24300 21.59300
C  36.44200 47.91500 21.99700
C  36.18100 47.87400 23.51700
C  34.22800 49.16700 20.96700
C  37.88600 47.69500 21.54300
C  38.28700 46.34500 20.86200
N  36.41900 47.57200 26.46900
C  36.60000 46.53700 25.62500
C  37.05700 45.35800 26.38900
C  36.93200 45.73300 27.71200
C  36.60500 47.10400 27.69900
C  37.59400 44.07500 25.93500
C  37.05300 45.26300 29.09400
O  37.37000 44.20100 29.56000
C  36.55800 46.55000 29.99000
C  35.32000 46.20200 30.73500
O  34.18400 46.32200 30.28200
O  35.64300 45.66100 31.99900
C  34.41800 45.21900 32.67200
H  34.70200 53.15800 28.56900
H  35.20900 51.82700 22.26600
H  36.70000 45.93300 23.54100
H  34.73200 48.82800 30.87100
H  35.29300 51.77300 30.84600
H  32.92500 51.22900 29.43200
H  33.22000 52.05900 30.99500
H  32.86800 50.32400 31.00600
H  37.11400 50.63800 31.41800
H  37.46700 48.86000 31.21600
H  37.11700 49.89400 33.60900
H  36.73400 48.32500 33.20100
H  35.45300 55.92700 26.22000
H  34.68500 55.21200 27.63200
H  33.69200 55.62600 26.30000
H  35.46000 56.25200 23.85000
H  33.67100 56.12500 23.95400
H  34.64800 56.43900 22.43600
H  36.41000 49.75200 20.94800
H  35.97200 47.10200 21.44500
H  34.11800 48.11200 20.71900
H  34.15800 49.72800 20.03400
H  33.43100 49.56900 21.59200
H  38.45500 47.79200 22.46800
H  38.36500 48.51000 21.00100
H  38.40500 46.66100 19.82500
H  37.48400 45.61000 20.80200
H  39.19400 45.99700 21.35500
H  38.65600 43.97200 26.15800
H  37.39300 43.94000 24.87200
H  37.14400 43.24900 26.48600
H  37.43200 46.78000 30.60000
H  33.78400 46.06600 32.93500
H  34.71700 44.79500 33.63000
H  33.76700 44.56100 32.09700

