158

Mg 1.19400 7.92800 25.49100
C  1.63300 9.59600 28.51100
C  1.13700 4.90000 27.30100
C  0.94400 6.35300 22.55900
C  1.12900 10.98600 23.79500
N  1.27100 7.39900 27.64700
C  1.33600 8.24700 28.71700
C  1.37300 7.44700 30.01200
C  1.45800 5.95400 29.57600
C  1.18100 6.13000 28.04200
C  2.76200 5.10900 29.97000
C  0.22600 7.70000 31.01300
C  0.69100 7.89800 32.50300
H  1.99800 7.19200 33.04800
N  1.10600 5.92600 25.00000
C  1.07700 4.82600 25.86900
C  1.05200 3.58300 25.11600
C  0.92100 3.95700 23.73100
C  1.02100 5.45900 23.67900
C  0.97900 2.23400 25.74700
C  0.84100 3.16100 22.44300
O  0.87800 3.68700 21.33100
C  1.02500 1.75600 22.60200
N  0.99500 8.58300 23.43900
C  0.94200 7.72100 22.43500
C  0.86100 8.40400 21.06700
C  0.75200 9.95200 21.50300
C  0.93300 9.87400 23.02000
C  2.03400 8.07800 20.15600
C  -0.65800 10.65300 21.27900
C  -0.54600 11.95700 20.53300
N  1.28500 9.85100 26.00600
C  1.33800 11.01200 25.21300
C  1.50400 12.19000 26.01100
C  1.74400 11.68400 27.34100
C  1.53200 10.26300 27.30300
C  1.61100 13.56600 25.59900
C  2.04900 12.02200 28.76000
O  2.20300 13.09500 29.29500
C  1.83800 10.63800 29.55200
C  3.00000 10.56700 30.46100
O  4.11900 10.28500 30.23400
O  2.65200 11.11500 31.66800
C  3.70200 11.50400 32.59100
H  1.21000 4.01400 27.93600
H  0.90200 5.86200 21.58400
H  0.89500 11.97300 23.39200
H  2.32900 7.71800 30.46100
H  0.68700 5.35700 30.06200
H  3.56800 5.18800 29.24000
H  2.58000 4.03500 29.98900
H  3.07600 5.47900 30.94600
H  -0.56300 6.96500 30.85200
H  -0.27100 8.61800 30.69900
H  -0.13400 7.61900 33.15800
H  0.85800 8.94800 32.74500
H  1.23800 2.26900 26.80500
H  1.68900 1.57600 25.24500
H  0.00900 1.74900 25.63400
H  0.08700 1.33600 22.96300
H  1.82100 1.49900 23.30100
H  1.44100 1.53700 21.61800
H  -0.05900 8.16800 20.53300
H  1.58300 10.50200 21.06100
H  1.75300 7.09200 19.78600
H  2.98800 8.02600 20.68100
H  2.09900 8.74300 19.29500
H  -1.10400 10.93700 22.23200
H  -1.31000 9.95900 20.75100
H  -0.70100 11.78000 19.46900
H  0.47600 12.31500 20.66100
H  -1.30700 12.65600 20.87900
H  2.45700 14.08500 26.04700
H  0.62500 14.03200 25.62000
H  1.88000 13.41800 24.55300
H  1.01700 10.60400 30.26800
H  4.48900 10.75500 32.68200
H  3.28300 11.75800 33.56500
H  4.11900 12.41500 32.16300
Mg 43.83600 3.71700 47.75100
C  41.54900 6.40200 47.12300
C  41.14200 1.49300 47.15700
C  46.00700 1.13000 47.47400
C  46.37700 6.13100 47.32000
N  41.68000 3.93500 47.11000
C  40.96700 5.05600 46.99500
C  39.54500 4.81100 46.81500
C  39.38200 3.27900 46.99000
C  40.83800 2.84600 47.21500
C  38.43100 2.84600 48.19900
C  39.02200 5.26400 45.41200
C  37.67800 5.97300 45.26000
H  37.01800 5.86100 43.93300
N  43.62500 1.58900 47.53100
C  42.47200 0.93500 47.28800
C  42.74300 -0.48000 47.31500
C  44.17700 -0.63700 47.32100
C  44.67800 0.72800 47.51000
C  41.71200 -1.56200 47.24300
C  44.92700 -2.00500 47.14200
O  44.40100 -2.99100 46.70800
C  46.41700 -2.14100 47.50300
N  45.92300 3.66000 47.43000
C  46.60200 2.46000 47.51500
C  48.12300 2.66400 47.36800
C  48.26500 4.23500 47.38400
C  46.80100 4.73800 47.32000
C  48.96000 1.95300 48.46000
C  49.06700 4.87000 46.23400
C  50.63300 4.65800 46.23300
N  43.98800 5.85700 47.43700
C  45.05300 6.61300 47.30800
C  44.70500 7.94400 47.06700
C  43.29100 7.96000 47.06900
C  42.92400 6.61900 47.22400
C  45.71000 9.06000 46.85000
C  42.03600 8.77500 46.96300
O  41.92000 9.96500 46.78100
C  40.82500 7.71000 47.00100
C  39.84300 7.91000 48.06100
O  39.98300 7.63600 49.27900
O  38.62800 8.29800 47.48900
C  37.49200 7.87800 48.35900
H  40.34100 0.79200 46.91500
H  46.73100 0.32100 47.35200
H  47.24900 6.77600 47.44300
H  38.98000 5.34900 47.57600
H  39.13100 2.65100 46.13500
H  38.04200 3.75600 48.65500
H  38.96800 2.36100 49.01400
H  37.76800 2.16300 47.66800
H  39.03300 4.40600 44.74000
H  39.77400 5.94200 45.00700
H  37.80800 7.04500 45.40600
H  36.96400 5.64500 46.01500
H  42.01100 -2.50000 47.71200
H  41.71700 -1.76000 46.17100
H  40.72200 -1.29100 47.61000
H  46.82500 -1.48000 48.26800
H  46.93000 -2.09600 46.54300
H  46.61800 -3.11300 47.95200
H  48.42600 2.38100 46.36000
H  48.74300 4.66100 48.26600
H  48.26200 1.77100 49.27700
H  49.58200 2.72400 48.91600
H  49.45300 1.06100 48.07400
H  48.82300 5.92700 46.12300
H  48.63800 4.32800 45.39200
H  50.97200 4.18700 47.15500
H  51.03800 5.66900 46.19200
H  51.01300 4.08800 45.38500
H  46.53800 9.06500 47.55900
H  45.26800 10.05100 46.95100
H  46.16200 8.94200 45.86500
H  40.36600 7.81800 46.01900
H  37.29300 8.70100 49.04600
H  37.61100 6.89200 48.80800
H  36.58600 7.64100 47.80200

