158

Mg 9.13500 2.97500 28.09200
C  10.26900 1.54800 31.09000
C  7.82600 5.43600 30.02500
C  7.41100 3.79800 25.48600
C  10.17900 0.03000 26.41000
N  8.81700 3.26200 30.31700
C  9.49900 2.64700 31.36400
C  9.46100 3.44700 32.69800
C  8.44200 4.58900 32.31600
C  8.39400 4.40800 30.76700
C  7.01200 4.43900 32.96200
C  10.81800 4.00200 33.16500
C  10.75100 4.69600 34.59300
H  11.50200 3.97700 35.80100
N  7.97600 4.51500 27.72800
C  7.53400 5.46500 28.60100
C  6.83200 6.53300 27.85800
C  6.64900 6.01300 26.56800
C  7.34100 4.70800 26.54700
C  6.50000 7.86100 28.50400
C  5.89000 6.68200 25.39300
O  5.86400 6.18600 24.29000
C  5.26800 8.13300 25.58400
N  8.97300 2.11200 26.10800
C  7.98200 2.60700 25.25300
C  7.76300 1.65800 24.01500
C  8.99300 0.74900 24.14500
C  9.36900 0.96600 25.59600
C  6.37500 0.95100 24.17100
C  10.19400 1.05400 23.23900
C  10.33200 0.16300 21.95600
N  10.18600 1.25800 28.56200
C  10.56000 0.17900 27.77800
C  11.24400 -0.69200 28.60600
C  11.25200 -0.19100 29.87400
C  10.56500 1.00700 29.81900
C  11.95900 -1.90900 28.21600
C  11.70500 -0.48700 31.19700
O  12.27700 -1.46400 31.67100
C  11.14500 0.73900 32.03200
C  10.36900 0.17900 33.16300
O  9.47900 -0.69400 33.09300
O  10.74900 0.77200 34.33400
C  10.01900 0.38100 35.55400
H  7.27500 6.17800 30.60700
H  6.68200 4.09800 24.73000
H  10.39400 -0.85100 25.80100
H  9.06600 2.77300 33.45700
H  8.86000 5.55000 32.61500
H  6.74600 5.29500 33.58200
H  6.99900 3.58300 33.63700
H  6.28200 4.23200 32.18000
H  11.13800 4.76600 32.45700
H  11.61900 3.26300 33.17400
H  9.72300 4.93300 34.86500
H  11.10500 5.72700 34.59800
H  5.41700 7.90500 28.61100
H  6.82800 8.64000 27.81500
H  7.09700 7.97200 29.41000
H  4.69700 8.32500 24.67500
H  6.06700 8.87400 25.58400
H  4.66500 8.16800 26.49100
H  7.78200 2.25800 23.10600
H  8.70300 -0.28200 23.94100
H  5.96100 1.04500 23.16700
H  5.65500 1.51800 24.76200
H  6.48200 -0.12000 24.34000
H  11.14300 0.96400 23.76900
H  10.05000 2.03400 22.78500
H  10.30200 0.78800 21.06300
H  9.56800 -0.60900 21.86400
H  11.28900 -0.35800 21.93300
H  13.02700 -1.84300 28.42200
H  11.82000 -2.15200 27.16200
H  11.41500 -2.69200 28.74400
H  11.97600 1.28500 32.47800
H  9.61700 1.17500 36.18300
H  10.83300 -0.01100 36.16300
H  9.39100 -0.50600 35.46600
Mg 15.88000 52.07700 25.37500
C  17.90400 51.16200 28.18300
C  13.23800 52.47000 27.49100
C  14.33700 53.11700 22.72400
C  18.55300 50.93400 23.34500
N  15.65800 51.93400 27.51900
C  16.57400 51.67400 28.53900
C  16.10000 52.09600 29.92900
C  14.53700 52.11400 29.64900
C  14.44600 52.10200 28.12700
C  13.82400 50.77800 30.23900
C  16.71600 53.42700 30.22000
C  16.71500 53.83000 31.72000
H  15.79200 53.02000 32.70900
N  13.93000 52.75700 25.15000
C  12.97300 52.78600 26.11200
C  11.77100 53.32900 25.45800
C  12.05200 53.55100 24.08100
C  13.44300 53.17600 23.92200
C  10.39600 53.38300 26.20000
C  11.14200 54.06100 22.97000
O  11.49100 54.23500 21.82000
C  9.67500 54.33800 23.23900
N  16.46000 52.19500 23.34900
C  15.65100 52.67100 22.44200
C  16.20900 52.62700 21.00800
C  17.67500 52.16600 21.29300
C  17.59100 51.78100 22.74100
C  15.40500 51.57200 20.10600
C  18.76100 53.23700 21.12000
C  20.11400 52.77400 20.33600
N  17.75000 50.96300 25.57800
C  18.68700 50.52900 24.73800
C  19.78800 49.90300 25.40000
C  19.51800 50.20900 26.74000
C  18.33300 50.85500 26.82600
C  20.91900 49.18700 24.73400
C  20.13600 50.16600 28.02500
O  21.19800 49.72600 28.40900
C  19.02900 50.65100 29.10300
C  18.56200 49.41200 29.89000
O  18.01800 48.35400 29.48800
O  18.68000 49.70400 31.23100
C  18.06900 48.76700 32.15600
H  12.37700 52.73100 28.11000
H  13.79400 53.34300 21.80400
H  19.39600 50.73900 22.67900
H  16.57800 51.42300 30.64100
H  14.20600 53.03900 30.12200
H  13.27700 50.20300 29.49200
H  13.12000 51.09600 31.00800
H  14.53300 50.17600 30.80700
H  16.11200 54.24800 29.83200
H  17.73500 53.46700 29.83700
H  16.73900 54.91900 31.76000
H  17.71900 53.55500 32.04400
H  9.71400 52.62700 25.80900
H  9.85500 54.32300 26.09200
H  10.54500 53.20300 27.26400
H  9.29000 53.53600 23.87000
H  9.12400 54.32500 22.29900
H  9.45100 55.29400 23.71200
H  16.31100 53.51700 20.38700
H  17.91200 51.26100 20.73300
H  14.65800 52.18000 19.59700
H  14.90900 50.78300 20.67200
H  15.97100 51.09400 19.30600
H  19.06100 53.56800 22.11500
H  18.44500 54.16800 20.64900
H  20.01600 51.70700 20.13500
H  21.04900 52.96200 20.86300
H  20.23900 53.29600 19.38800
H  20.64900 49.12200 23.68000
H  21.00100 48.16100 25.09300
H  21.91600 49.61900 24.81700
H  19.30800 51.43800 29.80400
H  18.93300 48.21800 32.53000
H  17.29100 48.16100 31.69200
H  17.70400 49.25800 33.05800

