158

Mg 46.80900 15.00300 27.46900
C  44.87600 15.27900 30.39400
C  49.04600 17.30900 28.89500
C  48.39500 15.28300 24.56400
C  44.34200 13.37300 25.98100
N  46.94100 16.20800 29.41000
C  46.11400 16.00800 30.47000
C  46.71200 16.70700 31.65000
C  47.74900 17.66400 31.07000
C  47.86200 17.19100 29.64900
C  47.58400 19.22700 31.18200
C  47.25900 15.74200 32.74300
C  47.01600 16.06600 34.24400
H  48.14400 15.89000 35.23600
N  48.57000 15.95700 26.86100
C  49.40000 16.76600 27.65500
C  50.61800 17.05900 26.95900
C  50.45500 16.52100 25.67100
C  49.12100 15.84500 25.64100
C  51.82300 17.70500 27.58500
C  51.43900 16.50000 24.48100
O  51.06100 16.09900 23.38500
C  52.89300 16.88000 24.72000
N  46.33200 14.55000 25.55900
C  47.22900 14.66700 24.52000
C  46.70300 13.97100 23.22800
C  45.47800 13.19200 23.75800
C  45.37200 13.74500 25.21200
C  46.34800 15.00200 22.13700
C  45.48000 11.62500 23.58000
C  46.18600 10.70000 24.57200
N  44.95500 14.53600 28.06700
C  44.02400 13.79600 27.28300
C  42.91200 13.49800 28.12600
C  43.18100 14.12200 29.32900
C  44.47300 14.65200 29.28000
C  41.70400 12.69200 27.66800
C  42.63400 14.33400 30.71300
O  41.61500 14.06200 31.31900
C  43.78900 15.11200 31.45000
C  43.27600 16.36700 32.16400
O  42.67200 17.24500 31.58500
O  43.65200 16.23800 33.44400
C  43.32200 17.37900 34.34200
H  49.78500 17.98000 29.33700
H  48.84500 15.24100 23.57000
H  43.59200 12.75100 25.48900
H  45.99300 17.32200 32.19100
H  48.72300 17.46200 31.51600
H  47.33400 19.66900 30.21700
H  48.47000 19.55400 31.72700
H  46.69600 19.36000 31.80000
H  48.32700 15.60000 32.57800
H  46.83400 14.75700 32.54900
H  46.19700 15.45400 34.62300
H  46.60300 17.07200 34.32100
H  51.64000 17.88000 28.64500
H  51.95400 18.66700 27.08800
H  52.79900 17.22000 27.60400
H  53.34300 16.84400 23.72700
H  53.44300 16.21600 25.38700
H  53.00300 17.89400 25.10300
H  47.49500 13.27900 22.94400
H  44.53100 13.57500 23.37800
H  45.68800 14.55200 21.39600
H  47.28700 15.24200 21.63700
H  45.98800 15.84300 22.72900
H  45.87800 11.39000 22.59300
H  44.42800 11.34600 23.51900
H  46.81800 9.99300 24.03500
H  45.35100 10.19000 25.05300
H  46.68800 11.32500 25.31100
H  42.16800 11.87000 27.12300
H  41.00900 13.20900 27.00700
H  41.24100 12.25200 28.55100
H  44.05400 14.34000 32.17100
H  44.29500 17.64400 34.75700
H  42.62400 17.06000 35.11600
H  42.85300 18.26900 33.92400
Mg 36.66700 49.84300 26.09000
C  36.58900 47.92400 28.89100
C  35.94300 52.61000 27.89000
C  36.59900 51.70500 23.08700
C  37.17800 47.03900 24.08400
N  36.33600 50.22300 28.16400
C  36.37200 49.29800 29.19700
C  36.17300 49.98900 30.61600
C  35.81400 51.42000 30.19200
C  36.16700 51.45700 28.67900
C  34.38700 52.02400 30.49400
C  37.47700 49.79800 31.45500
C  37.38400 49.57400 32.94300
H  36.01300 49.68900 33.79800
N  36.32200 51.87300 25.59700
C  36.01600 52.87400 26.47900
C  35.89400 54.14100 25.78700
C  36.14000 53.84400 24.43200
C  36.31600 52.40100 24.32000
C  35.52800 55.43500 26.49900
C  36.10800 54.82300 23.24300
O  36.41200 54.61200 22.08500
C  35.78400 56.24300 23.52200
N  36.94700 49.43700 23.83800
C  36.86100 50.34200 22.88000
C  37.27100 49.78500 21.50200
C  37.63200 48.33100 21.84900
C  37.31900 48.26900 23.38700
C  36.10500 49.97500 20.41900
C  38.97200 47.81100 21.36700
C  40.23000 48.20200 22.12000
N  36.80200 47.86700 26.40300
C  37.08500 46.79900 25.50000
C  37.11100 45.59000 26.24000
C  37.00900 45.94100 27.57700
C  36.75200 47.33600 27.59200
C  37.31500 44.18400 25.61000
C  37.01900 45.49400 28.94100
O  37.18300 44.40700 29.42100
C  36.73200 46.80600 29.83900
C  35.49800 46.63700 30.69700
O  34.36200 46.86900 30.33500
O  35.81800 46.18900 31.90500
C  34.68600 45.95600 32.80000
H  35.60200 53.48500 28.44600
H  36.56800 52.29100 22.16600
H  37.34900 46.15900 23.46200
H  35.35200 49.51500 31.15400
H  36.47100 52.16200 30.64600
H  33.68300 51.25800 30.81900
H  33.94600 52.34200 29.54900
H  34.45000 52.73300 31.31900
H  38.07100 50.71000 31.39500
H  38.11600 48.99400 31.09100
H  38.15400 50.16900 33.43500
H  37.63400 48.56300 33.26200
H  34.61000 55.83600 26.07000
H  36.36100 56.12000 26.34000
H  35.43300 55.28500 27.57500
H  36.00100 56.86800 22.65600
H  36.37300 56.61100 24.36200
H  34.71300 56.30700 23.71400
H  38.15500 50.28900 21.11100
H  36.84400 47.65700 21.51200
H  35.08800 49.92700 20.80900
H  36.21900 49.32500 19.55200
H  36.30700 51.00800 20.13500
H  39.05800 47.91200 20.28500
H  38.88100 46.72500 21.34600
H  40.00100 48.89400 22.93000
H  40.82700 48.82200 21.45000
H  40.72300 47.27400 22.41000
H  37.93100 43.68500 26.35800
H  37.83000 44.09700 24.65400
H  36.31100 43.77700 25.48800
H  37.53100 47.03500 30.54400
H  34.37300 44.91700 32.69500
H  33.83100 46.63000 32.74900
H  34.96500 45.97000 33.85400

