158

Mg 44.02300 4.28600 46.65800
C  42.04900 7.27900 47.01400
C  41.15100 2.59400 46.14900
C  45.76600 1.65400 45.56100
C  46.93200 6.13000 46.55500
N  41.89400 4.97600 46.37400
C  41.28200 6.14900 46.72100
C  39.73400 6.09400 46.80300
C  39.54400 4.47300 46.81000
C  40.93600 3.97600 46.45700
C  39.09900 3.85000 48.18600
C  39.06100 6.88800 45.59200
C  39.92200 6.99800 44.26600
H  39.21900 6.87600 42.89100
N  43.46600 2.23100 46.16300
C  42.25600 1.72800 45.98400
C  42.25100 0.30400 45.62800
C  43.66900 0.04400 45.48000
C  44.40300 1.31600 45.67300
C  41.05000 -0.59900 45.48000
C  44.27600 -1.25200 45.06800
O  43.59900 -2.27800 44.94800
C  45.69100 -1.47000 44.94000
N  45.99500 3.95700 46.07300
C  46.44800 2.72400 45.85100
C  47.98800 2.62900 45.86800
C  48.38400 4.05200 46.17200
C  47.01000 4.76400 46.35500
C  48.54000 1.59500 46.90300
C  49.22700 4.71100 44.96500
C  50.73600 4.73500 44.94900
N  44.49600 6.26200 46.85200
C  45.72500 6.86800 46.76300
C  45.47900 8.31300 46.98900
C  44.05500 8.50100 47.14900
C  43.48800 7.21500 46.96500
C  46.48400 9.41200 46.81400
C  43.04800 9.46100 47.42200
O  43.11600 10.71200 47.58900
C  41.67900 8.70000 47.28900
C  40.92300 8.85800 48.59200
O  40.85700 8.00800 49.53200
O  40.15500 9.93300 48.55400
C  39.12400 9.87100 49.55400
H  40.23700 1.99700 46.14900
H  46.39100 0.87500 45.11900
H  47.82800 6.75500 46.53200
H  39.32900 6.50600 47.72800
H  38.85000 4.06300 46.07600
H  39.93300 3.37600 48.70300
H  38.34600 3.08500 47.99600
H  38.61000 4.63300 48.76500
H  38.80700 7.91700 45.84400
H  38.16300 6.29900 45.40500
H  40.61900 6.16600 44.36600
H  40.34000 7.98200 44.47700
H  40.75400 -0.88200 46.49100
H  41.33500 -1.31300 44.70800
H  40.19000 -0.10800 45.02400
H  46.33000 -1.22700 45.78900
H  46.04600 -0.91600 44.07000
H  45.95700 -2.50600 44.73000
H  48.34300 2.29700 44.89200
H  48.98100 4.15400 47.07800
H  49.41300 2.11100 47.30300
H  48.89700 0.65400 46.48500
H  47.85800 1.60200 47.75300
H  48.86400 5.71900 44.76700
H  48.94500 4.19000 44.05000
H  51.11400 3.88800 45.52200
H  51.13000 5.58300 45.50900
H  51.18600 4.71300 43.95600
H  46.06900 10.42000 46.81100
H  46.95100 9.35000 45.83100
H  47.22200 9.30400 47.60900
H  41.11000 9.16400 46.48400
H  38.39900 10.65500 49.33200
H  39.51400 9.89800 50.57100
H  38.51400 8.98000 49.41000
Mg 30.45100 58.24100 40.24100
C  27.73900 56.19100 39.39400
C  32.48300 55.54300 40.08400
C  33.00000 60.37500 40.08300
C  28.11500 60.94300 40.70300
N  30.18400 56.14400 39.35600
C  28.97700 55.51500 39.29000
C  29.19400 54.05500 38.98900
C  30.51800 53.75500 39.70200
C  31.12000 55.22300 39.78200
C  30.48000 53.09600 41.06600
C  29.24600 53.80800 37.48500
C  28.04000 52.95100 37.00400
H  27.24100 53.52600 35.86000
N  32.51700 58.01800 40.04800
C  33.17100 56.79300 40.03400
C  34.60400 57.06700 39.86700
C  34.77800 58.51200 39.92900
C  33.37800 59.06000 39.95000
C  35.65500 55.99900 39.63600
C  36.09900 59.19500 40.03200
O  37.11500 58.49900 40.14200
C  36.25500 60.66800 39.99900
N  30.54200 60.35100 40.35200
C  31.73900 60.95100 40.19000
C  31.51400 62.51900 40.24800
C  30.00900 62.69000 40.67000
C  29.52100 61.24000 40.57600
C  32.54600 63.26200 41.04800
C  29.31700 63.75500 39.81400
C  28.21100 64.55700 40.54800
N  28.32300 58.57100 40.09200
C  27.53200 59.68100 40.41400
C  26.13800 59.28200 40.31000
C  26.14100 57.95300 39.91200
C  27.53400 57.50600 39.83800
C  24.89800 60.14400 40.37400
C  25.30400 56.76700 39.53300
O  24.09500 56.67700 39.36800
C  26.28700 55.55700 39.23200
C  26.04000 54.48900 40.26000
O  26.62800 54.46700 41.30200
O  25.16000 53.48500 39.77000
C  24.95000 52.49500 40.84100
H  33.14400 54.68600 40.22900
H  33.76500 61.14800 39.98500
H  27.43000 61.78200 40.84000
H  28.43300 53.39100 39.40100
H  31.21600 53.16200 39.11200
H  31.47100 53.21600 41.50500
H  30.32400 52.04000 40.84700
H  29.67100 53.41400 41.72200
H  30.09800 53.17700 37.23300
H  29.44000 54.71300 36.90900
H  27.30100 52.80900 37.79300
H  28.33500 51.92800 36.76900
H  36.32300 56.53900 38.96500
H  35.24100 55.12000 39.14300
H  36.15200 55.62100 40.52900
H  36.01900 61.21200 39.08400
H  37.20100 61.01700 40.41300
H  35.61000 61.11900 40.75300
H  31.56200 62.86600 39.21500
H  29.93100 63.02100 41.70500
H  33.49200 63.35300 40.51500
H  32.72900 62.78200 42.00900
H  32.00100 64.17500 41.29000
H  28.94900 63.22500 38.93500
H  30.09100 64.45600 39.50200
H  28.44300 65.61000 40.38800
H  28.28800 64.49500 41.63400
H  27.23800 64.37900 40.09000
H  24.62800 60.47500 39.37100
H  25.01200 60.96400 41.08300
H  24.14700 59.43100 40.71400
H  26.16300 55.16000 38.22500
H  25.84200 51.90900 41.05900
H  24.25400 51.76000 40.43800
H  24.43700 52.99800 41.66100

