158

Mg 50.82500 45.89600 41.69300
C  47.81600 47.36100 40.71500
C  49.71200 42.98700 40.31500
C  54.08600 44.87800 41.70900
C  52.01700 49.17100 42.35600
N  49.00300 45.31800 40.56800
C  47.87100 46.04100 40.36800
C  46.64100 45.15200 39.91000
C  47.26400 43.68700 40.24700
C  48.74700 43.96000 40.45200
C  46.61300 42.93800 41.39900
C  46.30800 45.26700 38.37500
C  44.82600 45.42400 37.93800
H  44.24500 44.50400 36.85300
N  51.78100 44.16600 41.00500
C  51.14000 43.04900 40.44500
C  52.12600 42.07400 40.18300
C  53.37500 42.43700 40.72300
C  53.14400 43.85400 41.18000
C  51.78400 40.78500 39.50200
C  54.60700 41.65200 40.70100
O  54.59700 40.47600 40.26200
C  55.87300 42.29400 41.23000
N  52.80200 46.91700 41.94500
C  53.96700 46.17900 42.03900
C  55.16600 47.04100 42.51700
C  54.54500 48.46000 42.48900
C  53.04500 48.19500 42.20900
C  55.82600 46.46900 43.84800
C  55.04800 49.35700 41.31000
C  55.56200 50.72000 41.72800
N  50.03500 47.85600 41.79700
C  50.60800 49.01600 42.10000
C  49.63300 50.09100 41.97800
C  48.50100 49.49000 41.45000
C  48.86100 48.14300 41.24200
C  49.81500 51.52200 42.16900
C  47.17400 49.74200 40.92500
O  46.59500 50.83100 40.76900
C  46.60500 48.28600 40.57400
C  45.41200 47.78700 41.41300
O  45.39200 47.09500 42.43200
O  44.27500 48.18400 40.77800
C  43.08900 47.79200 41.56500
H  49.30200 42.07600 39.87400
H  55.09600 44.48200 41.83600
H  52.47000 50.10400 42.69900
H  45.71300 45.30200 40.46300
H  47.40100 43.03500 39.38500
H  46.01200 42.14300 40.95800
H  45.88300 43.49900 41.98200
H  47.34200 42.59300 42.13200
H  46.78900 44.39000 37.94100
H  46.82900 46.11200 37.92500
H  44.67800 46.46800 37.66200
H  44.17900 45.32500 38.80900
H  52.51300 40.62300 38.70800
H  50.76900 40.78900 39.10500
H  51.83000 39.98600 40.24300
H  55.70700 42.43100 42.29800
H  56.26800 43.12400 40.64400
H  56.63500 41.52300 41.11000
H  55.90900 46.90200 41.73200
H  54.78900 48.92300 43.44500
H  55.49000 45.47700 44.15000
H  55.64300 47.16200 44.67000
H  56.91500 46.45300 43.87100
H  54.20900 49.57700 40.65100
H  55.81900 48.83000 40.74700
H  55.01400 51.58300 41.34900
H  56.63500 50.86600 41.60100
H  55.40900 50.79300 42.80400
H  50.89300 51.63800 42.28800
H  49.29800 52.01600 42.99200
H  49.51000 51.93400 41.20800
H  46.34800 48.36800 39.51800
H  43.15100 47.70900 42.65000
H  42.66100 46.84300 41.24200
H  42.36100 48.57500 41.35800
Mg 8.94900 48.36400 25.65500
C  6.57800 48.91500 28.23600
C  11.35600 49.13800 27.78200
C  11.01600 48.21500 23.04100
C  6.23600 48.31700 23.42600
N  8.94400 48.97100 27.74600
C  7.88400 48.99600 28.66800
C  8.45500 49.00800 30.13000
C  9.89400 49.50500 29.86000
C  10.12700 49.21100 28.41400
C  10.17500 50.95200 30.36300
C  8.41900 47.62800 30.79800
C  9.21300 47.41100 32.09800
H  8.56700 46.81600 33.35100
N  10.91800 48.54200 25.46100
C  11.73600 48.84200 26.44900
C  13.13600 48.76700 25.94000
C  13.11600 48.59700 24.55900
C  11.61600 48.51600 24.30400
C  14.41900 49.02000 26.84000
C  14.20900 48.56900 23.50300
O  13.95800 48.45800 22.27900
C  15.66000 48.53400 23.88300
N  8.74400 48.28000 23.62200
C  9.70600 48.21100 22.68500
C  9.26900 47.81800 21.31800
C  7.71900 48.03000 21.40900
C  7.54900 48.18400 22.93400
C  9.95600 48.50700 20.15500
C  6.86800 46.78500 20.87600
C  5.43900 47.12400 20.44200
N  6.81700 48.33400 25.75600
C  5.90000 48.33100 24.78100
C  4.58500 48.51900 25.32900
C  4.82300 48.64000 26.71200
C  6.19900 48.66800 26.89400
C  3.41400 48.69800 24.35600
C  4.09700 48.81400 27.90700
O  2.90100 48.90800 28.17600
C  5.30800 49.05800 28.96600
C  5.03700 48.09300 30.18400
O  4.87500 46.88200 30.15600
O  4.98500 48.86000 31.32600
C  4.80300 48.15800 32.61000
H  12.17000 49.28500 28.49600
H  11.71100 47.98100 22.23200
H  5.47100 48.35600 22.64700
H  7.96900 49.81800 30.67300
H  10.69700 48.92800 30.31800
H  9.34500 51.32900 30.96200
H  10.41200 51.56300 29.49300
H  10.93200 50.91800 31.14700
H  8.64300 46.93200 29.98900
H  7.36100 47.55600 31.05100
H  9.57700 48.37800 32.44400
H  10.11600 46.85600 31.84400
H  14.82800 50.00700 26.62700
H  15.10200 48.21900 26.55500
H  14.21000 48.98100 27.90900
H  16.16500 48.82300 22.96100
H  15.93800 47.58100 24.33100
H  15.88000 49.34500 24.57800
H  9.63700 46.79800 21.20700
H  7.41800 48.98100 20.96800
H  9.31000 48.61200 19.28300
H  10.83500 47.94300 19.84300
H  10.26300 49.51900 20.41900
H  6.87000 46.01900 21.65100
H  7.45200 46.32800 20.07700
H  4.74100 46.54300 21.04400
H  5.25300 46.87200 19.39800
H  5.20600 48.18900 20.44200
H  3.64100 49.38900 23.54400
H  2.44000 48.84000 24.82300
H  3.25700 47.78700 23.77800
H  5.23200 50.09600 29.28900
H  4.73500 48.83600 33.46000
H  5.62700 47.46800 32.79500
H  3.89200 47.56000 32.60700

