158

Mg 48.77000 35.61800 28.36200
C  46.48900 34.08900 30.71100
C  48.84400 38.31900 30.48500
C  50.34900 37.36300 25.97300
C  48.37400 32.99800 26.33500
N  47.77800 36.08100 30.36800
C  46.99300 35.36300 31.18500
C  46.63800 36.06000 32.49300
C  47.24500 37.47900 32.32400
C  47.99900 37.29400 30.96100
C  46.22000 38.63800 32.30600
C  47.18200 35.41400 33.78100
C  48.59400 34.81500 33.70500
H  49.79300 35.70100 34.11200
N  49.43900 37.55900 28.28400
C  49.47800 38.51400 29.26700
C  50.17800 39.70700 28.84700
C  50.53400 39.44000 27.48800
C  50.10800 38.06700 27.18900
C  50.38300 40.92900 29.67200
C  51.34100 40.28000 26.58300
O  51.69800 39.97900 25.42600
C  51.91900 41.62200 27.05300
N  49.23000 35.31700 26.40800
C  49.92700 36.13300 25.58600
C  50.38500 35.37200 24.37700
C  49.97800 33.90100 24.61800
C  49.15400 34.04400 25.88700
C  49.91100 35.87600 23.05400
C  51.23500 33.00400 24.76500
C  51.67000 32.17000 23.57700
N  47.75000 33.80100 28.49100
C  47.61400 32.84300 27.52700
C  46.74200 31.78400 28.00500
C  46.23400 32.25000 29.23800
C  46.94000 33.42200 29.53000
C  46.49300 30.51800 27.31800
C  45.26700 31.99800 30.26200
O  44.40400 31.10400 30.35600
C  45.40800 33.19500 31.26000
C  45.71000 32.66100 32.61600
O  46.77500 32.17500 32.92500
O  44.65100 32.88000 33.40700
C  44.83500 32.68000 34.81400
H  49.04500 39.19000 31.11400
H  51.01500 37.77600 25.21200
H  48.35200 32.11100 25.69900
H  45.55200 36.03800 32.58100
H  48.05700 37.67700 33.02300
H  45.83600 38.79500 31.29800
H  46.67100 39.53400 32.73500
H  45.36500 38.17500 32.79700
H  46.52500 34.57100 33.99400
H  47.20500 36.15200 34.58300
H  48.72000 34.41400 32.70000
H  48.70600 33.96000 34.37200
H  50.22900 41.83000 29.07900
H  51.32600 40.90200 30.21900
H  49.56300 40.99900 30.38700
H  51.21100 42.44700 26.97400
H  52.73200 41.75800 26.34000
H  52.41200 41.42000 28.00400
H  51.46700 35.48400 24.43700
H  49.30300 33.40400 23.92100
H  50.79200 36.26900 22.54700
H  49.11900 36.60800 23.21100
H  49.58800 35.11500 22.34400
H  51.11300 32.39300 25.66000
H  52.12400 33.59200 24.99300
H  52.54200 32.63500 23.11900
H  50.91400 32.23900 22.79400
H  51.73000 31.09900 23.77000
H  47.42100 30.20900 26.83500
H  45.67500 30.51500 26.59800
H  46.25300 29.78400 28.08700
H  44.48800 33.77900 31.24100
H  44.33800 33.51300 35.31200
H  45.87500 32.82300 35.10900
H  44.43700 31.70400 35.09000
Mg -11.97400 16.21700 42.20900
C  -8.97300 14.66700 41.65600
C  -10.75200 19.08400 40.72500
C  -15.18600 17.36700 41.76000
C  -13.32500 13.19300 43.20500
N  -10.12800 16.77500 41.17300
C  -9.00400 15.98400 41.10500
C  -7.82700 16.67100 40.32500
C  -8.36800 18.13000 40.25900
C  -9.83600 17.99000 40.74700
C  -7.63100 19.22900 41.15200
C  -7.60900 15.92300 38.97200
C  -6.15400 15.73800 38.66800
H  -5.60300 16.36600 37.35200
N  -12.79900 18.03100 41.56900
C  -12.04200 19.08500 41.11100
C  -12.87100 20.22400 40.98800
C  -14.26500 19.83700 41.19400
C  -14.16700 18.35300 41.54000
C  -12.34200 21.61600 40.76000
C  -15.50400 20.68300 41.12400
O  -15.42400 21.86300 40.91100
C  -16.86200 20.08700 41.28400
N  -13.92500 15.33300 42.19900
C  -15.08300 16.00700 42.07000
C  -16.35000 15.19400 42.44200
C  -15.78600 13.96100 43.12100
C  -14.25000 14.14900 42.85400
C  -17.44900 15.92600 43.28900
C  -16.50900 12.64700 42.69200
C  -17.29500 11.79700 43.73200
N  -11.27800 14.26300 42.49000
C  -11.92500 13.12700 42.88100
C  -10.92700 12.11700 43.10400
C  -9.76400 12.65600 42.61400
C  -10.01100 13.97300 42.23400
C  -11.05600 10.75200 43.76200
C  -8.41600 12.34800 42.30400
O  -7.82800 11.28200 42.34900
C  -7.84900 13.61500 41.66600
C  -6.77800 14.15400 42.44200
O  -6.85600 14.45500 43.62700
O  -5.65100 14.33300 41.73500
C  -4.53700 14.98900 42.48600
H  -10.25900 19.96500 40.30900
H  -16.19200 17.75000 41.94400
H  -13.76900 12.37500 43.77800
H  -7.01500 16.71500 41.05100
H  -8.37900 18.36000 39.19300
H  -8.37300 19.66500 41.82100
H  -7.10700 19.89200 40.46300
H  -6.91200 18.83400 41.87000
H  -8.07000 16.44300 38.13200
H  -8.09500 14.95200 39.07500
H  -5.85800 14.68900 38.66900
H  -5.48900 16.06200 39.47000
H  -13.18000 22.27800 40.54000
H  -11.62400 21.61500 39.94000
H  -11.94900 22.11700 41.64500
H  -17.63800 20.71000 40.84000
H  -16.92200 19.93500 42.36200
H  -16.98300 19.18800 40.68000
H  -16.79400 15.00300 41.46500
H  -15.86600 14.11300 44.19700
H  -18.15800 16.36300 42.58700
H  -16.96400 16.63900 43.95700
H  -17.96700 15.20700 43.92400
H  -15.86100 11.94100 42.17400
H  -17.23400 12.91400 41.92400
H  -17.56300 12.36900 44.62100
H  -16.70600 10.97700 44.14300
H  -18.25900 11.40000 43.41400
H  -11.39100 10.00800 43.04000
H  -11.86800 10.73500 44.48900
H  -10.12800 10.41700 44.22500
H  -7.48500 13.27900 40.69500
H  -4.49300 14.68700 43.53300
H  -4.80100 16.04600 42.46500
H  -3.61700 14.68400 41.98600

