158

Mg 17.15700 -1.77900 27.69800
C  16.33600 0.18500 30.42600
C  19.04200 -3.79500 29.84700
C  18.35900 -3.46500 25.07300
C  15.81900 0.68600 25.56400
N  17.66500 -1.77000 29.89400
C  17.07900 -0.94400 30.82500
C  17.57900 -1.34200 32.20400
C  18.56000 -2.52200 31.97300
C  18.39600 -2.72800 30.46000
C  20.07400 -2.17400 32.27000
C  16.42500 -1.65100 33.19200
C  16.42100 -0.77600 34.49000
H  17.78000 -0.48000 35.18700
N  18.34300 -3.46800 27.52700
C  18.97300 -4.23800 28.49000
C  19.50700 -5.47500 27.86000
C  19.37800 -5.28400 26.44400
C  18.62400 -4.05600 26.34700
C  19.85300 -6.67100 28.67700
C  19.88800 -6.16400 25.33100
O  19.60500 -6.01500 24.12600
C  20.71700 -7.32900 25.68200
N  16.97000 -1.51300 25.60000
C  17.71900 -2.25600 24.82500
C  17.66700 -1.64000 23.40900
C  16.52600 -0.51700 23.51400
C  16.37700 -0.44300 24.98900
C  19.11600 -1.04100 22.87400
C  15.16100 -1.00100 22.93200
C  14.21100 -0.05900 22.25000
N  16.16800 0.03100 27.89700
C  15.66000 0.91700 26.97700
C  14.93800 1.98800 27.68100
C  15.24400 1.76800 29.02800
C  16.00500 0.54600 29.12600
C  14.22900 3.10300 27.11300
C  15.05200 2.23000 30.34600
O  14.41100 3.17900 30.75900
C  15.87300 1.29000 31.33800
C  16.90100 2.10600 32.05500
O  17.99500 2.39200 31.68400
O  16.42300 2.62100 33.25500
C  17.24500 3.49700 34.09700
H  19.56800 -4.38500 30.60100
H  18.95400 -3.73800 24.19900
H  15.40000 1.42400 24.87700
H  18.06800 -0.49300 32.68200
H  18.32600 -3.44200 32.50900
H  20.35000 -1.23700 32.75500
H  20.76800 -2.20900 31.43000
H  20.39300 -2.95900 32.95600
H  16.41700 -2.72700 33.36500
H  15.50500 -1.48200 32.63200
H  15.94700 -1.27200 35.33700
H  15.76100 0.08700 34.40100
H  19.39300 -6.71600 29.66500
H  20.93300 -6.53200 28.64700
H  19.72300 -7.66300 28.24400
H  21.54900 -7.07800 26.34100
H  21.05000 -7.77200 24.74400
H  20.10800 -8.11800 26.12500
H  17.35800 -2.44600 22.74300
H  16.78400 0.42100 23.02200
H  19.77000 -1.04900 23.74600
H  19.08200 -0.02400 22.48400
H  19.71900 -1.61700 22.17200
H  14.47400 -1.52000 23.60100
H  15.45000 -1.66000 22.11400
H  13.23200 -0.15700 22.71900
H  14.13200 -0.22400 21.17600
H  14.55400 0.95600 22.44900
H  13.49600 2.65600 26.44300
H  14.82000 3.83800 26.56600
H  13.71200 3.62300 27.91900
H  15.17500 0.76200 31.98800
H  17.74900 2.93800 34.88500
H  16.41900 4.12300 34.43300
H  17.91100 4.05900 33.44100
Mg 29.39900 58.78400 41.17200
C  26.45200 57.13900 40.30100
C  31.22700 56.23700 39.87700
C  32.05400 60.95000 40.90600
C  27.45600 61.65900 41.98100
N  28.84300 57.01600 40.15500
C  27.57700 56.43600 39.99300
C  27.69300 55.15300 39.20500
C  29.18900 54.73200 39.47300
C  29.83200 56.08700 39.87000
C  29.33800 53.54100 40.49800
C  27.32300 55.38000 37.66900
C  26.35700 54.42600 36.94900
H  25.62700 55.01100 35.69900
N  31.40400 58.52200 40.75200
C  31.96500 57.35100 40.26500
C  33.38800 57.60800 40.21200
C  33.66300 58.94300 40.53300
C  32.36200 59.54400 40.75500
C  34.39900 56.51000 39.68900
C  35.08000 59.50800 40.72500
O  36.00800 58.75200 40.66200
C  35.26200 60.86100 41.27300
N  29.72900 61.07000 41.52500
C  30.96300 61.58200 41.41700
C  30.98100 63.07900 41.73700
C  29.45200 63.35700 42.02400
C  28.80600 61.99100 41.93800
C  31.94400 63.40200 42.98000
C  28.77300 64.33800 41.05600
C  27.99700 65.48800 41.83600
N  27.38900 59.29900 41.22900
C  26.73200 60.48500 41.59800
C  25.25900 60.25600 41.47100
C  25.08200 59.00900 40.99800
C  26.44600 58.45000 40.86100
C  24.24700 61.35900 41.79000
C  24.12400 57.98700 40.58100
O  22.91500 58.01000 40.62700
C  24.97000 56.85300 40.13400
C  24.57900 55.67600 41.09200
O  24.51300 55.77400 42.33200
O  24.16300 54.52700 40.37800
C  23.86000 53.32800 41.11800
H  31.62700 55.28900 39.51200
H  32.88700 61.56400 40.55800
H  26.90100 62.53300 42.32700
H  26.96800 54.40100 39.51600
H  29.58700 54.38100 38.52000
H  29.57400 53.86200 41.51300
H  30.15700 52.88800 40.19600
H  28.41300 52.96500 40.50700
H  28.22900 55.35700 37.06300
H  26.98600 56.40500 37.51000
H  25.58300 54.11400 37.65100
H  26.88900 53.51700 36.67100
H  35.00400 56.97800 38.91200
H  33.89300 55.62600 39.30100
H  35.08700 56.09600 40.42700
H  35.16400 61.59800 40.47600
H  36.29900 60.92500 41.60500
H  34.59900 61.04200 42.12000
H  31.20200 63.59500 40.80300
H  29.38200 63.79000 43.02200
H  31.38300 63.91900 43.75900
H  32.72400 64.09000 42.65300
H  32.41200 62.49800 43.36900
H  28.10800 63.83100 40.35700
H  29.45900 64.76200 40.32300
H  26.91900 65.47300 41.67700
H  28.27900 66.50300 41.55400
H  28.26600 65.51000 42.89200
H  24.53100 62.27400 41.27100
H  24.45400 61.49400 42.85100
H  23.22000 61.04800 41.59500
H  24.70500 56.58100 39.11300
H  23.27300 52.76500 40.39300
H  23.36400 53.54500 42.06400
H  24.69200 52.64900 41.30300

