158

Mg 24.08400 -5.47500 46.23400
C  26.37400 -3.15700 45.11500
C  21.69200 -4.29800 44.07300
C  22.08700 -8.22200 47.04400
C  26.64500 -6.86600 48.27800
N  24.06600 -3.99400 44.79000
C  25.07700 -3.08600 44.57100
C  24.68000 -2.02700 43.60700
C  23.07700 -2.26100 43.48500
C  22.90700 -3.63500 44.11100
C  22.04500 -1.14900 44.14900
C  25.44700 -2.16200 42.25800
C  25.81700 -0.88000 41.57200
H  25.24500 -0.79000 40.17400
N  22.12300 -6.10300 45.69400
C  21.32800 -5.45700 44.81500
C  20.02400 -6.07200 44.88400
C  20.08700 -7.27400 45.57500
C  21.47500 -7.24400 46.16700
C  18.80400 -5.61500 44.09700
C  19.00300 -8.34600 45.69400
O  17.92700 -8.11500 45.15700
C  19.22000 -9.68900 46.26500
N  24.23300 -7.22500 47.52500
C  23.30900 -8.20800 47.67200
C  23.89500 -9.43400 48.45600
C  25.19300 -8.81200 49.11600
C  25.41100 -7.54800 48.25300
C  22.98700 -10.18300 49.34600
C  26.41000 -9.69700 49.03900
C  27.02800 -9.98000 47.63200
N  26.17500 -5.17300 46.64700
C  27.04600 -5.67600 47.53000
C  28.31000 -4.90100 47.49900
C  28.07000 -3.95600 46.51900
C  26.79500 -4.11100 46.03000
C  29.51100 -5.13800 48.37400
C  28.70300 -2.90900 45.77100
O  29.86400 -2.47500 45.74300
C  27.58400 -2.27600 44.81600
C  27.53600 -0.83100 45.06100
O  26.84100 -0.27600 45.93800
O  28.27000 -0.08600 44.09200
C  28.11200 1.41100 44.09000
H  20.89700 -3.96100 43.40500
H  21.57600 -9.17500 47.20000
H  27.41800 -7.28300 48.92700
H  24.88200 -1.04600 44.03900
H  22.71200 -2.28700 42.45900
H  22.69200 -0.38100 44.57400
H  21.37100 -1.75500 44.75400
H  21.45200 -0.68100 43.36300
H  24.80100 -2.73300 41.59000
H  26.38600 -2.70200 42.38000
H  26.88100 -0.64500 41.61300
H  25.38900 -0.10000 42.20200
H  18.69800 -5.94000 43.06200
H  18.80600 -4.52500 44.10000
H  17.93500 -5.93300 44.67300
H  19.48200 -9.39800 47.28200
H  20.10500 -10.17900 45.86000
H  18.32300 -10.29600 46.14500
H  24.24800 -10.17500 47.73900
H  24.99300 -8.43700 50.12000
H  21.99700 -9.72900 49.37500
H  23.31600 -10.14600 50.38400
H  22.96700 -11.16600 48.87500
H  26.31200 -10.67000 49.52100
H  27.07700 -9.22400 49.76000
H  27.14200 -11.05100 47.46700
H  28.05700 -9.62900 47.71300
H  26.48000 -9.45500 46.84900
H  30.46700 -4.96400 47.87800
H  29.59800 -6.12900 48.81800
H  29.46200 -4.45200 49.21900
H  27.91300 -2.43600 43.78900
H  27.25000 1.73100 43.50500
H  28.97500 1.86300 43.60000
H  27.94800 1.79700 45.09600
Mg 55.83700 25.53700 45.38000
C  53.12700 26.87100 43.35200
C  54.77300 22.40900 44.36000
C  58.84800 24.28400 46.13000
C  56.85200 28.70600 45.94200
N  54.12300 24.78800 43.89600
C  53.13900 25.49200 43.26400
C  52.12200 24.52000 42.62200
C  52.45500 23.17700 43.28300
C  53.87700 23.39900 43.87900
C  51.48300 23.00200 44.47300
C  52.24700 24.45000 41.06800
C  50.86300 24.38000 40.35900
H  50.77100 23.73100 38.92100
N  56.66600 23.58400 45.36900
C  56.06900 22.45700 44.92600
C  56.94600 21.30800 45.08400
C  58.22200 21.84300 45.41800
C  58.00500 23.31600 45.69000
C  56.47900 19.93300 44.74300
C  59.54100 21.11800 45.53600
O  59.53900 19.84900 45.39900
C  60.87400 21.72000 45.91300
N  57.71400 26.37800 45.75600
C  58.73600 25.70100 46.21200
C  59.87500 26.61600 46.83200
C  59.19500 27.98400 46.78600
C  57.85000 27.69900 46.09400
C  60.23000 26.17400 48.23200
C  59.93600 29.19300 46.11800
C  60.22200 30.31900 47.16600
N  55.12100 27.40800 44.93900
C  55.56200 28.60200 45.33000
C  54.52700 29.61100 45.06100
C  53.57500 29.02100 44.20100
C  53.99900 27.64800 44.14000
C  54.57600 31.04600 45.47000
C  52.34300 29.24800 43.48500
O  51.59900 30.18600 43.33100
C  52.14000 27.86400 42.79400
C  52.29300 28.02000 41.21200
O  53.25600 27.71000 40.60800
O  51.15200 28.70300 40.71400
C  51.04800 28.88300 39.26600
H  54.54100 21.36900 44.12100
H  59.78400 23.92700 46.56600
H  57.06700 29.63700 46.47100
H  51.08700 24.74900 42.87500
H  52.51300 22.35300 42.57200
H  50.51200 22.52600 44.34000
H  51.32800 23.91400 45.04900
H  51.85400 22.40900 45.31000
H  52.86400 23.59500 40.79000
H  52.84000 25.27800 40.67900
H  50.51600 25.41200 40.32300
H  50.22900 23.92800 41.12200
H  55.49500 19.65000 45.11500
H  57.12100 19.13000 45.10300
H  56.38100 19.76100 43.67100
H  61.11400 22.60900 45.33100
H  61.56700 20.97900 45.51500
H  60.94800 21.85700 46.99200
H  60.80700 26.55800 46.27000
H  58.84800 28.23100 47.78900
H  61.18400 25.67000 48.07500
H  59.42300 25.49300 48.50000
H  60.30700 26.99400 48.94700
H  59.52100 29.75200 45.27900
H  60.94500 28.91600 45.81300
H  59.30100 30.38000 47.74500
H  60.52000 31.25100 46.68600
H  61.02900 30.06400 47.85300
H  53.58500 31.31600 45.83500
H  54.91300 31.64100 44.62100
H  55.24600 31.31300 46.28800
H  51.08900 27.59900 42.91500
H  50.19600 29.51100 39.00500
H  51.03600 27.91700 38.76000
H  51.95100 29.40800 38.95300

