158

Mg 49.25700 45.79400 42.01000
C  45.85300 46.52200 41.12100
C  48.88200 42.79200 40.55000
C  52.59900 45.46400 42.21500
C  49.61600 49.23700 42.98100
N  47.60300 44.85200 40.92700
C  46.28500 45.27000 40.74200
C  45.40600 44.13900 40.10800
C  46.39000 42.96300 40.06000
C  47.72200 43.57000 40.55300
C  46.03100 41.69300 40.78100
C  45.00900 44.53900 38.62700
C  43.48000 44.28500 38.19800
H  43.23500 43.27100 37.16300
N  50.55300 44.30000 41.55200
C  50.15400 43.08100 41.01500
C  51.27900 42.20200 40.88800
C  52.46900 42.93300 41.33300
C  51.91200 44.31400 41.76600
C  51.16700 40.68700 40.49700
C  53.92700 42.45400 41.40900
O  54.14100 41.32400 41.03200
C  55.05900 43.36200 41.71000
N  50.88500 47.15300 42.44100
C  52.13700 46.74100 42.50200
C  53.04000 47.85200 42.99600
C  52.09900 49.05400 43.25100
C  50.76200 48.49600 42.76900
C  53.97400 47.39100 44.14700
C  52.49100 50.46500 42.61500
C  53.33400 51.35900 43.53800
N  48.03000 47.58000 42.08400
C  48.27000 48.87300 42.61500
C  47.00500 49.58800 42.51600
C  46.02400 48.63100 42.11900
C  46.71800 47.53500 41.69600
C  46.78300 51.01200 43.09000
C  44.59800 48.43600 42.04400
O  43.62700 49.12400 42.34300
C  44.39400 47.07900 41.23500
C  43.37600 46.25300 41.84100
O  42.24200 46.02600 41.33900
O  43.73200 45.67700 43.02100
C  42.91100 44.56200 43.45500
H  48.63500 41.78400 40.21100
H  53.68700 45.42800 42.30700
H  49.51900 50.21800 43.45100
H  44.43000 44.06700 40.58800
H  46.51400 42.66000 39.02000
H  46.37700 41.56200 41.80600
H  46.39500 40.88700 40.14300
H  44.95000 41.55800 40.80100
H  45.75900 44.21100 37.90700
H  45.06100 45.61500 38.46100
H  43.12800 45.20700 37.73400
H  42.80100 44.14600 39.03900
H  50.99600 40.47300 39.44100
H  50.43400 40.22700 41.15900
H  52.09800 40.17800 40.74500
H  55.00300 43.67100 42.75300
H  55.11900 44.30300 41.16300
H  55.99000 42.83600 41.50000
H  53.69900 48.11700 42.16900
H  52.09900 49.15700 44.33600
H  54.07800 48.17500 44.89600
H  54.94000 47.05300 43.77200
H  53.48300 46.47800 44.48300
H  51.57800 50.95000 42.27000
H  53.14300 50.39400 41.74400
H  54.35100 51.55800 43.20000
H  53.36000 50.94000 44.54400
H  52.80800 52.30900 43.63600
H  47.31000 51.03100 44.04400
H  45.75100 51.26300 43.33500
H  47.20100 51.78300 42.44300
H  44.18300 47.34500 40.19900
H  42.85600 43.84900 42.63200
H  41.91900 44.91000 43.74400
H  43.37800 44.22400 44.38000
Mg -10.53000 17.06900 40.59700
C  -7.12300 16.56300 40.49000
C  -10.14700 20.32000 39.93000
C  -13.80300 17.13700 39.94100
C  -10.79400 13.42500 40.71700
N  -8.80100 18.27700 39.97500
C  -7.48600 17.92200 40.15800
C  -6.57800 19.07500 39.92300
C  -7.52000 20.28700 40.12700
C  -8.89500 19.62600 39.94200
C  -7.42500 20.94700 41.54500
C  -5.94100 19.06600 38.50800
C  -4.42000 18.74100 38.49000
H  -3.93200 17.89400 37.30800
N  -11.81400 18.57000 39.98000
C  -11.48900 19.87300 39.88200
C  -12.64200 20.67800 39.76000
C  -13.70100 19.79600 39.68000
C  -13.13900 18.41800 39.88600
C  -12.62100 22.16700 39.75300
C  -15.20200 20.20600 39.61800
O  -15.47200 21.37400 39.40300
C  -16.32400 19.18000 39.76900
N  -12.06400 15.55500 40.35200
C  -13.30900 15.89200 40.08500
C  -14.34200 14.62500 40.18300
C  -13.28900 13.49700 40.24500
C  -11.99600 14.19200 40.52300
C  -15.36100 14.67100 41.43500
C  -13.22800 12.62900 38.99700
C  -13.05800 11.08000 39.17500
N  -9.24800 15.29400 40.71200
C  -9.48100 13.92500 40.75400
C  -8.24200 13.22900 40.94900
C  -7.24600 14.22000 40.89800
C  -7.89300 15.44200 40.60200
C  -8.01400 11.71700 41.21700
C  -5.88300 14.39600 40.91800
O  -4.93300 13.61000 41.16300
C  -5.72800 16.01600 40.76400
C  -5.01200 16.61400 41.91500
O  -3.99800 17.28600 41.79800
O  -5.53600 16.11300 43.06400
C  -4.84000 16.51600 44.31400
H  -10.06900 21.40800 39.88900
H  -14.89300 17.16700 39.87900
H  -10.82300 12.34100 40.84200
H  -5.76100 19.12500 40.64300
H  -7.41300 20.96900 39.28400
H  -6.37000 20.83300 41.79300
H  -8.08900 20.35500 42.17500
H  -7.76600 21.95000 41.28800
H  -6.03900 20.09400 38.16000
H  -6.47000 18.31600 37.91900
H  -4.18900 18.35800 39.48400
H  -3.92800 19.70400 38.35500
H  -13.38900 22.64300 40.36200
H  -12.69900 22.55700 38.73800
H  -11.73800 22.66300 40.15600
H  -16.26800 18.58600 38.85600
H  -17.22400 19.78200 39.89400
H  -16.27000 18.51000 40.62700
H  -14.80100 14.54300 39.19800
H  -13.51300 12.85200 41.09400
H  -15.68400 13.68400 41.76500
H  -16.30200 15.18400 41.23300
H  -14.82600 15.26000 42.18000
H  -12.47500 13.03300 38.32000
H  -14.19000 12.78900 38.51100
H  -13.91800 10.63400 39.67400
H  -12.20200 10.90400 39.82800
H  -12.80900 10.48300 38.29800
H  -6.97700 11.64300 41.54300
H  -8.15300 11.10000 40.32900
H  -8.65900 11.28900 41.98500
H  -5.12200 16.31500 39.90900
H  -3.79900 16.20000 44.25300
H  -5.35000 16.22400 45.23200
H  -4.88300 17.60500 44.30100

