158

Mg 15.63800 51.45900 25.91300
C  17.22900 50.35300 28.67600
C  13.06700 52.66500 27.87900
C  13.96800 52.12100 23.06200
C  17.99600 49.85700 23.88100
N  15.24100 51.58900 28.06900
C  16.08700 51.13600 29.03000
C  15.69500 51.56300 30.39500
C  14.22500 52.09000 30.18700
C  14.12800 52.16900 28.64900
C  13.13600 51.08400 30.74800
C  16.62100 52.65900 30.95200
C  17.02100 52.70600 32.43200
H  16.08800 51.83900 33.23900
N  13.84500 52.35200 25.52400
C  12.93100 52.75800 26.46900
C  11.71700 53.12100 25.78400
C  11.95500 53.03900 24.36500
C  13.30700 52.49300 24.23800
C  10.49700 53.46100 26.46000
C  11.02900 53.30900 23.33200
O  11.31700 52.99500 22.15700
C  9.66000 53.99100 23.56100
N  16.06700 51.20600 23.81700
C  15.22200 51.53800 22.84600
C  15.80600 51.45900 21.37400
C  17.10100 50.70200 21.67800
C  17.02200 50.52600 23.24200
C  14.89500 50.60200 20.37500
C  18.35400 51.41200 21.12100
C  19.26000 50.69100 20.05500
N  17.40500 50.42900 26.21600
C  18.22200 49.84300 25.30300
C  19.16400 49.07100 26.08700
C  18.80300 49.25400 27.37400
C  17.73600 50.10000 27.42500
C  20.19600 48.16500 25.61300
C  19.16600 48.88900 28.70500
O  19.95200 48.02000 29.05500
C  18.22600 49.66900 29.60400
C  17.67100 48.77300 30.53400
O  16.60600 48.19900 30.55000
O  18.54600 48.75300 31.62800
C  18.02300 48.08800 32.82000
H  12.24900 52.94500 28.54500
H  13.52200 52.45700 22.12300
H  18.70600 49.31800 23.25100
H  15.76000 50.67500 31.02200
H  14.09900 53.11600 30.53200
H  12.47200 51.60000 31.44100
H  13.60300 50.18500 31.15100
H  12.50600 50.72000 29.93600
H  16.28100 53.68300 30.79400
H  17.56000 52.60800 30.40000
H  17.11600 53.76100 32.68700
H  17.95300 52.16200 32.58100
H  9.73500 52.70400 26.27900
H  10.13200 54.39800 26.03800
H  10.47800 53.63900 27.53500
H  9.05300 53.43500 24.27600
H  9.22500 54.13800 22.57200
H  9.99100 54.97900 23.87900
H  16.02500 52.44500 20.96200
H  17.19700 49.71000 21.23700
H  14.08700 50.09000 20.89800
H  15.45400 49.89400 19.76400
H  14.53300 51.32200 19.64000
H  19.04900 51.63700 21.93100
H  18.17100 52.37400 20.64200
H  19.30900 49.61400 20.21600
H  20.28800 50.98400 20.26700
H  19.00200 51.02000 19.04900
H  20.31700 47.26700 26.21800
H  21.17500 48.60700 25.42900
H  19.81200 47.94600 24.61600
H  18.84300 50.38600 30.14400
H  17.16200 47.45000 32.62300
H  17.81800 48.81100 33.61000
H  18.79000 47.43300 33.23200
Mg -9.67800 41.16600 42.44100
C  -8.94600 37.96800 41.39700
C  -6.81700 42.27500 41.04900
C  -11.03900 44.40300 42.32700
C  -12.98100 39.95900 43.07700
N  -8.21500 40.27400 40.93400
C  -8.04200 38.89800 40.81400
C  -6.68200 38.63200 40.33000
C  -5.90300 39.92400 40.67100
C  -7.00400 40.93800 40.82100
C  -4.84800 39.95500 41.81000
C  -6.63100 38.14400 38.81200
C  -5.95800 36.87300 38.44300
H  -4.94300 37.05400 37.25900
N  -8.92800 43.10000 42.02200
C  -7.70900 43.33800 41.45700
C  -7.42400 44.83300 41.49800
C  -8.65100 45.39900 41.93800
C  -9.62100 44.31800 42.08600
C  -6.21200 45.55600 40.96200
C  -8.83000 46.87200 42.16600
O  -7.96700 47.71200 42.01900
C  -10.08800 47.54300 42.77600
N  -11.70000 42.10900 42.64100
C  -12.01000 43.40800 42.57200
C  -13.48600 43.66000 42.72800
C  -14.02700 42.25700 42.98800
C  -12.84300 41.35000 42.89000
C  -14.02400 44.67900 43.72700
C  -15.12200 41.86200 41.95500
C  -16.45300 41.25100 42.42600
N  -10.71900 39.30200 42.62900
C  -11.97600 38.94800 43.01200
C  -12.12800 37.46200 42.98500
C  -10.94700 37.05600 42.38900
C  -10.13900 38.19900 42.11600
C  -13.33800 36.59900 43.27700
C  -10.23700 35.89200 41.92500
O  -10.50700 34.68500 41.94100
C  -8.86100 36.44700 41.34000
C  -7.85100 35.89800 42.19900
O  -7.45800 36.39400 43.28600
O  -7.18200 34.92500 41.42900
C  -5.83300 34.45700 41.96500
H  -5.83000 42.73600 40.96500
H  -11.36400 45.42500 42.12100
H  -14.00600 39.67400 43.32600
H  -6.25300 37.86600 40.97600
H  -5.20800 40.13600 39.85900
H  -4.26700 39.03300 41.80900
H  -5.39800 39.94800 42.75100
H  -4.22400 40.84600 41.74000
H  -6.35400 38.96000 38.14500
H  -7.70600 38.01200 38.68900
H  -6.74200 36.13700 38.26500
H  -5.55600 36.45300 39.36400
H  -6.49600 45.99300 40.00400
H  -5.39300 44.89800 40.67200
H  -5.83800 46.29900 41.66500
H  -10.49600 47.01400 43.63700
H  -10.89800 47.57000 42.04700
H  -9.79100 48.54900 43.07200
H  -13.82700 43.81100 41.70400
H  -14.46700 42.09800 43.97200
H  -14.18200 45.57500 43.12600
H  -13.40600 44.95100 44.58200
H  -15.05300 44.37200 43.91200
H  -14.51800 41.21300 41.32100
H  -15.45400 42.62600 41.25200
H  -17.21700 41.98700 42.17300
H  -16.44800 41.05300 43.49800
H  -16.69700 40.27300 42.01300
H  -14.00000 37.25400 43.84400
H  -13.09100 35.74000 43.90000
H  -13.84100 36.28100 42.36300
H  -8.79200 36.10900 40.30600
H  -5.01800 35.08500 41.60500
H  -5.60700 33.43400 41.66400
H  -5.80200 34.64200 43.03900

