158

Mg 43.83800 4.12200 46.71500
C  42.04700 7.07300 46.94800
C  40.82000 2.41500 46.67400
C  45.52900 1.42100 45.75300
C  46.80800 6.00000 46.34400
N  41.65800 4.75800 46.69800
C  41.21400 5.97500 47.00300
C  39.69500 5.89700 47.37100
C  39.38500 4.42600 47.33900
C  40.71700 3.79200 46.86800
C  38.91400 3.87700 48.75800
C  38.87100 6.81300 46.38300
C  39.43000 7.09800 44.96000
H  38.41300 7.10600 43.75500
N  43.27700 2.08300 46.26700
C  41.99800 1.61100 46.26100
C  41.98000 0.25600 45.90600
C  43.33300 -0.12100 45.56200
C  44.13400 1.15100 45.80000
C  40.88300 -0.73700 46.16000
C  43.87500 -1.37900 45.06400
O  43.08000 -2.32400 44.74500
C  45.35000 -1.56300 44.73600
N  45.89200 3.80900 45.88700
C  46.38600 2.57300 45.85800
C  47.91500 2.44400 45.50800
C  48.33200 3.95100 45.84300
C  46.96700 4.67500 46.07400
C  48.60700 1.35600 46.41700
C  49.24400 4.60900 44.79500
C  50.43800 5.42100 45.35100
N  44.35400 6.10400 46.67000
C  45.61100 6.72900 46.49300
C  45.46900 8.18400 46.70800
C  44.05500 8.34000 46.83700
C  43.43300 7.05800 46.80000
C  46.61300 9.15200 46.63300
C  42.99300 9.33100 47.13400
O  43.05000 10.56400 47.22800
C  41.66800 8.50800 47.12200
C  40.99300 8.80100 48.40100
O  41.33000 8.29400 49.44800
O  39.93200 9.70200 48.28600
C  39.14100 10.17700 49.42000
H  39.87400 1.87200 46.62400
H  46.05300 0.46600 45.68300
H  47.75500 6.54400 46.37000
H  39.66100 6.25800 48.39900
H  38.77100 4.19900 46.46800
H  39.73300 3.35900 49.25800
H  38.24600 3.02500 48.63400
H  38.34200 4.55900 49.38700
H  38.56000 7.68300 46.96200
H  37.90000 6.34600 46.22000
H  40.21100 6.37000 44.73800
H  39.70800 8.15000 44.89900
H  40.15300 -0.70600 45.35200
H  40.24100 -0.32400 46.93900
H  41.09100 -1.76700 46.45100
H  45.99700 -1.49300 45.61000
H  45.67400 -0.80200 44.02600
H  45.51400 -2.53900 44.28000
H  48.11700 2.20500 44.46400
H  48.84100 4.13800 46.78800
H  48.76700 0.34500 46.04000
H  47.98900 1.27300 47.31100
H  49.64400 1.61000 46.63500
H  48.58000 5.19600 44.16000
H  49.65400 3.88800 44.08700
H  51.36700 5.07500 44.89700
H  50.51700 5.41000 46.43800
H  50.34800 6.48400 45.12700
H  47.46700 8.53900 46.91900
H  46.39100 9.94800 47.34400
H  46.79300 9.59200 45.65200
H  41.02400 8.74300 46.27500
H  39.10900 11.24300 49.64300
H  39.36300 9.63900 50.34200
H  38.10700 9.89000 49.23100
Mg 42.76400 41.37500 26.36300
C  41.83000 43.55600 29.10700
C  44.07000 39.22800 28.94000
C  43.71700 39.29400 24.07500
C  42.01600 43.78600 24.09800
N  42.90900 41.33400 28.80800
C  42.43800 42.38000 29.61900
C  42.50000 41.81800 31.12600
C  43.54000 40.62500 30.97700
C  43.54900 40.44000 29.52900
C  44.98900 40.86200 31.47000
C  41.03700 41.57800 31.76300
C  40.71800 41.41900 33.33500
H  41.82900 41.32000 34.31700
N  43.65200 39.46600 26.45900
C  44.15500 38.79300 27.56700
C  44.64000 37.53400 27.07700
C  44.44400 37.46000 25.63700
C  43.99100 38.76900 25.31300
C  45.18400 36.45800 28.01200
C  44.52800 36.33400 24.65000
O  44.37700 36.48600 23.43900
C  44.88200 34.91500 25.16300
N  42.81700 41.52300 24.37700
C  43.30900 40.57400 23.60900
C  43.31200 40.97400 22.10800
C  42.57200 42.30900 22.08500
C  42.40400 42.56200 23.64000
C  44.66900 41.12800 21.35900
C  41.27300 42.29900 21.40000
C  40.26600 41.17500 21.62500
N  41.99000 43.24000 26.47000
C  41.72900 44.18700 25.45700
C  41.30300 45.37900 26.04600
C  41.32000 45.19500 27.44500
C  41.70200 43.81900 27.65700
C  40.98900 46.64100 25.25800
C  41.11700 45.88900 28.71100
O  40.77500 47.05100 28.95700
C  41.23600 44.76400 29.87400
C  42.02400 45.34300 30.90300
O  43.05800 45.91700 30.68400
O  41.54000 44.92200 32.12700
C  42.58900 45.05500 33.13600
H  44.54700 38.62100 29.71100
H  43.97800 38.71600 23.18600
H  41.79300 44.58500 23.38700
H  42.93800 42.60100 31.74500
H  43.18600 39.63900 31.27700
H  45.26600 41.89500 31.68100
H  45.69500 40.47700 30.73500
H  45.08000 40.22900 32.35300
H  40.75500 40.64500 31.27500
H  40.44200 42.35300 31.27900
H  40.32300 40.42200 33.53000
H  39.93400 42.14500 33.55200
H  45.36600 36.81900 29.02500
H  46.15600 36.10900 27.66500
H  44.56800 35.56100 27.94000
H  44.01200 34.51600 25.68500
H  45.74300 34.89200 25.83100
H  45.14800 34.22700 24.36100
H  42.73100 40.22900 21.56400
H  43.14300 43.04800 21.52200
H  44.82600 42.08900 20.86900
H  44.59700 40.40000 20.55100
H  45.55000 40.96700 21.98000
H  41.52500 42.36700 20.34200
H  40.77000 43.24500 21.60000
H  40.67300 40.37500 22.24200
H  39.98400 40.63300 20.72300
H  39.41100 41.63100 22.12500
H  40.50400 46.43300 24.30400
H  41.95200 47.15100 25.29700
H  40.30700 47.22400 25.87700
H  40.23900 44.49300 30.22000
H  42.89800 46.10000 33.15600
H  43.43700 44.39600 32.94800
H  42.18000 44.88200 34.13100

