158

Mg 26.82200 50.22500 26.32000
C  24.92600 51.38600 28.91800
C  29.47000 49.76500 28.50200
C  28.80400 49.31800 23.71400
C  24.42600 51.37600 24.02200
N  27.17000 50.55400 28.48700
C  26.22500 50.99000 29.37800
C  26.78600 51.04800 30.81000
C  28.28700 50.50900 30.61900
C  28.33000 50.29700 29.14500
C  29.43300 51.38400 31.25900
C  25.89600 50.39700 31.84000
C  26.51400 49.84200 33.17200
H  26.11800 50.41300 34.51700
N  28.88700 49.67200 26.14200
C  29.77000 49.40400 27.13000
C  30.96800 48.80900 26.63700
C  30.81500 48.61500 25.28800
C  29.47400 49.19700 24.99800
C  32.18700 48.50300 27.52100
C  31.78400 48.01500 24.32700
O  31.50900 47.84200 23.17600
C  33.15200 47.43900 24.81900
N  26.68000 50.42300 24.25900
C  27.54300 49.83700 23.37700
C  26.97100 49.73400 21.92500
C  25.50300 50.23400 22.14200
C  25.57400 50.80900 23.54200
C  27.87300 50.62000 20.91700
C  24.33200 49.20400 21.92200
C  24.04900 47.99500 22.88200
N  24.98100 51.08900 26.41500
C  24.15500 51.56800 25.38200
C  23.01900 52.17800 26.03300
C  23.33600 52.11300 27.45900
C  24.48300 51.42600 27.59700
C  21.79200 52.59700 25.33700
C  22.80800 52.44100 28.81600
O  21.81800 53.03300 29.19900
C  23.85600 51.93500 29.80300
C  24.16100 53.17100 30.66300
O  25.03400 53.97200 30.37500
O  23.51500 53.11900 31.90000
C  24.00000 54.04400 32.91700
H  30.20100 49.43500 29.24300
H  29.31300 48.94500 22.82300
H  23.59800 51.67100 23.37400
H  26.75300 52.11400 31.03500
H  28.32100 49.52300 31.08200
H  30.25900 51.49400 30.55700
H  29.80300 50.92000 32.17300
H  29.14000 52.42100 31.42400
H  25.25800 49.63900 31.38500
H  25.21900 51.17400 32.19500
H  27.60400 49.85100 33.16800
H  26.35500 48.77900 33.35300
H  33.04200 49.06000 27.14000
H  32.34800 47.42500 27.53500
H  31.98900 48.77700 28.55800
H  33.83200 48.23000 25.13300
H  33.60600 46.92500 23.97200
H  33.12800 46.77100 25.68000
H  27.06800 48.65800 21.78300
H  25.29800 51.07000 21.47200
H  28.54100 49.84700 20.53800
H  28.47400 51.36000 21.44600
H  27.35000 51.13700 20.11300
H  24.48800 48.60900 21.02200
H  23.36500 49.65400 21.69600
H  24.81800 48.03900 23.65300
H  24.17600 47.07100 22.31600
H  23.09600 47.97400 23.40900
H  22.01100 53.43300 24.67400
H  21.14800 53.06000 26.08600
H  21.23400 51.82700 24.80400
H  23.43300 51.24700 30.53600
H  24.38400 54.97000 32.48900
H  24.71100 53.49100 33.53000
H  23.25900 54.31000 33.67000
Mg -5.93200 25.22900 26.23100
C  -4.88900 26.82300 29.12000
C  -7.68600 23.03100 28.16100
C  -6.83500 23.68800 23.35000
C  -3.98300 27.52100 24.37400
N  -6.26400 25.06100 28.39400
C  -5.79400 25.85500 29.36900
C  -6.38100 25.43000 30.70200
C  -7.14200 24.10200 30.37900
C  -7.07300 24.06700 28.93800
C  -6.47800 22.93700 31.24100
C  -7.29900 26.51200 31.27200
C  -7.04900 27.05000 32.64800
H  -6.66000 26.08300 33.70600
N  -6.99400 23.52600 25.77500
C  -7.67100 22.78100 26.70000
C  -8.49800 21.78700 25.98000
C  -8.12700 21.92200 24.55000
C  -7.33600 23.08600 24.50000
C  -9.49900 20.89400 26.69200
C  -8.57700 21.09400 23.43300
O  -8.15900 21.18200 22.29100
C  -9.64300 20.19600 23.65900
N  -5.43400 25.55500 24.19000
C  -5.94200 24.79200 23.17600
C  -5.51700 25.22500 21.85800
C  -4.75400 26.48900 22.12400
C  -4.73100 26.58900 23.62500
C  -4.62700 24.08600 21.14900
C  -5.33400 27.73700 21.51000
C  -5.30300 27.66400 20.01500
N  -4.59900 26.76600 26.58400
C  -3.88200 27.60200 25.77700
C  -3.12800 28.57100 26.54500
C  -3.48100 28.27200 27.86500
C  -4.31800 27.12100 27.86100
C  -2.39100 29.73100 26.12500
C  -3.30400 28.79800 29.21100
O  -2.73100 29.75000 29.72600
C  -4.23000 27.78600 30.11400
C  -3.53400 27.09100 31.23500
O  -2.97900 25.97700 31.09600
O  -3.53900 27.84300 32.36900
C  -2.49400 27.42800 33.33800
H  -8.26200 22.42600 28.86400
H  -7.03900 23.21200 22.38900
H  -3.37700 28.14000 23.70800
H  -5.53600 25.25300 31.36800
H  -8.16400 24.07800 30.75700
H  -7.12600 22.64700 32.06800
H  -5.49600 23.20400 31.63300
H  -6.44100 21.96400 30.75100
H  -8.34300 26.20200 31.22600
H  -7.17200 27.42900 30.69700
H  -8.04400 27.44900 32.84700
H  -6.32600 27.86600 32.65200
H  -9.14900 19.86300 26.74200
H  -10.39400 20.98600 26.07700
H  -9.64600 21.30800 27.68900
H  -9.32600 19.64100 24.54100
H  -9.74400 19.54300 22.79200
H  -10.58700 20.70900 23.84300
H  -6.41300 25.30700 21.24400
H  -3.71800 26.38100 21.80500
H  -4.53600 23.23700 21.82600
H  -3.59400 24.41700 21.04200
H  -4.99400 23.89800 20.14000
H  -4.72500 28.60800 21.75200
H  -6.30200 27.98000 21.94900
H  -6.30500 27.56900 19.59600
H  -4.72600 26.82100 19.63600
H  -4.79200 28.53200 19.59900
H  -1.37400 29.52100 25.79400
H  -2.40800 30.54500 26.84900
H  -2.88700 30.16100 25.25500
H  -5.03000 28.45800 30.42500
H  -2.65000 27.87800 34.31900
H  -1.54400 27.89300 33.07700
H  -2.35800 26.35000 33.41800

