158

Mg 42.09600 40.76200 25.77300
C  41.19400 43.13700 28.22400
C  43.03000 38.62200 28.21600
C  43.21400 38.75500 23.36800
C  41.29000 43.14200 23.31300
N  42.11700 40.90900 27.98800
C  41.56600 41.90700 28.83100
C  41.64300 41.50100 30.35600
C  42.41400 40.08600 30.26900
C  42.53100 39.86100 28.72600
C  43.78500 39.98000 30.97900
C  40.20900 41.47200 31.01400
C  40.16700 40.78500 32.32900
H  39.74300 41.60700 33.53100
N  42.90000 38.86300 25.80800
C  43.14500 38.12400 26.93200
C  43.67000 36.82000 26.53600
C  43.77900 36.84800 25.16700
C  43.35600 38.23500 24.71300
C  44.08600 35.72500 27.57100
C  44.19700 35.72400 24.14500
O  44.27600 35.91000 22.92400
C  44.50200 34.27400 24.60400
N  42.33900 41.03700 23.59800
C  42.69000 39.92700 22.82100
C  42.45700 40.20500 21.38700
C  41.60200 41.45300 21.46500
C  41.59300 41.87100 22.91100
C  43.74200 40.21000 20.54400
C  40.13600 41.39800 20.94600
C  39.00400 40.63000 21.70300
N  41.56800 42.75300 25.75200
C  41.28200 43.55500 24.65900
C  41.06100 44.92200 25.13000
C  40.94700 44.75200 26.52700
C  41.21100 43.37800 26.87200
C  40.66000 46.15600 24.31800
C  40.71000 45.56200 27.74600
O  40.55500 46.73500 27.93400
C  40.73800 44.48000 28.87900
C  41.71200 44.90200 29.85800
O  42.87700 45.07100 29.60100
O  41.01600 45.30500 31.02800
C  41.93800 45.81100 32.06300
H  43.24000 37.89200 29.00000
H  43.46700 38.19300 22.46700
H  40.86700 43.80700 22.55700
H  42.30200 42.27400 30.75100
H  41.78600 39.32300 30.72800
H  44.60100 39.52200 30.42000
H  43.62700 39.42300 31.90200
H  44.09500 40.94900 31.37000
H  39.49400 41.08600 30.28800
H  39.90000 42.49600 31.22600
H  41.13900 40.33000 32.52300
H  39.41600 39.99500 32.35000
H  43.49800 34.82900 27.37600
H  43.94300 36.01500 28.61200
H  45.15900 35.54900 27.49500
H  43.64000 33.93400 25.17900
H  45.35800 34.14600 25.26600
H  44.76000 33.75100 23.68400
H  41.88400 39.35200 21.02300
H  42.03500 42.23900 20.84700
H  43.81400 41.16700 20.02700
H  43.60000 39.49600 19.73200
H  44.63700 39.90300 21.08500
H  40.20900 40.97000 19.94600
H  39.82500 42.41900 20.72500
H  38.46200 39.93600 21.06000
H  38.36900 41.27900 22.30700
H  39.52400 40.02300 22.44400
H  39.65000 46.00200 23.93900
H  41.44500 46.36300 23.59000
H  40.68100 46.93700 25.07800
H  39.72500 44.36200 29.26600
H  42.42300 45.15800 32.78900
H  41.16800 46.32700 32.63600
H  42.59300 46.59800 31.69000
Mg -0.26900 43.42500 26.85700
C  1.71800 43.35700 29.77200
C  -2.95100 42.27700 28.76100
C  -2.17100 43.55600 24.09500
C  2.57600 44.06300 24.90200
N  -0.55600 42.93100 29.04400
C  0.35600 43.00700 30.04100
C  -0.27200 42.76800 31.35600
C  -1.63600 42.05700 30.96800
C  -1.74800 42.47100 29.50600
C  -1.60700 40.50200 31.00000
C  -0.39600 44.10900 32.15700
C  0.17800 44.11800 33.66200
H  -0.20100 42.89300 34.58600
N  -2.31100 43.01200 26.46100
C  -3.16400 42.54200 27.40600
C  -4.46100 42.40600 26.71600
C  -4.30600 42.82100 25.34700
C  -2.90200 43.23100 25.26400
C  -5.72400 41.87400 27.43000
C  -5.28000 42.87000 24.24300
O  -4.99400 43.26900 23.10200
C  -6.64600 42.36900 24.37600
N  0.08700 43.75700 24.75300
C  -0.85600 43.78000 23.83100
C  -0.32300 44.41000 22.46800
C  1.15800 44.50300 22.83300
C  1.29500 44.04200 24.28100
C  -0.53100 43.49900 21.26900
C  1.76000 45.86500 22.39900
C  1.73600 47.02400 23.45700
N  1.74900 43.71900 27.18000
C  2.81700 43.90300 26.29700
C  4.02500 44.03200 27.07600
C  3.65100 43.80500 28.39100
C  2.26700 43.58400 28.43200
C  5.39700 44.37500 26.50900
C  4.12900 43.69300 29.77200
O  5.27200 43.68700 30.21800
C  2.87300 43.51600 30.71100
C  3.23900 42.35300 31.60500
O  2.93300 41.16700 31.39700
O  3.88900 42.77800 32.72200
C  4.37300 41.77800 33.64400
H  -3.68700 41.66300 29.28400
H  -2.80600 43.77100 23.23300
H  3.46400 44.46200 24.40700
H  0.32700 42.06700 31.93800
H  -2.47900 42.37600 31.58100
H  -2.07200 40.11500 31.90700
H  -0.57600 40.15200 30.95100
H  -2.16300 40.09600 30.15500
H  -1.41400 44.49600 32.19900
H  0.08400 44.83200 31.49700
H  -0.15800 45.03100 34.15400
H  1.25800 44.25700 33.61300
H  -6.59600 42.52400 27.35900
H  -5.46500 41.62800 28.46000
H  -5.76100 40.95100 26.85100
H  -6.46600 41.36500 24.75900
H  -7.29300 42.63400 23.54000
H  -7.06000 42.92700 25.21600
H  -0.83800 45.36700 22.38500
H  1.64000 43.73000 22.23500
H  -1.59600 43.49700 21.03900
H  -0.29200 42.46200 21.50600
H  0.01000 43.72100 20.35000
H  1.28400 46.22700 21.48800
H  2.75100 45.60700 22.02400
H  1.38700 47.90700 22.92200
H  2.80200 47.16100 23.64000
H  1.15800 46.81300 24.35700
H  5.90700 43.41100 26.52300
H  5.91400 45.03600 27.20500
H  5.32600 44.83800 25.52500
H  2.70400 44.42900 31.28100
H  3.58900 41.41000 34.30500
H  5.19300 42.20700 34.22100
H  4.82900 40.96200 33.08300

