158

Mg 44.23700 4.88500 47.59000
C  42.21600 7.68100 46.88400
C  41.44000 2.90500 46.74400
C  46.22800 2.19300 47.51200
C  46.96700 7.02600 47.77900
N  41.97500 5.25800 46.86100
C  41.44400 6.49200 46.78700
C  39.99200 6.38500 46.39100
C  39.65900 4.84100 46.74500
C  41.06000 4.28800 46.76200
C  38.87800 4.68000 48.00000
C  39.65000 6.82800 44.90200
C  38.84800 8.17200 44.62100
H  39.42600 8.96300 43.42400
N  43.87300 2.88900 47.20800
C  42.70100 2.25100 46.85800
C  42.89300 0.84400 46.63100
C  44.27400 0.63900 46.99100
C  44.87200 1.95400 47.20100
C  41.87800 -0.08100 46.13500
C  44.92600 -0.73600 46.95400
O  44.29900 -1.77400 46.73000
C  46.34400 -0.91500 47.36900
N  46.25900 4.67400 47.72600
C  46.87100 3.42500 47.80500
C  48.36300 3.50400 47.99900
C  48.57900 5.01300 48.08700
C  47.15500 5.64900 47.89600
C  48.84700 2.75600 49.26800
C  49.65900 5.57700 47.10800
C  50.86800 6.24700 47.82200
N  44.58700 6.88200 47.39900
C  45.75900 7.62800 47.53000
C  45.51200 9.03500 47.44200
C  44.13300 9.13800 47.18800
C  43.61400 7.74600 47.13900
C  46.55400 10.19400 47.59500
C  42.97300 9.99800 47.01300
O  42.98800 11.19800 46.90900
C  41.64800 9.11400 46.88000
C  40.71900 9.34300 48.04500
O  40.72400 8.67600 49.09800
O  39.81900 10.34100 47.71800
C  38.49600 10.29800 48.43500
H  40.59700 2.22400 46.60900
H  47.03600 1.47500 47.35600
H  47.80800 7.70000 47.95600
H  39.46800 7.12800 46.99200
H  39.12300 4.35000 45.93300
H  39.38500 4.35200 48.90700
H  38.19800 3.84900 47.81400
H  38.37500 5.60400 48.28300
H  39.04600 6.06000 44.42000
H  40.64000 6.93300 44.45700
H  38.63200 8.70600 45.54600
H  37.89800 7.74600 44.29600
H  42.23700 -0.31800 45.13400
H  40.88400 0.29900 45.90000
H  41.89400 -0.93000 46.81900
H  46.92200 -0.40100 46.60100
H  46.75500 -1.92100 47.28700
H  46.48600 -0.56600 48.39200
H  48.74200 3.10300 47.05900
H  48.83700 5.26500 49.11600
H  48.95900 1.72800 48.92400
H  48.10000 2.81400 50.05900
H  49.74300 3.23900 49.66100
H  49.20500 6.34800 46.48500
H  50.05400 4.82900 46.42100
H  51.72900 5.58800 47.71400
H  50.68000 6.30900 48.89400
H  51.08700 7.24700 47.44600
H  47.36100 10.19600 46.86300
H  46.98300 10.09600 48.59200
H  45.97400 11.11800 47.59900
H  41.24300 9.49500 45.94300
H  38.14300 11.30100 48.67400
H  38.58300 9.75300 49.37500
H  37.71800 9.86800 47.80400
Mg 42.69700 41.80000 25.99200
C  41.56000 44.18700 28.19000
C  43.61500 39.74400 28.61400
C  43.53100 39.47800 23.75600
C  42.13000 44.11300 23.26600
N  42.66100 41.97800 28.12300
C  42.10600 43.05300 28.78800
C  42.04100 42.70600 30.24100
C  42.93200 41.41100 30.46700
C  43.13700 40.99000 28.97500
C  44.07600 41.37600 31.45500
C  40.59900 42.54800 30.79300
C  40.42900 43.29800 32.16700
H  39.81200 42.61800 33.32900
N  43.45300 39.86000 26.16900
C  43.74400 39.17200 27.34900
C  44.16400 37.79300 27.04500
C  44.16300 37.69100 25.58900
C  43.72300 39.03900 25.10000
C  44.51700 36.81800 28.12100
C  44.50400 36.56000 24.66900
O  44.63700 36.56500 23.42800
C  44.87100 35.22400 25.23600
N  42.94500 41.84400 23.81700
C  43.25200 40.72000 23.16700
C  43.12700 40.81600 21.63300
C  42.54800 42.29500 21.52200
C  42.63800 42.82100 22.97000
C  44.42000 40.56300 20.82900
C  41.22300 42.29400 20.87500
C  40.14500 41.32300 21.37900
N  42.13800 43.79700 25.70900
C  42.05200 44.63100 24.55400
C  41.66100 45.98500 25.05000
C  41.32000 45.81100 26.44300
C  41.69300 44.48600 26.79500
C  41.38000 47.21800 24.30100
C  40.88500 46.49300 27.67400
O  40.60700 47.63800 27.82600
C  41.00500 45.41000 28.78600
C  41.93300 45.98000 29.84600
O  43.14100 45.88600 29.86200
O  41.10300 46.59600 30.80500
C  41.76100 46.86800 32.13700
H  43.78200 39.06300 29.45100
H  43.78500 38.70200 23.03000
H  41.87600 44.81000 22.46500
H  42.40800 43.56900 30.79700
H  42.25800 40.68700 30.92300
H  44.29700 42.35700 31.87700
H  44.95400 41.00400 30.92500
H  43.93500 40.65900 32.26400
H  40.27300 41.51300 30.90200
H  39.86500 42.91700 30.07700
H  39.73700 44.11500 31.96400
H  41.38700 43.70600 32.49000
H  43.76400 36.03900 28.23800
H  44.59300 37.29200 29.10000
H  45.37100 36.20300 27.84000
H  44.86100 34.34200 24.59500
H  44.13800 34.97500 26.00300
H  45.86000 35.24600 25.69300
H  42.34600 40.13200 21.30300
H  43.21700 42.73600 20.78300
H  44.40500 41.25400 19.98700
H  44.44900 39.58100 20.35600
H  45.31000 40.57400 21.45800
H  41.48600 42.15800 19.82600
H  40.68100 43.24000 20.88900
H  39.20700 41.87700 21.40100
H  40.46300 41.00900 22.37300
H  40.03700 40.44500 20.74100
H  40.56200 47.05200 23.59900
H  42.23400 47.59200 23.73700
H  40.86500 47.94800 24.92600
H  40.02700 45.07300 29.13000
H  40.97900 47.29700 32.76400
H  42.60000 47.54900 31.99500
H  42.03900 45.91100 32.57800

