158

Mg 53.60900 23.78200 44.44800
C  50.84900 25.90000 44.05200
C  51.65300 20.98800 43.92800
C  56.35500 21.81200 44.28800
C  55.58000 26.58600 44.78200
N  51.54800 23.48900 44.00600
C  50.58900 24.52700 43.88700
C  49.18800 23.91700 43.73200
C  49.45700 22.37400 43.91700
C  50.99500 22.25000 43.99300
C  48.76600 21.81300 45.17800
C  48.46500 24.33900 42.38500
C  49.32000 24.12700 41.10200
H  48.66500 23.19900 40.00800
N  54.00300 21.66700 44.10400
C  53.07300 20.75300 43.87300
C  53.72600 19.46500 43.71100
C  55.11800 19.63000 43.76600
C  55.22300 21.08200 44.02000
C  52.93800 18.15900 43.40500
C  56.16100 18.50300 43.66200
O  55.77400 17.32900 43.63500
C  57.66000 18.77100 43.46800
N  55.63800 24.11900 44.43100
C  56.53100 23.11100 44.47000
C  57.97500 23.67100 44.42500
C  57.75300 25.25000 44.51200
C  56.23100 25.31800 44.65300
C  58.90300 23.04800 45.41700
C  58.35300 26.12200 43.35000
C  58.58800 27.64000 43.74700
N  53.34400 25.88600 44.51500
C  54.25400 26.84600 44.85500
C  53.60400 28.09300 45.07400
C  52.22400 27.79700 44.63600
C  52.12100 26.43000 44.39700
C  54.19300 29.40900 45.48600
C  50.88300 28.29900 44.40600
O  50.52900 29.48000 44.55700
C  49.92200 27.10100 44.04300
C  49.52200 27.47500 42.65000
O  50.24300 27.31300 41.65800
O  48.33600 28.06700 42.71600
C  47.63000 28.61800 41.55900
H  50.88600 20.22700 43.76700
H  57.19000 21.16400 44.56400
H  56.26300 27.38200 45.08700
H  48.66600 24.38800 44.56400
H  49.12800 21.82300 43.03600
H  48.35000 22.56000 45.85400
H  49.53100 21.23000 45.69200
H  47.97200 21.13600 44.86300
H  48.05900 25.34900 42.41800
H  47.53400 23.77600 42.32400
H  50.28200 23.64800 41.28400
H  49.57900 25.09800 40.67900
H  53.44400 17.56400 42.64400
H  51.88100 18.33200 43.20300
H  53.00400 17.38200 44.16600
H  57.95300 17.89300 42.89300
H  58.16100 18.68100 44.43200
H  57.76200 19.70800 42.92000
H  58.35200 23.55700 43.40900
H  58.12400 25.69100 45.43700
H  59.60500 23.78300 45.81200
H  59.53600 22.34200 44.87900
H  58.36400 22.50900 46.19600
H  57.66600 26.13200 42.50400
H  59.31500 25.70800 43.04900
H  59.36600 28.11300 43.14800
H  58.75700 27.71000 44.82200
H  57.69400 28.21300 43.50200
H  53.53900 30.20600 45.13000
H  55.20500 29.42200 45.08300
H  54.29100 29.44100 46.57100
H  49.14600 27.12100 44.80900
H  47.89900 27.89200 40.79100
H  48.04000 29.62300 41.46000
H  46.57400 28.40700 41.72400
Mg 46.91800 35.46300 29.05800
C  45.44300 33.08200 31.13400
C  46.75000 37.79200 31.51200
C  47.78400 37.88200 26.82800
C  46.32800 33.26500 26.26300
N  46.33400 35.37800 31.13600
C  45.77800 34.28300 31.75900
C  45.78600 34.53200 33.26800
C  45.56200 36.13000 33.23600
C  46.33800 36.51000 31.91700
C  44.06200 36.57600 33.09900
C  47.19600 34.02800 33.68800
C  47.24800 33.75500 35.19400
H  46.21500 34.36700 36.18800
N  47.42500 37.44000 29.24400
C  47.35100 38.24500 30.27900
C  47.98400 39.49200 30.06900
C  48.42300 39.50900 28.71100
C  47.88100 38.25500 28.17800
C  48.07100 40.58200 31.14300
C  49.28900 40.48800 27.96200
O  49.52000 40.32400 26.75600
C  50.03100 41.65800 28.70700
N  46.97700 35.57500 26.85900
C  47.34600 36.69700 26.24100
C  47.20500 36.50900 24.68100
C  46.70600 35.01700 24.52300
C  46.68800 34.58400 25.94200
C  46.09300 37.37900 24.02400
C  47.59300 34.15300 23.64100
C  46.91000 33.32800 22.56000
N  46.21900 33.49300 28.69100
C  46.05200 32.73300 27.51100
C  45.46100 31.37800 27.88000
C  45.16100 31.55300 29.25600
C  45.62700 32.81000 29.69000
C  45.26700 30.17400 27.03000
C  44.52500 30.90500 30.42300
O  44.12400 29.76800 30.60200
C  44.41600 31.96000 31.52100
C  44.60500 31.51400 32.90900
O  45.63400 31.01700 33.36400
O  43.46800 31.70600 33.65400
C  43.28600 31.13900 34.92400
H  46.44700 38.59400 32.18700
H  48.05200 38.69200 26.14700
H  46.02600 32.70200 25.37700
H  44.91200 34.16400 33.80500
H  46.07100 36.59700 34.07900
H  43.84900 37.20200 32.23300
H  43.72800 37.10500 33.99100
H  43.47200 35.66900 32.96500
H  47.87600 34.86500 33.53400
H  47.50400 33.17800 33.08000
H  48.21300 34.05400 35.60300
H  47.12300 32.67500 35.11500
H  47.10900 40.61400 31.65300
H  48.11100 41.52900 30.60400
H  48.97900 40.45600 31.73300
H  50.71500 41.97100 27.91900
H  50.52500 41.33400 29.62300
H  49.33400 42.45500 28.96700
H  48.16900 36.83600 24.29300
H  45.70000 35.01600 24.10300
H  45.64800 38.11000 24.69900
H  45.30600 36.91000 23.43200
H  46.66900 37.91500 23.27000
H  48.03500 33.41100 24.30600
H  48.35000 34.79700 23.19200
H  47.16000 33.66400 21.55300
H  45.82800 33.45900 22.55200
H  47.08100 32.25700 22.66700
H  45.53500 30.46400 26.01400
H  44.22400 29.93300 27.23600
H  45.82700 29.29700 27.35300
H  43.41400 32.37700 31.41700
H  42.24500 31.33400 35.18200
H  43.96800 31.66400 35.59300
H  43.58500 30.09100 34.90300

