158

Mg 40.72000 41.38000 27.83700
C  39.60100 44.12300 29.99600
C  41.32800 39.56100 30.53900
C  41.58000 39.17700 25.73300
C  40.39700 43.93200 25.26500
N  40.49600 41.83600 29.98200
C  39.90400 42.88400 30.63000
C  39.90300 42.61700 32.19900
C  40.55900 41.18800 32.38100
C  40.80200 40.77600 30.86800
C  41.71100 41.13800 33.43000
C  38.49700 42.84100 32.90700
C  38.09700 42.09100 34.21900
H  37.65500 42.83300 35.45900
N  41.29200 39.53800 28.03000
C  41.67300 38.94100 29.27300
C  42.23600 37.59900 29.00800
C  42.35000 37.52200 27.59100
C  41.70100 38.76000 27.07900
C  42.66400 36.63200 30.08700
C  42.97600 36.38500 26.82800
O  43.02900 36.42200 25.63000
C  43.56700 35.22100 27.52400
N  40.93700 41.51600 25.80800
C  41.23500 40.42400 25.12100
C  41.09800 40.65600 23.67600
C  40.54500 42.15000 23.47300
C  40.53600 42.56000 24.94700
C  42.57400 40.46100 23.10900
C  39.11200 42.13100 22.87900
C  38.12100 41.20300 23.48100
N  40.36500 43.61700 27.64000
C  40.23900 44.44900 26.53800
C  39.83800 45.76500 26.91200
C  39.50800 45.67700 28.26200
C  39.81900 44.35400 28.63600
C  39.69700 46.89900 26.03900
C  38.96000 46.44300 29.40900
O  38.50600 47.58200 29.49700
C  38.99300 45.39100 30.60200
C  39.76400 46.03600 31.73100
O  40.97800 46.29700 31.75400
O  38.80800 46.38400 32.68900
C  39.34200 47.00700 33.95700
H  41.47600 38.93800 31.42300
H  41.88000 38.50000 24.93100
H  40.27600 44.59300 24.40500
H  40.65900 43.35900 32.45400
H  39.77100 40.50500 32.69900
H  42.72400 40.93500 33.08200
H  41.55600 40.58300 34.35500
H  41.89000 42.16700 33.74100
H  37.72800 42.63100 32.16400
H  38.34800 43.87800 33.20700
H  39.01700 41.69100 34.64400
H  37.39200 41.32600 33.89200
H  42.58700 37.19700 31.01600
H  43.69000 36.27900 29.98300
H  41.99000 35.78400 30.20800
H  44.42100 35.51200 28.13500
H  44.04000 34.60500 26.75900
H  42.81300 34.64000 28.05500
H  40.45700 39.88600 23.24600
H  41.10700 42.64400 22.68100
H  42.85200 41.41600 22.66400
H  42.49400 39.67000 22.36300
H  43.30200 40.13000 23.85000
H  39.15300 41.87300 21.82100
H  38.70600 43.14000 22.95700
H  38.55300 40.77900 24.38800
H  37.57400 40.57800 22.77400
H  37.35100 41.84000 23.91600
H  38.70300 47.01600 25.60800
H  40.34700 46.94900 25.16500
H  39.81800 47.81400 26.61800
H  37.99200 45.11700 30.93800
H  39.34700 46.30100 34.78800
H  38.63900 47.77700 34.27600
H  40.36000 47.39000 33.88400
Mg -1.82900 33.89300 26.32400
C  -3.00400 32.13400 29.24900
C  0.13600 35.78200 28.41800
C  -1.00400 35.65500 23.64400
C  -3.78300 31.74300 24.39100
N  -1.49900 34.02600 28.60200
C  -2.00700 33.12400 29.52300
C  -1.45600 33.41700 30.92700
C  -0.58500 34.71600 30.68300
C  -0.62600 34.82000 29.19700
C  -1.06800 36.02300 31.36800
C  -0.76000 32.17500 31.56800
C  -1.30500 31.66300 32.93400
H  -0.26400 31.53500 34.07800
N  -0.58500 35.53300 26.03900
C  0.11500 36.21000 27.04500
C  0.90700 37.24700 26.42600
C  0.60300 37.22000 25.00600
C  -0.39000 36.14400 24.84200
C  1.93000 38.17000 27.18300
C  1.24700 37.95000 23.86400
O  0.90200 37.96200 22.71800
C  2.36900 38.98400 24.24700
N  -2.51900 33.92700 24.37400
C  -1.92300 34.66900 23.40400
C  -2.41300 34.26300 21.97100
C  -2.84400 32.77900 22.23800
C  -3.11500 32.78900 23.73600
C  -3.52800 35.18600 21.38200
C  -1.85200 31.62900 21.80300
C  -0.53200 31.62700 22.49800
N  -3.16900 32.35400 26.72400
C  -3.86200 31.58200 25.83600
C  -4.68200 30.61400 26.59100
C  -4.34600 30.85400 27.95600
C  -3.44100 31.86700 27.96900
C  -5.72500 29.65100 26.00400
C  -4.70300 30.40300 29.30500
O  -5.49700 29.52700 29.71700
C  -3.73500 31.19500 30.17700
C  -4.46900 31.75000 31.35700
O  -4.82900 32.93000 31.48200
O  -4.68200 30.79800 32.29100
C  -5.23400 31.34600 33.58000
H  0.96900 36.23200 28.96200
H  -0.68300 36.19400 22.75000
H  -4.14300 30.94500 23.73800
H  -2.27900 33.68500 31.59000
H  0.41700 34.43600 31.01000
H  -2.15400 35.95600 31.43600
H  -0.71000 36.87000 30.78100
H  -0.67400 36.03700 32.38400
H  0.31400 32.35700 31.58500
H  -0.87900 31.33900 30.88000
H  -1.52400 30.60200 32.81600
H  -2.23500 32.08900 33.30900
H  2.90400 37.68900 27.26500
H  1.50700 38.30800 28.17800
H  1.98300 39.19800 26.82600
H  3.07800 39.36000 23.51000
H  3.02600 38.55200 25.00200
H  1.83800 39.85600 24.63000
H  -1.60300 34.27300 21.24200
H  -3.85200 32.53900 21.89800
H  -4.44500 34.60300 21.46700
H  -3.13200 35.47200 20.40800
H  -3.79600 36.03500 22.01100
H  -1.57200 31.81500 20.76600
H  -2.23800 30.61000 21.79000
H  -0.82900 31.98500 23.48400
H  0.08600 32.19800 21.80500
H  -0.14700 30.61000 22.57700
H  -5.87900 30.02300 24.99100
H  -6.63700 29.77100 26.58900
H  -5.41100 28.61100 26.10000
H  -2.98800 30.43200 30.39300
H  -4.49600 31.96400 34.09300
H  -5.45000 30.45000 34.16200
H  -6.13100 31.95600 33.47000

