158

Mg 44.18900 5.50900 48.68500
C  42.03400 8.16000 47.95900
C  41.63000 3.43700 47.49700
C  46.42000 2.90200 48.75800
C  46.85900 7.76000 48.65000
N  42.06600 5.74800 47.90900
C  41.40400 6.94500 47.76600
C  39.93400 6.71800 47.41400
C  39.86800 5.20300 47.16400
C  41.28800 4.76600 47.56300
C  38.68200 4.40100 47.87900
C  39.37800 7.70000 46.33900
C  40.23400 7.99000 45.12300
H  39.87600 7.34600 43.76000
N  43.97500 3.42800 48.40100
C  42.83300 2.80900 47.92700
C  43.13000 1.33600 47.77600
C  44.50200 1.21600 48.24100
C  45.00800 2.56000 48.49000
C  42.32400 0.41700 46.93300
C  45.18900 -0.09300 48.30900
O  44.60800 -1.12400 47.95900
C  46.59200 -0.29500 48.86800
N  46.40000 5.34700 48.56900
C  47.02600 4.15200 48.84100
C  48.53900 4.31000 48.81000
C  48.74500 5.91400 48.81400
C  47.24700 6.42500 48.70000
C  49.28800 3.60300 49.96600
C  49.80500 6.45600 47.76700
C  50.79600 7.54200 48.35500
N  44.44200 7.51600 48.57900
C  45.61700 8.32600 48.58400
C  45.29700 9.69900 48.37300
C  43.88300 9.67400 48.18400
C  43.41700 8.28900 48.21700
C  46.29700 10.85100 48.24700
C  42.76100 10.50800 47.92200
O  42.69300 11.70800 47.79500
C  41.49700 9.58400 47.81300
C  40.64400 9.81800 48.99400
O  40.68000 9.30400 50.10900
O  39.70600 10.81300 48.60900
C  38.77800 11.33400 49.71400
H  40.84900 2.73600 47.19500
H  47.23500 2.17600 48.71100
H  47.64400 8.51900 48.63800
H  39.45600 6.91700 48.37300
H  39.75400 4.96700 46.10600
H  37.91400 5.04900 48.30200
H  39.19000 3.90100 48.70400
H  38.28900 3.64600 47.19800
H  39.01500 8.62700 46.78300
H  38.47300 7.30400 45.87800
H  41.24600 7.62500 45.29600
H  40.19500 9.06600 44.95600
H  41.47500 0.81600 46.37800
H  41.90900 -0.37700 47.55400
H  43.08400 0.02400 46.25900
H  46.73500 -1.29900 49.26900
H  46.60700 0.52800 49.58300
H  47.29900 -0.20300 48.04300
H  48.83700 3.83400 47.87600
H  48.99400 6.26900 49.81400
H  48.63800 3.27300 50.77600
H  50.04300 4.30100 50.32700
H  49.91600 2.75700 49.68400
H  49.33700 6.84700 46.86300
H  50.36900 5.58000 47.44600
H  50.84700 7.61800 49.44100
H  50.61000 8.51500 47.90100
H  51.77500 7.14500 48.08600
H  46.77100 10.81400 47.26600
H  47.10800 10.87000 48.97500
H  45.80100 11.81100 48.39100
H  40.88800 9.61700 46.90900
H  39.03300 11.03000 50.73000
H  37.73500 11.15800 49.44900
H  38.86700 12.41900 49.77100
Mg -13.20500 16.42000 42.13100
C  -10.16800 14.68100 41.84300
C  -11.61700 19.18300 40.96200
C  -16.31500 17.81100 41.70800
C  -14.79100 13.27600 42.86400
N  -11.17400 16.79900 41.43800
C  -10.10200 15.97100 41.42300
C  -8.83500 16.65400 40.98800
C  -9.23400 18.17100 40.95700
C  -10.78000 18.01900 41.16000
C  -8.51300 19.04400 42.03700
C  -8.31800 16.08800 39.60900
C  -6.85900 15.68800 39.54700
H  -6.40600 14.53400 38.70300
N  -13.86500 18.29400 41.46400
C  -13.05800 19.29600 41.04400
C  -13.87900 20.40500 40.61000
C  -15.21800 20.03300 40.88700
C  -15.20400 18.62100 41.30800
C  -13.28100 21.65600 40.02300
C  -16.45100 21.05100 40.59500
O  -16.23800 22.15900 40.04000
C  -17.83700 20.56100 40.96100
N  -15.28000 15.61500 42.21800
C  -16.33400 16.44300 42.09800
C  -17.69300 15.68300 42.24200
C  -17.22400 14.23300 42.65500
C  -15.69500 14.34700 42.59600
C  -18.80200 16.24000 43.20000
C  -17.75500 13.02400 41.73900
C  -18.74900 12.04600 42.40900
N  -12.65900 14.39900 42.39300
C  -13.36400 13.27700 42.73500
C  -12.53100 12.11400 42.75600
C  -11.27200 12.62200 42.45400
C  -11.38700 14.00900 42.28700
C  -12.85700 10.69500 43.16600
C  -9.89900 12.25600 42.31100
O  -9.33800 11.20900 42.38600
C  -9.05000 13.62900 41.94200
C  -7.96600 13.87600 42.90200
O  -8.05100 14.25800 44.07700
O  -6.77800 13.66300 42.21900
C  -5.54600 13.72200 42.93600
H  -10.94600 20.02300 40.76900
H  -17.32400 18.04400 41.36200
H  -15.36700 12.39100 43.14000
H  -8.03000 16.63800 41.72200
H  -9.11300 18.58100 39.95400
H  -7.89200 19.86900 41.68600
H  -7.78500 18.45300 42.59300
H  -9.21800 19.39600 42.79000
H  -8.52000 16.74600 38.76400
H  -8.94700 15.20500 39.49600
H  -6.39800 15.66300 40.53500
H  -6.33700 16.48100 39.01200
H  -13.63300 22.37700 40.76000
H  -13.62200 21.92600 39.02300
H  -12.19300 21.71800 40.02600
H  -18.11200 19.78500 40.24600
H  -18.53500 21.39500 40.88800
H  -17.78800 20.26700 42.01000
H  -18.07200 15.79400 41.22600
H  -17.52400 13.96700 43.66800
H  -18.46000 16.96900 43.93500
H  -19.25400 15.35200 43.64200
H  -19.56700 16.68500 42.56300
H  -16.86600 12.50700 41.37700
H  -18.13100 13.56400 40.87000
H  -19.27200 12.46600 43.26700
H  -18.09000 11.26200 42.78300
H  -19.38400 11.68700 41.59900
H  -13.12200 10.04500 42.33200
H  -13.71300 10.80200 43.83200
H  -11.95600 10.23800 43.57600
H  -8.59900 13.41800 40.97200
H  -5.48700 12.81100 43.53300
H  -5.53600 14.65000 43.50800
H  -4.67300 13.62900 42.29100

