158

Mg 36.60100 49.90800 25.48000
C  36.91900 48.16100 28.53700
C  35.16500 52.49400 27.14900
C  35.85200 51.27100 22.45400
C  38.09600 47.11400 23.87500
N  35.97700 50.20500 27.60600
C  36.29700 49.45200 28.60500
C  36.06400 50.25600 29.93800
C  35.40400 51.61100 29.48900
C  35.50800 51.43000 27.95400
C  33.96300 51.94000 30.13500
C  37.40300 50.45500 30.75200
C  37.49300 50.01700 32.22300
H  36.21800 50.13300 33.09200
N  35.65400 51.64300 24.88200
C  35.12900 52.56400 25.71000
C  34.42200 53.64000 24.91800
C  34.63800 53.34900 23.56700
C  35.43600 52.03900 23.56900
C  33.77100 54.82300 25.65600
C  34.34800 54.14200 22.29900
O  34.65500 53.74800 21.18300
C  33.72000 55.47200 22.40900
N  36.90600 49.23500 23.43900
C  36.52900 50.03600 22.35800
C  37.02700 49.50100 21.03700
C  37.91100 48.21000 21.55100
C  37.60500 48.17300 23.06300
C  35.79700 49.13100 20.16200
C  39.48600 48.35900 21.13300
C  40.19400 47.11300 20.53300
N  37.24400 47.91200 25.98000
C  37.89200 46.89300 25.24200
C  38.21000 45.76300 26.17700
C  37.84800 46.20500 27.46800
C  37.30400 47.52300 27.29000
C  38.98000 44.55800 25.78300
C  37.78200 45.84300 28.85400
O  38.25400 44.88000 29.54000
C  37.16000 47.13700 29.60800
C  35.98800 46.66100 30.41100
O  34.95100 46.29200 29.87400
O  36.39100 46.49600 31.71000
C  35.43800 45.73200 32.60800
H  34.70500 53.28200 27.75000
H  35.78800 51.76100 21.48000
H  38.71800 46.39400 23.33900
H  35.34400 49.75900 30.58700
H  36.07600 52.40700 29.80800
H  34.01800 52.89600 30.65500
H  33.67300 51.13000 30.80500
H  33.17300 52.19100 29.42800
H  37.60300 51.52000 30.87700
H  38.18000 49.96200 30.16700
H  38.32200 50.60900 32.61100
H  37.78000 48.96600 32.24900
H  33.33800 54.59300 26.63000
H  32.97400 55.18800 25.00900
H  34.42500 55.68800 25.76600
H  32.78800 55.39900 22.96900
H  33.46900 55.80100 21.40100
H  34.45500 56.15900 22.82900
H  37.71400 50.21000 20.57500
H  37.45200 47.31500 21.13200
H  35.96200 48.14400 19.73100
H  35.59600 49.89500 19.41200
H  34.95500 48.92100 20.82100
H  40.04600 48.63900 22.02600
H  39.49600 49.21600 20.46100
H  40.47200 47.41700 19.52300
H  39.43900 46.32800 20.50200
H  41.00700 46.80800 21.19200
H  39.95600 44.83000 25.38000
H  38.30200 44.07800 25.07700
H  39.02300 44.02200 26.73000
H  37.87600 47.60800 30.28000
H  35.00300 46.36000 33.38600
H  36.02400 44.95600 33.10000
H  34.64200 45.16800 32.12200
Mg 27.31200 49.99200 26.71700
C  25.07600 50.73500 29.25100
C  29.89600 49.57000 28.96000
C  29.38700 49.45200 24.15900
C  24.78600 50.90400 24.27700
N  27.42800 50.18400 28.83300
C  26.37400 50.32200 29.68100
C  26.83100 50.13400 31.15600
C  28.43300 49.91700 31.10400
C  28.60600 50.03500 29.53800
C  29.30700 50.89800 31.86900
C  26.12700 48.88500 31.77500
C  25.45600 49.05100 33.18300
H  26.36400 49.08700 34.40100
N  29.34600 49.58000 26.49900
C  30.20600 49.37200 27.57300
C  31.47900 49.01200 27.08500
C  31.34000 48.91800 25.68300
C  30.01100 49.33200 25.37000
C  32.61900 48.68100 27.98800
C  32.32400 48.48700 24.60400
O  32.06900 48.43200 23.39800
C  33.78300 48.30900 24.93200
N  27.07600 50.24200 24.47000
C  28.09100 49.83300 23.68100
C  27.65200 49.73100 22.22200
C  26.13800 50.05000 22.33400
C  25.97700 50.42400 23.82500
C  28.40100 50.66400 21.16300
C  25.19600 48.84500 21.90200
C  24.65800 47.88700 23.00300
N  25.37600 50.82400 26.67200
C  24.50000 51.16800 25.66900
C  23.24700 51.63100 26.30000
C  23.45300 51.55100 27.68500
C  24.71400 50.98200 27.84100
C  22.07200 52.08000 25.49500
C  22.83800 51.72600 28.97600
O  21.78400 52.25100 29.30200
C  23.87200 51.18600 29.99400
C  24.16100 52.36900 30.97800
O  24.60200 53.40600 30.50800
O  23.96000 52.03100 32.24200
C  24.35100 53.03400 33.19800
H  30.68600 49.50900 29.71100
H  30.01900 49.19800 23.30600
H  23.97800 50.95600 23.54500
H  26.45600 51.03100 31.64900
H  28.76700 48.90800 31.34700
H  29.54500 50.60800 32.89200
H  28.79500 51.85700 31.94600
H  30.30000 51.00200 31.43200
H  26.86700 48.09500 31.90300
H  25.29900 48.61500 31.11900
H  24.70500 48.28000 33.35700
H  24.87400 49.97200 33.13900
H  32.50500 47.79500 28.61100
H  32.87400 49.54500 28.60100
H  33.54100 48.61000 27.41100
H  34.35800 48.06300 24.03900
H  33.81300 47.48600 25.64500
H  34.32900 49.13200 25.39500
H  27.85900 48.69800 21.94100
H  25.76100 50.79100 21.62900
H  29.29500 51.06600 21.63900
H  27.78300 51.43000 20.69400
H  28.84400 49.98800 20.43200
H  25.76800 48.28800 21.16000
H  24.33100 49.26200 21.38700
H  25.35000 47.87900 23.84500
H  24.77500 46.85100 22.68400
H  23.59900 48.05400 23.20200
H  22.03000 51.46600 24.59600
H  22.13800 53.13300 25.21900
H  21.18800 51.94700 26.12000
H  23.49200 50.37200 30.61200
H  25.05400 53.77500 32.82000
H  24.87700 52.64000 34.06800
H  23.53100 53.64400 33.57800

