158

Mg 31.06900 58.30700 39.96200
C  28.18900 56.49500 38.95400
C  32.94200 55.60900 39.23100
C  33.77400 60.31300 40.04500
C  29.06700 61.21000 40.25600
N  30.58200 56.38900 39.08500
C  29.40200 55.82500 38.68600
C  29.54700 54.34800 38.24000
C  30.97100 54.01100 38.91000
C  31.55800 55.44900 39.05300
C  30.93300 53.07200 40.12900
C  29.54600 54.37600 36.72500
C  28.36400 53.66500 35.98400
H  27.35200 54.57500 35.24600
N  33.04300 58.01100 39.69200
C  33.65100 56.81900 39.45100
C  35.07900 57.01400 39.36700
C  35.36800 58.35900 39.70500
C  34.03700 59.01900 39.75300
C  35.99600 55.83400 39.08800
C  36.77800 58.93800 39.93800
O  37.76600 58.28500 39.63300
C  36.94700 60.33000 40.30900
N  31.41600 60.57100 39.79600
C  32.65000 61.06500 40.05500
C  32.62000 62.45900 40.58700
C  31.11600 62.70100 40.88100
C  30.44600 61.41000 40.28500
C  33.52300 62.69900 41.84700
C  30.40700 63.93000 40.23300
C  29.33600 64.73000 41.12600
N  29.00500 58.78300 39.70200
C  28.38700 60.00400 39.93600
C  26.96000 59.78700 39.84600
C  26.84000 58.39300 39.51900
C  28.12200 57.83200 39.36000
C  25.78100 60.78600 40.11100
C  25.87000 57.34600 39.37600
O  24.66100 57.38700 39.48400
C  26.73400 56.06700 38.85500
C  26.35100 54.85100 39.68000
O  27.00100 54.34300 40.53400
O  25.25200 54.23600 39.08400
C  24.79400 52.97100 39.60800
H  33.51700 54.69300 39.08500
H  34.60800 61.00700 40.16700
H  28.51200 62.07800 40.61800
H  28.73100 53.74500 38.63700
H  31.59400 53.64200 38.09400
H  29.93300 52.68000 40.31400
H  31.27000 53.69800 40.95500
H  31.63400 52.26000 39.93800
H  30.44500 53.92000 36.31000
H  29.72100 55.41300 36.43900
H  27.84100 52.99600 36.66700
H  28.83400 53.02100 35.24100
H  36.10000 55.83400 38.00300
H  35.71200 54.86100 39.48800
H  37.01800 55.82100 39.46500
H  36.47100 60.55900 41.26300
H  36.52500 60.92900 39.50200
H  38.01700 60.43000 40.49000
H  33.00900 63.10000 39.79500
H  30.96000 62.60800 41.95600
H  33.98100 61.78100 42.21400
H  32.89600 63.21600 42.57300
H  34.28300 63.38300 41.46800
H  30.08800 63.53400 39.27000
H  31.23600 64.60300 40.01200
H  28.44000 64.92200 40.53500
H  29.76400 65.66900 41.47600
H  28.99400 64.24100 42.03800
H  25.88000 61.40700 39.22100
H  25.93100 61.42200 40.98300
H  24.81300 60.28400 40.12000
H  26.45500 55.84200 37.82600
H  25.62400 52.26500 39.62500
H  23.95300 52.51900 39.08400
H  24.56300 53.09300 40.66600
Mg -10.89200 16.95900 42.08800
C  -7.44100 17.35800 42.46100
C  -11.22200 20.31900 41.50200
C  -13.98200 16.42200 41.39600
C  -10.18700 13.40200 41.78700
N  -9.45600 18.61600 41.83100
C  -8.14600 18.54200 42.26200
C  -7.52400 19.93000 42.13500
C  -8.76800 20.82900 42.48500
C  -9.92600 19.86100 41.92700
C  -9.06800 21.06100 43.97800
C  -6.90500 20.16800 40.66700
C  -5.44300 20.53600 40.57200
H  -4.75100 19.54600 39.76600
N  -12.38600 18.23100 41.38200
C  -12.37700 19.61300 41.30200
C  -13.65700 20.07800 41.01500
C  -14.57500 18.98500 41.03400
C  -13.68600 17.84800 41.29400
C  -13.91700 21.53300 40.70100
C  -16.10700 19.12300 40.88100
O  -16.74100 20.13700 40.71500
C  -16.93000 17.84900 41.10800
N  -11.81200 15.21800 41.45800
C  -13.14400 15.34400 41.49900
C  -13.82600 13.95000 41.74400
C  -12.65500 13.03200 41.57300
C  -11.43900 13.88200 41.61500
C  -14.61400 13.80200 43.07900
C  -12.76900 11.98200 40.41100
C  -12.74000 10.56700 40.87900
N  -9.21900 15.57100 42.18600
C  -9.08400 14.17300 42.03300
C  -7.72400 13.83100 42.30500
C  -7.06900 15.03700 42.51200
C  -8.00400 16.06400 42.41200
C  -7.14000 12.49300 42.33100
C  -5.76900 15.61400 42.65900
O  -4.63100 15.18500 42.65300
C  -5.94700 17.15600 42.67900
C  -5.49500 17.66100 44.03900
O  -5.84900 17.30400 45.15700
O  -4.44800 18.56700 43.79000
C  -3.88600 19.20000 44.99600
H  -11.32900 21.40300 41.57400
H  -15.02800 16.11000 41.43600
H  -10.02100 12.32400 41.74300
H  -6.72600 20.10700 42.85600
H  -8.89500 21.73000 41.88400
H  -8.14500 21.10800 44.55500
H  -9.73800 20.34000 44.44700
H  -9.61900 21.99300 44.10700
H  -7.33500 21.14100 40.43100
H  -7.25500 19.37100 40.01000
H  -4.92600 20.44600 41.52800
H  -5.27300 21.57700 40.29500
H  -13.55700 22.15300 41.52100
H  -14.98000 21.77400 40.67000
H  -13.37400 21.81000 39.79700
H  -18.01200 17.93200 41.21600
H  -16.46600 17.39800 41.98400
H  -16.72700 17.20700 40.25100
H  -14.54800 13.89800 40.92900
H  -12.58800 12.49000 42.51600
H  -14.33200 14.61400 43.74900
H  -14.44800 12.80300 43.48300
H  -15.68600 13.87800 42.89700
H  -11.84300 12.09800 39.84800
H  -13.69100 12.12300 39.84800
H  -12.50300 10.30500 41.91000
H  -11.93200 9.99300 40.42400
H  -13.62500 10.01000 40.57300
H  -6.65800 12.28900 41.37500
H  -7.88200 11.69800 42.39700
H  -6.56700 12.41400 43.25500
H  -5.42000 17.64800 41.86200
H  -3.23800 18.46200 45.46800
H  -4.70400 19.46900 45.66400
H  -3.27700 20.07700 44.77600

