158

Mg 26.05400 50.13100 25.85600
C  24.46500 51.67300 28.55400
C  28.59000 49.39300 27.85400
C  27.59300 49.04100 23.15100
C  23.62200 51.70100 23.65600
N  26.39200 50.42500 27.95800
C  25.58300 51.03700 28.90300
C  26.09700 50.85000 30.34800
C  27.53700 50.23100 30.04100
C  27.51000 49.94600 28.55700
C  28.74700 51.11900 30.46100
C  25.26400 49.89600 31.20400
C  24.76200 50.32000 32.64000
H  25.67300 50.99000 33.73600
N  27.79400 49.27700 25.57600
C  28.71800 49.06200 26.50800
C  29.85300 48.35300 25.89900
C  29.54900 48.09800 24.53900
C  28.20200 48.74600 24.36500
C  31.11000 47.92900 26.57400
C  30.34800 47.36600 23.48300
O  29.91000 47.05400 22.40800
C  31.66900 46.74300 23.90100
N  25.51900 50.21900 23.73500
C  26.38500 49.59800 22.84000
C  26.02200 49.98500 21.38100
C  24.60600 50.63900 21.52500
C  24.54100 50.90300 23.06800
C  26.99800 50.95200 20.64200
C  23.52400 49.78100 21.00200
C  22.72600 50.30900 19.75600
N  24.35300 51.42200 25.96800
C  23.51500 51.94200 25.02100
C  22.49200 52.71100 25.70100
C  22.82100 52.61800 27.09200
C  23.94800 51.83500 27.20700
C  21.30200 53.45200 25.12400
C  22.39500 52.98900 28.47500
O  21.45700 53.73300 28.82000
C  23.45100 52.37300 29.47200
C  23.95100 53.42600 30.39400
O  24.86700 54.20000 30.31400
O  23.12900 53.40000 31.50100
C  23.59300 54.05900 32.71900
H  29.39300 49.09500 28.53200
H  28.18800 48.73600 22.28800
H  22.86900 51.99100 22.92000
H  26.12300 51.80800 30.86700
H  27.67600 49.30400 30.59600
H  28.50300 51.87600 31.20600
H  29.24800 51.59200 29.61600
H  29.50600 50.44000 30.85000
H  25.66900 48.89600 31.05100
H  24.34100 49.85400 30.62600
H  24.40600 49.39700 33.09700
H  23.99900 51.09500 32.57400
H  31.20300 48.22800 27.61800
H  31.92100 48.35700 25.98500
H  31.20300 46.84600 26.50100
H  32.01900 46.20800 23.01800
H  31.22200 46.00800 24.57000
H  32.36100 47.54700 24.15100
H  25.94700 49.07500 20.78700
H  24.55700 51.64800 21.11700
H  26.42700 51.65200 20.03200
H  27.61700 50.39200 19.94200
H  27.68900 51.34700 21.38600
H  22.72600 49.64700 21.73300
H  23.89900 48.78100 20.78600
H  22.80000 49.64700 18.89300
H  23.01200 51.30200 19.40900
H  21.71100 50.46700 20.12200
H  20.81200 53.91900 25.97800
H  20.62400 52.88300 24.48800
H  21.69400 54.24800 24.49000
H  22.97700 51.63500 30.11900
H  22.83300 54.13600 33.49500
H  24.03000 55.02900 32.48300
H  24.40700 53.45500 33.12100
Mg 16.52600 52.82400 26.73100
C  18.45600 51.20300 29.15500
C  14.44200 53.96500 29.13000
C  14.33700 53.84400 24.37600
C  18.50900 51.27800 24.32900
N  16.40900 52.53400 28.88900
C  17.38800 51.92300 29.65800
C  17.15400 52.28700 31.12200
C  15.71800 52.93300 31.10300
C  15.48500 53.14800 29.63400
C  14.56900 52.00900 31.75900
C  18.16200 53.27400 31.70000
C  18.54800 53.23400 33.20200
H  17.58400 52.39700 34.05800
N  14.65500 53.75200 26.75100
C  14.04600 54.21100 27.82000
C  12.91600 55.01400 27.53000
C  12.83400 54.98300 26.09400
C  14.00600 54.21000 25.64400
C  11.93200 55.69400 28.48700
C  11.83200 55.61800 25.14800
O  11.84200 55.46700 23.93700
C  10.79200 56.55800 25.67800
N  16.35200 52.44500 24.69800
C  15.39500 52.99200 23.89700
C  15.67400 52.81900 22.40600
C  17.06400 52.02900 22.34700
C  17.36800 51.96000 23.85300
C  14.49600 52.30800 21.53400
C  18.21500 52.73400 21.47200
C  18.85800 54.00800 22.02100
N  18.27200 51.58200 26.66100
C  18.91400 51.03200 25.60900
C  19.99600 50.27100 26.07900
C  19.87200 50.32900 27.45400
C  18.77900 51.08500 27.80000
C  21.12100 49.60800 25.31500
C  20.50400 49.87400 28.71400
O  21.47900 49.17600 28.95400
C  19.57200 50.42100 29.86700
C  19.12400 49.32900 30.71600
O  18.06600 48.69100 30.65900
O  19.98000 49.23000 31.78300
C  19.71700 48.21200 32.81000
H  13.82500 54.27100 29.97700
H  13.73600 54.26900 23.57000
H  19.28300 50.86000 23.68200
H  17.16200 51.33100 31.64700
H  15.55200 53.82600 31.70500
H  13.87800 52.64700 32.31000
H  15.07200 51.35300 32.47000
H  13.97500 51.46300 31.02600
H  17.79500 54.25400 31.39800
H  19.08600 53.26600 31.12100
H  18.56300 54.20500 33.69700
H  19.51300 52.74700 33.34500
H  12.01600 56.78000 28.53400
H  11.98700 55.36000 29.52300
H  10.89400 55.44000 28.27200
H  9.93400 56.02300 26.08600
H  10.47800 57.12000 24.79800
H  11.21300 57.31300 26.34300
H  15.88100 53.76800 21.91100
H  16.84700 51.03900 21.94600
H  14.60900 51.29500 21.14900
H  14.46500 52.92700 20.63700
H  13.56900 52.52200 22.06600
H  17.90000 53.08000 20.48700
H  18.93400 51.94800 21.24400
H  18.64500 54.04800 23.08900
H  18.48600 54.84900 21.43500
H  19.93500 53.87200 21.93100
H  20.77500 48.66300 24.89500
H  21.90500 49.41600 26.04800
H  21.40100 50.21900 24.45700
H  20.17700 51.08600 30.48200
H  19.16900 48.69800 33.61700
H  20.60300 47.82100 33.31000
H  19.23800 47.31300 32.42000

