158

Mg -0.62800 6.76000 25.10600
C  0.09400 7.89600 28.27000
C  -0.97600 3.48700 26.37900
C  -0.83700 5.49600 21.95400
C  0.20800 9.92100 23.79900
N  -0.38900 5.75900 27.06400
C  -0.26000 6.55100 28.24400
C  -0.62100 5.63000 29.46500
C  -0.75200 4.20600 28.88300
C  -0.77400 4.45800 27.36900
C  0.43200 3.19000 29.18900
C  -1.83800 6.20500 30.27300
C  -1.80200 6.07700 31.81800
H  -1.08200 4.83100 32.48600
N  -0.99000 4.85100 24.28700
C  -1.14600 3.65100 24.98500
C  -1.59400 2.61000 24.09100
C  -1.45300 3.15600 22.78100
C  -1.09200 4.57200 22.92700
C  -1.95400 1.19100 24.52400
C  -1.43700 2.40600 21.40900
O  -1.25700 2.85400 20.29900
C  -1.84800 0.94500 21.37800
N  -0.19800 7.60900 23.07300
C  -0.49400 6.88600 21.97900
C  -0.41200 7.74200 20.74800
C  -0.41400 9.20700 21.36100
C  -0.18300 8.95000 22.88500
C  0.83100 7.38200 19.89900
C  -1.77000 9.99200 21.17000
C  -1.82000 10.99200 19.99400
N  0.16700 8.52300 25.87700
C  0.36100 9.80600 25.21400
C  0.72600 10.80100 26.21400
C  0.56600 10.11600 27.47900
C  0.23800 8.80100 27.18800
C  0.92200 12.26600 26.03300
C  0.56200 10.34700 28.89400
O  0.87700 11.27000 29.65300
C  0.28200 8.88100 29.42800
C  1.45000 8.43000 30.27300
O  2.52700 8.12300 29.79800
O  1.07700 8.45300 31.59400
C  2.18100 8.22500 32.61500
H  -1.07200 2.47900 26.78700
H  -0.93900 5.03300 20.97000
H  0.49300 10.84100 23.28400
H  0.25600 5.72200 30.10600
H  -1.67100 3.71000 29.19800
H  -0.03700 2.22300 29.37200
H  0.94800 3.41000 30.12400
H  1.15600 3.12500 28.37700
H  -2.72300 5.68600 29.90400
H  -2.05300 7.25900 30.09700
H  -2.79400 6.13900 32.26500
H  -1.27200 6.98400 32.11100
H  -1.06800 0.58100 24.34800
H  -2.75200 0.74700 23.92800
H  -2.21000 1.11000 25.58000
H  -1.93200 0.55100 20.36500
H  -2.87700 0.99100 21.73400
H  -1.15400 0.31900 21.93800
H  -1.27200 7.50800 20.12100
H  0.39500 9.75700 20.87900
H  0.77100 8.03600 19.02900
H  0.68600 6.33700 19.62300
H  1.78500 7.49200 20.41500
H  -1.83600 10.49400 22.13500
H  -2.68200 9.39500 21.16900
H  -1.78700 11.98400 20.44500
H  -2.71300 10.85800 19.38300
H  -0.96800 10.88500 19.32200
H  0.13400 12.72300 25.43400
H  1.89900 12.39700 25.56800
H  0.76500 12.74900 26.99800
H  -0.54100 8.99200 30.13400
H  3.12200 7.89600 32.17400
H  1.82500 7.58400 33.42200
H  2.43400 9.16400 33.10700
Mg 42.64600 41.70200 26.47500
C  42.03100 44.15600 29.01900
C  43.61000 39.57200 29.08800
C  43.68900 39.51100 24.24700
C  42.31000 44.10900 24.11800
N  42.80800 41.88300 28.85000
C  42.50600 43.02700 29.59500
C  42.61900 42.68900 31.11900
C  43.35300 41.23200 31.10000
C  43.19500 40.80700 29.61500
C  44.87200 41.35000 31.52000
C  41.09100 42.58400 31.78900
C  40.91500 43.32600 33.15700
H  40.09100 42.68300 34.20800
N  43.32600 39.71500 26.65100
C  43.67800 39.05800 27.78400
C  44.08300 37.68100 27.42300
C  44.23900 37.72900 26.00100
C  43.73800 39.01400 25.59500
C  44.54800 36.70400 28.44700
C  44.67200 36.65700 25.02300
O  44.64800 36.76000 23.81800
C  45.39100 35.41800 25.52100
N  43.13900 41.80900 24.41100
C  43.36000 40.73400 23.70900
C  43.57300 41.14700 22.21600
C  42.79600 42.42500 22.18000
C  42.76100 42.87700 23.61900
C  45.05600 41.20300 21.79700
C  41.37400 42.39100 21.48100
C  40.35300 41.24600 21.79900
N  42.22100 43.69800 26.50600
C  42.12400 44.54600 25.42500
C  41.71000 45.82300 25.81400
C  41.52300 45.66600 27.18200
C  41.99300 44.39700 27.63400
C  41.26100 47.00000 24.90700
C  41.14800 46.29800 28.43000
O  40.75300 47.43500 28.56200
C  41.41300 45.35700 29.60200
C  42.34700 46.04300 30.44200
O  43.53500 46.29100 30.11700
O  41.80200 46.39700 31.64300
C  42.66700 47.02800 32.67600
H  44.07600 38.94400 29.84900
H  43.75100 38.81100 23.41200
H  42.18200 44.82800 23.30600
H  43.26400 43.35200 31.69600
H  42.79500 40.56900 31.76200
H  44.95700 40.78200 32.44600
H  45.16000 42.39500 31.63300
H  45.57500 40.98700 30.77000
H  40.88100 41.59500 32.19600
H  40.33200 42.84600 31.05200
H  40.25000 44.18200 33.04300
H  41.87600 43.55500 33.61800
H  44.96500 35.78200 28.04200
H  43.74200 36.31200 29.06900
H  45.32400 37.10700 29.09700
H  45.83500 34.86700 24.69200
H  44.71100 34.80600 26.11200
H  46.26900 35.76000 26.07000
H  43.02600 40.43600 21.59600
H  43.46100 43.12100 21.66900
H  45.74500 40.70800 22.48200
H  45.42600 42.20100 21.56300
H  45.15600 40.69900 20.83600
H  41.37700 42.56400 20.40500
H  40.99500 43.35800 21.81200
H  39.98700 40.62400 20.98300
H  39.62100 41.68200 22.47800
H  40.80300 40.58400 22.54000
H  40.58900 47.66700 25.44700
H  40.81200 46.65400 23.97600
H  42.13800 47.59100 24.64100
H  40.54300 45.18600 30.23700
H  42.42800 48.07400 32.86500
H  43.74700 46.88300 32.63000
H  42.39200 46.53600 33.60900

