158

Mg 41.50800 8.10300 29.79200
C  43.34700 9.34800 32.53400
C  39.28200 6.70200 31.94200
C  39.86600 7.08200 27.11800
C  44.10100 9.34500 27.80800
N  41.42300 7.88000 32.01400
C  42.23300 8.53200 32.96100
C  41.72100 8.19500 34.39400
C  40.54600 7.21400 34.11300
C  40.37600 7.25700 32.60500
C  40.74400 5.72500 34.56400
C  41.34400 9.38600 35.23500
C  41.96500 9.35500 36.66900
H  42.09300 10.55400 37.48600
N  39.82100 6.95900 29.56200
C  38.96900 6.61200 30.59500
C  37.76600 5.98000 30.07600
C  37.92300 6.14000 28.58200
C  39.24600 6.73700 28.31000
C  36.69300 5.46600 30.91600
C  36.90400 5.82400 27.52200
O  37.04000 6.01200 26.34600
C  35.60100 5.23600 27.87200
N  41.93900 8.22100 27.69800
C  41.11800 7.61600 26.80200
C  41.81800 7.62900 25.41800
C  43.15400 8.50500 25.64000
C  43.02100 8.78900 27.09700
C  42.11000 6.26900 24.77500
C  43.17000 9.85300 24.85000
C  42.06900 10.89500 24.92400
N  43.33600 9.24000 30.05600
C  44.27600 9.58800 29.15800
C  45.35600 10.24900 29.89500
C  45.02100 10.29200 31.24500
C  43.79800 9.63400 31.24200
C  46.54900 10.84300 29.29100
C  45.48100 10.72600 32.55600
O  46.42800 11.33500 33.03100
C  44.37200 10.12200 33.43800
C  45.04700 9.36600 34.61600
O  45.43300 8.21200 34.58400
O  45.43900 10.34500 35.49800
C  46.28800 9.93200 36.61500
H  38.54200 6.35700 32.66700
H  39.26200 6.69400 26.29600
H  44.95500 9.47400 27.14000
H  42.51300 7.68600 34.94400
H  39.62700 7.44300 34.65100
H  40.06600 5.52800 35.39500
H  41.79900 5.56300 34.78300
H  40.61100 5.08800 33.68900
H  40.27400 9.55100 35.35900
H  41.58700 10.32500 34.73700
H  42.96300 8.91600 36.66800
H  41.21600 8.79600 37.23000
H  35.93300 6.24300 30.99200
H  37.02500 5.18600 31.91600
H  36.20700 4.60700 30.45400
H  35.17200 5.87000 28.64900
H  35.71200 4.23800 28.29600
H  34.95500 5.11600 27.00300
H  41.12900 8.09700 24.71500
H  44.06700 7.95600 25.40900
H  41.45700 5.53600 25.25000
H  43.13200 5.97600 24.53500
H  41.66500 6.31600 23.78100
H  43.42900 9.48400 23.85800
H  44.05200 10.41800 25.15200
H  41.33900 10.50400 25.63200
H  41.47500 10.97600 24.01400
H  42.40300 11.86200 25.30100
H  47.46400 10.36600 29.64300
H  46.50900 11.84000 29.73200
H  46.49000 10.89500 28.20400
H  43.86200 11.00100 33.83100
H  47.34100 10.08800 36.38000
H  46.10900 8.91800 36.97300
H  46.00000 10.59600 37.43000
Mg 4.65700 54.86200 39.82700
C  4.57400 51.31400 40.26200
C  7.59100 54.41100 38.24800
C  4.28200 57.87800 38.74700
C  1.51700 54.81300 41.52400
N  5.87000 53.05400 39.31600
C  5.66900 51.71700 39.56100
C  6.81100 50.86700 39.12600
C  7.95200 52.01500 38.90700
C  7.08000 53.27200 38.79100
C  9.11200 52.21700 39.98900
C  6.58700 50.00500 37.83200
C  5.89400 50.70900 36.65100
H  6.75300 51.04100 35.44500
N  5.88700 56.07900 38.79300
C  7.06200 55.78800 38.17000
C  7.56700 56.93900 37.45200
C  6.62000 57.96400 37.61600
C  5.52900 57.39400 38.40800
C  8.86400 56.94300 36.69700
C  6.70000 59.38800 36.97000
O  7.55900 59.64100 36.12200
C  5.85100 60.50100 37.40100
N  3.10300 56.11100 40.08800
C  3.32200 57.40700 39.67200
C  2.15400 58.30100 40.22100
C  1.18400 57.30600 40.90600
C  1.97500 56.02000 40.86500
C  2.65400 59.53600 41.07100
C  -0.26700 57.23000 40.48000
C  -1.38200 57.45700 41.52400
N  3.33700 53.41000 40.79600
C  2.15200 53.55900 41.45900
C  1.73200 52.29500 42.03200
C  2.60100 51.34200 41.59000
C  3.59300 52.11700 40.87800
C  0.53500 52.13200 42.88500
C  2.89000 49.93300 41.51700
O  2.28200 49.01700 41.98500
C  4.19900 49.85700 40.76500
C  4.04200 48.89000 39.71900
O  3.42000 49.01900 38.67900
O  4.61900 47.68600 40.09400
C  4.42400 46.54600 39.20400
H  8.46400 54.21700 37.62200
H  4.10300 58.88100 38.35200
H  0.70500 54.79400 42.25500
H  7.09600 50.19600 39.93500
H  8.51600 51.77900 38.00400
H  9.19300 51.33500 40.62400
H  8.82900 53.05200 40.62900
H  10.02700 52.42800 39.43600
H  5.97700 49.12800 38.04800
H  7.54800 49.58800 37.53200
H  5.59900 51.71300 36.95500
H  5.07000 50.07200 36.32700
H  8.76300 57.02300 35.61500
H  9.36100 56.02600 37.01300
H  9.35200 57.76000 37.22800
H  4.94100 60.53200 36.80300
H  6.32200 61.43100 37.08100
H  5.71000 60.59200 38.47800
H  1.70700 58.76300 39.34000
H  1.18500 57.56900 41.96400
H  2.50400 60.47600 40.54000
H  3.71600 59.33400 41.20600
H  2.27200 59.59300 42.09000
H  -0.30900 56.23400 40.04000
H  -0.51900 57.93600 39.68800
H  -1.89100 58.38000 41.24700
H  -1.03500 57.60000 42.54700
H  -2.06300 56.60800 41.59300
H  0.85000 52.44500 43.88000
H  0.16700 51.11700 43.03100
H  -0.32800 52.71500 42.56200
H  4.99200 49.47800 41.40900
H  5.05900 46.41100 38.32900
H  3.45500 46.47300 38.71100
H  4.65300 45.62900 39.74800

