158

Mg -3.22600 16.69500 27.03400
C  -3.63000 14.79700 30.03100
C  -4.23300 19.46000 29.01100
C  -3.49700 18.60900 24.30600
C  -3.50300 13.82400 25.23900
N  -3.62400 17.09700 29.37100
C  -3.66100 16.12300 30.38700
C  -3.73000 16.78000 31.74400
C  -4.11600 18.23000 31.35500
C  -4.04800 18.30000 29.81300
C  -5.41300 18.69300 31.94600
C  -2.39500 16.53900 32.45700
C  -1.89200 17.51900 33.54100
H  -1.40300 16.91300 34.98800
N  -3.41100 18.70100 26.74700
C  -3.76500 19.74100 27.66400
C  -3.66700 21.02300 26.98500
C  -3.32700 20.76200 25.64100
C  -3.46000 19.28300 25.49100
C  -4.03300 22.30600 27.71200
C  -2.93300 21.68500 24.48300
O  -2.73000 21.31500 23.27400
C  -2.59200 23.05900 24.83400
N  -3.65600 16.23200 24.98900
C  -3.64300 17.23500 24.05000
C  -3.73100 16.64800 22.63500
C  -3.63600 15.07400 22.92800
C  -3.59200 15.01200 24.46000
C  -4.96900 17.15100 21.74500
C  -2.46600 14.40400 22.19100
C  -1.05400 14.31700 22.85300
N  -3.44000 14.69500 27.47500
C  -3.43200 13.62800 26.61300
C  -3.48200 12.42100 27.37900
C  -3.51200 12.82600 28.70300
C  -3.53900 14.27900 28.73900
C  -3.52600 10.98300 26.83600
C  -3.55400 12.33200 30.08000
O  -3.56200 11.22700 30.52500
C  -3.58200 13.63800 30.99400
C  -2.29900 13.53800 31.61300
O  -1.20200 13.82600 31.17800
O  -2.49700 13.01200 32.90400
C  -1.49400 13.08700 33.93300
H  -4.54700 20.31900 29.60800
H  -3.52000 19.23300 23.41000
H  -3.58400 12.83700 24.77900
H  -4.50600 16.32200 32.35700
H  -3.40700 18.86800 31.88300
H  -6.18600 18.39300 31.23900
H  -5.32300 19.73400 32.25500
H  -5.36200 18.23300 32.93300
H  -1.68200 16.51200 31.63300
H  -2.48200 15.53300 32.86800
H  -2.60000 18.28600 33.85600
H  -1.07000 18.01300 33.02400
H  -3.09900 22.85800 27.82100
H  -4.54100 22.19800 28.67100
H  -4.65300 22.86500 27.01100
H  -3.33500 23.67300 25.34300
H  -2.40500 23.61300 23.91400
H  -1.68500 22.99700 25.43500
H  -2.81800 17.03100 22.18100
H  -4.51400 14.59800 22.49100
H  -4.63500 17.61800 20.81800
H  -5.59800 17.82600 22.32600
H  -5.62700 16.31200 21.52100
H  -2.36200 14.98000 21.27100
H  -2.79500 13.42900 21.83100
H  -0.38400 14.98000 22.30500
H  -0.78500 13.27200 22.69500
H  -1.02800 14.61100 23.90200
H  -4.52300 10.60100 26.61300
H  -3.11400 10.27500 27.55600
H  -3.00100 11.10500 25.88900
H  -4.35700 13.63100 31.76000
H  -1.70900 13.84000 34.69100
H  -0.52400 13.36500 33.52100
H  -1.50400 12.06400 34.30900
Mg 44.15900 3.91400 45.90000
C  42.37400 6.97600 45.78800
C  41.25900 2.37100 45.00700
C  46.05400 1.17700 45.36300
C  47.19600 5.70600 45.77200
N  41.97500 4.59200 45.45800
C  41.48400 5.87600 45.57300
C  39.95400 5.88000 45.26200
C  39.57900 4.34300 45.07500
C  40.98500 3.70800 45.22200
C  38.56800 3.85700 46.13200
C  39.50700 6.75100 43.94800
C  40.62900 6.98900 42.87300
H  40.14200 7.24900 41.40800
N  43.74300 2.00600 45.37900
C  42.48400 1.61900 45.02900
C  42.56800 0.14000 44.72900
C  43.91300 -0.16200 44.61200
C  44.65200 1.01500 45.15100
C  41.28000 -0.70000 44.25700
C  44.55900 -1.51600 44.03100
O  43.86700 -2.39900 43.53200
C  46.05600 -1.71400 43.90600
N  46.29800 3.48000 45.74000
C  46.80600 2.23000 45.70700
C  48.35800 2.12400 45.81900
C  48.67900 3.67600 45.99500
C  47.26800 4.30100 45.82200
C  48.90300 1.33000 47.02100
C  49.66700 4.35400 44.93600
C  50.82400 3.56100 44.39700
N  44.71100 5.89300 45.78800
C  45.94000 6.45400 45.71700
C  45.76100 7.93500 45.84600
C  44.42300 8.14600 45.83800
C  43.82100 6.90500 45.77300
C  46.90300 8.87300 45.82700
C  43.37700 9.20900 45.86600
O  43.48900 10.46000 45.88300
C  42.06300 8.41000 46.00500
C  41.47900 8.58700 47.37100
O  41.49100 7.76200 48.28500
O  40.97200 9.86200 47.44600
C  40.71700 10.24300 48.83600
H  40.40100 1.73800 44.77000
H  46.72400 0.31800 45.44200
H  48.11000 6.29200 45.89000
H  39.56200 6.36700 46.15500
H  39.20700 4.16800 44.06500
H  39.03800 3.21200 46.87400
H  37.80900 3.32600 45.55700
H  38.15100 4.67600 46.71800
H  39.24200 7.67300 44.46600
H  38.55200 6.35500 43.60500
H  41.20300 6.06400 42.93000
H  41.17800 7.90300 43.10100
H  41.12900 -0.38800 43.22400
H  40.50500 -0.25100 44.87900
H  41.29700 -1.78700 44.34400
H  46.26900 -2.66600 43.42000
H  46.33200 -1.60100 44.95400
H  46.54600 -0.92100 43.34000
H  48.80700 1.83700 44.86700
H  49.00300 3.94700 46.99900
H  48.10700 0.99500 47.68500
H  49.61100 1.84800 47.66900
H  49.46400 0.46400 46.67000
H  50.01600 5.26900 45.41500
H  48.99400 4.60900 44.11700
H  51.69600 4.21300 44.34400
H  50.58300 3.34200 43.35700
H  51.04400 2.58000 44.81800
H  47.12100 9.06300 46.87800
H  46.64000 9.82600 45.36900
H  47.80200 8.48400 45.34800
H  41.33300 8.83400 45.31400
H  39.80000 9.80800 49.23300
H  40.61700 11.32700 48.78100
H  41.53100 10.00000 49.51900

