158

Mg 25.27300 -6.85500 48.44900
C  27.47300 -4.68600 46.94000
C  22.90200 -6.12800 46.14300
C  23.79700 -9.74100 49.31000
C  28.13100 -8.03000 50.36000
N  25.27700 -5.55100 46.65800
C  26.23300 -4.67400 46.27500
C  25.77500 -3.86100 45.07700
C  24.23600 -4.12300 45.04000
C  24.09200 -5.31800 46.06600
C  23.30400 -2.93400 45.34000
C  26.49600 -4.27200 43.79400
C  27.00500 -3.06300 42.96300
H  26.19200 -2.61400 41.76600
N  23.49300 -7.80700 47.83900
C  22.64600 -7.29100 46.91400
C  21.50200 -8.25700 46.86200
C  21.74700 -9.33500 47.77300
C  23.06100 -9.04500 48.34000
C  20.40300 -8.08600 45.89600
C  20.82600 -10.44200 48.00800
O  19.73000 -10.46100 47.47900
C  21.20900 -11.68000 48.83600
N  25.87600 -8.56800 49.75300
C  24.96700 -9.54400 50.04000
C  25.41200 -10.48500 51.22000
C  26.96900 -10.06700 51.28500
C  27.01400 -8.79500 50.42100
C  24.64800 -10.22400 52.57500
C  27.90400 -11.25300 50.89700
C  28.97400 -11.73200 51.88400
N  27.27400 -6.26400 48.88500
C  28.28200 -6.80800 49.71100
C  29.48800 -6.10400 49.53700
C  29.17400 -5.21500 48.48700
C  27.84900 -5.41500 48.07400
C  30.81900 -6.35600 50.21000
C  29.76300 -4.18800 47.66700
O  30.87800 -3.75300 47.63400
C  28.73000 -3.86700 46.58600
C  28.49400 -2.38400 46.66800
O  28.65000 -1.51900 45.81600
O  27.71400 -2.21900 47.84300
C  27.05100 -0.90600 47.95900
H  22.11800 -5.87700 45.42500
H  23.39200 -10.69400 49.65600
H  28.98200 -8.40500 50.93200
H  25.94500 -2.83100 45.39200
H  23.95400 -4.33000 44.00800
H  22.84900 -2.59400 44.41000
H  23.74200 -2.10000 45.88800
H  22.40900 -3.14700 45.92500
H  25.80800 -4.77300 43.11400
H  27.28700 -5.00900 43.93000
H  27.99600 -3.42600 42.69000
H  27.20900 -2.18200 43.57200
H  20.65500 -8.45400 44.90200
H  20.22400 -7.01400 45.80900
H  19.40700 -8.41100 46.19600
H  22.24700 -11.93000 48.61900
H  20.57800 -12.47400 48.43600
H  20.99700 -11.44200 49.87800
H  25.30900 -11.53100 50.93200
H  27.31500 -9.77100 52.27600
H  23.57300 -10.37000 52.47300
H  24.69500 -9.15900 52.79900
H  24.97000 -10.79200 53.44800
H  28.41000 -10.87700 50.00700
H  27.30300 -12.13000 50.65700
H  29.05000 -12.81800 51.93700
H  28.89600 -11.36100 52.90600
H  29.95700 -11.43200 51.52000
H  30.89200 -7.40000 50.51500
H  30.91600 -5.68900 51.06700
H  31.73200 -6.14200 49.65500
H  29.04000 -4.08600 45.56400
H  25.98400 -1.09100 48.07700
H  27.22600 -0.25200 47.10500
H  27.36800 -0.34500 48.83800
Mg 26.05800 50.40000 27.29600
C  24.03300 51.43300 29.91200
C  28.66600 49.79300 29.61700
C  28.09200 49.75600 24.83700
C  23.68900 51.72400 25.07900
N  26.23200 50.41900 29.46500
C  25.22500 50.89400 30.35600
C  25.63600 50.53000 31.81100
C  27.19100 50.23500 31.67900
C  27.39300 50.12700 30.17200
C  28.17700 51.25900 32.20200
C  24.83600 49.34400 32.35800
C  24.55100 49.14000 33.84600
H  25.17000 50.09500 34.91600
N  28.09000 49.70300 27.21800
C  28.97300 49.53300 28.26800
C  30.24500 49.13800 27.68900
C  30.09600 49.08200 26.30100
C  28.69600 49.47000 26.06400
C  31.46500 48.93900 28.58000
C  31.12500 48.86300 25.20200
O  30.79900 48.76800 24.02300
C  32.60900 48.74500 25.49700
N  25.97800 50.81000 25.19900
C  26.90000 50.36000 24.35000
C  26.34000 50.22600 22.92800
C  24.84700 50.64500 23.08300
C  24.82700 51.07000 24.56900
C  27.12200 51.05900 21.80600
C  23.74000 49.58100 22.79900
C  22.44400 50.14000 22.09700
N  24.34000 51.53000 27.38500
C  23.49000 52.04900 26.43700
C  22.32000 52.65400 27.08200
C  22.49700 52.37500 28.44000
C  23.72900 51.76300 28.56200
C  21.17000 53.26800 26.39500
C  21.86700 52.48400 29.71600
O  20.76900 52.90200 30.11800
C  22.89400 51.89300 30.73800
C  23.30200 52.91700 31.75300
O  24.23000 53.67500 31.62500
O  22.62900 52.74200 32.95100
C  23.04900 53.55400 34.10900
H  29.47000 49.80400 30.35600
H  28.67500 49.46000 23.96300
H  22.83500 51.71800 24.39800
H  25.41200 51.45700 32.33700
H  27.52000 49.32300 32.17700
H  28.88100 50.76800 32.87400
H  27.62600 52.04100 32.72500
H  28.68700 51.67200 31.33200
H  25.38100 48.46700 32.00800
H  23.93200 49.21700 31.76200
H  25.15500 48.25100 34.03000
H  23.52800 48.84300 34.07700
H  31.50600 49.82600 29.21200
H  32.42800 48.94300 28.07000
H  31.37400 47.95900 29.04800
H  33.15000 48.60100 24.56100
H  32.76400 47.98600 26.26400
H  32.96700 49.72300 25.81700
H  26.31400 49.16700 22.67100
H  24.65100 51.56800 22.53600
H  27.77100 51.65500 22.44900
H  26.51400 51.79600 21.28100
H  27.70700 50.41900 21.14600
H  23.45000 49.09300 23.73000
H  24.18700 48.89900 22.07600
H  22.40000 49.75100 21.08000
H  22.57400 51.21800 22.00000
H  21.54000 49.91000 22.66000
H  21.21200 52.92400 25.36100
H  21.33400 54.33900 26.51000
H  20.21100 53.08100 26.87800
H  22.47100 51.01200 31.22200
H  23.28700 54.59700 33.90100
H  23.95700 53.05100 34.44200
H  22.26300 53.46400 34.85900

