158

Mg 34.71300 1.49100 28.92900
C  32.40300 2.83700 31.33600
C  37.17600 1.85900 31.23100
C  36.70600 0.62100 26.47200
C  31.95700 1.78000 26.54800
N  34.68400 2.19600 31.08500
C  33.67900 2.63800 31.86200
C  34.18600 2.79400 33.27700
C  35.71200 2.75400 33.16900
C  35.90800 2.30300 31.73800
C  36.45900 4.09800 33.43600
C  33.54000 1.82400 34.30600
C  32.99800 2.55200 35.53400
H  33.98000 3.09900 36.64300
N  36.69000 1.19200 28.88500
C  37.52500 1.39700 29.94000
C  38.89000 1.01000 29.51200
C  38.77000 0.70300 28.11600
C  37.35200 0.87300 27.74000
C  40.05600 0.89500 30.43800
C  39.88800 0.19800 27.19200
O  39.72200 0.07400 25.97200
C  41.29800 -0.16800 27.74600
N  34.31000 1.12500 26.89500
C  35.36100 0.84000 26.06200
C  34.96200 0.92800 24.51200
C  33.36300 1.05400 24.64700
C  33.20100 1.32300 26.13900
C  35.67400 2.10000 23.78200
C  32.57900 -0.21600 24.25300
C  32.09100 -0.16600 22.82600
N  32.58600 2.04500 28.91100
C  31.64000 2.09700 27.86500
C  30.36800 2.65000 28.41300
C  30.61700 2.85200 29.74500
C  31.93500 2.52000 30.01900
C  29.06300 2.78700 27.66500
C  30.01300 3.32400 31.01300
O  28.89500 3.58500 31.24300
C  31.15400 3.31100 32.09400
C  31.31300 4.75100 32.59700
O  31.82300 5.65600 31.97900
O  30.69100 4.82000 33.76400
C  30.60700 5.97400 34.66900
H  37.96700 2.08200 31.95100
H  37.34900 0.51400 25.59600
H  31.13100 1.97500 25.86100
H  33.79500 3.80100 33.42300
H  36.24000 2.01500 33.77100
H  35.69900 4.68700 33.95000
H  36.66900 4.61400 32.49900
H  37.36000 3.92200 34.02300
H  34.31300 1.13100 34.63700
H  32.72200 1.28200 33.83200
H  32.30500 1.80700 35.92600
H  32.38100 3.36400 35.15000
H  40.72900 1.72900 30.23500
H  40.78200 0.08200 30.46800
H  39.64300 1.16300 31.41100
H  41.88600 0.69400 28.06000
H  41.85600 -0.73100 26.99700
H  41.11700 -0.76600 28.63900
H  35.19000 0.04800 23.91100
H  33.00800 1.90200 24.06200
H  35.03800 2.92600 23.46400
H  36.15400 1.69600 22.89100
H  36.43700 2.62700 24.35600
H  31.64700 -0.32000 24.80800
H  33.15200 -1.11300 24.48700
H  32.25200 -1.11300 22.31100
H  32.69900 0.56900 22.29800
H  31.06200 0.18000 22.73100
H  28.61700 1.79300 27.62400
H  29.02500 3.38700 26.75600
H  28.60100 3.39200 28.44500
H  30.97400 2.62500 32.92200
H  30.26300 6.84400 34.11000
H  31.55400 6.08300 35.19800
H  29.97200 5.78100 35.53300
Mg 16.17500 52.27200 26.16100
C  18.47100 51.71300 28.66800
C  13.74100 52.06900 28.58200
C  13.84800 52.73300 23.74800
C  18.66700 51.69500 23.74400
N  16.16100 52.11700 28.42800
C  17.24500 52.00500 29.20600
C  16.87900 52.22300 30.64800
C  15.32400 52.02600 30.66600
C  14.99300 52.05600 29.15800
C  14.81400 50.81700 31.52400
C  17.54500 53.55600 31.18100
C  17.96300 53.54700 32.63300
H  17.21400 52.67900 33.69600
N  14.02800 52.29500 26.13100
C  13.22400 52.17700 27.22300
C  11.84800 52.14200 26.75500
C  11.88800 52.36800 25.33000
C  13.32200 52.47600 25.02800
C  10.69100 51.83000 27.67000
C  10.75900 52.43000 24.28000
O  11.01600 52.79300 23.18500
C  9.35700 52.11800 24.68000
N  16.18000 52.24300 24.06300
C  15.16500 52.65600 23.33300
C  15.63600 52.95300 21.86500
C  17.16700 52.61700 21.83200
C  17.33700 52.12000 23.26500
C  14.76000 52.33500 20.74000
C  18.02300 53.83300 21.44100
C  18.97100 53.57200 20.25300
N  18.13800 51.80400 26.12200
C  19.00600 51.55900 25.11700
C  20.30800 51.14400 25.63500
C  20.15100 51.23600 27.02200
C  18.78700 51.60200 27.25200
C  21.54000 50.80200 24.90100
C  20.78700 51.14000 28.29100
O  21.92600 50.79800 28.56700
C  19.72300 51.45700 29.39600
C  19.60600 50.27500 30.19400
O  19.25100 49.13700 29.85400
O  20.08200 50.56800 31.42100
C  20.23900 49.55600 32.42500
H  12.99500 52.10300 29.37900
H  13.20500 53.05300 22.92600
H  19.54300 51.52700 23.11400
H  17.29000 51.41100 31.24700
H  14.90500 52.95400 31.05400
H  14.05600 51.00300 32.28500
H  15.66900 50.29900 31.95800
H  14.35600 50.09000 30.85300
H  16.77100 54.28300 30.93400
H  18.47600 53.81200 30.67500
H  17.82200 54.58200 32.94400
H  18.95800 53.10200 32.66400
H  10.04900 52.71100 27.66700
H  11.01300 51.47500 28.64900
H  10.07500 51.04200 27.23600
H  9.04200 52.61100 25.60000
H  9.30900 51.03900 24.82600
H  8.64100 52.43700 23.92300
H  15.40800 54.01800 21.90100
H  17.32100 51.64900 21.35600
H  15.43600 51.74800 20.11800
H  14.47200 53.17600 20.10800
H  13.95500 51.63400 20.95900
H  18.61300 53.93300 22.35200
H  17.45600 54.72200 21.16400
H  19.09200 54.46400 19.63800
H  18.49300 52.80900 19.63900
H  19.95500 53.38700 20.68100
H  22.33200 50.55600 25.60800
H  21.79300 51.61800 24.22400
H  21.33300 49.97800 24.21800
H  20.17200 52.23200 30.01600
H  20.87500 48.75900 32.03900
H  19.21200 49.21900 32.56300
H  20.70300 50.08400 33.25800

