158

Mg 36.43500 49.38600 25.24600
C  36.69500 47.61000 28.12700
C  35.34400 51.99500 26.99800
C  36.00300 51.02900 22.23600
C  37.68500 46.61100 23.43200
N  35.89700 49.64300 27.29500
C  36.29200 48.85200 28.32200
C  36.06200 49.43500 29.74500
C  35.28400 50.77300 29.28300
C  35.56300 50.85300 27.77700
C  33.79300 50.64200 29.69400
C  37.41400 49.77900 30.46900
C  37.47200 49.55700 31.97100
H  36.20200 49.67200 32.82100
N  35.56600 51.22300 24.71100
C  35.31800 52.20900 25.61200
C  34.81800 53.39300 24.87300
C  34.95600 53.03800 23.45600
C  35.49400 51.67000 23.41000
C  34.50200 54.70300 25.53300
C  34.59000 53.89200 22.17900
O  34.78600 53.54600 21.01500
C  33.92900 55.23800 22.37600
N  36.68700 48.86000 23.08400
C  36.44900 49.70800 22.07000
C  36.73700 49.07500 20.67300
C  37.67600 47.89100 21.17200
C  37.29600 47.74200 22.67100
C  35.42100 48.55300 20.03400
C  39.24500 47.99200 20.88300
C  39.74700 46.78400 20.09200
N  37.07300 47.53500 25.66000
C  37.46900 46.51800 24.80000
C  37.87900 45.41100 25.62200
C  37.62500 45.78700 26.95200
C  37.03900 47.06400 26.89200
C  38.48600 44.11800 25.17300
C  37.74000 45.48900 28.38300
O  38.28100 44.63300 29.04300
C  36.98100 46.63000 29.27200
C  35.71100 46.00100 29.88000
O  34.64500 45.90700 29.35200
O  36.08200 45.76800 31.16300
C  34.94500 45.30300 31.95400
H  35.03900 52.82900 27.63500
H  35.95600 51.55600 21.28100
H  38.15300 45.79700 22.87500
H  35.45300 48.76000 30.34600
H  35.58600 51.68400 29.79900
H  33.29800 50.65600 28.72300
H  33.54100 51.54800 30.24700
H  33.51400 49.72600 30.21600
H  37.55100 50.84700 30.30000
H  38.19100 49.26100 29.90600
H  38.09000 50.35100 32.39100
H  38.06800 48.68500 32.23800
H  34.99900 55.56500 25.09000
H  34.59000 54.66000 26.61800
H  33.41700 54.79400 25.48300
H  33.24100 55.31200 23.21800
H  33.32400 55.44600 21.49400
H  34.71900 55.95400 22.60100
H  37.34300 49.76900 20.09100
H  37.39800 46.89300 20.83400
H  35.69500 47.77000 19.32700
H  34.88200 49.43700 19.69400
H  34.83200 48.01800 20.77900
H  39.81200 47.98000 21.81400
H  39.55800 48.89200 20.35300
H  38.97300 46.10500 19.73500
H  40.55200 46.29900 20.64500
H  40.16200 47.13000 19.14500
H  39.30300 44.39700 24.50700
H  37.78100 43.37400 24.80400
H  38.93400 43.69900 26.07400
H  37.62700 46.98900 30.07300
H  33.94900 45.68800 31.73400
H  35.17600 45.81600 32.88800
H  34.96300 44.22800 32.12800
Mg -5.74600 25.47000 25.39600
C  -3.97100 26.78200 28.13500
C  -7.01400 23.12500 27.54700
C  -7.00200 23.94100 22.70200
C  -3.90300 27.71900 23.35200
N  -5.52600 25.02200 27.63400
C  -4.83800 25.79800 28.51400
C  -5.23900 25.35500 29.92600
C  -6.10600 24.05700 29.75000
C  -6.21600 24.01400 28.21100
C  -5.44900 22.72600 30.33400
C  -6.04300 26.42000 30.84800
C  -6.95300 25.92000 32.02300
H  -6.34600 24.86200 32.91200
N  -6.83200 23.72600 25.16300
C  -7.31300 22.94800 26.16700
C  -8.14800 21.92000 25.54100
C  -8.17900 22.13800 24.11400
C  -7.33800 23.32600 23.93200
C  -8.72700 20.71700 26.28500
C  -8.89400 21.36100 23.02100
O  -8.85400 21.69300 21.83400
C  -9.72000 20.06000 23.33500
N  -5.60900 25.95100 23.29200
C  -6.21200 25.12600 22.36900
C  -5.81400 25.62100 21.01600
C  -4.94900 26.90200 21.24400
C  -4.84000 26.89000 22.72800
C  -5.04300 24.56900 20.17200
C  -5.45900 28.21600 20.50900
C  -5.94800 29.40600 21.31900
N  -4.30800 27.04300 25.57600
C  -3.67000 27.87400 24.66400
C  -2.80600 28.75100 25.34500
C  -2.87300 28.31400 26.68800
C  -3.81600 27.27600 26.80100
C  -1.91300 29.71900 24.77400
C  -2.32800 28.61500 27.99900
O  -1.59000 29.50200 28.38000
C  -3.10900 27.66200 28.99500
C  -2.06300 26.92400 29.78100
O  -1.15600 26.20200 29.35700
O  -2.20200 27.35700 31.10600
C  -1.15300 26.85900 32.05300
H  -7.59400 22.45500 28.18500
H  -7.15900 23.37900 21.77900
H  -3.34200 28.37400 22.68200
H  -4.23300 25.16800 30.30200
H  -7.13200 24.03600 30.11900
H  -4.57600 22.89600 30.96400
H  -5.23500 22.04600 29.50900
H  -6.14500 22.16300 30.95600
H  -6.44400 27.16400 30.16000
H  -5.25900 26.90300 31.43200
H  -7.86200 25.49600 31.59700
H  -7.23500 26.80800 32.59000
H  -9.75800 20.70700 25.92900
H  -8.80700 20.88300 27.35900
H  -8.18600 19.84300 25.92100
H  -8.88600 19.59900 23.86400
H  -10.00300 19.47300 22.46100
H  -10.55500 20.33600 23.97800
H  -6.73600 25.94100 20.53100
H  -3.94700 26.73500 20.84700
H  -4.51100 23.90000 20.84800
H  -4.38200 25.01100 19.42600
H  -5.81000 24.01100 19.63600
H  -6.20300 27.87100 19.79000
H  -4.66700 28.60300 19.86900
H  -6.62700 29.89700 20.62200
H  -5.09400 30.04400 21.54800
H  -6.48400 29.07800 22.21000
H  -1.59600 29.52500 23.74900
H  -1.01100 29.76200 25.38500
H  -2.40900 30.68200 24.89800
H  -3.71200 28.19700 29.72800
H  -1.60400 26.79900 33.04300
H  -0.33200 27.56700 32.16300
H  -0.81500 25.85400 31.80000

