158

Mg 24.39500 -6.00500 44.77900
C  26.66600 -3.88000 43.46800
C  21.94600 -4.54600 43.05700
C  22.50400 -8.82400 45.27500
C  27.03300 -7.72500 46.34700
N  24.35300 -4.44200 43.28500
C  25.36900 -3.62900 43.01400
C  25.02400 -2.55200 41.99900
C  23.48400 -2.59700 42.16400
C  23.24800 -3.91100 42.96900
C  22.81700 -1.43300 43.01000
C  25.71400 -2.84900 40.67200
C  26.40700 -1.75900 39.89000
H  26.21400 -1.90000 38.38900
N  22.42300 -6.57500 44.28500
C  21.49700 -5.79200 43.66000
C  20.25400 -6.49100 43.58600
C  20.35600 -7.75500 44.18200
C  21.83300 -7.79600 44.62200
C  19.03500 -5.92100 42.82800
C  19.25000 -8.81400 44.30400
O  18.10200 -8.59000 43.95800
C  19.55900 -10.23700 44.90200
N  24.85600 -8.14900 45.37100
C  23.85900 -9.01200 45.61700
C  24.30000 -10.32800 46.33000
C  25.64900 -9.85200 46.95700
C  25.84300 -8.48900 46.15400
C  23.32200 -10.85400 47.31300
C  26.87300 -10.90500 46.86400
C  27.57400 -11.18000 48.26500
N  26.47500 -5.82000 45.06400
C  27.40200 -6.54600 45.73700
C  28.75000 -5.91000 45.60100
C  28.45200 -4.81500 44.77300
C  27.10000 -4.85200 44.43900
C  30.11500 -6.38100 46.09600
C  29.03500 -3.67300 44.10400
O  30.15500 -3.20700 44.05900
C  27.85000 -2.94400 43.34100
C  27.62000 -1.63900 43.83000
O  26.85100 -1.39000 44.71300
O  28.35300 -0.66800 43.07400
C  28.04700 0.74200 43.34600
H  21.13700 -4.00800 42.55900
H  21.81000 -9.60100 45.60200
H  27.86400 -8.31300 46.74200
H  25.33200 -1.56000 42.33000
H  23.00200 -2.75400 41.19900
H  22.77100 -0.49800 42.45300
H  23.40300 -1.22800 43.90600
H  21.84600 -1.81200 43.33000
H  24.88700 -3.29600 40.12000
H  26.43400 -3.66700 40.70900
H  27.47400 -1.69200 40.10200
H  26.13400 -0.79000 40.30700
H  18.81800 -6.47100 41.91200
H  19.10100 -4.84400 42.67900
H  18.16700 -6.03000 43.47900
H  18.68600 -10.88700 44.84200
H  19.85900 -10.11000 45.94200
H  20.37100 -10.73500 44.37300
H  24.52400 -10.99400 45.49700
H  25.47600 -9.55800 47.99200
H  23.85800 -11.08500 48.23400
H  22.96400 -11.82900 46.98500
H  22.42300 -10.28100 47.54100
H  27.51000 -10.40800 46.13400
H  26.48100 -11.73400 46.27500
H  27.38200 -12.25200 48.31300
H  27.13100 -10.59800 49.07300
H  28.64700 -10.99900 48.20500
H  30.37200 -7.43700 46.02100
H  30.18200 -6.21300 47.17100
H  30.91600 -5.78300 45.66100
H  28.08600 -2.77200 42.29100
H  28.50100 1.05500 44.28600
H  26.97900 0.96000 43.36800
H  28.60700 1.24900 42.56000
Mg 48.53800 35.47000 28.27900
C  46.58600 33.55200 30.65000
C  48.75700 37.88400 30.40400
C  49.42400 37.29700 25.62700
C  47.66300 32.82000 25.94600
N  47.81100 35.58500 30.33200
C  47.02900 34.74300 31.17500
C  46.92000 35.38400 32.54400
C  47.21000 36.95300 32.24200
C  48.02200 36.75000 30.92600
C  45.93600 37.92400 32.11900
C  47.60400 34.72500 33.71900
C  48.76400 35.34600 34.57400
H  48.41200 35.99400 35.94900
N  49.22300 37.29600 28.12000
C  49.28600 38.12500 29.15600
C  49.85000 39.39600 28.76500
C  50.02600 39.28000 27.28800
C  49.51900 37.93400 26.88800
C  49.99600 40.52600 29.74800
C  50.54700 40.36400 26.32100
O  50.40500 40.21600 25.11300
C  51.12800 41.67300 26.84100
N  48.56100 35.12900 26.10300
C  48.96400 36.08100 25.19300
C  48.89700 35.67700 23.69900
C  48.46400 34.16600 23.90900
C  48.12700 34.04100 25.41100
C  47.92900 36.56200 22.85200
C  49.49200 33.22600 23.38400
C  50.58400 32.62700 24.34300
N  47.56200 33.55900 28.33000
C  47.34200 32.62700 27.28900
C  46.75800 31.42100 27.83200
C  46.30200 31.80700 29.06500
C  46.81400 33.09900 29.36400
C  46.52800 30.10500 27.09600
C  45.43700 31.48800 30.13000
O  44.69300 30.53000 30.28500
C  45.47000 32.62500 31.17100
C  45.71100 32.00400 32.50200
O  46.53600 31.20500 32.69300
O  44.79900 32.38400 33.41500
C  44.86100 31.67600 34.76200
H  48.70300 38.62000 31.21000
H  49.74300 37.96200 24.82200
H  47.40800 32.12200 25.14700
H  45.86300 35.32900 32.80400
H  47.73800 37.49600 33.02500
H  46.21900 38.70800 31.41700
H  45.45600 38.32700 33.01100
H  45.17300 37.36100 31.58300
H  47.97100 33.79600 33.28200
H  46.81100 34.39800 34.39100
H  49.33900 36.05700 33.98100
H  49.36800 34.47400 34.82300
H  48.99500 40.88900 29.98100
H  50.67100 41.29500 29.37100
H  50.50500 40.07600 30.60000
H  51.89000 41.40900 27.57400
H  50.34300 42.24100 27.34100
H  51.47600 42.26600 25.99500
H  49.94000 35.80400 23.40800
H  47.60500 33.95000 23.27400
H  47.13700 35.93400 22.44300
H  48.49600 37.15500 22.13400
H  47.43900 37.22800 23.56200
H  50.01800 33.70400 22.55800
H  48.86500 32.40800 23.03000
H  50.75200 33.43000 25.06200
H  51.54800 32.55800 23.83900
H  50.25200 31.67000 24.74500
H  47.36100 29.82500 26.45100
H  45.64300 30.18200 26.46500
H  46.33100 29.29700 27.80000
H  44.52700 33.14200 31.34600
H  45.54000 30.82400 34.73500
H  43.87300 31.36100 35.09800
H  45.18900 32.35700 35.54700

