158

Mg -10.49200 40.05500 39.79700
C  -9.19100 36.88200 39.19600
C  -7.36800 41.34400 39.17100
C  -11.85400 43.10500 39.73200
C  -13.75500 38.62200 39.85900
N  -8.59900 39.21200 39.13500
C  -8.26500 37.88400 38.97700
C  -6.77500 37.70700 38.43800
C  -6.21900 39.13700 38.74300
C  -7.47300 39.96200 39.08600
C  -5.01500 39.12400 39.78800
C  -6.63800 37.18200 36.99800
C  -7.40300 37.90400 35.88900
H  -8.67500 37.30900 35.30600
N  -9.71200 41.96200 39.58400
C  -8.39400 42.25400 39.38200
C  -8.25600 43.67600 39.32700
C  -9.48200 44.27700 39.51200
C  -10.43000 43.12600 39.68400
C  -6.88800 44.31400 39.05200
C  -9.82100 45.80400 39.58500
O  -8.91900 46.64700 39.46400
C  -11.18100 46.25700 40.04600
N  -12.50700 40.75500 39.66100
C  -12.82500 42.07200 39.80400
C  -14.29000 42.33100 40.00900
C  -14.87300 40.89800 40.16100
C  -13.64900 40.01700 39.85200
C  -14.74200 43.36900 41.09400
C  -16.11500 40.48500 39.27800
C  -17.38600 41.32600 39.56200
N  -11.33600 38.24200 39.66700
C  -12.69600 37.78300 39.79200
C  -12.72600 36.34900 39.68600
C  -11.37400 35.99000 39.45700
C  -10.59300 37.17200 39.46500
C  -13.93900 35.45300 39.64800
C  -10.63200 34.77700 39.11100
O  -10.93800 33.62100 38.89500
C  -9.17500 35.30300 39.02200
C  -8.41200 34.63100 40.12000
O  -8.75800 34.52200 41.24600
O  -7.19400 34.18200 39.70400
C  -6.41600 33.31000 40.58600
H  -6.34200 41.70900 39.10200
H  -12.34600 44.07800 39.79000
H  -14.75800 38.21300 39.99900
H  -6.30800 36.96300 39.08300
H  -5.78600 39.68400 37.90600
H  -4.95200 38.22600 40.40300
H  -5.22100 39.86500 40.56000
H  -4.03100 39.33000 39.36500
H  -6.91400 36.12700 36.97900
H  -5.59500 37.19200 36.68300
H  -6.68700 37.98900 35.07200
H  -7.66400 38.91200 36.21000
H  -6.53700 43.95900 38.08300
H  -6.25500 44.08900 39.91100
H  -6.97900 45.39000 38.90600
H  -11.63200 45.66200 40.84100
H  -11.72900 46.33600 39.10700
H  -11.06800 47.29300 40.36700
H  -14.58600 42.67600 39.01700
H  -15.08800 40.71900 41.21400
H  -15.29800 44.20400 40.66800
H  -13.90300 43.85900 41.58800
H  -15.43500 42.91200 41.80000
H  -16.39000 39.48700 39.62000
H  -15.82000 40.56600 38.23100
H  -18.15200 40.55400 39.62700
H  -17.42600 42.03100 38.73200
H  -17.34500 41.99600 40.42100
H  -14.90000 35.95100 39.52400
H  -13.90100 34.95000 40.61500
H  -13.80800 34.72400 38.84800
H  -8.75600 35.06900 38.04400
H  -6.11500 32.39000 40.08500
H  -6.92000 33.07400 41.52300
H  -5.51000 33.71600 41.03500
Mg -0.70100 44.04500 26.33400
C  1.74400 43.74800 28.77400
C  -3.17900 43.83300 28.77000
C  -3.02700 43.87900 23.88100
C  1.75200 44.23400 23.90400
N  -0.67300 43.95900 28.53600
C  0.48400 43.78700 29.35100
C  0.05200 43.64800 30.79900
C  -1.47700 43.56600 30.67900
C  -1.79900 43.84200 29.20900
C  -2.15300 42.35100 31.37100
C  0.49000 44.96900 31.45400
C  0.13400 45.18700 32.87700
H  -0.12000 44.04700 33.84300
N  -2.80800 43.83900 26.35100
C  -3.62900 43.80700 27.43600
C  -4.95900 43.72000 27.00700
C  -4.98500 43.73100 25.58600
C  -3.58800 43.72500 25.17500
C  -6.11000 43.67200 27.98800
C  -6.15000 43.67300 24.61100
O  -6.03800 43.75300 23.36100
C  -7.64200 43.59600 25.12700
N  -0.64400 43.91000 24.20600
C  -1.72300 43.90400 23.43300
C  -1.41900 44.08000 21.98200
C  0.10400 44.48100 21.98400
C  0.48100 44.19600 23.46100
C  -1.59900 42.83900 21.08700
C  0.24300 45.96600 21.63900
C  1.62500 46.35800 21.05400
N  1.34700 44.05600 26.26600
C  2.23200 44.10800 25.23800
C  3.62000 44.00200 25.72500
C  3.42300 43.76200 27.10100
C  2.05300 43.83300 27.38800
C  4.84900 44.33900 25.01500
C  4.20100 43.56800 28.30700
O  5.39300 43.39600 28.51400
C  3.16200 43.63000 29.45700
C  3.24500 42.41300 30.30700
O  2.79900 41.30500 29.93100
O  3.80500 42.71200 31.52800
C  4.20800 41.56600 32.39600
H  -3.91900 43.59300 29.53700
H  -3.74200 43.77500 23.06200
H  2.50300 44.28900 23.11300
H  0.59400 42.86900 31.33500
H  -1.84500 44.46300 31.17700
H  -2.85100 41.79400 30.74600
H  -2.72600 42.69300 32.23300
H  -1.46000 41.57400 31.69200
H  -0.07900 45.72900 30.91900
H  1.55700 45.18700 31.40400
H  -0.72600 45.85600 32.86900
H  1.02600 45.72400 33.19900
H  -6.78600 44.45700 27.65000
H  -5.87200 43.89500 29.02800
H  -6.48700 42.65100 27.92700
H  -8.36600 43.32000 24.36000
H  -7.73600 44.62300 25.48000
H  -7.78300 42.82600 25.88600
H  -2.06800 44.88900 21.64700
H  0.60100 43.81400 21.28000
H  -1.28000 41.87800 21.49000
H  -1.07400 43.02700 20.15000
H  -2.65600 42.71100 20.85300
H  0.22900 46.60300 22.52300
H  -0.56800 46.30900 20.99600
H  2.39400 46.33000 21.82600
H  1.54700 47.31600 20.53900
H  1.89500 45.74000 20.19800
H  4.89200 43.63900 24.18000
H  5.74600 44.19700 25.61800
H  4.69000 45.37300 24.70700
H  3.37400 44.54200 30.01400
H  5.23500 41.62900 32.75400
H  4.11200 40.59000 31.91900
H  3.58900 41.59000 33.29300

