158

Mg -2.08900 17.51700 26.33200
C  -2.57600 15.11700 28.91100
C  -2.75300 19.98200 28.64700
C  -2.03900 19.67100 23.79100
C  -2.33000 14.78500 24.00300
N  -2.77500 17.48100 28.54400
C  -2.70000 16.42800 29.37800
C  -2.66300 16.96400 30.79700
C  -2.94600 18.45400 30.64700
C  -2.69600 18.66700 29.16200
C  -4.33500 19.05900 31.11800
C  -1.44500 16.68400 31.71000
C  -1.21500 17.50800 33.02900
H  -0.68600 16.87600 34.35200
N  -2.39500 19.53900 26.24500
C  -2.57500 20.37800 27.31400
C  -2.70600 21.73000 26.81400
C  -2.72300 21.64600 25.37700
C  -2.35100 20.25000 25.05200
C  -2.90700 22.91700 27.83900
C  -2.97400 22.70200 24.32300
O  -2.91600 22.47800 23.08800
C  -3.36900 24.04200 24.70400
N  -1.88300 17.23500 24.17300
C  -2.00900 18.30900 23.33100
C  -1.89200 17.88700 21.86700
C  -2.29200 16.36000 21.91100
C  -2.12800 16.08600 23.46600
C  -2.66400 18.80500 20.85800
C  -1.39900 15.45100 20.94800
C  -2.13500 14.59900 19.94300
N  -2.17400 15.36900 26.38900
C  -2.29100 14.43300 25.37500
C  -2.43600 13.11400 25.88400
C  -2.43000 13.34000 27.29000
C  -2.33600 14.73700 27.56400
C  -2.46200 11.80000 25.17800
C  -2.53600 12.68100 28.52100
O  -2.67400 11.46900 28.65500
C  -2.65900 13.80600 29.65900
C  -1.56500 13.64300 30.54400
O  -0.43600 13.92200 30.24600
O  -1.92000 12.89200 31.65500
C  -0.94100 12.49800 32.63500
H  -2.93600 20.78600 29.36300
H  -2.15900 20.30600 22.91100
H  -2.50900 14.02000 23.24400
H  -3.52700 16.49500 31.26800
H  -2.26100 19.04900 31.25000
H  -4.15300 19.74500 31.94500
H  -4.90400 18.20700 31.48900
H  -4.90700 19.54200 30.32600
H  -0.58500 16.68200 31.04100
H  -1.57800 15.63300 31.96600
H  -2.16500 18.01900 33.18600
H  -0.49000 18.25500 32.70500
H  -2.15900 23.66300 27.56800
H  -2.54600 22.59600 28.81600
H  -3.91000 23.34300 27.81700
H  -4.36800 24.11600 25.13500
H  -3.57300 24.53900 23.75500
H  -2.70700 24.61200 25.35700
H  -0.82500 17.91400 21.64400
H  -3.33000 16.27900 21.58600
H  -1.98000 19.14700 20.08200
H  -3.22800 19.56700 21.39600
H  -3.37900 18.23100 20.26900
H  -0.85600 14.86200 21.68700
H  -0.69800 15.99600 20.31600
H  -1.91600 13.57600 20.25000
H  -1.62400 14.75300 18.99300
H  -3.21900 14.71000 19.94000
H  -3.48600 11.64500 24.84000
H  -2.27900 10.98700 25.88100
H  -1.89600 11.81500 24.24700
H  -3.55600 13.61400 30.24700
H  -0.12200 11.91900 32.20600
H  -1.45500 12.09500 33.50800
H  -0.40300 13.37700 32.98800
Mg -12.02800 37.66800 42.48300
C  -9.49600 35.21700 41.66600
C  -10.06000 39.97400 40.97400
C  -14.52400 39.87200 42.59700
C  -14.11700 35.01000 43.30900
N  -10.16900 37.49500 41.23600
C  -9.26000 36.44500 41.05600
C  -8.21000 36.80600 40.11300
C  -8.25600 38.35100 40.01400
C  -9.57100 38.64100 40.85400
C  -6.99100 39.12000 40.56000
C  -8.38200 35.97100 38.74500
C  -7.21200 35.02700 38.45000
H  -6.12500 35.54900 37.55400
N  -12.21900 39.69000 42.05100
C  -11.29700 40.43300 41.48800
C  -11.79500 41.83900 41.35300
C  -13.05800 41.83200 41.97000
C  -13.33600 40.44600 42.25200
C  -10.90200 43.07600 40.92500
C  -13.96100 43.00300 42.24500
O  -13.54200 44.14200 41.94900
C  -15.07600 42.89400 43.21300
N  -14.00800 37.52900 42.97300
C  -14.83500 38.59400 42.99700
C  -16.26500 38.11600 43.36600
C  -16.13700 36.62200 43.73300
C  -14.67300 36.34400 43.30200
C  -16.97400 38.92300 44.51400
C  -17.17300 35.70900 43.09000
C  -17.86800 34.63200 43.92600
N  -11.82400 35.54100 42.52400
C  -12.75500 34.62800 43.06200
C  -12.01300 33.41500 43.30500
C  -10.74900 33.58400 42.75900
C  -10.70800 34.89900 42.32600
C  -12.60100 32.20300 43.91000
C  -9.43400 32.95900 42.58600
O  -8.93200 31.87500 42.87700
C  -8.57800 34.02000 41.79600
C  -7.28300 34.33800 42.49300
O  -7.24500 34.78800 43.64500
O  -6.22000 33.90200 41.75300
C  -4.91900 34.03800 42.43100
H  -9.34800 40.74000 40.66100
H  -15.38800 40.53700 42.66400
H  -14.71200 34.14700 43.61500
H  -7.27800 36.44700 40.54800
H  -8.35000 38.46100 38.93400
H  -6.62000 39.71400 39.72500
H  -6.23000 38.37100 40.77900
H  -7.26200 39.71800 41.42900
H  -8.33800 36.66600 37.90600
H  -9.31700 35.44500 38.55000
H  -7.64500 34.12500 38.01700
H  -6.84000 34.75400 39.43800
H  -11.13200 43.46100 39.93100
H  -9.82700 42.94000 41.04600
H  -11.05700 43.84500 41.68200
H  -15.97300 42.72500 42.61800
H  -15.13200 43.81200 43.79800
H  -14.87100 42.09500 43.92600
H  -16.93700 38.24700 42.51700
H  -16.15800 36.44300 44.80800
H  -16.27600 39.64000 44.94700
H  -17.61300 38.31500 45.15500
H  -17.73500 39.59300 44.11300
H  -16.59300 35.18300 42.33100
H  -18.07000 36.23500 42.76300
H  -18.89900 34.87700 44.18000
H  -17.37400 34.58000 44.89700
H  -17.95000 33.67700 43.40600
H  -13.38500 32.34800 44.65300
H  -11.74100 31.69000 44.34000
H  -13.10500 31.67900 43.09800
H  -8.49200 33.58900 40.79800
H  -5.04100 33.78500 43.48400
H  -4.59500 35.07600 42.36500
H  -4.22700 33.34000 41.95700

