158

Mg 1.23500 8.23000 25.30700
C  1.65900 10.30200 28.15600
C  1.17300 5.46800 27.55200
C  0.90200 6.25100 22.69400
C  1.11200 10.96700 23.37100
N  1.53900 7.91300 27.63200
C  1.55900 8.93500 28.58600
C  1.51000 8.37300 29.99900
C  1.58200 6.80100 29.75400
C  1.43800 6.72400 28.21300
C  2.80600 6.12600 30.36300
C  0.23100 8.86700 30.87000
C  0.50200 9.50100 32.26200
H  1.66700 8.88700 33.05000
N  1.16200 6.18100 25.10000
C  1.13900 5.19500 26.14000
C  0.99600 3.90000 25.57200
C  0.98000 4.12100 24.13900
C  0.97000 5.60200 23.92900
C  0.97300 2.52700 26.43700
C  0.98800 3.05400 23.08800
O  0.91300 3.30500 21.89400
C  1.00800 1.67000 23.44600
N  0.94500 8.58200 23.34200
C  0.85400 7.61000 22.36100
C  0.69700 8.25900 20.88700
C  0.70500 9.71200 21.24300
C  0.93200 9.78200 22.72300
C  1.79800 7.71500 19.89000
C  -0.62400 10.45700 20.77700
C  -0.52400 11.27800 19.55800
N  1.52100 10.19900 25.67500
C  1.32200 11.22200 24.75000
C  1.45700 12.50200 25.40100
C  1.73800 12.18000 26.70800
C  1.56600 10.77200 26.87500
C  1.28300 13.86000 24.74500
C  2.01100 12.69800 28.03600
O  2.23100 13.87900 28.43900
C  1.96400 11.47900 29.06200
C  3.19900 11.43100 29.90400
O  4.30600 11.02300 29.66600
O  2.93000 12.12300 31.03200
C  3.91300 12.16400 32.06600
H  1.18700 4.68900 28.31700
H  0.82000 5.58100 21.83600
H  1.03400 11.77000 22.63600
H  2.44600 8.81500 30.34000
H  0.67500 6.27600 30.05100
H  3.40300 5.70200 29.55600
H  2.59200 5.37800 31.12600
H  3.28700 7.00000 30.80400
H  -0.56000 8.11700 30.87700
H  -0.17900 9.67500 30.26500
H  -0.36700 9.67200 32.89900
H  0.83700 10.48600 31.93700
H  1.99900 2.16900 26.34400
H  0.26200 1.84800 25.96600
H  0.75800 2.63300 27.50000
H  -0.04300 1.44400 23.62500
H  1.61400 1.46200 24.32800
H  1.33600 1.03800 22.62000
H  -0.28100 8.00400 20.48000
H  1.56700 10.14700 20.73700
H  2.48200 7.02000 20.37700
H  2.36100 8.52400 19.42400
H  1.30200 7.19300 19.07300
H  -1.01200 11.21000 21.46300
H  -1.41600 9.74900 20.53300
H  -1.33700 10.93300 18.92000
H  0.47800 11.27000 19.12900
H  -0.74200 12.33100 19.73600
H  0.73000 14.53900 25.39400
H  0.85400 13.66500 23.76200
H  2.24400 14.33800 24.55100
H  1.09000 11.65100 29.69000
H  3.49900 12.07200 33.07000
H  4.20900 13.20800 31.96900
H  4.71500 11.43000 31.98400
Mg 16.91500 -1.31800 27.47600
C  15.90500 0.79700 30.09900
C  18.93200 -2.93800 29.68200
C  18.12800 -3.13600 24.85600
C  15.13200 0.70400 25.28900
N  17.43200 -1.06300 29.65500
C  16.80200 -0.26500 30.50600
C  17.39300 -0.41700 31.96900
C  18.53900 -1.49400 31.76400
C  18.37900 -1.81300 30.26900
C  19.93900 -1.01200 32.11300
C  16.26100 -0.94100 32.97700
C  16.23200 -0.38500 34.33700
H  17.56400 0.08400 34.97700
N  18.25900 -2.86800 27.26900
C  18.97300 -3.39600 28.32400
C  19.61000 -4.60700 27.87600
C  19.27600 -4.77600 26.49500
C  18.53400 -3.57300 26.17700
C  20.49100 -5.47000 28.82200
C  19.74400 -5.83400 25.49200
O  19.44700 -5.79900 24.31500
C  20.60000 -7.08800 25.96000
N  16.70100 -1.18500 25.36300
C  17.28200 -2.09700 24.50700
C  17.19800 -1.54200 23.04200
C  16.06200 -0.40600 23.23600
C  15.87200 -0.28900 24.71900
C  18.53600 -1.08500 22.37900
C  14.68300 -0.67000 22.50700
C  13.96200 0.55100 21.79500
N  15.72300 0.38600 27.55800
C  15.00700 1.04700 26.63100
C  14.23800 2.16100 27.18100
C  14.52600 2.06300 28.59600
C  15.42500 0.97000 28.76700
C  13.47100 3.14400 26.36400
C  14.35300 2.70300 29.85600
O  13.71400 3.69100 30.23700
C  15.13100 1.84400 30.92900
C  15.92000 2.81000 31.66500
O  16.90300 3.35200 31.20700
O  15.50000 3.00500 32.93000
C  16.22300 3.80400 33.98100
H  19.60400 -3.42300 30.39400
H  18.56200 -3.66200 24.00200
H  14.63000 1.40600 24.62000
H  17.84600 0.53000 32.26300
H  18.34900 -2.34400 32.41900
H  19.98500 0.04200 32.38400
H  20.69200 -1.28000 31.37200
H  20.26900 -1.61400 32.96000
H  16.40900 -2.01300 33.10800
H  15.28700 -0.89900 32.49000
H  15.85800 -1.13600 35.03300
H  15.51100 0.43100 34.29500
H  20.06100 -6.46200 28.96600
H  20.81100 -4.91000 29.70100
H  21.36000 -5.66100 28.19200
H  21.57800 -6.64900 26.15900
H  20.77700 -7.78700 25.14200
H  20.25800 -7.63500 26.83800
H  16.83500 -2.36300 22.42400
H  16.29900 0.57400 22.82100
H  18.46800 -0.09200 21.93300
H  18.82500 -1.77000 21.58200
H  19.26600 -0.95400 23.17800
H  13.94300 -1.14700 23.15000
H  15.08200 -1.38000 21.78300
H  13.40600 0.23700 20.91100
H  14.63100 1.37300 21.54000
H  13.13700 0.91700 22.40500
H  13.69100 3.14100 25.29700
H  13.95500 4.07700 26.65400
H  12.39500 3.16800 26.53500
H  14.24000 1.54800 31.48300
H  17.06500 4.35100 33.55600
H  16.47500 3.16700 34.82900
H  15.55800 4.52000 34.46400

