158

Mg 17.39600 52.67100 26.33100
C  19.40400 50.98000 28.59200
C  15.10300 53.19900 29.05300
C  15.03000 54.10300 24.26600
C  19.25900 51.43100 23.66500
N  17.36100 52.18000 28.55000
C  18.42400 51.63100 29.23700
C  18.14400 51.58600 30.76600
C  16.54800 51.86900 30.79600
C  16.31400 52.56800 29.40400
C  15.62000 50.69200 31.03500
C  18.96400 52.66700 31.54000
C  19.13600 52.41500 33.02100
H  17.99500 51.69400 33.66500
N  15.32200 53.58300 26.55800
C  14.67500 53.75800 27.73800
C  13.33100 54.24500 27.39500
C  13.32400 54.66300 26.07800
C  14.57500 54.08800 25.56300
C  12.26400 54.24500 28.41000
C  12.23400 55.36900 25.23400
O  12.30100 55.63200 24.06400
C  10.97100 55.73300 25.99400
N  17.16100 52.81600 24.29400
C  16.21800 53.55300 23.65800
C  16.37500 53.40300 22.10000
C  17.73700 52.72300 21.98100
C  18.04200 52.19100 23.41500
C  15.21800 52.66800 21.34100
C  18.85400 53.67600 21.24600
C  19.27900 54.85100 22.09200
N  19.09400 51.58400 26.11000
C  19.76900 51.13000 24.95200
C  20.96000 50.38600 25.38400
C  20.86700 50.34900 26.80600
C  19.67800 50.97700 27.20000
C  22.04400 49.85800 24.47300
C  21.53900 49.93500 28.03200
O  22.57100 49.29000 28.04400
C  20.69300 50.35700 29.22100
C  20.35400 49.29600 30.15500
O  19.72300 48.27100 29.91200
O  20.94000 49.56900 31.37200
C  20.66100 48.54000 32.41500
H  14.47400 53.46000 29.90700
H  14.35200 54.63200 23.59400
H  19.74600 50.94800 22.81500
H  18.21700 50.55900 31.12500
H  16.30500 52.62800 31.53900
H  14.88500 50.61300 30.23400
H  15.02700 50.76000 31.94800
H  16.12700 49.74100 30.87700
H  18.56700 53.67400 31.41100
H  19.95100 52.64600 31.07900
H  19.25800 53.35800 33.55400
H  20.01400 51.77400 33.10100
H  11.96100 55.21100 28.81200
H  12.47200 53.64500 29.29600
H  11.42300 53.71200 27.96500
H  11.19900 56.37600 26.84400
H  10.43400 54.81800 26.24600
H  10.40300 56.26800 25.23400
H  16.41900 54.43000 21.73600
H  17.73100 51.83000 21.35500
H  15.52000 51.88100 20.65000
H  14.47200 53.27500 20.82900
H  14.64400 52.22500 22.15500
H  18.50700 53.91600 20.24100
H  19.65900 52.95500 21.09900
H  18.93400 55.71500 21.52300
H  20.35500 54.77400 22.24700
H  18.72300 54.80600 23.02800
H  22.03900 48.79800 24.72500
H  22.98300 50.38300 24.64700
H  21.67700 49.88200 23.44700
H  21.22700 51.11600 29.79300
H  20.85000 47.51500 32.09900
H  19.57800 48.62900 32.50400
H  21.09800 48.65700 33.40700
Mg -1.08100 33.98500 27.32500
C  -3.21300 32.55300 29.73900
C  0.18800 35.99600 29.77500
C  0.38500 35.87200 24.90900
C  -3.15600 32.68300 24.85900
N  -1.28900 34.08000 29.51800
C  -2.15700 33.32400 30.28700
C  -2.15400 33.78500 31.73900
C  -1.08600 34.92000 31.72500
C  -0.71100 35.02400 30.28500
C  -1.57700 36.27900 32.24900
C  -1.74000 32.50200 32.61700
C  -2.60400 32.35000 33.86400
H  -1.97900 32.13300 35.25900
N  0.15800 35.59600 27.33400
C  0.65400 36.22300 28.40900
C  1.78800 37.03800 27.97200
C  1.77700 37.11700 26.56800
C  0.74100 36.20400 26.21400
C  2.69200 37.63800 28.99300
C  2.65600 37.95300 25.62300
O  2.50700 38.06800 24.36300
C  3.80200 38.70400 26.21200
N  -1.61600 34.52400 25.11500
C  -0.61800 35.08000 24.38200
C  -0.91600 34.95100 22.87500
C  -2.09800 33.96300 22.85100
C  -2.33200 33.68300 24.34000
C  -1.35800 36.26900 22.07400
C  -1.93000 32.61700 22.04100
C  -1.35500 31.36800 22.69900
N  -2.59900 32.59500 27.28400
C  -3.36200 32.22300 26.19800
C  -4.42100 31.32900 26.63000
C  -4.39000 31.36600 28.02200
C  -3.30700 32.23400 28.34700
C  -5.30900 30.54600 25.70300
C  -5.01100 30.93200 29.29300
O  -5.97700 30.21200 29.54900
C  -4.25400 31.67500 30.48900
C  -5.21200 32.49700 31.25100
O  -5.89500 33.31400 30.69700
O  -5.42500 32.09800 32.58600
C  -6.58500 32.74800 33.16800
H  0.65900 36.55600 30.58600
H  1.18400 36.14100 24.21500
H  -3.73600 32.23800 24.04800
H  -3.09800 34.13800 32.15400
H  -0.27100 34.84000 32.44500
H  -0.79700 36.84400 32.75800
H  -2.43500 36.26300 32.92200
H  -1.83900 36.92000 31.40700
H  -0.69500 32.58100 32.91900
H  -1.72900 31.60800 31.99300
H  -3.11400 31.41300 33.64200
H  -3.45100 33.03500 33.89800
H  3.68700 37.70900 28.55400
H  2.84600 37.09500 29.92500
H  2.39800 38.64000 29.30600
H  4.47900 37.96400 26.63900
H  3.31100 39.34300 26.94500
H  4.30300 39.36800 25.50800
H  0.00500 34.55000 22.45000
H  -3.00800 34.43100 22.47700
H  -0.49900 36.56100 21.46900
H  -1.47700 36.98500 22.88700
H  -2.29700 36.16700 21.52900
H  -1.30500 33.00800 21.23800
H  -2.92000 32.44100 21.62200
H  -2.20000 30.73700 22.97300
H  -0.65600 31.83200 23.39500
H  -0.69800 30.85000 22.00100
H  -4.67400 29.99100 25.01200
H  -6.03900 31.14800 25.16300
H  -5.83000 29.69800 26.14800
H  -3.79900 30.86400 31.05700
H  -6.47000 33.82100 33.02000
H  -6.66500 32.39900 34.19700
H  -7.56800 32.44300 32.80700

