158

Mg 25.20400 0.94700 29.79900
C  27.15900 0.70400 32.63300
C  22.46200 1.09900 31.96000
C  23.19500 0.62300 27.15800
C  28.07000 0.35200 27.77100
N  24.89800 1.03600 31.99100
C  25.88100 1.03400 32.98900
C  25.33100 1.24100 34.38800
C  23.84400 1.29800 34.15000
C  23.70800 1.09200 32.58000
C  22.83400 0.37600 34.96900
C  26.06300 2.27800 35.26200
C  26.56100 1.73400 36.63200
H  26.52300 2.62200 37.92000
N  23.08900 0.77200 29.56700
C  22.17500 0.96800 30.59900
C  20.85000 0.96700 29.95500
C  21.02200 0.74100 28.54300
C  22.49900 0.65600 28.33700
C  19.58200 1.13700 30.77900
C  19.94000 0.56500 27.48900
O  20.18100 0.26200 26.31300
C  18.50400 0.95900 27.81000
N  25.71200 0.75400 27.68900
C  24.62600 0.65900 26.87800
C  25.13100 0.44500 25.41600
C  26.68700 0.27800 25.56700
C  26.87800 0.60300 27.05500
C  24.40700 -0.71700 24.68700
C  27.63900 1.29300 24.73000
C  28.21500 0.83600 23.40900
N  27.15500 0.52400 30.11900
C  28.21600 0.34800 29.21300
C  29.39800 0.09900 29.98800
C  29.02700 0.22500 31.32600
C  27.65400 0.50900 31.33900
C  30.76000 -0.22100 29.45400
C  29.57700 0.25600 32.58600
O  30.72700 0.01300 32.95000
C  28.30300 0.39400 33.56400
C  28.23600 -0.94300 34.31200
O  27.77900 -1.99100 33.83200
O  28.59800 -0.79600 35.61400
C  28.49000 -1.85600 36.59100
H  21.65200 1.22100 32.68200
H  22.50800 0.50200 26.31800
H  28.91100 0.02800 27.15500
H  25.33000 0.30300 34.94400
H  23.43500 2.26000 34.46000
H  22.10200 1.00500 35.47600
H  23.32700 -0.25500 35.70900
H  22.40900 -0.40100 34.33300
H  25.43000 3.14800 35.43400
H  26.97800 2.53300 34.72700
H  27.59800 1.50200 36.38800
H  26.02600 0.80100 36.81100
H  18.97700 0.24700 30.60500
H  19.04900 2.07400 30.62000
H  19.63100 1.10800 31.86700
H  18.00900 0.35800 28.57300
H  17.93600 0.84200 26.88800
H  18.56200 2.00900 28.09800
H  24.88000 1.37500 24.90500
H  26.98600 -0.75900 25.41600
H  23.68500 -1.13800 25.38700
H  25.09300 -1.54200 24.49300
H  23.85200 -0.36300 23.81800
H  28.48100 1.65600 25.31900
H  27.15100 2.26400 24.64100
H  27.79100 -0.11100 23.07600
H  29.25600 0.51300 23.40000
H  28.07200 1.55500 22.60300
H  31.13000 -0.90600 30.21700
H  31.43300 0.63600 29.42800
H  30.75400 -0.80000 28.53000
H  28.44900 1.16200 34.32300
H  28.66000 -2.81900 36.10800
H  27.44800 -1.86500 36.91200
H  29.18900 -1.74700 37.42000
Mg 48.24800 35.16000 28.24200
C  46.49100 33.53000 30.74000
C  48.80500 37.67600 30.40900
C  49.49000 37.07000 25.70600
C  47.33600 32.81100 25.92500
N  47.75700 35.49000 30.35800
C  47.05500 34.70700 31.24900
C  47.14800 35.24000 32.63900
C  47.55400 36.69800 32.51500
C  48.08500 36.70300 31.03100
C  46.48000 37.73400 32.67600
C  48.25400 34.45500 33.41400
C  48.06100 34.26200 34.93900
H  47.04800 35.12400 35.75100
N  49.16400 37.04200 28.10900
C  49.36600 37.84800 29.17300
C  50.08900 39.01700 28.82600
C  50.02300 39.01300 27.39900
C  49.53100 37.70100 26.99000
C  50.54300 40.01300 29.75600
C  50.42300 40.12200 26.41900
O  50.53900 39.94700 25.19400
C  50.93900 41.47300 26.83600
N  48.37200 34.97200 26.07000
C  48.98900 35.85600 25.24800
C  49.12200 35.31500 23.81400
C  48.40900 33.95600 23.86700
C  48.00700 33.88600 25.35900
C  48.38700 36.29000 22.86700
C  49.28000 32.81800 23.41500
C  48.72000 31.75100 22.52400
N  47.22300 33.46600 28.30500
C  46.86800 32.60300 27.24100
C  46.15500 31.48400 27.84900
C  45.92800 31.80400 29.20200
C  46.52700 33.05400 29.41700
C  45.82600 30.18600 27.08200
C  45.26400 31.39000 30.40000
O  44.64500 30.38300 30.56700
C  45.46200 32.60700 31.41100
C  45.83000 32.08400 32.70200
O  46.90000 31.46500 32.87400
O  44.89200 32.31600 33.61900
C  45.16100 31.90200 34.99800
H  48.96500 38.48600 31.12300
H  49.88500 37.69000 24.89900
H  47.12600 32.02100 25.20100
H  46.23500 35.05400 33.20300
H  48.43000 36.98100 33.09900
H  46.83600 38.66000 33.12800
H  45.84600 37.38300 33.48900
H  45.99400 37.86600 31.70900
H  49.21800 34.96300 33.41000
H  48.36200 33.44000 33.03100
H  49.04800 34.27000 35.40100
H  47.83500 33.19700 34.98900
H  50.74000 39.62500 30.75600
H  49.68500 40.67300 29.88400
H  51.33600 40.63400 29.33900
H  50.42600 41.72300 27.76500
H  50.80400 42.21800 26.05200
H  51.97400 41.51300 27.17500
H  50.20600 35.42900 23.79200
H  47.43800 34.04500 23.38200
H  47.34800 36.51900 23.10500
H  48.46400 35.90200 21.85100
H  48.91800 37.24200 22.87400
H  49.64300 32.43800 24.37000
H  50.24000 33.22100 23.09100
H  49.40300 31.78300 21.67500
H  47.67300 31.92500 22.27400
H  48.73600 30.70800 22.84000
H  45.88400 30.49000 26.03600
H  44.83600 29.84400 27.38500
H  46.60600 29.49300 27.39800
H  44.46600 33.05100 31.43500
H  44.21500 31.61600 35.45700
H  45.54800 32.71800 35.60800
H  45.76200 30.99500 34.92500

