158

Mg 34.88100 3.68500 30.38300
C  32.76200 4.80500 32.91700
C  37.47000 3.87200 32.72200
C  37.02800 2.98200 28.03200
C  32.35500 4.02300 28.06700
N  34.98700 4.17800 32.56500
C  34.03100 4.57800 33.40200
C  34.47500 4.60400 34.81400
C  36.04900 4.58600 34.72300
C  36.18200 4.24500 33.24800
C  36.74700 5.90400 35.09400
C  33.88100 3.40000 35.56200
C  33.74500 3.51200 37.09400
H  34.32400 4.61900 37.94100
N  36.88700 3.24500 30.39600
C  37.74300 3.35600 31.44700
C  39.03400 2.82900 31.04700
C  38.96500 2.46800 29.68100
C  37.58900 2.94600 29.27600
C  40.30300 2.72800 31.91900
C  39.92300 1.71100 28.78500
O  39.62800 1.44700 27.60800
C  41.35300 1.46500 29.16200
N  34.71800 3.79100 28.34500
C  35.81900 3.42500 27.60600
C  35.46000 3.55700 26.05800
C  33.91600 3.66000 26.13400
C  33.61300 3.78800 27.59600
C  36.05600 4.83000 25.32200
C  33.23100 2.45100 25.39600
C  32.90600 1.18300 26.22600
N  32.92300 4.36500 30.45300
C  31.94400 4.38300 29.45300
C  30.59100 4.73200 30.05700
C  30.88500 4.93200 31.44200
C  32.31800 4.75300 31.62200
C  29.37100 4.96300 29.33200
C  30.35100 5.35000 32.67500
O  29.26700 5.72300 33.02600
C  31.48400 5.18500 33.69800
C  31.69900 6.38500 34.58400
O  32.39500 7.34500 34.32600
O  30.99600 6.22600 35.77600
C  30.75000 7.38600 36.60300
H  38.23300 4.10800 33.46800
H  37.71800 2.88100 27.19200
H  31.64100 4.18500 27.25600
H  34.09100 5.48200 35.33500
H  36.37700 3.79800 35.40100
H  37.24000 5.82400 36.06300
H  35.96400 6.65500 35.19100
H  37.42600 6.22400 34.30300
H  34.54500 2.53800 35.49500
H  32.94100 3.06300 35.12500
H  34.11200 2.59800 37.56100
H  32.67400 3.56000 37.29000
H  40.68600 1.72200 32.09300
H  40.21200 2.98000 32.97600
H  41.01000 3.34300 31.36100
H  41.82800 0.89900 28.36100
H  41.42800 0.79900 30.02100
H  41.85700 2.41700 29.32600
H  35.73400 2.73000 25.40300
H  33.58600 4.59800 25.68800
H  36.40500 5.61400 25.99300
H  35.32900 5.29000 24.65200
H  36.91400 4.42900 24.78300
H  33.84000 2.17100 24.53600
H  32.33000 2.83600 24.92000
H  31.83700 0.97000 26.23900
H  33.31100 1.16300 27.23800
H  33.40100 0.43300 25.60900
H  28.90100 5.70700 29.97600
H  28.74500 4.09500 29.12300
H  29.56300 5.36700 28.33800
H  31.18600 4.36000 34.34500
H  29.81000 7.13000 37.09200
H  30.62900 8.26800 35.97400
H  31.57300 7.52500 37.30300
Mg -11.68700 15.66300 41.35600
C  -8.88000 13.91200 41.09000
C  -10.19600 18.46300 39.98100
C  -14.69500 17.30400 41.29400
C  -13.45700 12.73700 42.48200
N  -9.77200 16.02900 40.56400
C  -8.73000 15.20600 40.57000
C  -7.50400 15.95200 40.07800
C  -7.97100 17.46100 39.84100
C  -9.43700 17.35100 40.19900
C  -7.15100 18.56600 40.58700
C  -7.02000 15.13700 38.84500
C  -5.47800 15.10500 38.64500
H  -5.04100 16.06700 37.56200
N  -12.30900 17.64200 40.76400
C  -11.57900 18.63500 40.18700
C  -12.38100 19.79500 39.84500
C  -13.68300 19.47000 40.26800
C  -13.65300 18.09500 40.82100
C  -11.91400 20.97900 39.02800
C  -14.91100 20.45200 40.11800
O  -14.74100 21.54200 39.58400
C  -16.36500 19.98900 40.46900
N  -13.84900 15.08700 41.73800
C  -14.87300 15.95400 41.71100
C  -16.20400 15.25700 42.08900
C  -15.67700 14.02300 42.91800
C  -14.23000 13.90000 42.30800
C  -17.23700 16.07700 42.82100
C  -16.49500 12.68900 42.83200
C  -17.14800 12.13700 44.10200
N  -11.29600 13.69600 41.56800
C  -12.08700 12.62200 42.09200
C  -11.20000 11.46300 42.11900
C  -9.89500 11.97400 41.84200
C  -10.07500 13.31200 41.41900
C  -11.56600 10.09800 42.55000
C  -8.57900 11.62400 41.83100
O  -7.97800 10.52600 42.05400
C  -7.81300 12.87600 41.28200
C  -6.68500 13.24100 42.13700
O  -6.74900 13.34400 43.32500
O  -5.45300 13.22100 41.35900
C  -4.32800 13.42100 42.35600
H  -9.72500 19.39300 39.65600
H  -15.70100 17.72900 41.27100
H  -13.90900 11.85800 42.94800
H  -6.66900 15.83900 40.77000
H  -7.82400 17.73900 38.79700
H  -7.15000 19.47300 39.98200
H  -6.14900 18.15900 40.72200
H  -7.59600 18.71400 41.57100
H  -7.39900 15.59300 37.93100
H  -7.38400 14.11400 38.74700
H  -5.16600 14.12500 38.28500
H  -4.83200 15.36100 39.48500
H  -12.12900 21.91200 39.54900
H  -12.56400 21.01200 38.15400
H  -10.86000 21.05000 38.75900
H  -17.10200 20.77700 40.31900
H  -16.48800 19.71700 41.51800
H  -16.41200 19.17000 39.75100
H  -16.71500 14.88500 41.20200
H  -15.40000 14.27600 43.94200
H  -18.15000 16.17100 42.23300
H  -16.86200 17.09300 42.94800
H  -17.56100 15.54400 43.71400
H  -15.90400 11.89000 42.38300
H  -17.27400 12.87400 42.09200
H  -16.50200 11.42600 44.61800
H  -18.00900 11.56700 43.75300
H  -17.45600 12.96700 44.73900
H  -10.74600 9.39300 42.68200
H  -12.28900 9.62800 41.88400
H  -12.11400 10.15000 43.49200
H  -7.38500 12.70900 40.29300
H  -3.37400 13.43000 41.82800
H  -4.10300 12.67200 43.11600
H  -4.45000 14.35900 42.89800

