158

Mg 54.07100 24.76100 44.61600
C  51.14800 26.54200 43.95800
C  52.31600 21.90800 43.84100
C  57.00300 23.35200 44.01100
C  55.66700 27.86100 45.26500
N  51.92600 24.26400 43.76800
C  50.91200 25.17200 43.75900
C  49.63500 24.47800 43.43700
C  49.98100 22.92700 43.69600
C  51.50800 22.97900 43.73200
C  49.25400 22.47000 45.00800
C  49.05600 24.67100 42.01200
C  50.02600 24.87100 40.79300
H  49.40900 25.08100 39.42700
N  54.56600 22.83500 44.00500
C  53.71900 21.75300 43.90300
C  54.43800 20.55200 43.84600
C  55.81600 20.98000 43.87700
C  55.89200 22.43900 43.95800
C  53.90800 19.22300 43.70600
C  56.91000 19.94800 43.89500
O  56.69500 18.76600 43.88100
C  58.34700 20.44900 43.96000
N  55.99500 25.55400 44.55100
C  57.07900 24.72500 44.32000
C  58.44000 25.43700 44.52400
C  57.98500 26.85000 44.93400
C  56.46600 26.81000 44.83300
C  59.43800 24.74400 45.52800
C  58.72300 27.98300 43.98900
C  57.95200 28.34300 42.75100
N  53.55500 26.82700 44.77600
C  54.24100 27.93500 45.14300
C  53.30500 29.02200 45.48200
C  52.09500 28.55100 44.86400
C  52.32400 27.20100 44.36000
C  53.64400 30.29100 46.22000
C  50.72200 28.92400 44.60100
O  50.05500 29.94900 44.72500
C  50.14100 27.62500 43.94700
C  49.60300 27.89400 42.63200
O  50.28400 28.09800 41.59200
O  48.23900 28.11700 42.71700
C  47.57700 28.26200 41.41300
H  51.69600 21.01200 43.90400
H  57.94300 22.80300 44.10300
H  56.20500 28.73100 45.64700
H  48.87600 24.77500 44.16100
H  49.52800 22.32800 42.90600
H  48.80800 23.24500 45.63200
H  50.07100 21.93200 45.48800
H  48.50500 21.68100 44.94000
H  48.32300 25.47400 42.09000
H  48.56400 23.72500 41.78600
H  50.63800 23.97000 40.80600
H  50.72500 25.69000 40.96100
H  54.21100 18.69700 44.61100
H  54.35800 18.64400 42.90000
H  52.84100 19.32500 43.50600
H  58.53000 21.13100 43.13000
H  58.97400 19.58100 43.75600
H  58.64000 20.93500 44.89100
H  58.75700 25.28900 43.49200
H  58.09500 27.00300 46.00800
H  60.35700 24.38800 45.06200
H  58.96300 23.89900 46.02600
H  59.72100 25.46900 46.29000
H  59.64800 27.44900 43.77300
H  58.89700 28.84300 44.63500
H  58.66900 28.26200 41.93300
H  57.70500 29.39300 42.90600
H  57.03900 27.77200 42.58000
H  54.68600 30.33500 46.53500
H  53.08000 30.28700 47.15300
H  53.42300 31.13900 45.57100
H  49.35600 27.25600 44.60700
H  47.80100 29.24400 40.99700
H  46.49600 28.25700 41.55800
H  47.78600 27.45400 40.71200
Mg 15.66500 51.93800 24.67100
C  17.40300 50.70600 27.48300
C  12.95000 52.37500 26.78400
C  14.04300 52.51800 21.98800
C  18.53600 51.00200 22.72300
N  15.21200 51.65900 26.88200
C  16.11600 51.17000 27.78900
C  15.66700 51.44400 29.22300
C  14.16000 51.88200 29.03100
C  14.05400 51.97900 27.51100
C  13.10800 50.92000 29.74900
C  16.48900 52.40200 30.08000
C  16.97700 51.97800 31.50600
H  16.09700 51.08700 32.31500
N  13.69400 52.51900 24.42000
C  12.70400 52.56200 25.35800
C  11.53800 52.98800 24.71500
C  11.83400 53.01900 23.27900
C  13.21500 52.67400 23.17600
C  10.26300 53.34000 25.44600
C  10.98300 53.47400 22.13800
O  11.39800 53.63600 21.01400
C  9.63200 53.78900 22.40800
N  16.27800 51.75400 22.58000
C  15.39400 52.22400 21.69400
C  16.05200 52.32200 20.26100
C  17.57500 52.03800 20.53200
C  17.54500 51.70000 22.05000
C  15.45100 51.39300 19.19600
C  18.58500 53.21400 20.19700
C  19.80700 52.75700 19.32200
N  17.54900 51.08100 24.96100
C  18.50800 50.74100 24.06800
C  19.58000 50.17200 24.81100
C  19.19300 50.12800 26.17900
C  17.92700 50.70600 26.19700
C  20.85000 49.71200 24.23600
C  19.59800 49.82200 27.52300
O  20.65200 49.26600 27.85600
C  18.42500 50.23900 28.52000
C  18.02600 48.97400 29.25100
O  17.53800 47.96200 28.82200
O  18.39600 49.15400 30.52500
C  18.54700 47.91400 31.32600
H  12.07600 52.57300 27.40900
H  13.50100 52.61500 21.04500
H  19.46600 50.75500 22.20700
H  15.80200 50.48100 29.71400
H  13.92300 52.87100 29.42300
H  13.67100 50.20900 30.35500
H  12.47800 50.38500 29.03800
H  12.42500 51.41600 30.43900
H  15.79700 53.23600 30.19700
H  17.36000 52.76000 29.53000
H  17.24700 52.84200 32.11400
H  17.91800 51.42800 31.48700
H  9.75300 54.22300 25.05800
H  10.59500 53.53300 26.46600
H  9.54100 52.52300 25.43900
H  9.08000 53.85500 21.47100
H  9.76100 54.83500 22.68500
H  8.99000 53.30100 23.14300
H  15.88700 53.36000 19.96900
H  17.93000 51.10800 20.08600
H  14.79100 50.56800 19.46400
H  16.21500 50.92300 18.57600
H  14.82300 52.05100 18.59700
H  18.90300 53.56000 21.18000
H  18.03400 53.96900 19.63500
H  19.88300 53.49900 18.52700
H  19.53900 51.79200 18.89100
H  20.74400 52.73800 19.87900
H  20.53700 48.73500 23.86700
H  21.70500 49.79700 24.90800
H  21.05100 50.34000 23.36800
H  18.81000 51.04000 29.15200
H  19.16800 47.23400 30.74300
H  17.60200 47.40900 31.52700
H  19.12600 48.13900 32.22200

