158

Mg 24.59800 -5.31600 45.48400
C  26.90600 -3.13200 43.84200
C  22.21700 -4.30900 43.43200
C  22.83900 -7.94100 46.50300
C  27.52300 -6.62200 47.27800
N  24.66000 -3.92400 43.79500
C  25.59000 -3.06300 43.34900
C  25.06300 -2.09600 42.25500
C  23.51200 -2.27000 42.52600
C  23.42300 -3.57800 43.32100
C  22.90400 -1.10000 43.26400
C  25.72600 -2.73000 40.91400
C  26.44200 -1.73000 40.01800
H  26.17000 -1.99400 38.50600
N  22.72900 -6.08200 44.90600
C  21.88200 -5.52200 44.08300
C  20.63000 -6.25300 44.10200
C  20.76700 -7.28600 45.12100
C  22.10200 -7.06700 45.62400
C  19.44900 -5.97400 43.10100
C  19.73700 -8.40300 45.47000
O  18.64400 -8.44300 44.89300
C  19.89200 -9.29400 46.72600
N  25.12200 -7.08500 46.69600
C  24.10400 -7.89800 47.06100
C  24.76200 -9.07300 47.87400
C  26.16300 -8.53700 48.35400
C  26.30400 -7.39500 47.41600
C  23.85800 -9.69200 48.92500
C  27.27300 -9.59500 48.20100
C  28.37600 -9.70000 49.28900
N  26.76100 -4.86100 45.74000
C  27.76900 -5.50400 46.40200
C  29.04700 -4.86100 46.18700
C  28.75500 -3.84000 45.28000
C  27.36300 -3.96900 44.92800
C  30.33800 -5.17100 46.88900
C  29.34200 -2.77600 44.48600
O  30.49700 -2.34400 44.39800
C  28.16500 -2.33000 43.43300
C  27.92900 -0.85800 43.55700
O  27.08400 -0.32500 44.25300
O  28.64000 -0.25600 42.53100
C  28.24800 1.15900 42.34100
H  21.36800 -3.84400 42.92700
H  22.40200 -8.92700 46.67600
H  28.30200 -7.11900 47.86000
H  25.37300 -1.08200 42.51000
H  22.98600 -2.45600 41.59000
H  21.90500 -0.93300 42.86300
H  23.42800 -0.15300 43.13500
H  22.87100 -1.13000 44.35300
H  24.92600 -3.14900 40.30200
H  26.40600 -3.55800 41.11100
H  27.50900 -1.91200 40.14800
H  26.18700 -0.72600 40.35700
H  18.47700 -6.25000 43.51000
H  19.69300 -6.44400 42.14800
H  19.28700 -4.92500 42.85000
H  20.46300 -8.68400 47.42500
H  20.28100 -10.27500 46.45400
H  18.89800 -9.32200 47.17400
H  24.97600 -9.75800 47.05400
H  26.09500 -8.17700 49.38100
H  22.90800 -9.17200 48.80300
H  24.23800 -9.71500 49.94600
H  23.74900 -10.69500 48.51200
H  27.77900 -9.42800 47.25000
H  26.85400 -10.60200 48.19600
H  28.46200 -10.72100 49.66000
H  28.13900 -9.04800 50.13000
H  29.32400 -9.21900 49.04700
H  30.14400 -5.13400 47.96100
H  31.07200 -4.40500 46.64100
H  30.58300 -6.19600 46.60800
H  28.60400 -2.57000 42.46500
H  27.29300 1.45400 42.77500
H  28.09500 1.41600 41.29200
H  28.98800 1.89000 42.66800
Mg 36.27100 2.51400 30.12500
C  33.86900 3.46000 32.68400
C  38.68000 2.77100 32.40100
C  38.46400 1.92900 27.62200
C  33.54500 2.87200 27.88000
N  36.15000 2.92000 32.35500
C  35.16700 3.20200 33.18900
C  35.54100 3.06300 34.58600
C  37.08700 3.14200 34.50600
C  37.35300 2.94500 32.96200
C  37.82400 4.37600 35.10100
C  34.90200 1.78900 35.22200
C  34.57600 1.84200 36.68700
H  35.05100 3.00400 37.52100
N  38.24500 2.21800 30.08600
C  39.09700 2.36900 31.12500
C  40.38100 1.93400 30.78600
C  40.35600 1.66200 29.34300
C  38.96300 1.97400 28.93100
C  41.50500 1.70000 31.73200
C  41.52000 1.24500 28.37400
O  41.26800 0.84400 27.23800
C  42.88200 1.19700 28.89100
N  35.99600 2.19700 27.99900
C  37.04700 1.95500 27.17100
C  36.54400 1.70100 25.83500
C  34.93800 2.07500 25.86800
C  34.80100 2.40500 27.32100
C  37.40600 2.36800 24.82000
C  33.93300 0.99800 25.54300
C  32.74900 1.46700 24.71300
N  34.18000 3.14900 30.16000
C  33.26400 3.22600 29.17200
C  31.97000 3.77200 29.66900
C  32.19000 3.85400 31.05300
C  33.49500 3.45200 31.30200
C  30.66900 3.87800 28.94400
C  31.56300 4.06100 32.41300
O  30.42200 4.39800 32.64000
C  32.67200 3.78200 33.45400
C  32.75000 4.90000 34.39000
O  33.17300 5.99100 34.04200
O  32.29600 4.56100 35.63400
C  31.81600 5.65000 36.44300
H  39.48800 2.92500 33.12000
H  39.20900 1.94900 26.82400
H  32.67700 2.99900 27.23100
H  35.22200 3.96700 35.10500
H  37.49900 2.28500 35.03800
H  37.15300 5.23500 35.13700
H  38.74100 4.64300 34.57500
H  38.16000 4.17900 36.11900
H  35.68000 1.03300 35.11600
H  34.04300 1.43200 34.65400
H  34.98100 0.93200 37.12900
H  33.53600 1.61300 36.91900
H  42.39000 2.28800 31.49200
H  41.72300 0.63400 31.80000
H  41.29700 2.00500 32.75800
H  42.94900 0.77300 29.89300
H  43.29000 2.19600 29.04500
H  43.47200 0.68200 28.13200
H  36.68100 0.62500 25.73300
H  34.82100 2.94900 25.22700
H  36.94200 3.11000 24.17100
H  37.87000 1.55400 24.26300
H  38.15400 3.01000 25.28500
H  33.58600 0.54200 26.47100
H  34.41900 0.22900 24.94300
H  32.95800 2.29400 24.03500
H  31.89200 1.71400 25.34000
H  32.56200 0.64300 24.02500
H  29.99500 4.45300 29.58000
H  30.31900 2.88000 28.68100
H  30.91200 4.55300 28.12400
H  32.38100 2.87900 33.99200
H  32.67700 5.98000 37.02400
H  30.96500 5.29700 37.02500
H  31.51500 6.54800 35.90300

