158

Mg 0.18300 8.10000 25.65800
C  1.03700 9.79200 28.70800
C  0.13800 5.24000 27.44400
C  0.00600 6.45700 22.74100
C  1.06400 11.09400 23.92600
N  0.57000 7.53000 27.73600
C  0.74000 8.40500 28.86700
C  0.82300 7.69700 30.29800
C  0.58600 6.21000 29.86600
C  0.37300 6.31700 28.27900
C  1.73400 5.26100 30.25700
C  -0.24600 8.10100 31.37500
C  0.21800 8.13300 32.85400
H  1.30200 7.18600 33.37700
N  0.00100 6.11100 25.16300
C  0.11000 5.08800 26.01100
C  0.23300 3.83900 25.28800
C  0.11200 4.12900 23.92600
C  0.03600 5.63600 23.90900
C  0.28600 2.50700 26.03600
C  -0.06500 3.22400 22.73700
O  -0.26500 3.59600 21.57800
C  0.18900 1.75900 23.04300
N  0.51200 8.65800 23.59600
C  0.08700 7.84300 22.64000
C  0.18300 8.57800 21.23400
C  0.32200 10.08200 21.66300
C  0.70900 9.94600 23.13700
C  1.33800 8.06800 20.30900
C  -0.96400 10.90900 21.45700
C  -2.38800 10.38500 22.01300
N  0.77800 10.08500 26.14000
C  1.18000 11.15200 25.32500
C  1.41200 12.31600 26.13400
C  1.45400 11.79200 27.42900
C  1.06400 10.42000 27.38900
C  1.65600 13.65400 25.67500
C  1.74900 12.21300 28.83400
O  2.11800 13.25900 29.32800
C  1.50100 10.85800 29.70300
C  2.65500 10.54400 30.54600
O  3.50600 9.74000 30.28800
O  2.45400 11.27500 31.71800
C  3.29700 11.01800 32.86700
H  0.02900 4.24500 27.88000
H  -0.16900 5.92100 21.80600
H  1.13800 12.03900 23.38400
H  1.81400 7.97200 30.66100
H  -0.30500 5.69300 30.22300
H  2.63500 5.69800 30.69000
H  1.93700 4.65300 29.37600
H  1.41600 4.53300 31.00300
H  -1.15100 7.50300 31.27100
H  -0.47100 9.10800 31.02500
H  -0.75400 7.85200 33.25800
H  0.36000 9.15400 33.20700
H  1.06000 1.89200 25.57600
H  -0.69000 2.02500 25.97800
H  0.49700 2.63400 27.09800
H  0.09300 1.26500 22.07700
H  -0.48500 1.38100 23.81200
H  1.19200 1.90800 23.44400
H  -0.72900 8.41700 20.66100
H  1.09100 10.51300 21.02200
H  1.43400 7.01400 20.57100
H  2.24900 8.66500 20.33500
H  1.09000 8.11800 19.24800
H  -1.05600 11.01800 20.37700
H  -0.75200 11.88100 21.90300
H  -3.00900 10.25600 21.12600
H  -2.77100 11.20000 22.62700
H  -2.22600 9.45000 22.54900
H  2.17000 13.69300 24.71500
H  2.28700 14.13500 26.42300
H  0.64700 14.06100 25.72600
H  0.62300 10.97600 30.33900
H  2.79900 10.19600 33.38300
H  3.32100 11.89300 33.51600
H  4.31100 10.66800 32.67700
Mg 0.62900 42.44300 25.39600
C  2.26800 42.80900 28.61200
C  -2.23400 41.54000 26.98400
C  -0.58400 41.79700 22.34500
C  3.82100 42.86800 24.03600
N  0.12600 42.34000 27.48900
C  0.81700 42.62600 28.66700
C  -0.05700 42.52000 29.92000
C  -1.43500 42.00700 29.36800
C  -1.16200 41.99600 27.84700
C  -1.83500 40.59300 29.95800
C  0.01400 43.93600 30.68500
C  0.51100 43.82100 32.16700
H  0.41100 42.40100 32.90200
N  -1.22500 41.76100 24.69000
C  -2.24800 41.36800 25.51500
C  -3.33900 40.95900 24.66800
C  -2.88900 41.02000 23.31200
C  -1.48300 41.57000 23.37700
C  -4.69400 40.62100 25.35100
C  -3.59900 40.66000 21.95200
O  -3.07700 40.67100 20.80400
C  -4.98500 40.13500 22.16000
N  1.47800 42.38500 23.49100
C  0.73400 42.20500 22.37600
C  1.58300 42.21400 21.11000
C  2.95100 42.69800 21.65400
C  2.74000 42.67800 23.17200
C  1.68800 40.77200 20.45200
C  3.32900 44.11000 21.04700
C  3.37300 45.41000 21.86800
N  2.64300 42.77800 26.11300
C  3.81900 42.84400 25.42000
C  4.91500 42.97500 26.31500
C  4.32400 43.05000 27.58600
C  2.97800 42.80800 27.44200
C  6.34000 43.18100 25.91800
C  4.58100 43.27900 28.94100
O  5.61900 43.57400 29.51300
C  3.24500 43.02800 29.72600
C  3.41800 41.84200 30.62000
O  3.13600 40.68100 30.44200
O  3.99800 42.40700 31.70700
C  4.49000 41.43800 32.78200
H  -3.14500 41.34500 27.55300
H  -0.98800 41.63800 21.34300
H  4.77700 42.88400 23.50700
H  0.39200 41.76600 30.56600
H  -2.28900 42.65300 29.57300
H  -1.62700 40.48700 31.02300
H  -1.37900 39.74800 29.44200
H  -2.91900 40.52700 29.87100
H  -0.97800 44.38600 30.71900
H  0.75300 44.61200 30.25500
H  -0.13100 44.45500 32.77900
H  1.51000 44.25500 32.12200
H  -4.56600 40.62800 26.43300
H  -5.03200 39.59800 25.18600
H  -5.53400 41.24300 25.04000
H  -5.67000 40.72300 22.77100
H  -5.07700 39.23300 22.76500
H  -5.49000 39.90400 21.22100
H  1.10400 42.91900 20.43100
H  3.74800 41.95800 21.57900
H  1.43500 40.03800 21.21700
H  2.69700 40.70100 20.04600
H  0.87700 40.67500 19.73000
H  2.84800 44.25700 20.07900
H  4.38800 43.97200 20.83000
H  4.07600 45.35100 22.69900
H  2.37700 45.61300 22.26200
H  3.69000 46.24800 21.24700
H  6.50000 44.19200 25.54500
H  6.72500 42.47400 25.18300
H  6.96500 43.09100 26.80600
H  3.24000 43.96300 30.28500
H  5.53700 41.63200 33.01400
H  4.39700 40.35600 32.69200
H  3.97700 41.76200 33.68800

