158

Mg 24.11600 -6.84600 45.76900
C  26.44100 -4.54400 44.40900
C  21.83700 -5.86800 43.59900
C  22.58500 -9.84900 46.36600
C  27.10000 -8.29900 47.38500
N  24.20300 -5.40500 44.15300
C  25.20000 -4.51500 43.78200
C  24.76000 -3.53000 42.71100
C  23.21200 -3.78900 42.72500
C  23.05400 -5.10800 43.61600
C  22.15600 -2.70800 43.23400
C  25.48800 -3.91100 41.35500
C  25.86700 -2.77500 40.42100
H  25.60500 -2.97100 38.93800
N  22.39300 -7.62700 45.07400
C  21.52400 -7.05000 44.24400
C  20.41600 -7.88800 43.98700
C  20.54800 -9.07200 44.81000
C  21.90200 -8.91800 45.44200
C  19.27900 -7.57900 43.10900
C  19.58900 -10.31900 44.84500
O  18.56200 -10.25700 44.21400
C  19.73800 -11.60100 45.63800
N  24.72300 -8.71800 46.75200
C  23.86700 -9.79700 46.96300
C  24.43900 -10.83100 47.93800
C  25.88100 -10.39100 48.14300
C  25.94300 -9.02500 47.37300
C  23.63000 -11.22000 49.20300
C  26.94200 -11.48500 47.75800
C  28.05400 -11.73000 48.80100
N  26.32600 -6.52700 45.95700
C  27.36600 -7.11600 46.68900
C  28.68100 -6.43100 46.49500
C  28.32600 -5.35100 45.61000
C  26.89300 -5.47300 45.35100
C  29.99600 -6.84500 47.03500
C  28.89000 -4.28100 44.88400
O  29.99400 -3.82400 44.83900
C  27.74200 -3.68000 43.99600
C  27.50600 -2.21800 44.18000
O  27.55400 -1.32900 43.36000
O  27.37400 -1.89700 45.49600
C  27.17100 -0.43000 45.84700
H  21.13800 -5.52000 42.83700
H  21.90300 -10.62300 46.72400
H  27.94700 -8.76000 47.89800
H  24.88000 -2.46400 42.90100
H  22.79700 -4.16600 41.79000
H  21.56600 -3.05600 44.08200
H  21.55800 -2.53600 42.33900
H  22.62100 -1.76800 43.53200
H  24.78200 -4.52000 40.79000
H  26.35700 -4.54500 41.52700
H  26.93900 -2.59400 40.48800
H  25.32300 -1.89400 40.76100
H  19.09800 -8.38200 42.39500
H  19.41600 -6.63400 42.58400
H  18.50800 -7.48100 43.87300
H  19.59300 -11.42100 46.70300
H  20.77600 -11.85700 45.42600
H  19.07300 -12.41400 45.34600
H  24.34700 -11.72300 47.31900
H  26.05400 -10.14700 49.19100
H  22.98500 -12.07200 48.98600
H  23.05300 -10.36600 49.55800
H  24.24700 -11.58100 50.02500
H  27.51400 -11.08900 46.91800
H  26.43900 -12.36500 47.35700
H  28.25200 -10.77000 49.27800
H  28.97000 -12.05500 48.30900
H  27.73500 -12.49300 49.51100
H  30.05500 -7.92000 46.86500
H  29.89000 -6.71100 48.11200
H  30.83600 -6.26000 46.65900
H  28.01600 -3.84300 42.95400
H  26.09300 -0.27500 45.79700
H  27.64000 0.25000 45.13700
H  27.69100 -0.17200 46.77000
Mg 16.94300 52.28800 26.18400
C  18.79400 50.93200 28.80000
C  14.71000 53.48500 28.47900
C  15.36900 53.99100 23.67900
C  19.30200 51.00800 23.91400
N  16.61200 52.01000 28.35600
C  17.61600 51.60600 29.25300
C  17.35000 52.17200 30.65300
C  15.83300 52.57300 30.57000
C  15.69500 52.67500 29.01500
C  14.78200 51.57900 31.14100
C  18.35200 53.17100 31.28900
C  18.65400 52.88200 32.78500
H  17.70300 52.02600 33.63400
N  15.31800 53.54200 26.13900
C  14.50400 53.92500 27.18300
C  13.43300 54.75800 26.68300
C  13.77600 55.09400 25.28100
C  14.89400 54.22500 24.98500
C  12.52000 55.44900 27.72800
C  13.06600 56.06100 24.29700
O  13.53900 56.26800 23.16300
C  11.86100 56.75800 24.75400
N  17.20900 52.44000 24.03500
C  16.43300 53.18100 23.23000
C  16.92200 53.09700 21.72600
C  18.23300 52.24700 21.85000
C  18.25900 51.79900 23.35500
C  15.83100 52.43800 20.85200
C  19.50700 53.11200 21.54000
C  20.55600 52.52500 20.61900
N  18.57300 51.11900 26.27800
C  19.46000 50.67600 25.31100
C  20.53500 49.92200 25.94700
C  20.36900 50.04300 27.28800
C  19.13700 50.73700 27.47700
C  21.69400 49.29100 25.22200
C  20.93200 49.70300 28.53400
O  21.99900 49.14700 28.80500
C  19.97000 50.34500 29.61200
C  19.40900 49.29300 30.50100
O  18.56600 48.48200 30.14300
O  20.03400 49.30300 31.71200
C  19.65200 48.42800 32.84500
H  14.06400 53.92100 29.24400
H  14.90300 54.56400 22.87500
H  20.11600 50.63000 23.29100
H  17.39100 51.29500 31.29800
H  15.55100 53.50100 31.06700
H  14.00800 51.27400 30.43700
H  14.35600 51.95700 32.07100
H  15.22800 50.61500 31.38700
H  17.87200 54.14800 31.23200
H  19.15600 53.08800 30.55700
H  18.61800 53.83000 33.32200
H  19.68800 52.57100 32.93200
H  11.57200 55.82200 27.34100
H  13.10100 56.26400 28.16000
H  12.13500 54.78100 28.49900
H  12.00200 57.54900 25.49000
H  11.09000 56.04400 25.04600
H  11.41700 57.30000 23.91900
H  17.14900 54.10800 21.38400
H  18.06600 51.36300 21.23400
H  15.47300 53.07100 20.03900
H  15.01500 52.11900 21.50100
H  16.16700 51.46700 20.48700
H  19.90900 53.40500 22.50900
H  19.32600 54.08500 21.08300
H  21.56400 52.74700 20.96900
H  20.42900 52.77700 19.56700
H  20.39300 51.44800 20.57100
H  21.26400 48.53000 24.57100
H  22.33400 48.77000 25.93500
H  22.32200 49.95800 24.63200
H  20.43200 51.17200 30.15100
H  18.75100 47.84800 32.64600
H  19.35600 49.06100 33.68200
H  20.39600 47.71000 33.19000

