158

Mg 8.87500 4.45000 27.61200
C  9.72000 2.74100 30.66100
C  6.71300 6.36500 29.56400
C  7.80900 5.88100 24.83300
C  10.49600 1.92200 25.85100
N  8.15700 4.40100 29.76300
C  8.74500 3.73400 30.86200
C  8.25800 4.27900 32.23000
C  7.10100 5.24500 31.77500
C  7.28200 5.28400 30.23100
C  5.71000 4.77600 32.25300
C  9.38300 4.94700 33.18200
C  9.58200 4.27700 34.55500
H  10.79200 4.61500 35.30300
N  7.58200 6.02200 27.26900
C  6.86500 6.73700 28.19300
C  6.17600 7.81600 27.54700
C  6.47700 7.68500 26.13400
C  7.33500 6.49500 26.04300
C  5.29900 8.85300 28.27400
C  5.91300 8.54600 24.98500
O  6.31400 8.33800 23.80200
C  4.90900 9.64400 25.26400
N  9.09200 3.87300 25.63000
C  8.55900 4.65100 24.62600
C  8.78700 4.05800 23.19000
C  9.53400 2.68400 23.56600
C  9.85400 2.86700 25.10500
C  7.51400 3.91900 22.42300
C  10.77100 2.33900 22.59000
C  10.89600 0.87900 22.24700
N  10.04000 2.83500 28.02900
C  10.57600 1.88100 27.25700
C  11.16000 0.84500 28.03000
C  10.98600 1.26000 29.35300
C  10.19100 2.38900 29.33600
C  11.90000 -0.42100 27.55200
C  11.18800 0.89700 30.72800
O  11.85900 -0.06500 31.16200
C  10.41300 1.93500 31.67500
C  9.67700 1.05100 32.55100
O  8.52200 0.72800 32.34800
O  10.47100 0.84000 33.66700
C  9.87300 0.18900 34.86100
H  6.01400 6.91100 30.20100
H  7.42600 6.26300 23.88500
H  10.97200 1.06800 25.36500
H  7.73400 3.50200 32.78600
H  7.19300 6.27900 32.10800
H  4.98400 4.60000 31.46000
H  5.36400 5.61200 32.86100
H  5.80800 3.94300 32.95000
H  9.30700 6.02700 33.30400
H  10.35100 4.77900 32.70900
H  9.62100 3.20500 34.36400
H  8.69700 4.55800 35.12600
H  5.64100 9.06600 29.28700
H  4.29900 8.44000 28.40700
H  5.24900 9.79600 27.73000
H  4.45300 9.91900 24.31300
H  5.37900 10.49400 25.76000
H  4.09800 9.33800 25.92500
H  9.60500 4.68900 22.84500
H  8.74900 1.92900 23.51900
H  7.36100 2.90300 22.05800
H  7.62800 4.56500 21.55200
H  6.58500 4.23100 22.90000
H  11.73200 2.73300 22.92100
H  10.48300 2.86700 21.68200
H  10.10500 0.20900 22.58400
H  11.76500 0.59800 22.84400
H  11.07900 0.83900 21.17400
H  12.95800 -0.18500 27.66600
H  11.71700 -0.81000 26.55000
H  11.57000 -1.19600 28.24300
H  11.07800 2.53900 32.29400
H  9.25400 -0.66400 34.58300
H  9.27800 0.91500 35.41600
H  10.61700 -0.17500 35.57000
Mg 41.80000 8.86200 29.64500
C  43.62300 10.02800 32.39200
C  39.52800 7.40000 31.76500
C  40.08700 7.82200 27.03700
C  44.19700 10.26900 27.55700
N  41.60500 8.66300 31.84600
C  42.43000 9.31500 32.76600
C  41.94500 8.93800 34.21000
C  40.81300 7.95000 33.94600
C  40.64000 7.94400 32.40400
C  41.13100 6.45200 34.45400
C  41.51300 10.32600 34.93100
C  40.91400 10.11900 36.36000
H  41.15300 11.32900 37.31000
N  40.05100 7.68400 29.37100
C  39.23700 7.25200 30.38000
C  38.12300 6.54800 29.80500
C  38.19900 6.76400 28.37200
C  39.49500 7.39600 28.21900
C  37.07000 5.80100 30.56600
C  37.16000 6.31700 27.30200
O  37.44800 6.39600 26.11600
C  35.71700 5.70200 27.65400
N  42.12700 9.05900 27.51800
C  41.22300 8.54100 26.64200
C  41.78600 8.67100 25.18100
C  42.90900 9.71600 25.37700
C  43.08100 9.82400 26.92200
C  42.33500 7.37100 24.63300
C  42.61100 11.10400 24.69000
C  41.33200 11.77600 25.03400
N  43.58700 9.92100 29.87200
C  44.48100 10.45200 28.89600
C  45.56200 11.20800 29.56000
C  45.26700 10.93700 30.93400
C  44.11200 10.17200 31.10200
C  46.72900 11.96600 29.00300
C  45.79300 11.19700 32.30700
O  46.84400 11.74100 32.73600
C  44.62800 10.68100 33.28200
C  45.27300 9.66500 34.15800
O  45.97400 8.70700 33.81700
O  44.79700 9.84100 35.50100
C  45.20000 8.87600 36.50700
H  38.89400 6.98700 32.55300
H  39.51900 7.47000 26.17300
H  44.97500 10.64800 26.89100
H  42.70600 8.50800 34.86000
H  39.87900 8.11600 34.48300
H  41.17700 5.75800 33.61400
H  40.41300 6.04900 35.16900
H  42.06000 6.40100 35.02200
H  40.80900 10.91200 34.34100
H  42.32400 11.03000 35.11900
H  41.14200 9.18600 36.87500
H  39.83500 10.09200 36.20800
H  37.33900 5.85000 31.62100
H  37.02200 4.78400 30.17800
H  36.07100 6.19100 30.37300
H  35.78600 4.85200 28.33300
H  35.28100 5.43100 26.69200
H  35.24700 6.60000 28.05500
H  41.01600 9.14200 24.57100
H  43.83600 9.37700 24.91600
H  42.12200 6.57300 25.34400
H  43.37000 7.34400 24.29200
H  41.78100 7.13400 23.72400
H  42.64600 10.90300 23.61900
H  43.48000 11.71600 24.92900
H  41.48800 12.79700 25.38200
H  40.94200 11.24900 25.90500
H  40.57400 11.73700 24.25200
H  47.64300 11.38400 29.12000
H  46.78400 12.91800 29.53100
H  46.37600 12.23000 28.00600
H  44.21600 11.50500 33.86400
H  46.05800 8.24100 36.28500
H  44.35000 8.20300 36.62600
H  45.38400 9.60000 37.30000

