158

Mg 49.22000 46.10200 43.72800
C  45.78400 46.63900 42.87100
C  48.94400 43.03500 42.13200
C  52.48000 45.98400 43.82300
C  49.32500 49.55100 44.66900
N  47.64900 45.05400 42.55400
C  46.30100 45.44300 42.35100
C  45.59900 44.54500 41.33300
C  46.49100 43.31300 41.32800
C  47.77500 43.80800 42.12400
C  45.96400 41.90200 41.75200
C  45.22400 45.27100 39.97700
C  43.80300 44.97700 39.40600
H  43.78600 44.76700 37.87700
N  50.51000 44.62500 43.27500
C  50.22300 43.38900 42.66900
C  51.36800 42.58200 42.51200
C  52.43300 43.44300 42.99100
C  51.87000 44.70900 43.48500
C  51.40300 41.12600 41.97500
C  53.91200 42.98200 42.96300
O  54.29500 41.96900 42.38700
C  54.98000 43.84700 43.60600
N  50.71000 47.58300 44.18400
C  52.00500 47.27500 44.11100
C  52.87900 48.46100 44.36700
C  51.85300 49.47900 44.92600
C  50.55400 48.82100 44.58700
C  54.12700 48.27300 45.16600
C  51.97700 51.03400 44.45200
C  51.72700 52.14900 45.53200
N  47.89500 47.80600 43.77900
C  48.06600 49.04400 44.30800
C  46.78700 49.69900 44.28200
C  45.87000 48.79300 43.77400
C  46.52900 47.68000 43.42900
C  46.54100 51.04100 44.84800
C  44.48300 48.67200 43.38600
O  43.47100 49.39200 43.56500
C  44.41000 47.22100 42.83300
C  43.36300 46.45300 43.56700
O  43.14500 46.59300 44.77400
O  42.75100 45.53100 42.76100
C  41.73000 44.75000 43.37700
H  48.88400 42.11100 41.55300
H  53.55700 45.96200 43.64300
H  49.39900 50.61400 44.90900
H  44.68600 44.14500 41.77500
H  46.92500 43.09500 40.35200
H  46.67100 41.48500 42.46900
H  45.77600 41.16100 40.97500
H  44.96600 42.00100 42.17900
H  45.91800 44.95000 39.19900
H  45.35900 46.33400 40.17400
H  43.19700 45.86600 39.58300
H  43.28400 44.16200 39.90900
H  51.02300 40.52000 42.79700
H  52.36300 40.73900 41.63200
H  50.73400 41.06000 41.11700
H  55.90100 43.26700 43.67400
H  54.75800 44.26300 44.58900
H  55.07300 44.72500 42.96700
H  53.21500 48.98000 43.47000
H  51.93800 49.33900 46.00300
H  54.92600 48.43300 44.44400
H  54.23400 47.28700 45.61900
H  54.22900 49.09100 45.88000
H  51.31100 51.15900 43.59800
H  52.94100 51.12300 43.95200
H  51.06400 52.78600 44.94700
H  52.58400 52.68500 45.94000
H  51.00300 51.80200 46.26900
H  46.66200 51.85300 44.13100
H  47.32600 51.20500 45.58700
H  45.62800 51.09700 45.44100
H  44.03500 47.41400 41.82800
H  42.06700 44.18400 44.24600
H  41.65100 43.90800 42.69000
H  40.76500 45.24800 43.47000
Mg 9.80100 47.96100 26.32400
C  7.86500 47.75900 29.37700
C  12.48100 48.90700 28.08000
C  11.42400 48.44500 23.42800
C  6.83300 47.16100 24.57800
N  10.11200 48.25500 28.56300
C  9.23300 48.16000 29.63100
C  9.96000 48.46200 30.95500
C  11.36200 49.08200 30.49100
C  11.37800 48.68000 28.96100
C  11.47800 50.62500 30.51700
C  10.10400 47.20800 31.91800
C  9.88200 47.38600 33.41100
H  10.17200 46.19400 34.38600
N  11.68300 48.42800 25.82400
C  12.69600 48.77100 26.71400
C  13.93100 48.97700 26.01000
C  13.66200 48.75700 24.61800
C  12.18200 48.54400 24.52100
C  15.21600 49.43600 26.68900
C  14.67500 48.70400 23.43300
O  14.35800 48.57700 22.29000
C  16.06600 48.65900 23.80500
N  9.14800 47.80000 24.25600
C  10.04900 48.07500 23.20900
C  9.36200 47.88300 21.84400
C  7.91900 47.27400 22.27600
C  7.94000 47.38100 23.77400
C  9.15600 49.19600 21.09400
C  7.63900 45.92000 21.66300
C  7.95900 44.86000 22.69100
N  7.89500 47.53100 26.82600
C  6.76100 47.18700 25.96300
C  5.60700 47.06900 26.75300
C  5.97900 47.26900 28.07900
C  7.34800 47.52600 28.06800
C  4.26200 46.57900 26.21800
C  5.42300 47.31200 29.40600
O  4.24500 47.08700 29.85600
C  6.71000 47.42200 30.32500
C  6.80600 46.08000 30.90300
O  7.19300 45.05800 30.29600
O  6.55200 46.05800 32.26000
C  6.95700 44.80500 32.97000
H  13.34600 49.05900 28.73000
H  11.98000 48.71700 22.52800
H  5.94300 46.87300 24.01500
H  9.33300 49.13700 31.53700
H  12.21700 48.68200 31.03500
H  11.44900 51.06900 29.52200
H  12.40300 51.00100 30.95500
H  10.67100 51.12500 31.05300
H  10.97200 46.56700 31.76600
H  9.37700 46.48500 31.54800
H  8.86000 47.69900 33.62400
H  10.43800 48.27600 33.70700
H  14.99700 49.74500 27.71100
H  15.61000 50.28000 26.12400
H  15.98300 48.66400 26.75300
H  16.18200 49.68700 24.14800
H  16.66200 48.48600 22.90800
H  16.10800 47.89900 24.58500
H  9.92500 47.11400 21.31600
H  7.13900 47.94600 21.91800
H  9.48100 50.04800 21.69100
H  8.11000 49.36800 20.83800
H  9.82200 49.12000 20.23500
H  8.19300 45.81100 20.73100
H  6.57600 46.02600 21.44900
H  7.07300 44.66200 23.29600
H  8.80000 45.10200 23.34000
H  8.04700 43.89000 22.20200
H  4.50800 45.69300 25.63200
H  3.73800 47.31700 25.61200
H  3.65800 46.29600 27.08000
H  6.63200 48.26300 31.01400
H  7.94300 44.51500 32.60500
H  6.25600 43.97600 32.87700
H  6.97200 45.05600 34.03100

