158

Mg 50.12000 46.35700 42.83000
C  46.84100 46.91200 41.65800
C  49.85000 43.24300 41.29800
C  53.38400 45.97200 43.38300
C  50.25500 49.75600 43.63100
N  48.41100 45.19700 41.69000
C  47.23900 45.65900 41.34900
C  46.55200 44.68800 40.38700
C  47.45200 43.37300 40.47500
C  48.65600 43.98100 41.19400
C  46.79700 42.19000 41.26500
C  46.42200 45.20500 38.89900
C  45.01100 45.00700 38.27100
H  45.04800 43.76600 37.35100
N  51.46200 44.79100 42.48400
C  51.13200 43.58300 41.90600
C  52.32200 42.90600 41.66900
C  53.38100 43.62700 42.22900
C  52.76700 44.86200 42.74200
C  52.33400 41.63600 40.94100
C  54.90500 43.12600 42.23200
O  55.29300 42.07300 41.79400
C  55.89700 43.89900 42.97500
N  51.54000 47.62400 43.53500
C  52.80300 47.28300 43.60700
C  53.68100 48.50600 44.00200
C  52.63200 49.62800 44.14400
C  51.40100 48.98700 43.68200
C  54.56800 48.29400 45.30100
C  53.08100 50.95800 43.36500
C  53.04500 52.27100 44.09500
N  48.75600 47.99700 42.96200
C  48.98400 49.32100 43.18000
C  47.72300 50.06100 43.00600
C  46.83300 49.20600 42.45600
C  47.54700 47.93800 42.39100
C  47.58700 51.51100 43.26200
C  45.55500 49.07900 41.89100
O  44.66200 49.96300 41.79900
C  45.45000 47.55800 41.36800
C  44.27100 46.97900 42.06200
O  44.36900 46.52700 43.19500
O  43.29500 46.84900 41.18300
C  42.18900 46.05600 41.64600
H  49.67600 42.24300 40.89600
H  54.45400 45.95700 43.60100
H  50.28300 50.84700 43.68700
H  45.56200 44.44800 40.77500
H  47.76700 42.88300 39.55400
H  45.74500 42.09800 40.99300
H  46.77300 42.34500 42.34300
H  47.28400 41.23900 41.05000
H  47.17100 44.72000 38.27400
H  46.67200 46.26600 38.87000
H  44.86600 45.89800 37.66000
H  44.11900 44.85200 38.87900
H  51.87800 40.83500 41.52400
H  53.34100 41.22400 40.88500
H  51.76300 41.70400 40.01500
H  56.72200 43.18700 42.99700
H  55.54400 44.00700 44.00000
H  56.30600 44.74700 42.42500
H  54.25400 48.54900 43.07600
H  52.47700 49.79700 45.21000
H  54.28000 48.58800 46.31100
H  55.38700 48.95500 45.01800
H  54.89300 47.25400 45.30100
H  52.42000 51.04800 42.50300
H  54.09600 50.77600 43.01200
H  52.68100 52.13800 45.11300
H  52.62300 53.11000 43.54300
H  54.10300 52.51900 44.18700
H  48.07900 51.70400 44.21600
H  46.53600 51.79000 43.34100
H  48.06500 52.17400 42.54200
H  45.18700 47.55900 40.31000
H  41.28100 46.58700 41.93100
H  42.47200 45.41200 42.47900
H  41.91600 45.34900 40.86300
Mg 6.78100 55.10300 41.83400
C  4.05700 52.78200 41.67200
C  8.65400 52.64900 40.40000
C  9.08400 57.42000 41.24800
C  4.43100 57.54600 42.82000
N  6.31000 52.93300 40.88300
C  5.14900 52.30400 40.87900
C  5.25200 51.01600 40.01000
C  6.78000 50.85600 39.88500
C  7.33900 52.17200 40.44100
C  7.43500 49.54300 40.58500
C  4.58600 51.12400 38.64500
C  4.00000 49.72100 38.12800
H  4.60100 49.20500 36.78400
N  8.72800 55.02900 41.04900
C  9.34400 53.91500 40.59400
C  10.67100 54.27000 40.14700
C  10.81300 55.64900 40.45300
C  9.51600 56.10200 40.93200
C  11.59500 53.38400 39.45900
C  12.02200 56.43800 40.12700
O  13.11300 55.93800 39.77300
C  12.09600 57.91700 40.36800
N  6.69300 57.27300 41.79900
C  7.81500 57.92900 41.61800
C  7.69200 59.38700 42.15800
C  6.20900 59.55300 42.47500
C  5.75200 58.05300 42.42200
C  8.71000 59.78200 43.25600
C  5.47400 60.48000 41.51800
C  5.87600 61.92100 41.63300
N  4.70100 55.16600 42.21400
C  3.95300 56.24700 42.68200
C  2.69600 55.78100 43.17500
C  2.69200 54.44100 42.78800
C  3.93300 54.09600 42.18300
C  1.58200 56.54700 43.78700
C  1.91300 53.20100 42.89500
O  0.83000 52.99200 43.48300
C  2.68500 52.10300 42.04800
C  1.78700 51.65400 40.87700
O  1.30200 52.37500 40.02600
O  1.65600 50.25600 40.90300
C  0.69800 49.70100 39.96000
H  9.16400 51.85400 39.85300
H  9.73900 58.28900 41.16100
H  3.80300 58.25500 43.36200
H  4.86200 50.22500 40.64900
H  7.05200 50.79500 38.83100
H  6.67200 48.86100 40.95900
H  8.08000 49.97800 41.34900
H  8.13200 49.02000 39.92900
H  5.30700 51.59700 37.97800
H  3.84100 51.91900 38.61100
H  2.92800 49.68900 37.93600
H  4.17400 48.87200 38.79000
H  11.09600 52.64600 38.83100
H  12.08900 52.86800 40.28200
H  12.27300 53.87500 38.76200
H  13.02200 58.37400 40.01900
H  11.89500 58.05100 41.43100
H  11.35900 58.57900 39.91400
H  7.90400 60.13900 41.39800
H  6.00300 59.87600 43.49600
H  8.25300 60.28100 44.11000
H  9.48800 60.41700 42.83400
H  9.23000 58.93400 43.70100
H  4.39400 60.45300 41.66600
H  5.49500 60.20300 40.46400
H  6.63900 62.01000 42.40700
H  5.04200 62.54400 41.95500
H  6.14100 62.22400 40.62000
H  1.90100 57.17700 44.61800
H  0.93800 55.82000 44.28200
H  0.90400 57.09200 43.13100
H  2.95600 51.31600 42.75200
H  -0.30300 49.88000 40.35100
H  0.80000 48.61700 39.90200
H  0.81600 50.18400 38.99000

