158

Mg 8.38700 3.83000 27.45000
C  9.86600 2.36500 30.27000
C  6.50700 5.70700 29.55100
C  6.81000 5.05000 24.70300
C  9.88600 1.34800 25.50200
N  8.08400 3.89700 29.65400
C  8.96100 3.35800 30.60300
C  8.72400 3.93300 32.04400
C  7.49400 4.87200 31.81000
C  7.29500 4.78600 30.29300
C  6.20700 4.40900 32.62000
C  9.96900 4.80400 32.52100
C  9.76100 5.54700 33.89100
H  10.66300 5.13100 35.12800
N  6.94100 5.24800 27.14500
C  6.37100 5.96000 28.17200
C  5.48800 7.01200 27.56200
C  5.60400 6.80600 26.17500
C  6.48800 5.65100 25.95200
C  4.59600 7.94600 28.40700
C  4.96000 7.63800 24.98900
O  5.24300 7.58800 23.79800
C  4.12600 8.77800 25.48400
N  8.19100 3.08900 25.40600
C  7.68100 3.99900 24.45700
C  7.95400 3.48500 23.00200
C  9.09400 2.37300 23.20800
C  9.07000 2.25200 24.79000
C  6.66600 2.93800 22.37200
C  10.46400 2.57600 22.55000
C  11.41000 3.53600 23.31500
N  9.55100 2.11700 27.82200
C  10.10300 1.24700 26.92000
C  11.02100 0.37500 27.62000
C  11.00300 0.80200 28.92700
C  10.04000 1.81800 29.00400
C  11.98900 -0.68700 27.05000
C  11.60100 0.62200 30.25100
O  12.46800 -0.11800 30.64900
C  10.92600 1.69400 31.11700
C  10.50300 1.18500 32.44400
O  9.43000 0.66100 32.64000
O  11.41600 1.51900 33.39600
C  10.94600 1.34600 34.80700
H  5.97400 6.42100 30.18200
H  6.38900 5.46100 23.78400
H  10.64500 0.71600 25.03700
H  8.49300 3.13000 32.74400
H  7.63600 5.85200 32.26600
H  5.62800 5.29800 32.87000
H  6.49700 3.70700 33.40100
H  5.70700 3.72100 31.93800
H  10.02100 5.52500 31.70500
H  10.83900 4.16200 32.66200
H  8.70800 5.52600 34.17200
H  9.80500 6.62900 33.77200
H  3.52900 7.78900 28.24400
H  4.84600 8.97800 28.16200
H  4.84000 7.80000 29.45900
H  3.82700 9.27800 24.56200
H  4.89000 9.28400 26.07400
H  3.29100 8.51300 26.13100
H  8.36000 4.26800 22.36200
H  8.72200 1.41200 22.85400
H  5.91600 2.75900 23.14200
H  7.02200 2.00800 21.92900
H  6.27900 3.54400 21.55300
H  10.28900 3.07600 21.59700
H  10.91300 1.62100 22.27600
H  11.81100 4.34700 22.70700
H  12.26000 2.95300 23.67000
H  10.81500 3.85900 24.16900
H  12.95300 -0.33800 27.42200
H  12.08300 -0.78800 25.96900
H  11.73300 -1.65600 27.47800
H  11.67900 2.45700 31.31500
H  10.13300 0.62000 34.81400
H  10.61900 2.22700 35.36000
H  11.74600 0.82400 35.33100
Mg -5.82600 25.00700 26.15100
C  -4.41200 26.22300 29.09300
C  -7.98900 23.14900 28.26000
C  -7.19400 23.78800 23.39700
C  -3.68200 27.04500 24.36100
N  -6.22500 24.75700 28.56200
C  -5.49600 25.35000 29.53100
C  -6.07700 24.94600 30.92100
C  -6.91400 23.71300 30.50800
C  -7.07300 23.85500 29.02200
C  -6.35400 22.34500 30.89700
C  -6.90200 26.09500 31.63500
C  -6.58600 26.38300 33.08000
H  -5.83500 25.32800 34.05000
N  -7.29400 23.64700 25.86200
C  -8.11900 22.97900 26.85200
C  -9.13800 22.17500 26.21100
C  -8.86600 22.31600 24.77300
C  -7.75100 23.30200 24.64700
C  -10.21000 21.47700 26.97200
C  -9.52700 21.67100 23.58700
O  -9.23300 21.90500 22.42500
C  -10.56400 20.64300 23.90400
N  -5.46500 25.37000 24.14400
C  -6.15000 24.73400 23.15900
C  -5.62100 25.10600 21.78100
C  -4.65800 26.30800 22.09700
C  -4.56300 26.27600 23.60300
C  -4.85600 24.01600 20.91100
C  -5.06600 27.73800 21.66900
C  -4.14800 28.35500 20.55800
N  -4.26100 26.30100 26.58700
C  -3.53500 27.16500 25.76500
C  -2.61600 28.00600 26.59900
C  -3.00400 27.71000 27.91500
C  -4.00100 26.67600 27.84100
C  -1.57000 29.00900 25.95700
C  -2.70000 27.98600 29.31000
O  -1.77900 28.68700 29.78100
C  -3.53100 27.02200 30.12300
C  -2.69900 26.30900 31.08300
O  -2.07700 25.31000 30.78700
O  -2.68700 26.86300 32.35800
C  -1.79000 26.09000 33.19800
H  -8.65300 22.46200 28.79000
H  -7.64200 23.48200 22.45000
H  -3.00100 27.62200 23.73100
H  -5.20400 24.69100 31.52200
H  -7.88600 23.68200 31.00100
H  -7.03800 21.99500 31.67000
H  -5.34400 22.43000 31.29700
H  -6.40400 21.51800 30.18800
H  -7.98000 25.93400 31.60700
H  -6.74100 26.89700 30.91400
H  -7.55700 26.59100 33.52900
H  -6.01100 27.30900 33.10700
H  -9.83500 20.49700 27.26700
H  -11.12000 21.52600 26.37400
H  -10.50900 22.02500 27.86500
H  -10.79800 20.13700 22.96800
H  -11.45600 21.21700 24.15300
H  -10.42500 19.96900 24.74900
H  -6.51100 25.40700 21.22800
H  -3.68500 26.07500 21.66500
H  -5.65800 23.33200 20.63500
H  -4.29200 23.35100 21.56500
H  -4.46300 24.44600 19.98900
H  -5.23900 28.38900 22.52500
H  -5.93900 27.61600 21.02700
H  -4.63600 28.71800 19.65300
H  -3.43600 27.64300 20.13900
H  -3.58400 29.18700 20.97900
H  -1.04400 29.59700 26.70800
H  -2.06700 29.75000 25.33100
H  -0.76900 28.45500 25.46700
H  -4.25100 27.59300 30.70900
H  -0.74200 26.15000 32.90300
H  -2.13800 25.05800 33.16000
H  -1.93600 26.48200 34.20500

