158

Mg 2.07500 -2.45500 44.23900
C  5.40000 -1.76600 43.55100
C  1.18700 0.20500 42.08000
C  -1.13000 -3.28300 44.43000
C  3.07300 -5.57700 45.66100
N  3.11900 -1.08500 42.83300
C  4.51000 -0.89000 42.87300
C  4.99600 0.31200 41.88800
C  3.61700 0.91100 41.44100
C  2.54400 -0.04700 42.11900
C  3.32100 2.40900 41.94000
C  5.93800 -0.07000 40.66900
C  7.13200 0.93800 40.48600
H  8.06600 0.72500 39.23700
N  0.24900 -1.56700 43.55600
C  0.12800 -0.46200 42.74200
C  -1.29600 -0.19600 42.54700
C  -2.02700 -1.13300 43.33100
C  -0.95000 -2.02700 43.82200
C  -1.85200 0.92300 41.66200
C  -3.60500 -1.15000 43.51300
O  -4.34600 -0.33100 42.96200
C  -4.28200 -2.13500 44.43200
N  1.08200 -4.23700 44.89100
C  -0.28500 -4.26700 44.92700
C  -0.76000 -5.65500 45.39400
C  0.52200 -6.21700 46.09600
C  1.66600 -5.34900 45.51500
C  -2.11800 -5.79300 46.20900
C  0.80400 -7.74500 45.87700
C  0.28300 -8.68100 47.05400
N  3.78300 -3.50600 44.58700
C  4.08600 -4.68400 45.25800
C  5.51600 -4.73800 45.44600
C  6.02400 -3.58400 44.84500
C  4.95300 -2.89900 44.33400
C  6.24000 -5.83900 46.14000
C  7.23500 -2.83300 44.69500
O  8.35000 -3.07300 45.17900
C  6.92600 -1.65700 43.78400
C  7.31400 -0.52300 44.61000
O  7.05100 -0.32600 45.76800
O  7.98300 0.39100 43.75200
C  8.18500 1.74300 44.25600
H  0.95700 1.14600 41.57600
H  -2.14400 -3.68700 44.40800
H  3.35600 -6.48100 46.20400
H  5.50400 1.01500 42.54800
H  3.49000 0.97900 40.36100
H  2.80800 2.95100 41.14600
H  4.25400 2.90800 42.20300
H  2.82700 2.37200 42.91100
H  5.37000 -0.19000 39.74700
H  6.35500 -1.05200 40.89400
H  7.82100 0.85300 41.32600
H  6.77900 1.96900 40.50000
H  -2.33000 0.53000 40.76500
H  -1.10700 1.62900 41.29400
H  -2.63000 1.55400 42.09100
H  -4.45800 -3.15100 44.08100
H  -5.21200 -1.71600 44.81800
H  -3.64100 -2.20800 45.31000
H  -0.85200 -6.21200 44.46100
H  0.65800 -6.03700 47.16300
H  -1.96200 -6.07000 47.25100
H  -2.76000 -6.54500 45.75000
H  -2.55300 -4.79500 46.14400
H  1.88300 -7.87300 45.78900
H  0.36300 -7.99800 44.91300
H  -0.39100 -8.16400 47.73600
H  1.09100 -9.03800 47.69300
H  -0.14600 -9.58500 46.62000
H  5.94800 -6.73500 45.59300
H  5.91200 -5.72200 47.17200
H  7.31200 -5.64100 46.11700
H  7.44700 -1.80600 42.83800
H  8.87300 1.69700 45.10100
H  7.18700 2.07200 44.54500
H  8.56000 2.52700 43.59800
Mg 24.79400 -4.49900 46.14300
C  26.90200 -2.28400 44.48000
C  22.35500 -3.79100 43.72400
C  22.98300 -7.16900 47.15200
C  27.52600 -5.75900 47.99400
N  24.65600 -3.18700 44.39000
C  25.60300 -2.37000 43.91300
C  25.13600 -1.49600 42.75200
C  23.60400 -1.74200 42.86200
C  23.47000 -2.99200 43.68500
C  22.73500 -0.68500 43.50500
C  25.76600 -1.87700 41.41800
C  26.32500 -0.74700 40.40600
H  26.26200 -1.15100 38.93800
N  22.94400 -5.33600 45.56900
C  22.09700 -4.91900 44.54700
C  20.89800 -5.67300 44.55800
C  21.03800 -6.75300 45.50600
C  22.34300 -6.48900 46.11100
C  19.80300 -5.44800 43.65000
C  19.98400 -7.83700 45.79800
O  19.00400 -8.04300 45.07100
C  20.17400 -8.91200 46.81100
N  25.24600 -6.37500 47.32800
C  24.25900 -7.16500 47.76800
C  24.78000 -8.22600 48.75800
C  26.26700 -7.78500 49.04600
C  26.41700 -6.60400 48.01000
C  23.90900 -8.55400 50.00100
C  27.31000 -8.91300 48.94500
C  28.45200 -8.79500 49.96500
N  26.76600 -4.10600 46.35700
C  27.73800 -4.61900 47.20500
C  28.94400 -3.87300 47.06900
C  28.72100 -3.04500 45.98800
C  27.38600 -3.15600 45.58100
C  30.30300 -4.13600 47.64300
C  29.30200 -2.06600 45.15000
O  30.41600 -1.62600 45.19300
C  28.24700 -1.54500 44.09600
C  28.12600 -0.07600 44.24100
O  27.43100 0.40600 45.09700
O  28.83300 0.56800 43.30500
C  28.91400 2.02900 43.39600
H  21.55100 -3.42400 43.08200
H  22.52700 -8.08900 47.52400
H  28.25400 -5.89400 48.79700
H  25.34000 -0.45400 42.99600
H  23.08500 -1.96200 41.92900
H  21.91700 -0.39900 42.84400
H  23.24400 0.24000 43.77500
H  22.31700 -1.09200 44.42600
H  25.06100 -2.41800 40.78600
H  26.64800 -2.48300 41.62400
H  27.36600 -0.52500 40.64400
H  25.69200 0.12500 40.57100
H  18.88700 -5.05400 44.08800
H  19.49700 -6.33300 43.09200
H  20.07600 -4.81800 42.80300
H  19.36100 -9.63700 46.76600
H  20.42500 -8.59000 47.82200
H  21.08800 -9.42000 46.50500
H  24.81500 -9.18800 48.24700
H  26.23700 -7.31800 50.03000
H  23.39200 -7.64400 50.30500
H  24.54300 -8.82200 50.84600
H  23.20500 -9.35900 49.79000
H  27.79400 -8.88400 47.96900
H  26.82300 -9.88600 49.01100
H  28.48500 -7.97100 50.67800
H  29.40600 -8.64600 49.46000
H  28.53100 -9.74100 50.50200
H  30.90300 -4.79700 47.01700
H  30.21200 -4.68300 48.58200
H  30.74300 -3.16600 47.87400
H  28.70900 -1.73000 43.12600
H  28.84300 2.56400 42.44900
H  29.75800 2.30700 44.02800
H  28.08800 2.28100 44.06100

