158

Mg 36.01300 3.24400 30.30500
C  33.36200 3.93700 32.64100
C  38.12500 2.98200 32.85700
C  38.27200 2.68800 28.05300
C  33.50500 3.34100 27.72300
N  35.72700 3.42300 32.52000
C  34.59300 3.68300 33.21200
C  34.90700 3.51400 34.69500
C  36.45400 3.44600 34.77400
C  36.80100 3.24100 33.30900
C  37.13400 4.65000 35.46900
C  34.25900 2.22500 35.30900
C  34.07300 2.34100 36.78800
H  34.89100 3.29000 37.68000
N  37.96600 2.97000 30.43600
C  38.67600 2.89400 31.56700
C  40.10100 2.65600 31.20700
C  40.10000 2.48800 29.77200
C  38.75000 2.74500 29.35600
C  41.15400 2.53300 32.28100
C  41.23000 1.98600 28.94400
O  41.20100 1.90200 27.71100
C  42.62700 1.68400 29.53200
N  35.88600 3.22700 28.16200
C  37.02500 2.96400 27.41300
C  36.68600 2.55200 25.96600
C  35.16400 2.56500 25.99400
C  34.80200 3.11300 27.34700
C  37.51000 3.42800 24.92000
C  34.51600 1.16000 25.65200
C  33.56500 0.93500 24.38200
N  33.87900 3.66000 30.14800
C  32.98700 3.69900 29.04400
C  31.64900 3.95700 29.51000
C  31.79500 4.06300 30.90700
C  33.13600 3.86400 31.25200
C  30.45000 4.16000 28.66100
C  31.01900 4.28500 32.09100
O  29.87500 4.58600 32.23700
C  32.02700 4.12500 33.31500
C  32.07600 5.41500 33.99800
O  32.29900 6.52400 33.52500
O  31.79800 5.19600 35.35000
C  31.88700 6.43300 36.18400
H  38.81300 2.71300 33.66000
H  39.13000 2.49000 27.40700
H  32.69900 3.24100 26.99300
H  34.65500 4.43700 35.21700
H  36.79300 2.50500 35.20800
H  36.56200 5.55400 35.26100
H  38.04300 4.92100 34.93000
H  37.23800 4.45600 36.53600
H  35.02800 1.47500 35.12800
H  33.32500 1.94800 34.82100
H  34.30100 1.35800 37.20000
H  33.02700 2.63300 36.87800
H  42.18200 2.44500 31.93100
H  41.04200 1.57500 32.78900
H  40.99900 3.28500 33.05500
H  43.34800 1.41600 28.75900
H  42.57100 0.84000 30.21900
H  43.05000 2.61500 29.91000
H  37.08400 1.53700 25.98700
H  34.75600 3.26600 25.26500
H  36.85200 3.99700 24.26300
H  38.04600 2.75600 24.25000
H  38.19200 4.12800 25.40200
H  34.22800 0.75200 26.62100
H  35.21400 0.39700 25.30800
H  33.97400 0.08600 23.83400
H  33.54900 1.77500 23.68700
H  32.53400 0.66600 24.61100
H  29.86500 3.25400 28.82300
H  30.53000 4.23300 27.57700
H  29.88200 5.04600 28.94500
H  31.81300 3.35100 34.05200
H  32.73900 7.02500 35.85100
H  32.02600 6.11700 37.21800
H  31.00300 7.06500 36.09400
Mg 9.27400 48.37800 25.25300
C  7.05900 49.12400 27.96600
C  11.98400 48.98700 27.28000
C  11.13300 47.97100 22.62000
C  6.29700 48.16200 23.11000
N  9.44700 49.03000 27.31200
C  8.44800 49.13500 28.28400
C  9.06800 49.37500 29.63400
C  10.58200 49.37600 29.39300
C  10.70500 49.08500 27.87400
C  11.30500 50.75200 29.72700
C  8.61500 48.32400 30.77800
C  9.42800 48.14200 32.05800
H  8.63600 47.79500 33.30100
N  11.23300 48.49300 25.00100
C  12.23200 48.76200 25.91700
C  13.51800 48.71000 25.32900
C  13.31800 48.31100 23.94800
C  11.82800 48.26200 23.78200
C  14.75200 49.00000 26.10300
C  14.38800 48.17200 22.77900
O  14.05700 47.95200 21.63000
C  15.86200 48.23000 23.01000
N  8.80100 48.13900 23.09400
C  9.78500 47.89900 22.26700
C  9.24100 47.51500 20.89800
C  7.72000 47.47500 21.09200
C  7.55000 47.94700 22.48900
C  9.67600 48.33600 19.66800
C  6.83000 46.23200 20.79400
C  5.39900 46.45300 20.31000
N  7.03900 48.56000 25.46200
C  5.99600 48.45600 24.52600
C  4.78400 48.67800 25.19200
C  5.14000 49.01300 26.51300
C  6.52800 48.91000 26.64300
C  3.39600 48.58100 24.58300
C  4.58700 49.34500 27.73800
O  3.40300 49.58500 27.96900
C  5.82700 49.50400 28.81300
C  5.49800 48.34100 29.74500
O  5.68400 47.16200 29.45600
O  4.98800 48.89100 30.87100
C  4.74100 47.90500 31.93200
H  12.79400 49.18500 27.98600
H  11.68400 47.87400 21.68300
H  5.37700 48.09300 22.52500
H  8.69500 50.34300 29.96700
H  11.18000 48.69300 29.99600
H  12.16400 50.63600 30.38800
H  10.53200 51.36300 30.19200
H  11.74600 51.23700 28.85600
H  8.52000 47.37100 30.25800
H  7.60900 48.62200 31.07300
H  10.00400 49.06100 32.16500
H  10.16800 47.37300 31.83600
H  15.12400 48.18300 26.72100
H  14.69800 49.87500 26.75100
H  15.57300 49.33300 25.46900
H  16.20900 49.20800 23.34400
H  16.35300 47.97700 22.07000
H  16.17600 47.45700 23.71100
H  9.59700 46.51100 20.67000
H  7.28000 48.31200 20.55000
H  8.98200 49.12800 19.38500
H  9.72300 47.55800 18.90500
H  10.59300 48.84900 19.95600
H  6.70300 45.75400 21.76600
H  7.39500 45.48000 20.24300
H  5.23400 47.49500 20.03700
H  4.71600 46.16800 21.11000
H  5.21200 45.85100 19.42100
H  3.28200 49.49000 23.99200
H  2.66500 48.48100 25.38600
H  3.42100 47.73100 23.90100
H  5.72400 50.49100 29.26500
H  5.38100 47.02500 31.86400
H  3.70300 47.57200 31.94600
H  5.07500 48.46800 32.80400

