158

Mg 47.57000 34.20100 27.08800
C  45.68300 32.54700 29.63000
C  48.04700 36.77500 29.16600
C  48.97000 35.83900 24.50600
C  46.98000 31.44200 25.10100
N  46.97000 34.55900 29.17500
C  46.25200 33.76900 30.05400
C  46.27800 34.38500 31.49500
C  46.70300 35.87300 31.21800
C  47.32400 35.69500 29.75800
C  45.42500 36.76600 31.37600
C  47.26700 33.71000 32.52300
C  46.84900 33.48800 33.93300
H  46.39900 34.69900 34.81500
N  48.33100 36.03600 26.85700
C  48.55600 36.98500 27.87000
C  49.10400 38.18500 27.29900
C  49.40600 38.00500 25.88700
C  48.89200 36.58800 25.65100
C  49.34300 39.48300 28.12300
C  50.18500 38.81900 24.89300
O  50.35700 38.52200 23.74200
C  50.71700 40.18300 25.34000
N  47.94900 33.69900 25.11800
C  48.51600 34.54000 24.25200
C  48.75400 33.80800 22.82000
C  48.23800 32.37900 23.14400
C  47.71800 32.48700 24.58000
C  48.10400 34.43500 21.55600
C  49.40200 31.27800 22.99000
C  49.05000 30.07500 22.13200
N  46.41700 32.47300 27.16100
C  46.21200 31.45000 26.28500
C  45.28400 30.48200 26.72600
C  45.04600 30.84300 28.11100
C  45.86600 32.04000 28.35900
C  44.77200 29.28600 25.91100
C  44.36500 30.47500 29.30300
O  43.54300 29.54400 29.52800
C  44.66600 31.65100 30.34500
C  45.28500 30.98700 31.53200
O  46.32700 30.36900 31.52300
O  44.41000 31.02500 32.52900
C  44.80200 30.17700 33.63100
H  48.08900 37.65500 29.81100
H  49.44800 36.24500 23.61200
H  46.80700 30.69100 24.32800
H  45.26800 34.36800 31.90400
H  47.45700 36.30500 31.87700
H  45.64700 37.54100 32.10900
H  44.65000 36.16100 31.84700
H  45.05200 37.14300 30.42300
H  48.23300 34.18300 32.70100
H  47.63800 32.77800 32.09700
H  47.79500 33.12600 34.33500
H  46.03200 32.79500 34.13600
H  48.80000 40.26200 27.58800
H  50.41700 39.60800 28.26600
H  48.68300 39.42700 28.98700
H  51.37200 40.06500 26.20300
H  49.76800 40.67500 25.55200
H  51.28200 40.62400 24.51900
H  49.83100 33.80000 22.65000
H  47.42400 32.20900 22.43900
H  48.83900 35.11000 21.11800
H  47.29200 35.05300 21.93900
H  47.63100 33.74400 20.85800
H  49.49400 30.89700 24.00700
H  50.37400 31.66200 22.68000
H  48.13200 30.34000 21.60600
H  48.78300 29.17200 22.68100
H  49.73000 29.81900 21.31900
H  44.07100 29.70300 25.18800
H  44.26500 28.51600 26.49200
H  45.61000 28.78600 25.42400
H  43.75000 32.12300 30.70000
H  44.92900 29.12600 33.37300
H  43.91000 30.21600 34.25600
H  45.58300 30.43400 34.34700
Mg 9.14200 47.47200 28.33900
C  7.35000 47.12100 31.38000
C  11.94900 48.21200 30.15200
C  10.74100 48.52300 25.53700
C  6.05700 48.28200 26.72900
N  9.52600 47.60900 30.52400
C  8.73500 47.34600 31.63300
C  9.49400 47.61800 32.97400
C  10.84600 48.05500 32.45800
C  10.77100 48.04100 30.90100
C  11.29600 49.48900 32.94200
C  9.37800 46.41700 33.88700
C  10.51900 46.09400 34.86500
H  10.10500 45.20600 36.08900
N  11.15800 47.77700 27.91100
C  12.13800 48.02200 28.80900
C  13.42400 48.14900 28.17300
C  13.11600 48.31400 26.75600
C  11.60600 48.21900 26.63300
C  14.80300 48.28600 28.84400
C  14.03800 48.56000 25.55600
O  13.61600 48.75100 24.45400
C  15.46700 48.51300 25.82500
N  8.49700 48.21000 26.35700
C  9.32700 48.51200 25.40600
C  8.73600 49.09100 24.16300
C  7.22900 48.84200 24.49100
C  7.21100 48.35600 25.94900
C  9.08600 50.59700 23.92700
C  6.49300 47.78700 23.57600
C  7.30000 46.42700 23.60700
N  7.12400 47.54300 28.81500
C  5.98600 47.83500 28.06500
C  4.79000 47.55700 28.89500
C  5.29700 47.21000 30.23000
C  6.71900 47.29900 30.06900
C  3.31600 47.67200 28.43100
C  4.91500 46.92900 31.57600
O  3.80700 46.79700 32.03300
C  6.20900 47.07300 32.36700
C  6.33000 45.89000 33.17900
O  6.52300 44.75800 32.71100
O  6.26200 46.13300 34.52900
C  6.49500 44.91700 35.35100
H  12.81200 48.38100 30.79800
H  11.33800 48.83100 24.67600
H  5.09300 48.39100 26.22800
H  8.94500 48.49700 33.31100
H  11.48300 47.20100 32.68800
H  12.38200 49.52800 33.02400
H  10.80000 49.63300 33.90200
H  10.87900 50.28300 32.32400
H  8.98400 45.52900 33.39100
H  8.61300 46.72700 34.59800
H  10.78500 47.05800 35.29900
H  11.43300 45.72200 34.40200
H  15.64800 47.74900 28.41200
H  14.81900 48.05400 29.90900
H  15.09100 49.33800 28.83900
H  15.97900 48.81600 24.91300
H  15.64100 47.45700 26.02900
H  15.77700 49.19100 26.62100
H  9.04000 48.49700 23.30100
H  6.74200 49.81000 24.37300
H  9.93200 50.57800 23.24000
H  9.43900 51.01200 24.87100
H  8.23700 51.15500 23.53200
H  6.43000 48.08500 22.52900
H  5.50100 47.60700 23.99200
H  8.07800 46.41900 24.37000
H  7.75900 46.27100 22.63100
H  6.74100 45.52000 23.83900
H  3.25000 48.43500 27.65500
H  2.60400 48.01700 29.18100
H  2.97200 46.66700 28.18900
H  6.06900 47.90900 33.05300
H  6.41000 45.31700 36.36100
H  7.42000 44.40000 35.09300
H  5.68500 44.21100 35.17000

