158

Mg 17.25500 -1.67700 27.08700
C  16.24800 0.10600 29.88700
C  19.30900 -3.64500 28.97400
C  18.62300 -2.81900 24.16000
C  15.25400 0.51100 25.13900
N  17.87500 -1.59500 29.18000
C  17.28300 -0.86400 30.16400
C  17.69600 -1.42500 31.60600
C  18.82800 -2.50400 31.27200
C  18.67800 -2.62400 29.72500
C  20.28800 -2.14700 31.80900
C  16.53700 -2.04100 32.43500
C  16.50500 -1.70400 33.94100
H  17.64900 -0.91300 34.64900
N  18.53400 -3.22100 26.61300
C  19.27000 -3.86600 27.56000
C  19.91400 -4.96000 26.81400
C  19.74200 -4.72600 25.41400
C  18.90600 -3.54900 25.36000
C  20.82900 -5.90600 27.53800
C  20.23900 -5.59600 24.30000
O  20.00500 -5.39800 23.09300
C  20.97400 -6.87000 24.55900
N  16.95400 -1.30300 25.01400
C  17.78300 -1.71200 24.04600
C  17.30200 -1.20700 22.64800
C  16.09900 -0.28300 22.99700
C  16.07000 -0.37100 24.47400
C  18.37700 -0.56400 21.85100
C  14.82900 -0.74500 22.27300
C  14.49100 -0.07000 20.96000
N  15.99200 -0.01300 27.43500
C  15.20400 0.72600 26.49500
C  14.56700 1.78500 27.21300
C  14.87500 1.51700 28.59900
C  15.76700 0.44700 28.64300
C  13.69500 2.92700 26.64200
C  14.77200 2.07000 29.99400
O  14.15700 3.01900 30.43100
C  15.58900 1.12800 30.87200
C  16.61100 1.93500 31.54300
O  17.72900 2.26200 31.07200
O  16.07000 2.34700 32.80900
C  16.98700 3.27800 33.56700
H  19.92400 -4.26900 29.62600
H  19.07200 -3.21100 23.24500
H  14.58000 1.16600 24.58400
H  18.09200 -0.66500 32.27800
H  18.60400 -3.45400 31.75500
H  21.02200 -2.39000 31.04100
H  20.68100 -2.62100 32.70800
H  20.25000 -1.08300 32.04200
H  16.47700 -3.12900 32.39800
H  15.57000 -1.60300 32.18500
H  16.23300 -2.55000 34.57200
H  15.64600 -1.04400 34.06000
H  20.45400 -6.92700 27.46900
H  20.70100 -5.66500 28.59400
H  21.87100 -5.89600 27.22200
H  21.78000 -6.68600 25.26900
H  21.47900 -7.20000 23.65100
H  20.31000 -7.62900 24.97400
H  17.03900 -2.15600 22.18100
H  16.39800 0.74400 22.78800
H  18.84900 -1.18700 21.09100
H  19.20000 -0.25400 22.49600
H  17.87400 0.21100 21.27300
H  13.96000 -0.63100 22.92100
H  14.92700 -1.82800 22.19800
H  15.08600 0.84200 20.91700
H  13.43400 0.19000 21.01500
H  14.66600 -0.72900 20.11000
H  13.16800 2.62900 25.73600
H  14.28200 3.83500 26.49700
H  12.93200 3.29600 27.32800
H  14.96500 0.59200 31.58600
H  17.76800 2.67300 34.02700
H  16.37500 3.69800 34.36500
H  17.31100 4.12700 32.96500
Mg 46.03300 34.82700 28.22000
C  44.43300 32.80600 30.58800
C  46.07200 37.41000 30.46800
C  47.29200 36.93300 25.78700
C  45.84100 32.22700 25.88100
N  45.40500 35.00700 30.33700
C  44.85000 34.03100 31.12900
C  44.89500 34.47200 32.63100
C  45.10800 36.01900 32.47100
C  45.58500 36.16300 31.01800
C  43.79400 36.84100 32.69600
C  46.16200 33.77200 33.33100
C  46.19800 33.61600 34.86000
H  45.28500 34.59200 35.64600
N  46.78100 36.85400 28.20600
C  46.62100 37.79200 29.20900
C  47.21000 39.05900 28.85700
C  47.58100 38.91600 27.45600
C  47.23900 37.53100 27.09800
C  47.33800 40.23200 29.78200
C  48.29200 39.89100 26.46300
O  48.63000 39.50200 25.35600
C  48.52000 41.35600 26.90000
N  46.43800 34.60400 26.18000
C  46.87600 35.63500 25.45500
C  47.05000 35.19200 23.94100
C  46.71400 33.65200 23.98900
C  46.34600 33.41900 25.44900
C  46.37900 36.06600 22.87000
C  47.80600 32.64800 23.47800
C  47.47800 31.71100 22.30700
N  45.27900 32.89300 28.16500
C  45.36400 31.94900 27.16900
C  44.77000 30.70600 27.61100
C  44.38600 30.93900 29.00900
C  44.69700 32.30600 29.26900
C  44.73000 29.36500 26.84400
C  43.90400 30.39900 30.25000
O  43.53000 29.24600 30.46200
C  43.54500 31.65500 31.18600
C  43.85100 31.25800 32.58900
O  44.83400 30.73100 33.01400
O  42.82000 31.68200 33.36900
C  42.86500 31.28300 34.80400
H  46.08900 38.21800 31.20200
H  47.48500 37.55500 24.91000
H  45.83300 31.44800 25.11600
H  44.00300 34.17500 33.18200
H  45.82300 36.38000 33.21000
H  43.10300 36.27300 33.31900
H  43.20000 37.09100 31.81700
H  43.78300 37.77000 33.26700
H  47.11800 34.08900 32.91300
H  46.13500 32.77900 32.88400
H  47.24300 33.84500 35.06600
H  46.02400 32.57700 35.14200
H  46.66900 41.04800 29.50900
H  48.41800 40.37700 29.76700
H  47.15000 39.85700 30.78800
H  48.86500 41.30200 27.93200
H  47.56600 41.88400 26.92700
H  49.17800 41.84100 26.17900
H  48.11600 35.31200 23.74700
H  45.77200 33.39800 23.50500
H  47.17200 36.44500 22.22500
H  45.85600 36.92200 23.29600
H  45.66400 35.52200 22.25200
H  48.28300 32.04100 24.24700
H  48.66900 33.22100 23.13900
H  48.20700 31.90400 21.52100
H  46.45300 31.86700 21.96900
H  47.48500 30.63900 22.50100
H  45.41100 29.27400 25.99800
H  43.74200 29.13400 26.44600
H  44.97500 28.63500 27.61500
H  42.49800 31.86800 30.96800
H  43.48800 30.40500 34.97300
H  41.89800 31.25600 35.30700
H  43.21200 32.07800 35.46500

