158

Mg 40.58400 8.67700 29.81400
C  42.19300 10.28400 32.48600
C  38.29100 7.34600 32.13200
C  39.15800 6.88600 27.47000
C  43.30100 9.46300 27.81000
N  40.29800 8.76600 32.08100
C  41.10000 9.54300 32.95100
C  40.50000 9.53600 34.40300
C  39.36200 8.47400 34.27900
C  39.35000 8.10500 32.74900
C  39.56900 7.24300 35.23200
C  39.97200 10.87200 34.88900
C  39.15800 10.82800 36.19500
H  39.59400 11.70000 37.31000
N  38.82800 7.40700 29.77400
C  38.03400 7.01000 30.82000
C  36.96200 6.20000 30.34200
C  37.18600 6.13800 28.93800
C  38.39900 6.82700 28.63800
C  35.89400 5.65800 31.24500
C  36.36000 5.44800 27.84800
O  36.55300 5.58200 26.66500
C  35.18100 4.62700 28.34700
N  41.11300 8.29800 27.85700
C  40.34600 7.51300 27.04300
C  41.02600 7.37700 25.62500
C  42.34200 8.27000 25.78800
C  42.27700 8.72700 27.24700
C  41.36200 5.89100 25.28100
C  42.42900 9.44700 24.77100
C  42.00900 10.93500 25.25300
N  42.32400 9.73200 29.98200
C  43.32900 9.97400 29.10900
C  44.29500 10.94100 29.67100
C  43.92500 11.03100 31.00000
C  42.73900 10.26200 31.11800
C  45.48100 11.52500 29.10700
C  44.24600 11.55800 32.33800
O  45.33200 11.97900 32.72000
C  43.09000 11.13500 33.31400
C  43.74300 10.30300 34.37200
O  44.25400 9.20100 34.23600
O  43.53400 10.94600 35.56000
C  43.74800 10.21400 36.80700
H  37.55900 6.93000 32.82700
H  38.73300 6.25600 26.68600
H  44.18500 9.62400 27.18900
H  41.19500 9.13200 35.13900
H  38.37200 8.90700 34.42100
H  40.40600 7.40500 35.91100
H  39.80600 6.43600 34.53800
H  38.68600 7.00100 35.82400
H  39.24800 11.22600 34.15600
H  40.79600 11.58200 34.95600
H  38.94200 9.83400 36.58700
H  38.15900 11.25400 36.11300
H  35.08900 6.38500 31.35200
H  36.35400 5.49600 32.22000
H  35.38800 4.72000 31.01900
H  35.62900 3.89700 29.02100
H  34.86100 4.23300 27.38200
H  34.34100 5.23300 28.68600
H  40.35300 7.74300 24.85000
H  43.14100 7.62900 25.41400
H  40.64700 5.51100 24.55100
H  41.25100 5.31100 26.19700
H  42.38400 5.68600 24.96300
H  41.83500 9.25800 23.87700
H  43.47200 9.55300 24.47300
H  41.16100 11.26100 24.65000
H  42.78200 11.69100 25.11600
H  41.62800 10.83800 26.27000
H  45.40700 11.52600 28.01900
H  46.34500 10.93000 29.40500
H  45.65000 12.52600 29.50200
H  42.57500 12.00100 33.72900
H  43.44900 9.17900 36.64100
H  43.00400 10.45700 37.56500
H  44.72200 10.29800 37.29000
Mg 0.83200 42.64900 25.38600
C  2.90200 42.09800 28.12100
C  -1.88700 41.70400 27.23300
C  -1.14600 42.93300 22.52900
C  3.61000 43.27200 23.29600
N  0.58200 41.81700 27.43700
C  1.50300 41.92200 28.37200
C  0.82700 41.83800 29.77000
C  -0.63400 41.33600 29.44000
C  -0.68400 41.69100 27.97000
C  -1.04600 39.90700 30.02500
C  0.89900 43.15400 30.45200
C  1.59800 43.11800 31.78500
H  1.34300 41.99600 32.74500
N  -1.18700 42.36800 24.97500
C  -2.19500 42.07600 25.88700
C  -3.48700 42.04900 25.24500
C  -3.27100 42.55400 23.91700
C  -1.81400 42.68300 23.74200
C  -4.70500 41.48600 25.91400
C  -4.36700 42.88100 22.80600
O  -4.20000 43.48300 21.75300
C  -5.86600 42.64100 23.05900
N  1.25000 42.79700 23.09200
C  0.19000 42.99100 22.29300
C  0.72600 43.38000 20.94800
C  2.21200 43.80000 21.21700
C  2.41300 43.23000 22.65300
C  0.42500 42.19400 19.98500
C  2.54700 45.27500 21.03400
C  2.97800 45.64400 19.55900
N  2.91100 42.73600 25.57600
C  3.90500 42.95800 24.65500
C  5.21800 42.82700 25.34100
C  4.87400 42.57500 26.70900
C  3.43700 42.43200 26.78600
C  6.67200 43.25600 24.84800
C  5.38200 42.42500 28.03600
O  6.59300 42.41200 28.35900
C  4.09200 42.27200 29.05000
C  4.38700 41.06100 29.91500
O  4.36700 39.86400 29.56700
O  4.73300 41.48000 31.18600
C  4.95600 40.33000 32.15300
H  -2.76700 41.58500 27.86800
H  -1.86700 43.15600 21.74000
H  4.39800 43.81200 22.76600
H  1.38500 41.09500 30.33900
H  -1.43700 41.90800 29.90500
H  -1.47000 39.32600 29.20600
H  -1.83200 40.21200 30.71500
H  -0.29300 39.35000 30.58200
H  -0.10100 43.56600 30.58700
H  1.52900 43.89600 29.96100
H  1.19800 43.92700 32.39600
H  2.63500 43.38900 31.59100
H  -4.39000 41.12500 26.89300
H  -5.05600 40.69500 25.25100
H  -5.51400 42.21600 25.94900
H  -6.44300 42.91200 22.17400
H  -6.21900 43.34100 23.81600
H  -5.89000 41.57200 23.26800
H  0.14000 44.20200 20.53900
H  2.90900 43.17400 20.65900
H  1.39700 41.74700 19.77700
H  0.01600 42.72200 19.12400
H  -0.28700 41.46300 20.37000
H  3.39100 45.52900 21.67600
H  1.72000 45.95000 21.25300
H  3.97500 46.08300 19.54200
H  2.28500 46.28700 19.01500
H  3.06400 44.74100 18.95500
H  7.39300 43.74200 25.50500
H  6.52200 43.85900 23.95300
H  7.08300 42.31100 24.49200
H  3.99900 43.15500 29.68200
H  5.39100 40.61700 33.11000
H  5.68600 39.70000 31.64400
H  4.07800 39.73300 32.40000

