158

Mg 53.63300 24.04700 44.62600
C  50.90700 25.95800 43.56900
C  52.06200 21.33400 43.27300
C  56.48300 22.56300 45.02500
C  55.08000 27.17300 45.88400
N  51.76100 23.70700 43.42400
C  50.83700 24.61600 43.07700
C  49.72900 23.97700 42.16800
C  49.80800 22.50200 42.57100
C  51.31000 22.47800 43.07200
C  48.80300 22.10000 43.68800
C  50.03500 24.36500 40.70700
C  48.89300 24.82300 39.76400
H  49.20700 25.23900 38.31900
N  54.20300 22.09500 44.28500
C  53.42200 21.10000 43.69800
C  54.08300 19.86200 43.86600
C  55.41400 20.20100 44.33400
C  55.44800 21.70200 44.58500
C  53.44500 18.56500 43.38700
C  56.52600 19.17900 44.48100
O  56.39300 17.96800 44.24600
C  57.83400 19.57100 45.01500
N  55.57300 24.84700 45.18100
C  56.58700 23.92600 45.26100
C  57.83500 24.52800 45.96200
C  57.36500 26.12100 45.99200
C  55.90700 26.03800 45.69400
C  58.32800 24.00200 47.37600
C  58.07100 27.00200 44.90400
C  58.92600 28.05300 45.55700
N  53.21500 26.18300 44.71700
C  53.79600 27.25900 45.34000
C  52.86400 28.39800 45.36900
C  51.75300 27.91200 44.70100
C  51.99600 26.51100 44.31800
C  53.06300 29.70900 45.95500
C  50.42800 28.23900 44.26600
O  49.80900 29.26600 44.39100
C  49.83600 26.97700 43.52800
C  49.29200 27.39200 42.26600
O  49.96800 27.71300 41.31200
O  47.92100 27.43500 42.27400
C  47.17400 27.84900 41.03200
H  51.43200 20.45900 43.09300
H  57.49000 22.14000 45.03700
H  55.57200 28.03500 46.34000
H  48.71800 24.28800 42.43200
H  49.71200 21.90600 41.66300
H  49.26400 21.21200 44.12100
H  47.88800 21.81000 43.17200
H  48.63700 22.92500 44.38100
H  50.49900 23.48500 40.26200
H  50.75800 25.17500 40.79200
H  48.23500 25.55500 40.23200
H  48.24300 23.95000 39.69800
H  52.44600 18.39000 43.78800
H  54.08300 17.69200 43.52300
H  53.40100 18.78200 42.32000
H  57.54500 20.11500 45.91400
H  58.43200 20.25600 44.41300
H  58.39600 18.68900 45.32200
H  58.70200 24.42500 45.30900
H  57.55100 26.41600 47.02500
H  58.03700 22.96100 47.52000
H  57.88000 24.56000 48.19800
H  59.39500 24.11000 47.57000
H  57.33400 27.38800 44.20100
H  58.87900 26.46200 44.41100
H  59.97900 27.81400 45.41000
H  58.83500 28.14200 46.63900
H  58.81200 29.04400 45.11800
H  52.59900 30.31400 45.17600
H  54.12700 29.92700 46.04600
H  52.58800 29.73200 46.93600
H  49.02100 26.57100 44.12800
H  46.58800 28.72700 41.30100
H  46.54700 27.04300 40.65000
H  47.85600 28.05400 40.20700
Mg -10.65400 16.55800 42.90600
C  -7.15700 17.06900 42.93500
C  -11.17700 19.86800 42.50400
C  -13.91500 15.87700 42.18600
C  -9.90100 13.02300 42.66100
N  -9.31900 18.25700 42.65500
C  -7.92000 18.24000 42.70400
C  -7.39700 19.73700 42.56900
C  -8.72600 20.61100 42.68300
C  -9.81700 19.52000 42.64400
C  -8.85400 21.51400 43.89600
C  -6.52900 19.98900 41.21900
C  -5.03400 20.22100 41.45300
H  -4.13600 19.38500 40.58600
N  -12.29900 17.71200 42.33000
C  -12.36900 19.08100 42.26000
C  -13.70100 19.45400 41.86700
C  -14.51100 18.30900 41.79400
C  -13.55600 17.23000 42.05700
C  -14.16400 20.88300 41.47500
C  -16.04900 18.31200 41.42200
O  -16.62400 19.38000 41.48900
C  -16.78600 17.12200 41.15700
N  -11.65900 14.66300 42.21100
C  -13.05000 14.74700 42.35100
C  -13.57500 13.31200 42.68500
C  -12.30900 12.38000 42.49200
C  -11.21300 13.42100 42.46500
C  -14.38100 13.23700 44.07500
C  -12.40700 11.55200 41.15500
C  -11.92200 10.07200 41.21500
N  -8.89800 15.24600 42.88700
C  -8.77300 13.85200 42.85700
C  -7.43400 13.54500 42.98600
C  -6.70500 14.78500 43.07900
C  -7.69400 15.76100 42.89600
C  -6.99000 12.20700 42.99800
C  -5.39200 15.35400 43.14200
O  -4.29600 14.82400 43.14200
C  -5.62600 16.92000 43.22500
C  -5.27700 17.18700 44.65800
O  -6.03000 17.06300 45.61800
O  -4.03200 17.77400 44.67800
C  -3.58500 18.29600 45.98900
H  -11.16700 20.95500 42.40400
H  -14.97700 15.67000 42.33000
H  -9.77600 11.94100 42.74400
H  -6.83000 20.00100 43.46200
H  -8.85300 21.27900 41.83100
H  -7.86700 21.97000 43.97700
H  -9.21800 20.88300 44.70600
H  -9.51600 22.34200 43.64600
H  -7.00600 20.76100 40.61600
H  -6.71400 19.11400 40.59500
H  -4.80700 19.99900 42.49600
H  -4.87600 21.28200 41.25700
H  -13.19900 21.37200 41.34600
H  -14.80000 21.30700 42.25200
H  -14.69600 20.76200 40.53100
H  -17.77900 17.45800 40.85800
H  -16.85500 16.63000 42.12700
H  -16.18900 16.50400 40.48600
H  -14.34600 12.93200 42.01400
H  -12.19400 11.72400 43.35500
H  -14.41600 14.20100 44.58100
H  -13.61500 12.82800 44.73400
H  -15.30900 12.67100 44.00000
H  -11.82500 12.14300 40.44800
H  -13.46400 11.54300 40.88800
H  -11.66300 9.85000 42.25000
H  -11.07800 9.92700 40.54100
H  -12.70300 9.34900 40.97800
H  -7.65000 11.35300 43.15200
H  -6.22500 12.19900 43.77500
H  -6.40800 12.18200 42.07700
H  -4.92400 17.41900 42.55800
H  -3.06300 19.21200 45.71400
H  -2.94600 17.49900 46.37100
H  -4.33500 18.64600 46.69800

