158

Mg 16.18000 -1.99100 28.16200
C  15.14100 0.22900 30.70400
C  18.06400 -3.50700 30.52000
C  17.41100 -3.76600 25.63200
C  14.46700 0.16800 25.76900
N  16.50200 -1.69600 30.42900
C  15.90600 -0.78000 31.26800
C  16.26700 -1.05500 32.76800
C  17.35800 -2.10100 32.62400
C  17.37800 -2.44300 31.10300
C  18.82300 -1.74200 33.16800
C  15.07700 -1.45900 33.65700
C  14.78400 -1.00600 35.06800
H  16.00000 -0.47400 35.76000
N  17.46900 -3.60100 28.09600
C  18.11100 -4.07200 29.20600
C  18.91400 -5.18900 28.80500
C  18.65500 -5.42700 27.43700
C  17.76900 -4.26600 26.96900
C  19.67200 -6.11300 29.71900
C  19.13600 -6.47200 26.47100
O  18.77600 -6.50700 25.28600
C  20.15100 -7.46500 26.85200
N  15.98800 -1.76900 26.05900
C  16.61000 -2.66200 25.25700
C  16.31700 -2.34800 23.80800
C  15.05900 -1.40700 23.93200
C  15.23700 -0.91800 25.33700
C  17.60100 -1.76500 23.13000
C  13.61600 -1.89100 23.56500
C  12.85100 -1.00600 22.56100
N  15.02700 -0.21000 28.19700
C  14.36400 0.48300 27.16800
C  13.57900 1.55300 27.79800
C  13.93900 1.54600 29.15300
C  14.75600 0.42500 29.35000
C  12.64100 2.45800 26.94100
C  13.73300 2.22000 30.44000
O  13.12800 3.26000 30.71200
C  14.51300 1.35800 31.45800
C  15.56300 2.16400 32.12100
O  16.73700 2.21000 31.85800
O  14.97600 2.95100 33.08500
C  15.78100 3.89200 33.89800
H  18.49700 -4.14300 31.29500
H  17.77100 -4.41300 24.82900
H  13.81400 0.74200 25.10900
H  16.61800 -0.11700 33.20100
H  17.02600 -3.01200 33.12200
H  18.69000 -0.82400 33.74100
H  19.62000 -1.68900 32.42700
H  19.07100 -2.49800 33.91400
H  15.04400 -2.54300 33.54000
H  14.23700 -1.15700 33.03100
H  14.26100 -1.69000 35.73700
H  14.13700 -0.12900 35.08700
H  20.70900 -6.20200 29.39300
H  19.20400 -7.07000 29.94700
H  19.87200 -5.63200 30.67700
H  21.00500 -6.84500 27.12300
H  20.38400 -8.19900 26.08000
H  19.72500 -7.94500 27.73300
H  16.10800 -3.28900 23.29800
H  15.27200 -0.57300 23.26300
H  18.22600 -1.25400 23.86300
H  17.23900 -1.05700 22.38400
H  18.21700 -2.47500 22.57900
H  13.04100 -1.91700 24.49100
H  13.64100 -2.94500 23.28600
H  12.00400 -0.49600 23.02000
H  12.51400 -1.65900 21.75600
H  13.42800 -0.16200 22.18100
H  11.86600 1.75400 26.63500
H  13.11500 3.00300 26.12500
H  12.31300 3.26500 27.59500
H  13.93000 0.86000 32.23300
H  16.09000 4.74500 33.29400
H  16.55500 3.33500 34.42700
H  15.15400 4.36100 34.65700
Mg 49.23100 36.01800 27.65300
C  47.09400 35.00100 30.25400
C  49.80700 38.94800 29.50500
C  51.04200 37.26500 25.13900
C  48.42300 33.21700 25.80800
N  48.36100 36.95800 29.62300
C  47.71300 36.19100 30.58200
C  47.63700 36.95300 31.89500
C  48.18500 38.31000 31.59600
C  48.83900 38.13700 30.16700
C  47.19600 39.47300 31.66900
C  48.52000 36.17600 32.85900
C  47.94100 36.05300 34.29900
H  48.03500 37.19600 35.32000
N  50.35000 37.85400 27.38200
C  50.45800 38.88500 28.23900
C  51.40100 39.87700 27.81000
C  51.87900 39.32200 26.59600
C  51.03500 38.12800 26.30100
C  51.79100 41.17900 28.58000
C  52.97300 39.75700 25.60800
O  53.23900 39.14200 24.59100
C  53.59000 41.10900 25.92600
N  49.61400 35.38600 25.78900
C  50.41700 36.06100 24.91600
C  50.96300 35.13400 23.82800
C  50.06400 33.87800 23.98000
C  49.32400 34.15900 25.28700
C  51.12000 35.65800 22.42000
C  50.90600 32.54100 24.05600
C  50.23000 31.41600 23.17400
N  47.91300 34.42600 27.91400
C  47.71000 33.33000 27.11500
C  46.78400 32.41300 27.80100
C  46.42100 33.06100 28.98800
C  47.24000 34.24900 29.04000
C  46.21800 31.08500 27.22100
C  45.63600 33.03400 30.15800
O  44.80900 32.17900 30.54000
C  45.95000 34.24800 31.03500
C  46.32500 33.59200 32.32300
O  47.37100 32.92600 32.54400
O  45.22800 33.73300 33.15700
C  45.19700 32.67800 34.21800
H  50.00000 39.87800 30.04300
H  51.71200 37.51200 24.31200
H  48.24800 32.36400 25.14800
H  46.60500 36.92700 32.24400
H  48.94500 38.68700 32.28100
H  46.28500 39.01900 31.28000
H  47.37400 40.24200 30.91700
H  47.15200 39.83500 32.69600
H  49.46900 36.71200 32.83800
H  48.69600 35.17800 32.45800
H  48.31700 35.10600 34.68600
H  46.86500 35.91900 34.19000
H  51.23900 41.36400 29.50100
H  51.59400 42.01200 27.90600
H  52.85300 41.00500 28.75500
H  52.85100 41.90400 25.82300
H  54.39800 41.19400 25.19900
H  53.93400 41.05300 26.95900
H  51.98900 34.92800 24.13100
H  49.28800 33.85100 23.21500
H  51.06200 36.73900 22.29300
H  50.25400 35.33900 21.84000
H  51.95400 35.29300 21.82100
H  50.95900 32.11600 25.05900
H  51.91400 32.74000 23.69100
H  49.39700 31.78700 22.57700
H  49.90800 30.66300 23.89300
H  50.96000 30.89900 22.55200
H  46.51400 30.98200 26.17700
H  45.13200 31.17200 27.17800
H  46.58000 30.22900 27.79000
H  45.06000 34.87500 30.97300
H  44.57600 31.85200 33.86900
H  44.60100 33.09200 35.03100
H  46.16900 32.36700 34.60000

