158

Mg 9.22100 3.75900 28.00400
C  10.68000 2.21300 30.76100
C  7.25500 5.54700 29.98800
C  7.85000 5.02800 25.14900
C  11.08900 1.39500 25.93500
N  8.99100 3.73000 30.16600
C  9.78800 3.23900 31.11500
C  9.34600 3.72700 32.50000
C  8.04100 4.59200 32.20800
C  8.05800 4.65100 30.65500
C  6.67000 4.07000 32.74900
C  10.49600 4.37800 33.33400
C  10.19000 5.43400 34.39900
H  10.82600 5.23000 35.77800
N  7.98300 5.21200 27.64900
C  7.15600 5.88500 28.58000
C  6.30200 6.84700 27.96300
C  6.58200 6.79600 26.56300
C  7.53700 5.57900 26.39900
C  5.52900 7.87700 28.72800
C  6.10600 7.80400 25.52300
O  6.51700 7.71500 24.36400
C  5.15300 8.86200 25.94500
N  9.54200 3.25500 25.86500
C  8.81400 3.93300 24.92000
C  9.11100 3.42700 23.50000
C  9.96700 2.11600 23.84300
C  10.32800 2.34700 25.27400
C  7.95800 3.01000 22.51700
C  11.15000 1.98400 22.79200
C  12.40000 2.89900 22.98900
N  10.42000 2.01200 28.21400
C  11.16000 1.27800 27.34200
C  11.96300 0.31900 28.06400
C  11.85300 0.67700 29.44200
C  10.90900 1.68900 29.46400
C  12.79700 -0.83900 27.57600
C  12.27400 0.34600 30.77500
O  13.00500 -0.52400 31.15300
C  11.58100 1.38100 31.69700
C  10.77100 0.69400 32.61500
O  9.72400 0.12400 32.31700
O  11.34000 0.72300 33.87000
C  10.61300 -0.18400 34.87800
H  6.58600 6.19300 30.56000
H  7.30000 5.40100 24.28300
H  11.78300 0.85300 25.28900
H  9.10900 2.78500 32.99600
H  8.09800 5.61600 32.58000
H  6.36000 4.72600 33.56300
H  6.70200 3.09900 33.24300
H  5.95800 3.96100 31.93100
H  11.08700 4.92800 32.60200
H  11.06200 3.54200 33.74600
H  9.13200 5.64600 34.54900
H  10.54900 6.43700 34.16600
H  5.95900 8.87500 28.81100
H  5.47000 7.70800 29.80300
H  4.49800 7.91900 28.37800
H  4.30400 8.28400 26.31000
H  4.83900 9.40700 25.05400
H  5.54500 9.59400 26.65100
H  9.73500 4.16700 22.99700
H  9.40900 1.18000 23.87900
H  8.10800 2.00900 22.11300
H  7.78100 3.82500 21.81500
H  7.04200 3.00500 23.10800
H  10.71800 2.01000 21.79200
H  11.57200 0.98500 22.90600
H  13.03600 2.23500 23.57300
H  12.08000 3.79200 23.52600
H  12.68100 3.15300 21.96600
H  13.76900 -0.62200 27.13200
H  12.17300 -1.35100 26.84400
H  12.93600 -1.44300 28.47300
H  12.41900 1.94800 32.10300
H  9.86200 -0.83800 34.43500
H  10.23900 0.43100 35.69600
H  11.35200 -0.86100 35.30800
Mg 45.20100 3.38200 47.18600
C  42.83400 5.73300 46.60700
C  42.66300 0.93900 47.07100
C  47.54600 0.95100 47.02100
C  47.67500 5.86500 46.81300
N  43.02600 3.29700 46.63800
C  42.29900 4.44500 46.61700
C  40.79200 4.10000 46.37900
C  40.69400 2.65800 47.10100
C  42.19700 2.28400 47.03200
C  39.97000 2.69800 48.55400
C  40.44200 4.13600 44.83800
C  39.24800 4.92000 44.39700
H  39.43100 5.79300 43.18400
N  45.10900 1.25500 47.20800
C  44.00000 0.53200 47.10500
C  44.34600 -0.91800 47.13100
C  45.76400 -0.98300 47.14200
C  46.21100 0.43400 47.11600
C  43.27800 -1.99100 47.14300
C  46.66400 -2.30400 47.13600
O  46.06500 -3.37000 47.14700
C  48.08500 -2.14200 47.02500
N  47.21200 3.39000 46.77300
C  48.00300 2.26000 46.91600
C  49.55400 2.57800 46.90300
C  49.53200 4.11600 47.01400
C  48.08000 4.47900 46.75500
C  50.38800 1.80600 48.02000
C  50.55600 4.80700 46.04900
C  51.43800 5.87100 46.76100
N  45.28400 5.40900 46.76100
C  46.36500 6.31800 46.73300
C  45.76100 7.67100 46.61600
C  44.36300 7.45300 46.58400
C  44.16200 6.04600 46.63800
C  46.45000 9.01600 46.54600
C  43.13800 8.12400 46.43800
O  42.90800 9.32800 46.42500
C  42.08200 6.99200 46.56400
C  41.33100 7.13600 47.87700
O  41.77500 6.77900 48.98100
O  40.01100 7.38600 47.62200
C  39.07400 7.49900 48.71200
H  41.83000 0.23300 47.08300
H  48.40000 0.27100 47.03700
H  48.40500 6.67000 46.92100
H  40.20000 4.81600 46.94900
H  39.96400 2.12600 46.49100
H  39.21600 1.91800 48.66100
H  39.51700 3.66900 48.75100
H  40.77100 2.46000 49.25400
H  40.37900 3.09200 44.53100
H  41.26800 4.50800 44.23100
H  38.71600 5.32200 45.25900
H  38.42200 4.31700 44.01900
H  43.02400 -2.16100 46.09700
H  42.44300 -1.66000 47.75900
H  43.68400 -2.88600 47.61600
H  48.25700 -1.45600 46.19500
H  48.69000 -3.02900 46.83700
H  48.44400 -1.73300 47.96900
H  49.87900 2.27600 45.90700
H  49.76800 4.31600 48.06000
H  50.94100 0.99800 47.54100
H  49.80300 1.50300 48.88800
H  51.10400 2.55100 48.36800
H  49.99100 5.26800 45.23900
H  51.36600 4.18400 45.66900
H  51.39700 5.87700 47.85100
H  51.28600 6.91600 46.49100
H  52.47000 5.68100 46.46800
H  47.05500 9.10300 45.64300
H  47.09600 9.06800 47.42200
H  45.70900 9.81400 46.48500
H  41.32700 7.01400 45.77900
H  38.22800 8.14200 48.46700
H  39.52200 7.79800 49.66000
H  38.66000 6.49100 48.71200

