158

Mg 46.89900 16.08600 28.07900
C  44.98700 15.82300 30.74700
C  49.20500 17.84900 29.94200
C  48.58000 17.04100 25.20100
C  44.47700 14.50000 26.17600
N  46.98900 16.78200 30.05700
C  46.09100 16.56900 31.02400
C  46.65900 16.99700 32.38000
C  47.74600 18.08700 31.97600
C  48.00500 17.58500 30.50300
C  47.33100 19.56600 32.07900
C  47.04400 15.72800 33.28100
C  46.46700 15.82300 34.70400
H  46.31300 17.17900 35.41700
N  48.78200 17.04800 27.63500
C  49.54700 17.62200 28.60900
C  50.82300 18.02600 27.97600
C  50.65600 17.89500 26.54500
C  49.25800 17.33000 26.41100
C  51.99900 18.63100 28.78500
C  51.60900 18.32300 25.49500
O  51.32400 18.32200 24.32500
C  52.91400 18.95500 25.83100
N  46.57100 15.87700 26.01800
C  47.34000 16.45000 25.03800
C  46.81000 16.04100 23.69700
C  45.63900 15.12000 24.02900
C  45.48700 15.18300 25.51000
C  46.43100 17.33500 22.82600
C  45.80900 13.70300 23.57200
C  44.69200 13.15500 22.64900
N  45.05000 15.26500 28.36200
C  44.25800 14.60600 27.54700
C  43.10500 14.10400 28.31000
C  43.35100 14.46800 29.62000
C  44.57600 15.24400 29.55000
C  41.91800 13.34700 27.75400
C  42.85400 14.52300 30.94200
O  41.90600 13.96900 31.49900
C  43.93800 15.35100 31.71200
C  43.32800 16.43800 32.52300
O  43.00200 17.55600 32.08700
O  43.17000 15.97300 33.77300
C  42.36000 16.86200 34.51800
H  50.02000 18.33600 30.48000
H  49.16000 17.32500 24.32100
H  43.65600 13.92600 25.74100
H  45.85300 17.49400 32.92100
H  48.59200 17.87100 32.62800
H  46.28400 19.69800 32.35400
H  47.53000 20.02000 31.10800
H  47.78000 20.20900 32.83600
H  48.13200 15.66200 33.29300
H  46.74200 14.81400 32.76900
H  47.18300 15.24700 35.29100
H  45.50800 15.33600 34.87900
H  51.93600 18.53200 29.86900
H  51.84300 19.69300 28.59400
H  52.90500 18.16800 28.39400
H  52.59700 19.81800 26.41700
H  53.42100 19.40000 24.97500
H  53.53700 18.29000 26.42900
H  47.60200 15.54600 23.13300
H  44.76800 15.66200 23.66200
H  46.57400 18.30600 23.29900
H  45.42900 17.31300 22.39800
H  47.13200 17.38600 21.99200
H  45.84900 13.12100 24.49300
H  46.74300 13.62700 23.01500
H  43.71700 13.62700 22.77000
H  44.51600 12.09900 22.85600
H  45.01000 13.24600 21.61000
H  42.40900 12.38600 27.60000
H  41.60800 13.76100 26.79500
H  41.11100 13.38200 28.48700
H  44.40500 14.67900 32.43100
H  41.34000 17.04500 34.18000
H  42.91300 17.76900 34.76300
H  42.26500 16.39000 35.49600
Mg 0.73500 42.98900 25.73100
C  2.35900 43.77500 28.82400
C  -2.15000 42.13400 27.49300
C  -0.50300 41.99900 22.94300
C  3.88800 43.60700 24.21700
N  0.19600 42.96900 27.95000
C  0.96700 43.35000 29.01100
C  0.25500 43.02600 30.33500
C  -1.12200 42.38000 29.85400
C  -1.04400 42.57500 28.31800
C  -1.24700 40.88600 30.20900
C  0.18000 44.38900 31.10700
C  0.65600 44.44400 32.62600
H  0.12800 43.30900 33.61800
N  -1.09400 42.19900 25.31500
C  -2.22600 41.92700 26.11700
C  -3.33900 41.32600 25.35500
C  -2.75900 41.22800 24.01100
C  -1.39900 41.83000 24.03500
C  -4.64800 40.78500 25.87500
C  -3.38200 40.64500 22.82000
O  -2.75300 40.57400 21.78100
C  -4.81300 40.20200 22.72000
N  1.58600 42.77800 23.86300
C  0.79600 42.46200 22.81400
C  1.54500 42.57400 21.46400
C  2.91600 43.15600 21.89600
C  2.82900 43.23800 23.40400
C  1.70500 41.21100 20.82300
C  3.27200 44.53000 21.26600
C  2.87900 45.86200 21.88700
N  2.70600 43.66400 26.37600
C  3.86700 43.85800 25.60100
C  4.98200 44.34900 26.49800
C  4.44100 44.24700 27.76000
C  3.08800 43.96800 27.59900
C  6.40800 44.54700 26.06100
C  4.75500 44.29700 29.16800
O  5.82900 44.47000 29.78000
C  3.39300 43.94300 29.88200
C  3.68200 42.73000 30.66200
O  3.88900 41.61100 30.21500
O  3.65900 42.98000 32.03200
C  3.92300 41.73700 32.80400
H  -2.99400 41.72300 28.05000
H  -0.83400 41.79800 21.92200
H  4.81500 43.91000 23.72500
H  0.87100 42.29300 30.85500
H  -2.01200 42.88000 30.23600
H  -2.09100 40.61900 30.84500
H  -0.40200 40.62200 30.84400
H  -1.34800 40.31100 29.28900
H  -0.88400 44.61800 31.05000
H  0.67800 45.21800 30.60400
H  0.31800 45.36700 33.09700
H  1.74000 44.44900 32.73200
H  -4.68000 39.70600 25.72900
H  -5.51100 41.32000 25.47900
H  -4.75400 40.90100 26.95400
H  -4.92800 39.69600 21.76200
H  -5.40100 41.11900 22.67100
H  -5.05400 39.36400 23.37400
H  0.88900 43.14100 20.80500
H  3.71900 42.42800 21.78400
H  0.94600 41.05400 20.05700
H  1.67000 40.44100 21.59400
H  2.66600 41.20500 20.31000
H  2.98000 44.40900 20.22300
H  4.35900 44.51100 21.19000
H  2.13300 45.71400 22.66800
H  2.44500 46.46000 21.08600
H  3.77700 46.39400 22.20100
H  6.57700 45.62400 26.05300
H  6.68100 44.01200 25.15200
H  7.02100 44.14100 26.86500
H  3.15900 44.62500 30.69900
H  4.90100 41.37000 32.49400
H  3.23500 40.91400 32.61100
H  3.94500 42.03700 33.85200

