158

Mg 40.97000 9.24600 29.60900
C  42.77600 10.37700 32.46700
C  38.61900 7.84300 31.73800
C  39.32100 8.72000 26.96600
C  43.69300 10.61900 27.67100
N  40.83800 9.03300 31.85100
C  41.70600 9.56600 32.80500
C  41.13000 9.29100 34.21000
C  39.89200 8.31300 33.94900
C  39.71700 8.44000 32.45400
C  40.18400 6.84300 34.38900
C  40.78900 10.55000 35.02200
C  41.27300 10.41700 36.49300
H  41.18000 11.54400 37.40200
N  39.27100 8.37800 29.39000
C  38.41900 7.91100 30.35600
C  37.24100 7.43200 29.64400
C  37.43400 7.71500 28.28300
C  38.75400 8.29600 28.20100
C  36.24200 6.68400 30.38100
C  36.35100 7.64200 27.15600
O  36.48600 8.07800 26.05000
C  35.11200 6.93700 27.47200
N  41.53400 9.47300 27.55900
C  40.55400 9.29700 26.66500
C  41.07400 9.39700 25.17100
C  42.46900 10.09300 25.46300
C  42.55900 10.14300 27.03900
C  41.12500 8.06200 24.42100
C  42.70400 11.49100 24.84400
C  41.65900 12.57500 25.17000
N  42.82100 10.16300 29.95500
C  43.85700 10.62100 29.09200
C  44.92100 11.25900 29.78800
C  44.47500 11.23700 31.09300
C  43.24900 10.57200 31.16000
C  46.14200 12.03800 29.28100
C  44.89800 11.62600 32.36800
O  45.90900 12.19300 32.78100
C  43.77900 11.10900 33.33200
C  44.52100 10.29200 34.36800
O  44.87500 9.16600 34.22800
O  44.87000 11.03200 35.51100
C  45.40600 10.29500 36.63100
H  37.98300 7.36900 32.48900
H  38.68300 8.51900 26.10200
H  44.42100 11.12500 27.03300
H  41.87200 8.76700 34.81300
H  39.08300 8.57900 34.63000
H  39.38400 6.54900 35.07000
H  41.14700 6.87000 34.89800
H  40.20000 6.13100 33.56300
H  39.70200 10.53900 35.09300
H  40.97800 11.47100 34.46900
H  42.30200 10.06000 36.52500
H  40.67300 9.61600 36.92300
H  35.38700 7.33900 30.20900
H  36.34800 6.51700 31.45200
H  36.06900 5.76000 29.83000
H  34.51700 7.56400 28.13600
H  35.20700 6.01700 28.05000
H  34.43200 6.72100 26.64900
H  40.39700 10.04500 24.61400
H  43.31700 9.49400 25.12900
H  41.93200 8.09100 23.68900
H  40.18800 7.75000 23.95900
H  41.35500 7.22700 25.08200
H  42.84900 11.37100 23.77000
H  43.62300 11.92400 25.23800
H  42.21000 13.47300 25.44900
H  40.90000 12.24200 25.87700
H  41.24300 12.85300 24.20200
H  46.33300 11.88800 28.21900
H  46.99700 11.71100 29.87400
H  46.02200 13.09000 29.53800
H  43.34100 11.99900 33.78500
H  45.56500 9.22000 36.54800
H  44.76900 10.36000 37.51200
H  46.34700 10.72000 36.98100
Mg 49.11900 46.43700 42.52400
C  45.83000 46.34700 41.48500
C  49.50800 43.12900 41.07500
C  52.37600 46.47500 43.21600
C  48.85500 49.78200 43.34500
N  47.73400 44.81800 41.45200
C  46.45100 45.10800 41.02200
C  45.86600 43.93800 40.19200
C  47.07000 42.88300 40.12600
C  48.20100 43.68200 40.89500
C  46.73600 41.53500 40.81800
C  45.40700 44.43700 38.74700
C  43.92900 44.14200 38.42900
H  43.48600 43.10000 37.34900
N  50.69800 45.00300 42.25000
C  50.63300 43.73500 41.62200
C  51.92600 43.10800 41.66700
C  52.78200 43.99700 42.42100
C  51.97700 45.20200 42.62500
C  52.19300 41.78300 41.04700
C  54.19600 43.78500 42.84400
O  54.77900 42.80500 42.47000
C  54.96400 44.77600 43.74500
N  50.40000 47.89200 43.02800
C  51.75600 47.67600 43.41900
C  52.46000 48.99500 43.77000
C  51.22800 49.98700 43.70800
C  50.02900 49.13800 43.35200
C  53.32600 49.06200 45.08900
C  51.65400 51.35200 42.91700
C  51.19300 52.62400 43.70200
N  47.59600 47.84500 42.46400
C  47.64300 49.17700 42.84000
C  46.32500 49.68000 42.80900
C  45.54400 48.60000 42.29500
C  46.44600 47.51400 42.08200
C  46.00200 51.06000 43.00200
C  44.23400 48.23100 41.89700
O  43.15500 48.89600 41.77800
C  44.27700 46.72300 41.45400
C  43.51700 45.95700 42.46300
O  43.87200 45.75000 43.59600
O  42.26600 45.66800 42.02600
C  41.35500 45.09500 43.04000
H  49.42000 42.15500 40.58800
H  53.45400 46.64200 43.25300
H  48.74900 50.86100 43.47300
H  45.01600 43.56000 40.76100
H  47.50300 42.78400 39.13100
H  45.65100 41.43900 40.85400
H  47.13100 41.58200 41.83300
H  47.17500 40.62100 40.41900
H  45.99600 43.97600 37.95400
H  45.57500 45.51000 38.65500
H  43.49300 45.08500 38.09800
H  43.28100 43.89600 39.27100
H  53.16300 41.35900 41.30700
H  52.16600 42.06400 39.99400
H  51.42200 41.04900 41.28400
H  55.40600 45.59900 43.18200
H  55.71400 44.29100 44.37000
H  54.28900 45.08000 44.54500
H  53.17300 49.15200 42.96000
H  50.87100 50.17600 44.72100
H  54.33600 49.30900 44.76200
H  53.28700 48.12100 45.63800
H  52.96200 49.92500 45.64800
H  51.28900 51.22000 41.89800
H  52.73700 51.30900 42.79500
H  50.50300 52.28600 44.47600
H  50.64000 53.33800 43.09200
H  52.03700 53.14200 44.15600
H  44.91600 51.15500 43.03000
H  46.48900 51.57100 42.17200
H  46.43100 51.49300 43.90600
H  43.91700 46.57100 40.43700
H  40.36700 45.10800 42.58000
H  41.38800 45.66400 43.96900
H  41.67800 44.06900 43.21600

