158

Mg 46.43700 24.63500 28.16800
C  47.19900 26.81700 31.00900
C  45.74100 22.17100 30.48000
C  46.57000 22.43000 25.69300
C  47.43400 27.20100 26.14200
N  46.63600 24.49600 30.46600
C  46.76700 25.54200 31.38900
C  46.64600 24.99600 32.85800
C  46.26100 23.52000 32.60200
C  46.11100 23.34500 31.11100
C  47.10900 22.48400 33.27300
C  45.56800 25.79100 33.66200
C  45.86400 26.57900 34.90500
H  44.85800 26.49700 36.03500
N  46.09600 22.61900 28.09000
C  45.77900 21.77200 29.15400
C  45.58200 20.34700 28.65500
C  45.76400 20.44500 27.18100
C  46.19600 21.86300 26.90200
C  45.19200 19.12700 29.60100
C  45.74700 19.42600 26.20500
O  46.12400 19.51700 25.07100
C  45.31200 18.07100 26.70600
N  47.12800 24.76900 26.25100
C  46.96500 23.71500 25.33600
C  47.33800 24.25700 23.94100
C  47.17400 25.75900 24.07400
C  47.22300 25.97500 25.60100
C  48.78800 23.79900 23.64400
C  45.92000 26.35100 23.40200
C  44.59900 26.25900 24.27600
N  47.03300 26.64500 28.39100
C  47.43000 27.53600 27.41800
C  47.67000 28.80900 28.03500
C  47.63700 28.55500 29.47700
C  47.27900 27.25100 29.61000
C  48.03800 30.08700 27.36200
C  47.96500 29.15300 30.71300
O  48.35300 30.24900 31.02200
C  47.67000 28.03400 31.85100
C  48.92200 27.61900 32.55000
O  49.97100 27.36300 31.97500
O  48.75200 27.68100 33.92500
C  49.89300 27.28600 34.72500
H  45.36000 21.43000 31.18600
H  46.66900 21.72500 24.86500
H  47.46700 27.98300 25.38000
H  47.65500 25.07300 33.26300
H  45.29100 23.43400 33.09100
H  47.68300 21.91300 32.54300
H  46.53400 21.79700 33.89500
H  47.94600 22.91600 33.82200
H  44.65200 25.21700 33.79600
H  45.28000 26.59000 32.98000
H  45.95200 27.64300 34.68400
H  46.82000 26.23500 35.29900
H  46.07800 18.50900 29.74500
H  44.42100 18.55100 29.09000
H  44.78100 19.49000 30.54300
H  44.24400 17.95800 26.89300
H  45.96700 17.72100 27.50400
H  45.42200 17.43400 25.82900
H  46.69400 23.88900 23.14300
H  47.96000 26.33700 23.58900
H  49.46400 24.65200 23.58400
H  48.66500 23.44100 22.62200
H  49.23500 23.00800 24.24700
H  45.59700 25.95900 22.43700
H  46.11500 27.41500 23.26700
H  44.60300 27.17200 24.87200
H  44.70200 25.38500 24.91900
H  43.68200 26.20800 23.68800
H  47.72000 30.14100 26.32000
H  49.12800 30.09100 27.37000
H  47.74500 30.97800 27.91600
H  46.95100 28.44900 32.55800
H  50.69800 28.00500 34.87600
H  50.36000 26.41100 34.27200
H  49.58600 26.89700 35.69600
Mg 46.49200 34.64700 28.19100
C  44.87700 32.67900 30.58900
C  46.52200 37.30600 30.37500
C  47.22500 36.72600 25.57900
C  45.39000 32.20900 25.71100
N  46.01200 34.76900 30.29800
C  45.44900 33.82600 31.10000
C  45.40400 34.32800 32.50500
C  45.45500 35.90600 32.30700
C  46.01700 36.05500 30.87800
C  44.19800 36.74800 32.62300
C  46.63900 33.84200 33.25700
C  46.52700 33.81100 34.80000
H  45.60400 34.77200 35.52600
N  47.05900 36.64900 28.10400
C  47.04900 37.56200 29.14400
C  47.71100 38.76300 28.64200
C  47.84200 38.64700 27.23200
C  47.33800 37.30100 26.90700
C  47.98800 39.90800 29.61700
C  48.40900 39.66200 26.30600
O  48.60200 39.45500 25.10400
C  48.82500 41.09500 26.84500
N  46.26200 34.52700 25.90500
C  46.86400 35.42200 25.16100
C  46.85100 34.97900 23.64400
C  46.48200 33.44800 23.81600
C  46.01700 33.36500 25.23100
C  45.80200 35.82800 22.83300
C  47.70700 32.53400 23.54200
C  47.44500 31.21400 22.80400
N  45.47100 32.76400 28.10100
C  45.15800 31.89300 27.05100
C  44.60800 30.69200 27.67700
C  44.53900 30.98600 29.03900
C  44.96300 32.27200 29.21900
C  44.29200 29.45700 26.84600
C  44.11800 30.42200 30.30800
O  43.82300 29.31300 30.58800
C  43.92400 31.62600 31.26800
C  44.18600 31.22300 32.73000
O  44.98700 30.36400 33.09200
O  43.23700 31.78700 33.48000
C  43.03700 31.48100 34.86600
H  46.27200 38.12500 31.05300
H  47.50300 37.46600 24.82500
H  45.25100 31.42500 24.96400
H  44.50400 33.93300 32.97500
H  46.11400 36.20800 33.12000
H  44.26700 37.42100 33.47800
H  43.46900 35.96500 32.83400
H  43.86300 37.49700 31.90700
H  47.55500 34.29200 32.87700
H  46.77600 32.79300 32.99200
H  47.52600 33.99100 35.19500
H  46.30700 32.79200 35.12000
H  47.89600 39.53500 30.63700
H  47.39700 40.79000 29.36800
H  49.04100 40.14400 29.45900
H  49.07100 41.64700 25.93900
H  49.71100 41.01200 27.47500
H  47.99400 41.56400 27.37400
H  47.79500 35.10900 23.11500
H  45.72100 33.06800 23.13500
H  44.86400 35.35900 22.53600
H  46.32700 36.39300 22.06300
H  45.53700 36.60600 23.55000
H  48.20300 32.31200 24.48700
H  48.45200 33.10300 22.98600
H  46.47900 31.27200 22.30200
H  47.53300 30.33700 23.44500
H  48.19400 31.22600 22.01300
H  45.17700 29.19800 26.26500
H  43.48200 29.59100 26.12900
H  44.07200 28.62400 27.51300
H  42.93500 32.08400 31.28100
H  41.98400 31.32400 35.10000
H  43.50900 32.24900 35.47900
H  43.66500 30.59900 34.99100

