158

Mg 1.85600 -1.12800 44.22500
C  5.28100 -0.46100 43.40000
C  1.08700 1.75200 42.41300
C  -1.24100 -2.07600 44.25100
C  2.92700 -4.28900 45.44900
N  3.05100 0.32400 42.84600
C  4.42700 0.45200 42.77400
C  4.88100 1.76700 42.07700
C  3.49800 2.55100 41.93900
C  2.42800 1.47000 42.37400
C  3.39700 3.82200 42.81400
C  5.57600 1.55200 40.70400
C  6.51900 2.70600 40.36900
H  7.01600 2.75800 38.86200
N  0.19700 -0.29500 43.45200
C  0.04500 0.90700 42.86600
C  -1.38700 1.21300 42.56200
C  -2.16000 0.14800 43.12100
C  -1.08200 -0.82300 43.64100
C  -1.97800 2.51700 41.89600
C  -3.67100 0.03800 43.19600
O  -4.36300 0.83700 42.58700
C  -4.32300 -1.02200 43.92100
N  1.01900 -2.92700 44.72100
C  -0.38800 -3.05700 44.71900
C  -0.86900 -4.36800 45.33200
C  0.45700 -5.01700 45.78000
C  1.58300 -4.05300 45.25000
C  -1.97700 -4.35100 46.49600
C  0.53900 -6.54800 45.38100
C  1.23000 -7.57800 46.24600
N  3.70900 -2.18900 44.56900
C  4.01000 -3.40800 45.17500
C  5.45400 -3.61500 45.32600
C  5.94000 -2.53100 44.65400
C  4.87600 -1.64500 44.17000
C  6.14300 -4.80500 45.93600
C  7.23800 -1.79200 44.34100
O  8.41700 -2.21900 44.53500
C  6.84100 -0.47100 43.55000
C  7.47700 0.61800 44.32800
O  7.60000 0.79800 45.52700
O  8.02100 1.53900 43.42600
C  8.89800 2.51300 44.02300
H  0.67800 2.66400 41.97300
H  -2.24500 -2.44800 44.46600
H  3.25900 -5.21700 45.91800
H  5.56400 2.27600 42.75700
H  3.36400 2.81800 40.89000
H  2.55200 4.35600 42.37900
H  4.33900 4.34800 42.96700
H  3.13000 3.41500 43.78900
H  4.84400 1.48600 39.89900
H  5.87400 0.50400 40.67000
H  7.35900 2.50900 41.03600
H  5.98200 3.63300 40.56800
H  -2.78700 2.10600 41.29200
H  -1.21200 2.97800 41.27200
H  -2.49000 3.13200 42.63600
H  -3.80400 -1.01900 44.88000
H  -4.10800 -1.95400 43.39900
H  -5.37900 -0.81000 44.08900
H  -1.24100 -4.94600 44.48600
H  0.49000 -4.93600 46.86700
H  -1.64100 -4.95200 47.34100
H  -2.92200 -4.63900 46.03500
H  -2.10400 -3.31400 46.80600
H  1.08800 -6.60100 44.44000
H  -0.43300 -7.03600 45.30700
H  0.71600 -7.70200 47.20000
H  2.20000 -7.12800 46.45400
H  1.37100 -8.45300 45.61100
H  6.00600 -5.55300 45.15600
H  5.59200 -5.13600 46.81600
H  7.17800 -4.59300 46.20500
H  7.42500 -0.43100 42.63100
H  9.18700 3.25400 43.27800
H  9.84900 2.01000 44.19900
H  8.49200 3.10800 44.84100
Mg 54.00600 24.32500 44.82500
C  51.48600 26.39800 43.59400
C  52.70100 21.61400 42.92000
C  56.89100 22.49500 45.11200
C  55.46900 27.09800 46.27000
N  52.41200 24.03400 43.25400
C  51.53100 25.11900 42.91800
C  50.47100 24.52700 41.81600
C  50.65900 22.97000 41.98000
C  52.04000 22.81100 42.72300
C  49.52300 22.25800 42.74300
C  50.63000 25.23600 40.40700
C  50.67500 24.46400 39.08000
H  52.03700 24.44200 38.26700
N  54.62500 22.24900 44.38400
C  53.91900 21.31000 43.59800
C  54.66200 20.06300 43.62600
C  55.87900 20.26600 44.37500
C  55.84000 21.67700 44.66700
C  54.09400 18.76700 42.98400
C  56.88900 19.21000 44.81800
O  56.79300 18.02700 44.45000
C  57.95000 19.67600 45.74700
N  55.88100 24.67600 45.76300
C  56.96700 23.83600 45.57800
C  58.23400 24.45000 46.17100
C  57.75200 25.95500 46.41200
C  56.27600 25.92900 46.15500
C  58.93600 23.73900 47.38100
C  58.56600 26.98200 45.53800
C  58.14800 27.11500 43.98700
N  53.53900 26.28100 45.03300
C  54.13800 27.27600 45.80400
C  53.29100 28.41500 46.00900
C  52.19900 28.13400 45.15700
C  52.49100 26.86000 44.50600
C  53.45000 29.60600 46.85000
C  50.98300 28.64500 44.64800
O  50.40400 29.69300 44.78200
C  50.45000 27.55200 43.58000
C  50.18100 28.14400 42.22800
O  51.04700 28.65200 41.48800
O  48.85800 28.06100 41.93000
C  48.33100 28.65400 40.73700
H  52.20300 20.73500 42.50500
H  57.92200 22.13800 45.09700
H  55.78300 27.84900 46.99700
H  49.48300 24.74800 42.22100
H  50.64300 22.50000 40.99700
H  48.73600 22.92300 43.10000
H  49.96200 21.68400 43.55900
H  49.06800 21.47900 42.13200
H  51.48400 25.90500 40.50900
H  49.75100 25.87200 40.30400
H  49.86300 24.88900 38.49000
H  50.32400 23.43600 39.17100
H  54.48800 18.48000 42.00900
H  53.01000 18.83700 42.89700
H  54.07600 17.93400 43.68600
H  57.57700 20.39100 46.48100
H  58.86700 20.10500 45.34400
H  58.34900 18.83100 46.30800
H  59.01400 24.55000 45.41600
H  57.90900 26.24700 47.45100
H  59.01800 24.43600 48.21500
H  59.92400 23.38200 47.09100
H  58.26600 22.99400 47.81000
H  59.58800 26.62700 45.67200
H  58.52000 27.99300 45.94300
H  59.08700 27.02100 43.44200
H  57.62300 28.02900 43.70900
H  57.55500 26.26800 43.64200
H  53.87800 29.14700 47.74100
H  52.50700 30.08700 47.11300
H  54.21700 30.18200 46.33300
H  49.54100 27.11400 43.99200
H  49.00800 28.73700 39.88700
H  47.84200 29.61700 40.88800
H  47.52500 28.09300 40.26600

