158

Mg 49.88400 45.11700 42.29100
C  46.66300 45.78600 40.98100
C  49.46000 41.83200 41.16800
C  53.27800 44.74000 42.24600
C  50.38800 48.62300 42.55100
N  48.20200 43.97600 41.33200
C  46.99200 44.43800 40.83000
C  46.24000 43.30900 40.08600
C  47.03700 42.06300 40.54300
C  48.28700 42.61700 41.11700
C  46.36000 41.21200 41.61300
C  46.30300 43.57700 38.53100
C  45.11500 43.00100 37.76600
H  44.82200 43.41700 36.36400
N  51.15300 43.52200 41.98000
C  50.79500 42.24700 41.55700
C  51.96900 41.34900 41.70400
C  53.08000 42.22600 42.06600
C  52.48900 43.58000 42.11300
C  51.77000 39.89600 41.67400
C  54.54200 41.71600 42.35200
O  54.78400 40.55900 42.19100
C  55.56000 42.60800 43.00800
N  51.61700 46.44900 42.68100
C  52.85200 46.05000 42.51700
C  53.86200 47.19800 42.55200
C  52.94800 48.47800 42.57800
C  51.54300 47.84100 42.62200
C  54.91900 47.03500 43.73400
C  53.19600 49.39300 41.32200
C  52.62800 48.92100 39.93000
N  48.78500 46.86300 41.97500
C  49.14500 48.18900 42.08700
C  47.99000 49.03000 41.66000
C  46.96600 48.15300 41.32400
C  47.52400 46.83800 41.51700
C  47.95200 50.50100 41.55100
C  45.66300 48.08500 40.73100
O  44.82200 48.94900 40.46500
C  45.49500 46.54100 40.38100
C  44.06300 46.21200 40.70600
O  43.16300 46.19200 39.86900
O  43.96900 45.78300 42.00000
C  42.58600 45.60200 42.51300
H  49.35500 40.78300 40.88300
H  54.36700 44.67500 42.20500
H  50.58800 49.69700 42.56200
H  45.20000 43.31700 40.41400
H  47.12500 41.44400 39.65000
H  45.34800 41.56300 41.81400
H  46.93300 41.20000 42.54000
H  46.39100 40.16700 41.30400
H  47.23800 43.11900 38.20800
H  46.59800 44.59600 38.27900
H  44.19300 43.08300 38.34100
H  45.16900 41.91400 37.70400
H  52.72200 39.42000 41.90700
H  51.35700 39.45900 40.76400
H  51.15600 39.76400 42.56500
H  55.03500 43.18700 43.76700
H  55.95100 43.18600 42.17100
H  56.24000 41.87100 43.43800
H  54.51800 47.24700 41.68300
H  53.09700 48.93900 43.55500
H  55.23500 46.01800 43.96400
H  54.52900 47.49100 44.64400
H  55.77000 47.59900 43.35300
H  54.27300 49.54300 41.25900
H  52.74300 50.36000 41.54000
H  51.77000 49.54600 39.68400
H  52.34300 47.87000 39.96400
H  53.34000 49.01700 39.11100
H  47.14200 50.82900 40.89900
H  48.84700 50.98600 41.16100
H  47.88900 51.04900 42.49100
H  45.60900 46.44800 39.30100
H  41.83900 45.17600 41.84300
H  42.15100 46.49900 42.95300
H  42.81900 45.03300 43.41300
Mg 41.47800 41.04000 27.51500
C  41.18400 43.44700 30.14500
C  42.50400 38.79700 29.84900
C  41.93900 38.88700 25.03400
C  40.95800 43.49800 25.32700
N  41.79200 41.12600 29.80900
C  41.53700 42.19100 30.64300
C  41.59900 41.74000 32.05000
C  42.25000 40.31800 31.95000
C  42.23500 40.07000 30.43900
C  43.69700 40.10100 32.48400
C  40.14200 41.68100 32.70400
C  40.13000 42.37400 34.08700
H  39.44700 41.72200 35.39500
N  42.18100 39.12600 27.43700
C  42.50900 38.32000 28.54300
C  42.70400 36.99900 28.15200
C  42.51900 36.95000 26.70300
C  42.17500 38.34300 26.32300
C  43.14800 35.87000 29.07300
C  42.56300 35.83000 25.75300
O  42.04300 35.89500 24.60400
C  43.27100 34.62900 26.15000
N  41.64100 41.28100 25.51700
C  41.71800 40.17400 24.62700
C  41.54400 40.55400 23.15200
C  41.23800 42.03000 23.31300
C  41.20400 42.29300 24.78800
C  42.81800 40.12600 22.34600
C  40.00400 42.54900 22.52300
C  38.64900 41.94100 22.80900
N  41.11900 43.05800 27.66500
C  40.96200 43.97700 26.64800
C  40.75800 45.29800 27.11800
C  40.74000 45.08300 28.49400
C  41.05400 43.76900 28.78400
C  40.33500 46.51700 26.39400
C  40.41400 45.73100 29.77400
O  40.11200 46.88800 30.01500
C  40.78600 44.62700 30.94800
C  41.93800 45.14300 31.74900
O  43.09300 44.95200 31.44200
O  41.54600 45.80100 32.84000
C  42.48000 46.41200 33.68700
H  42.73700 38.00000 30.55900
H  41.76400 38.13200 24.26400
H  40.77300 44.25800 24.56500
H  42.31200 42.41800 32.52000
H  41.62600 39.52400 32.36100
H  43.96500 40.97100 33.08400
H  44.40900 39.94500 31.67300
H  43.71300 39.18100 33.06700
H  39.73200 40.68600 32.87500
H  39.34800 42.14100 32.11500
H  39.61400 43.31700 33.90700
H  41.09500 42.81900 34.33200
H  42.66300 34.94300 28.76500
H  42.95400 35.96000 30.14200
H  44.22700 35.76300 28.96400
H  43.31300 33.95700 25.29300
H  42.69000 34.08400 26.89400
H  44.25400 34.95200 26.49200
H  40.61100 40.07300 22.85700
H  42.07000 42.65600 22.99100
H  43.71300 39.93500 22.93800
H  43.00900 40.93200 21.63800
H  42.59400 39.24200 21.74900
H  40.24300 42.38200 21.47300
H  40.02300 43.63500 22.61300
H  38.57600 41.32800 23.70800
H  38.41700 41.30100 21.95800
H  37.88200 42.70800 22.91300
H  41.19600 47.15100 26.18100
H  39.57500 47.01300 26.99700
H  39.85300 46.33700 25.43300
H  39.97000 44.49400 31.65700
H  43.34000 46.83000 33.16300
H  42.88300 45.84300 34.52500
H  41.88800 47.18000 34.18600

