158

Mg -8.42900 40.11000 42.90800
C  -7.40500 36.86900 42.06400
C  -5.61400 41.26100 41.24700
C  -9.71500 43.23800 43.12000
C  -11.38800 38.79500 44.12200
N  -6.75800 39.15000 41.67500
C  -6.52300 37.80500 41.54100
C  -5.26000 37.58800 40.73300
C  -4.48500 38.93200 40.84700
C  -5.69400 39.83400 41.26000
C  -3.26000 38.82500 41.87700
C  -5.57600 37.15500 39.26900
C  -5.28700 35.74700 38.72000
H  -4.19400 35.55600 37.64600
N  -7.74900 41.98100 42.39600
C  -6.53300 42.25800 41.66300
C  -6.38300 43.67100 41.45100
C  -7.45900 44.24500 42.08500
C  -8.41700 43.13200 42.57800
C  -5.17900 44.29500 40.73300
C  -7.68300 45.71600 42.12500
O  -7.01100 46.47500 41.51600
C  -8.76400 46.34700 42.96600
N  -10.36900 40.88900 43.45900
C  -10.59800 42.23200 43.55100
C  -12.03800 42.48300 44.06100
C  -12.48000 41.02700 44.49000
C  -11.39500 40.18700 43.97600
C  -12.15600 43.54800 45.23500
C  -13.93000 40.61900 44.08500
C  -14.02900 40.28200 42.57900
N  -9.25900 38.20900 43.09300
C  -10.45600 37.81500 43.73000
C  -10.55100 36.38200 43.66500
C  -9.38200 36.00700 43.04700
C  -8.61100 37.11300 42.69900
C  -11.77500 35.67000 44.17800
C  -8.50800 34.82200 42.71300
O  -8.73400 33.63700 42.91700
C  -7.28300 35.36100 41.89200
C  -6.02600 34.85300 42.47600
O  -5.37800 35.30600 43.44200
O  -5.66100 33.73300 41.83800
C  -4.41000 33.04900 42.19500
H  -4.67200 41.62000 40.82700
H  -10.09600 44.25300 43.25200
H  -12.30400 38.37400 44.54200
H  -4.68900 36.80500 41.23300
H  -4.11400 39.26900 39.88000
H  -3.12900 39.68400 42.53400
H  -2.41800 38.71000 41.19400
H  -3.29300 37.92600 42.49300
H  -5.09700 37.82700 38.55700
H  -6.66000 37.23500 39.18800
H  -6.17400 35.23700 38.34300
H  -4.92700 35.33300 39.66300
H  -5.39700 45.24500 40.24500
H  -4.74100 43.67500 39.95100
H  -4.39100 44.36400 41.48300
H  -8.51800 47.39800 43.12200
H  -8.90500 45.91600 43.95800
H  -9.66000 46.20100 42.36200
H  -12.61800 42.80000 43.19400
H  -12.33800 40.85600 45.55700
H  -11.28000 44.19500 45.19200
H  -12.17900 43.03400 46.19600
H  -12.98300 44.25000 45.13600
H  -14.60300 41.44800 44.30200
H  -14.17600 39.70600 44.62900
H  -13.87300 39.21600 42.41500
H  -13.49200 40.98400 41.94100
H  -15.09500 40.37300 42.37000
H  -11.32600 34.68300 44.28600
H  -12.61000 35.77700 43.48600
H  -12.05000 36.07200 45.15400
H  -7.23400 35.08000 40.84000
H  -3.56600 33.69700 42.43000
H  -4.13200 32.30500 41.44900
H  -4.56300 32.38900 43.04900
Mg -5.91300 24.55200 26.69700
C  -4.16500 26.11500 29.38700
C  -7.05300 22.28300 29.08000
C  -7.64800 23.18800 24.29300
C  -4.14000 26.55100 24.49600
N  -5.53200 24.19200 28.97600
C  -4.93800 25.03900 29.80800
C  -5.19400 24.68800 31.24900
C  -5.78500 23.22200 31.16400
C  -6.23100 23.22200 29.64800
C  -4.69000 22.20700 31.41200
C  -6.20700 25.63100 31.94200
C  -5.93600 26.02100 33.46500
H  -5.94200 24.76400 34.43000
N  -7.16500 23.00700 26.73300
C  -7.49400 22.21900 27.78300
C  -8.40300 21.14600 27.27700
C  -8.56600 21.38800 25.91500
C  -7.76300 22.58300 25.55400
C  -8.75000 19.93500 28.10200
C  -9.45600 20.62600 24.90600
O  -9.46700 20.86200 23.70500
C  -10.42200 19.59000 25.35400
N  -5.89700 24.79500 24.66600
C  -6.73300 24.21300 23.86400
C  -6.54800 24.53800 22.39400
C  -5.37300 25.60100 22.37700
C  -5.12300 25.71100 23.93200
C  -6.25600 23.24000 21.49100
C  -5.71500 27.01700 21.77600
C  -6.76900 27.05600 20.62600
N  -4.45500 25.92700 26.84800
C  -3.87900 26.67600 25.83100
C  -2.96000 27.58500 26.44700
C  -3.01000 27.37500 27.77900
C  -3.95400 26.38200 28.00000
C  -2.12200 28.62900 25.67400
C  -2.50300 27.87500 29.12000
O  -1.70900 28.73300 29.49000
C  -3.25700 27.03500 30.16500
C  -2.32200 26.38800 31.02000
O  -1.81600 25.34000 30.80200
O  -2.12200 27.07700 32.23300
C  -1.34700 26.40100 33.32500
H  -7.49700 21.55700 29.76400
H  -8.40100 22.84300 23.58200
H  -3.61100 27.28100 23.87900
H  -4.31300 24.59700 31.88500
H  -6.48800 23.13700 31.99300
H  -4.77900 21.93800 32.46500
H  -3.71300 22.65500 31.22800
H  -4.83600 21.32400 30.79000
H  -7.15600 25.09700 31.98400
H  -6.46400 26.55500 31.42400
H  -6.67400 26.77200 33.74700
H  -5.00500 26.55800 33.64900
H  -9.82500 19.95300 28.27800
H  -8.23400 19.79800 29.05200
H  -8.44700 19.02100 27.59000
H  -10.85900 19.93900 26.28900
H  -9.82900 18.68200 25.46800
H  -11.28800 19.41500 24.71600
H  -7.53500 24.92400 22.13700
H  -4.48000 25.20000 21.89900
H  -7.05500 23.23800 20.75000
H  -6.43600 22.35500 22.10300
H  -5.26600 23.24700 21.03300
H  -4.72900 27.39200 21.50000
H  -6.05700 27.67600 22.57300
H  -7.61500 27.44900 21.19000
H  -6.97400 26.13300 20.08200
H  -6.38000 27.77200 19.90200
H  -1.17200 28.25300 25.29300
H  -1.88700 29.40700 26.40100
H  -2.66300 28.94300 24.78200
H  -3.93600 27.68900 30.71300
H  -0.75600 27.13700 33.86900
H  -0.62700 25.63600 33.03600
H  -2.07300 26.03900 34.05300

