158

Mg 8.94600 2.85300 27.91100
C  10.17800 1.14300 30.71100
C  7.15400 4.78200 29.95800
C  7.82700 4.43600 25.16500
C  10.44200 0.48500 25.87300
N  8.64200 2.84700 30.14900
C  9.26800 2.14200 31.09000
C  8.95500 2.73000 32.49200
C  8.07000 3.89100 32.17600
C  7.83500 3.81700 30.67000
C  6.81400 4.03300 33.02300
C  10.31400 3.24100 33.11600
C  10.17500 4.05900 34.46100
H  10.96300 3.69300 35.68200
N  7.55100 4.33200 27.57900
C  6.93800 5.02700 28.56800
C  6.28200 6.21000 28.03500
C  6.58100 6.19600 26.65800
C  7.33800 4.93600 26.40100
C  5.45300 7.21700 28.86900
C  6.12700 7.26700 25.60000
O  6.35300 7.04200 24.40300
C  5.29800 8.39300 26.04500
N  9.15300 2.52500 25.82900
C  8.57100 3.28300 24.91900
C  8.75000 2.85400 23.44200
C  9.67800 1.64000 23.60700
C  9.79300 1.51900 25.19800
C  7.43100 2.74900 22.59700
C  11.06200 1.72700 22.80300
C  11.16100 0.69900 21.66700
N  10.07800 1.15600 28.24200
C  10.62500 0.33400 27.27000
C  11.34200 -0.71100 27.98400
C  11.23200 -0.35700 29.30100
C  10.46800 0.78500 29.39500
C  12.11500 -1.87400 27.43100
C  11.69400 -0.77200 30.57500
O  12.24600 -1.74000 30.97600
C  11.08000 0.30600 31.54000
C  10.49200 -0.34600 32.76400
O  9.38500 -0.89200 32.85700
O  11.44700 -0.28200 33.84500
C  11.08200 -0.82300 35.15700
H  6.63600 5.46400 30.63600
H  7.60100 4.93200 24.21900
H  10.86300 -0.27700 25.21300
H  8.52100 2.06000 33.23500
H  8.58500 4.80000 32.48900
H  6.87500 5.08000 33.31900
H  6.65200 3.28200 33.79600
H  5.91800 3.92100 32.41200
H  10.80700 3.86900 32.37400
H  10.89600 2.37100 33.42200
H  9.12200 3.87500 34.67500
H  10.36200 5.12200 34.30700
H  4.44400 7.45200 28.52900
H  5.98300 8.14700 29.07300
H  5.30400 6.86100 29.88800
H  5.75600 8.83500 26.93000
H  4.32200 7.93700 26.20900
H  5.18600 9.12600 25.24600
H  9.41300 3.60400 23.01100
H  9.10800 0.81300 23.18300
H  7.28600 3.69000 22.06500
H  6.54600 2.68600 23.23000
H  7.48500 1.82200 22.02600
H  11.86000 1.48700 23.50600
H  11.22400 2.75500 22.48000
H  11.69800 1.15000 20.83400
H  10.14900 0.40500 21.38600
H  11.74000 -0.17700 21.96000
H  12.13900 -2.48400 28.33500
H  13.09800 -1.61600 27.03700
H  11.52100 -2.44800 26.72000
H  11.92000 0.90100 31.89800
H  12.03100 -1.20800 35.53000
H  10.32100 -1.60200 35.20200
H  10.80500 -0.03000 35.85300
Mg 36.07500 0.56400 29.43700
C  33.76000 1.85400 31.84500
C  38.51400 0.65700 32.05200
C  38.43300 -0.08800 27.15200
C  33.71900 1.10600 26.98500
N  36.11700 1.22200 31.66700
C  35.05700 1.62000 32.40700
C  35.36500 1.76200 33.86100
C  36.97300 1.60600 33.87000
C  37.26800 1.17900 32.43500
C  37.79600 2.77800 34.33100
C  34.67600 0.74300 34.78900
C  34.68500 1.03300 36.33000
H  35.18100 2.35800 36.85000
N  38.12000 0.19300 29.59200
C  38.97900 0.34600 30.68700
C  40.36500 0.00200 30.31900
C  40.37200 -0.26200 28.97500
C  38.91100 -0.02900 28.48500
C  41.42200 -0.07700 31.35500
C  41.49200 -0.71300 28.07500
O  41.32100 -0.86200 26.87200
C  42.85200 -0.87400 28.57000
N  36.05800 0.38400 27.33200
C  37.18300 0.07500 26.61600
C  36.91300 -0.01000 25.06000
C  35.30600 0.30400 25.03700
C  35.01500 0.64700 26.50100
C  37.74100 0.95500 24.28700
C  34.44600 -0.83700 24.51700
C  33.03600 -0.46700 23.95000
N  34.16900 1.33500 29.38900
C  33.32000 1.41700 28.26900
C  32.01900 1.85100 28.72500
C  32.19600 2.04200 30.14400
C  33.48000 1.74600 30.47600
C  30.77900 2.03400 27.90700
C  31.43900 2.45100 31.33800
O  30.32100 2.88800 31.45900
C  32.41800 2.35800 32.52500
C  32.44200 3.74400 33.06700
O  33.21000 4.63200 32.71000
O  31.58300 3.96700 34.07300
C  31.18700 5.31000 34.51800
H  39.20200 0.65500 32.89900
H  39.22700 -0.12700 26.40400
H  32.95400 1.39500 26.26100
H  34.98400 2.72500 34.20100
H  37.32800 0.79400 34.50400
H  37.20000 3.66500 34.54600
H  38.66300 2.95800 33.69500
H  38.32700 2.56800 35.25900
H  35.21400 -0.15100 34.47500
H  33.65500 0.72800 34.40800
H  35.14700 0.23100 36.90500
H  33.63800 0.96800 36.62600
H  42.13400 -0.88600 31.19100
H  41.09400 -0.28600 32.37200
H  41.94300 0.87400 31.24500
H  43.54300 -0.92500 27.72800
H  42.90100 -1.77300 29.18600
H  43.20900 -0.05600 29.19500
H  37.22000 -0.92400 24.55200
H  35.18100 1.19100 24.41600
H  38.47400 1.40800 24.95600
H  37.20600 1.83500 23.93000
H  38.39500 0.42800 23.59300
H  34.33100 -1.57100 25.31500
H  35.03700 -1.38700 23.78500
H  32.97300 -0.87900 22.94300
H  32.91500 0.61500 24.00300
H  32.26500 -0.83000 24.63000
H  29.92200 2.29000 28.53100
H  30.57500 1.08800 27.40500
H  30.88700 2.82500 27.16400
H  31.99100 1.65400 33.23900
H  30.58500 5.30100 35.42600
H  30.57200 5.73200 33.72300
H  32.04200 5.97900 34.62400

