158

Mg 35.93000 0.94400 29.77000
C  33.85600 2.34700 32.24700
C  38.48600 0.71900 32.05600
C  37.94000 0.33800 27.24400
C  33.32200 1.62000 27.32700
N  36.11600 1.47800 31.93600
C  35.13600 1.90300 32.81500
C  35.64300 1.98800 34.25900
C  37.23500 1.76000 34.07400
C  37.35100 1.28500 32.60400
C  38.19000 2.79900 34.59100
C  34.86400 0.90800 35.09300
C  34.12100 1.38800 36.30800
H  34.62800 2.65300 36.96900
N  37.89300 0.40600 29.68600
C  38.77600 0.35300 30.72200
C  40.00900 -0.15700 30.23200
C  39.88100 -0.22200 28.80900
C  38.51400 0.25900 28.46800
C  41.27000 -0.33300 31.10000
C  40.96300 -0.69900 27.79800
O  40.66400 -0.66100 26.62000
C  42.40300 -1.01200 28.22300
N  35.59100 0.85900 27.57600
C  36.65600 0.57100 26.78000
C  36.32600 0.77200 25.29800
C  34.72900 0.86100 25.33000
C  34.52700 1.14000 26.80000
C  36.97300 2.06100 24.77300
C  33.92700 -0.41200 24.78600
C  33.28100 -0.23300 23.44700
N  34.06300 1.86600 29.73800
C  33.07100 2.08000 28.64400
C  31.87300 2.51500 29.23800
C  32.10500 2.72100 30.60300
C  33.45300 2.30200 30.88000
C  30.62400 2.91600 28.53900
C  31.40700 3.02200 31.82900
O  30.24600 3.38400 31.94500
C  32.53200 2.85800 32.93300
C  32.66900 4.23100 33.66800
O  33.31700 5.16400 33.24100
O  31.83700 4.25400 34.77100
C  31.74100 5.51900 35.46100
H  39.24700 0.73500 32.83900
H  38.65400 0.16000 26.43700
H  32.44300 1.62600 26.67900
H  35.56500 3.01300 34.62000
H  37.48900 0.81100 34.54700
H  37.61400 3.60900 35.03800
H  38.87500 3.17400 33.83000
H  38.81200 2.36000 35.37200
H  35.62500 0.21300 35.44700
H  34.16900 0.51600 34.35000
H  33.86200 0.60500 37.02100
H  33.15700 1.70800 35.91300
H  41.05200 0.00800 32.11200
H  42.12300 0.24500 30.74600
H  41.59800 -1.37200 31.14300
H  42.88500 -1.08700 27.24800
H  42.44900 -1.90300 28.84800
H  42.86600 -0.16500 28.73000
H  36.77000 -0.04400 24.72900
H  34.39800 1.74500 24.78500
H  37.67300 2.41800 25.52900
H  36.33000 2.89400 24.48900
H  37.50000 1.77000 23.86500
H  33.29800 -0.70500 25.62600
H  34.63800 -1.22300 24.62800
H  33.08600 -1.13800 22.87200
H  33.75000 0.59000 22.90700
H  32.24200 0.02800 23.65100
H  30.57000 2.62900 27.48900
H  30.43200 3.98900 28.57200
H  29.74500 2.41100 28.93800
H  32.12800 2.05200 33.54600
H  32.74200 5.85000 35.73700
H  31.11900 5.31400 36.33300
H  31.33400 6.25000 34.76300
Mg 47.57400 33.84100 26.74900
C  45.71400 32.69000 29.64000
C  48.25500 36.74200 28.65100
C  48.71500 35.37500 24.04900
C  46.40500 31.27700 24.90400
N  46.97800 34.67100 28.89300
C  46.36300 33.94600 29.86500
C  46.60400 34.64900 31.25800
C  47.07900 36.15400 30.85100
C  47.52100 35.84500 29.43500
C  45.98100 37.30900 30.88700
C  47.74500 33.87000 31.97600
C  48.04000 34.14600 33.47200
H  46.96200 35.04300 34.20400
N  48.34900 35.70300 26.40100
C  48.56500 36.77600 27.32000
C  49.28200 37.83800 26.64100
C  49.45800 37.45300 25.29200
C  48.86800 36.10300 25.18300
C  49.77000 39.11700 27.33100
C  50.05100 38.22200 24.10500
O  50.19300 37.74700 23.02400
C  50.40400 39.73000 24.24800
N  47.67800 33.36700 24.84000
C  48.17100 34.14900 23.83700
C  48.27700 33.38700 22.53100
C  47.64500 32.06000 22.81400
C  47.18500 32.21200 24.28900
C  47.82400 34.02400 21.19100
C  48.67400 30.91600 22.63100
C  49.49800 30.12400 23.69300
N  46.47200 32.23500 27.21600
C  46.02900 31.31600 26.31600
C  45.10200 30.39700 26.96400
C  45.00200 30.93800 28.26100
C  45.74000 32.09700 28.34300
C  44.39400 29.27100 26.29400
C  44.33500 30.69900 29.50600
O  43.55300 29.80200 29.81400
C  44.77900 31.83600 30.50600
C  45.54000 31.14500 31.56400
O  46.66300 30.64200 31.48400
O  44.79300 31.14500 32.67500
C  45.34100 30.30700 33.79400
H  48.44700 37.64800 29.22900
H  49.07500 35.77300 23.09800
H  46.02900 30.42100 24.34100
H  45.69800 34.67700 31.86400
H  47.88400 36.39600 31.54500
H  45.06600 36.91600 31.33100
H  45.85600 37.84800 29.94800
H  46.30800 38.04800 31.61900
H  48.62300 34.22100 31.43300
H  47.72500 32.79000 31.83100
H  48.99000 34.67900 33.51400
H  48.19100 33.20200 33.99600
H  50.80500 39.35500 27.08500
H  49.74000 38.94500 28.40700
H  49.03600 39.88900 27.10400
H  50.88400 39.98100 23.30200
H  51.07700 39.90500 25.08700
H  49.52300 40.36700 24.32100
H  49.36200 33.34800 22.44200
H  46.70400 31.83200 22.31400
H  46.98100 34.68500 21.39400
H  47.56900 33.30100 20.41600
H  48.61700 34.61700 20.73500
H  49.43300 31.25600 21.92700
H  48.17900 30.13300 22.05600
H  49.21800 30.59600 24.63500
H  50.57000 30.24700 23.53600
H  49.17700 29.08500 23.62400
H  43.41600 29.13600 26.75700
H  45.08600 28.49400 26.62000
H  44.22400 29.44100 25.23100
H  43.88900 32.40900 30.76900
H  46.40700 30.34800 34.02100
H  45.17300 29.23000 33.77000
H  44.91700 30.76100 34.68900

