158

Mg 1.76400 -0.96300 45.67500
C  5.14600 0.01900 45.00500
C  0.74600 1.59600 43.61300
C  -1.23800 -2.46700 45.74500
C  3.15100 -4.20800 46.60000
N  2.89700 0.58100 44.34800
C  4.27100 0.80800 44.29800
C  4.58900 2.01600 43.37800
C  3.14200 2.47600 42.95000
C  2.12700 1.54800 43.72600
C  2.90300 3.97600 43.13100
C  5.56100 1.57400 42.23500
C  6.55200 2.67000 41.84500
H  7.32900 2.31400 40.54600
N  -0.01500 -0.42200 44.92400
C  -0.26200 0.74200 44.09700
C  -1.68000 0.77900 43.93800
C  -2.34600 -0.28200 44.67800
C  -1.16700 -1.07800 45.22600
C  -2.30000 1.90600 43.20700
C  -3.84100 -0.59400 44.86700
O  -4.64600 0.07400 44.18200
C  -4.39100 -1.52700 45.98200
N  1.05700 -3.07500 46.10500
C  -0.26500 -3.30000 46.21400
C  -0.50100 -4.71800 46.69500
C  0.88300 -5.32600 46.73200
C  1.80600 -4.14000 46.46500
C  -1.28500 -4.80400 48.05200
C  1.23300 -6.45400 45.77300
C  2.04800 -7.66700 46.16200
N  3.71900 -1.89400 45.89800
C  4.07600 -3.19000 46.32100
C  5.49300 -3.24200 46.53400
C  5.91900 -1.91800 46.17300
C  4.84300 -1.15500 45.65400
C  6.28300 -4.36100 47.22200
C  7.10700 -1.02900 46.11900
O  8.26700 -1.25300 46.46300
C  6.60700 0.30500 45.39900
C  6.68400 1.45300 46.31700
O  5.99500 1.57400 47.32100
O  7.58500 2.35800 45.72900
C  7.58700 3.67700 46.47100
H  0.46000 2.48700 43.05000
H  -2.20600 -2.89800 46.00800
H  3.58400 -5.14000 46.96700
H  5.12900 2.74200 43.98700
H  3.02400 2.29100 41.88200
H  3.74900 4.52200 43.55100
H  1.99100 4.19400 43.68700
H  2.70400 4.24300 42.09400
H  5.12800 1.28700 41.27700
H  6.10400 0.66100 42.48000
H  7.31100 2.82100 42.61300
H  6.07400 3.64600 41.76500
H  -3.27400 1.77100 42.73400
H  -1.57000 2.45000 42.60800
H  -2.36200 2.62600 44.02300
H  -3.84200 -1.29500 46.89500
H  -4.32600 -2.54100 45.58700
H  -5.45500 -1.29300 46.00000
H  -1.15500 -5.16900 45.94900
H  1.08700 -5.57800 47.77300
H  -1.04700 -5.69500 48.63200
H  -2.32800 -4.89800 47.75100
H  -1.19100 -3.89200 48.64300
H  1.82200 -5.93400 45.01800
H  0.26000 -6.65600 45.32500
H  2.90600 -7.65600 45.48900
H  1.40200 -8.52900 45.99400
H  2.41500 -7.71900 47.18600
H  5.83700 -4.63100 48.18000
H  7.33200 -4.14400 47.42200
H  6.21900 -5.19400 46.52200
H  7.23600 0.57600 44.55100
H  7.07100 3.69800 47.43100
H  7.33800 4.57700 45.90900
H  8.61500 3.88900 46.76500
Mg 23.85200 -4.76400 45.10300
C  26.23900 -2.38400 43.68500
C  21.36400 -3.18100 43.31100
C  21.88900 -7.33900 45.87100
C  26.71500 -6.38300 46.47300
N  23.89600 -3.08800 43.65800
C  24.91700 -2.33100 43.20800
C  24.43100 -1.24000 42.24000
C  22.88300 -1.34800 42.22500
C  22.70200 -2.61600 43.10400
C  22.12100 -0.17200 42.90200
C  25.16100 -1.41200 40.92200
C  25.20200 -0.25100 39.97300
H  24.85400 -0.51000 38.45500
N  21.88800 -5.21300 44.67700
C  21.03700 -4.37300 44.06400
C  19.73000 -5.00100 44.08500
C  19.76700 -6.21800 44.74200
C  21.19300 -6.29000 45.16900
C  18.51100 -4.42800 43.25900
C  18.64300 -7.25200 45.00900
O  17.53400 -7.12500 44.54600
C  18.90500 -8.53200 45.73600
N  24.34100 -6.70400 45.75900
C  23.25900 -7.48500 46.19900
C  23.83900 -8.76700 46.95000
C  25.34300 -8.38400 47.25000
C  25.50200 -7.07500 46.41500
C  23.08800 -9.25800 48.19500
C  26.42100 -9.44200 47.08500
C  27.41900 -9.61200 48.26600
N  26.01000 -4.38100 45.22200
C  26.99300 -5.12600 45.93900
C  28.31600 -4.52300 45.67700
C  28.08500 -3.47500 44.82300
C  26.64100 -3.33400 44.66700
C  29.59000 -4.93600 46.37100
C  28.70800 -2.38900 44.08000
O  29.83400 -2.01500 44.03800
C  27.51100 -1.73500 43.28000
C  27.39700 -0.30300 43.57200
O  26.95100 0.16300 44.60200
O  27.90300 0.46900 42.55500
C  27.73900 1.90700 42.62300
H  20.61300 -2.67900 42.69900
H  21.32000 -8.21000 46.20300
H  27.50900 -6.90500 47.01100
H  24.79600 -0.30800 42.67300
H  22.43500 -1.47000 41.23900
H  21.25400 -0.44900 43.50300
H  21.61500 0.45700 42.17000
H  22.70600 0.43900 43.58900
H  24.75700 -2.33000 40.49500
H  26.19300 -1.75900 40.96600
H  26.17200 0.21700 40.14300
H  24.47400 0.49600 40.28700
H  18.85000 -3.73000 42.49400
H  17.74600 -4.01500 43.91700
H  18.01500 -5.26600 42.77000
H  18.05700 -9.19600 45.90900
H  19.30400 -8.26800 46.71600
H  19.56200 -9.14000 45.11300
H  23.94000 -9.61900 46.27800
H  25.37400 -7.97100 48.25800
H  22.67300 -10.23500 47.94700
H  22.17000 -8.69800 48.37100
H  23.67400 -9.40400 49.10200
H  26.90600 -9.32600 46.11600
H  25.88400 -10.38700 47.01100
H  27.09500 -10.41600 48.92700
H  27.54200 -8.77400 48.95200
H  28.40200 -9.74100 47.81400
H  29.55700 -6.02400 46.32400
H  29.65700 -4.60700 47.40800
H  30.45600 -4.61100 45.79400
H  27.74700 -1.78300 42.21700
H  27.10800 2.26100 43.43800
H  27.22700 2.21500 41.71200
H  28.73200 2.35300 42.68900

