158

Mg -0.46000 7.30200 26.30000
C  0.37600 9.64700 28.80800
C  -0.16700 4.88900 28.73900
C  -0.73000 5.16800 23.76400
C  -0.32000 9.96500 23.90400
N  -0.03800 7.28100 28.52400
C  0.34600 8.32500 29.29400
C  0.34800 7.94600 30.77500
C  0.44200 6.34400 30.70300
C  0.11900 6.13300 29.20300
C  1.84300 5.73800 31.13500
C  -0.88500 8.55700 31.49500
C  -0.56100 9.29700 32.85000
H  0.70900 9.01600 33.59800
N  -0.49500 5.39400 26.29300
C  -0.35900 4.51100 27.37100
C  -0.59000 3.18400 26.90000
C  -0.78600 3.23300 25.46000
C  -0.70800 4.65300 25.10400
C  -0.60700 1.91200 27.76400
C  -1.03400 2.05500 24.41800
O  -1.15700 2.21700 23.18100
C  -1.34900 0.62600 24.88500
N  -0.47500 7.61900 24.05700
C  -0.71400 6.50600 23.28500
C  -0.92700 6.88800 21.87900
C  -1.10000 8.47100 21.93800
C  -0.64300 8.74500 23.37100
C  0.24500 6.41600 20.96000
C  -2.52200 9.00000 21.55200
C  -3.28700 9.82500 22.63900
N  -0.03700 9.36400 26.28600
C  -0.03300 10.29500 25.26600
C  0.47100 11.60500 25.82000
C  0.55100 11.41100 27.16000
C  0.26700 10.01900 27.44500
C  0.72600 12.85200 25.09500
C  0.75600 12.04200 28.41400
O  0.94900 13.22000 28.70300
C  0.58100 10.94400 29.60900
C  1.92500 10.95800 30.26600
O  3.04200 10.63300 29.83600
O  1.77800 11.40400 31.57800
C  3.02500 11.73600 32.31100
H  -0.10100 4.10600 29.49700
H  -0.91800 4.41000 23.00200
H  -0.40200 10.80700 23.21400
H  1.33500 8.33200 31.03100
H  -0.32000 5.80000 31.26200
H  2.54300 5.81100 30.30300
H  1.79300 4.70500 31.48000
H  2.04700 6.36900 32.00000
H  -1.62700 7.79300 31.72700
H  -1.36600 9.27800 30.83400
H  -1.48100 9.32000 33.43400
H  -0.46800 10.34200 32.55400
H  -1.62900 1.56400 27.91700
H  -0.33500 2.04000 28.81100
H  0.04300 1.15200 27.33100
H  -2.14700 0.61200 25.62700
H  -0.46400 0.12800 25.28100
H  -1.66500 -0.02500 24.07000
H  -1.83300 6.40600 21.50900
H  -0.31000 8.86200 21.29700
H  1.02400 6.03900 21.62200
H  0.61200 7.22500 20.32900
H  -0.04800 5.54800 20.36800
H  -3.11500 8.13000 21.27000
H  -2.46800 9.67400 20.69700
H  -3.13100 9.30400 23.58400
H  -4.35700 9.67300 22.49600
H  -3.00400 10.87700 22.65200
H  1.17100 12.72000 24.10900
H  1.34400 13.53800 25.67400
H  -0.28300 13.25600 25.01000
H  -0.18400 11.25500 30.32000
H  2.83700 12.30300 33.22300
H  3.60400 12.38700 31.65600
H  3.68200 10.88600 32.49500
Mg 8.27700 3.72800 27.95000
C  9.97900 2.33600 30.58000
C  6.71700 5.87300 30.07300
C  6.57000 4.87900 25.27000
C  9.97900 1.50700 25.88400
N  8.10800 3.94800 30.08100
C  9.00800 3.25900 30.96500
C  9.01300 3.86300 32.35900
C  7.86000 4.92200 32.22100
C  7.50100 4.92600 30.72000
C  6.57500 4.73300 33.16900
C  10.36200 4.50800 32.83200
C  11.14000 3.81300 33.97600
H  11.22100 4.57900 35.30100
N  6.83100 5.18300 27.69700
C  6.30000 5.99700 28.67300
C  5.27300 6.79700 28.03400
C  5.23100 6.58000 26.65200
C  6.25100 5.44600 26.47100
C  4.46500 7.81600 28.89700
C  4.36000 7.21400 25.51800
O  4.53400 6.89000 24.34200
C  3.41400 8.34400 25.81200
N  8.28500 3.23900 25.88900
C  7.50200 3.89200 24.97000
C  7.86200 3.57600 23.50900
C  9.04800 2.56700 23.76600
C  9.05200 2.37500 25.29400
C  6.66200 3.00400 22.70400
C  10.44400 2.98400 23.09500
C  11.14600 1.96200 22.08100
N  9.58900 2.13300 28.16500
C  10.15000 1.29900 27.21500
C  11.09300 0.41000 27.85400
C  11.06100 0.80900 29.20600
C  10.12500 1.85700 29.33600
C  11.91700 -0.67800 27.23400
C  11.55800 0.45800 30.48400
O  12.37800 -0.38900 30.73800
C  10.88400 1.40400 31.50100
C  10.08900 0.61800 32.54300
O  8.92500 0.21200 32.49800
O  10.97600 0.37000 33.54600
C  10.34100 -0.20500 34.69400
H  6.17200 6.51200 30.76900
H  6.07900 5.22900 24.36000
H  10.46600 0.89900 25.11800
H  8.69400 3.16600 33.13400
H  8.29000 5.90000 32.43900
H  5.69500 4.63400 32.53400
H  6.57700 5.53800 33.90300
H  6.54300 3.86900 33.83300
H  10.13400 5.52800 33.14200
H  11.02300 4.50000 31.96500
H  12.15100 3.48400 33.73600
H  10.63600 2.87800 34.21900
H  4.74300 7.68600 29.94300
H  3.44600 7.50600 28.66900
H  4.73400 8.81700 28.55900
H  2.66400 8.19300 26.58900
H  2.97300 8.80400 24.92900
H  4.07800 9.14600 26.13400
H  8.14700 4.58500 23.21200
H  8.90400 1.53600 23.44400
H  5.79700 2.96700 23.36700
H  6.80600 1.95800 22.43500
H  6.55200 3.61100 21.80500
H  11.05600 3.21500 23.96700
H  10.26900 3.94900 22.62000
H  11.08600 2.37000 21.07200
H  10.65100 0.99300 22.02400
H  12.21200 1.90800 22.30000
H  12.30400 -0.18800 26.34000
H  11.46900 -1.64000 26.98800
H  12.71000 -0.88100 27.95400
H  11.71600 1.98600 31.89700
H  9.65600 -0.99400 34.38400
H  9.79800 0.57000 35.23600
H  11.11000 -0.55500 35.38200

