158

Mg 17.37200 -2.34800 28.01400
C  16.35400 -0.39800 30.84000
C  19.48500 -4.13300 30.09100
C  18.89900 -3.65400 25.36900
C  15.41300 -0.31000 26.07300
N  17.89000 -2.23700 30.21500
C  17.30100 -1.41100 31.18900
C  17.60400 -1.96700 32.60500
C  18.75700 -3.01000 32.29700
C  18.71300 -3.12700 30.77900
C  20.10600 -2.61900 32.82800
C  16.31600 -2.60000 33.17300
C  15.93500 -2.21000 34.56500
H  17.00400 -1.64400 35.54200
N  18.91200 -3.81000 27.76500
C  19.56600 -4.48700 28.76700
C  20.32900 -5.56500 28.19100
C  20.16200 -5.48700 26.77100
C  19.33100 -4.27400 26.52800
C  21.06500 -6.55900 29.07200
C  20.80100 -6.30600 25.68400
O  20.64800 -6.11000 24.50600
C  21.95300 -7.29100 26.05900
N  17.37200 -1.80100 26.04400
C  18.03600 -2.55500 25.09600
C  17.64600 -2.11000 23.71100
C  16.49300 -1.07000 23.87700
C  16.38800 -1.06100 25.43300
C  18.82000 -1.68200 22.86200
C  15.20100 -1.47400 23.07000
C  14.75600 -0.55200 21.91200
N  16.20200 -0.67400 28.36000
C  15.32100 -0.05300 27.47100
C  14.48700 0.92400 28.14100
C  14.89200 0.89100 29.47000
C  15.83400 -0.13000 29.55400
C  13.53600 1.76200 27.49500
C  14.72700 1.43800 30.81700
O  14.04500 2.42000 31.20700
C  15.63800 0.57600 31.75800
C  16.62500 1.46200 32.42400
O  17.66900 1.91700 31.83800
O  16.17300 1.81600 33.68700
C  16.99100 2.90300 34.26500
H  20.01000 -4.74800 30.82500
H  19.22700 -4.28000 24.53600
H  14.65700 0.16100 25.44100
H  18.04100 -1.24300 33.29200
H  18.61700 -4.04200 32.61700
H  20.47500 -1.95700 32.04500
H  20.69100 -3.49800 33.10200
H  19.99200 -1.99700 33.71600
H  16.45800 -3.68100 33.15100
H  15.54100 -2.28200 32.47600
H  15.63300 -3.08000 35.14800
H  15.07000 -1.54900 34.52200
H  21.06500 -7.59100 28.72300
H  20.59400 -6.57100 30.05500
H  22.09800 -6.22100 29.15100
H  21.63100 -8.26400 26.43100
H  22.54100 -6.80200 26.83600
H  22.56400 -7.46700 25.17400
H  17.18600 -3.00300 23.28600
H  16.92800 -0.14500 23.49900
H  18.94500 -2.43200 22.08100
H  19.75400 -1.56200 23.41100
H  18.58900 -0.75100 22.34400
H  14.39500 -1.31800 23.78800
H  15.05300 -2.50200 22.73700
H  14.33300 -1.19100 21.13700
H  15.45600 0.15800 21.47100
H  13.84800 -0.00400 22.16700
H  12.75800 2.02100 28.21300
H  13.26900 1.23000 26.58200
H  14.08200 2.68300 27.29100
H  15.04800 0.11400 32.55000
H  17.17600 3.67400 33.51800
H  17.94300 2.55700 34.66800
H  16.45700 3.35500 35.10100
Mg -11.24400 38.98200 42.20600
C  -10.17500 35.65400 41.74200
C  -8.33900 39.93800 40.58000
C  -12.42000 42.06400 42.26200
C  -14.41100 37.68800 43.23300
N  -9.48900 37.83200 41.09600
C  -9.23000 36.49700 41.11000
C  -7.89800 36.19300 40.45700
C  -7.30600 37.58400 39.99600
C  -8.44900 38.52700 40.58400
C  -5.97000 37.98300 40.69900
C  -7.97600 35.28800 39.18200
C  -6.73400 34.33600 38.87100
H  -5.84100 34.93900 37.82800
N  -10.47700 40.70800 41.57800
C  -9.25300 40.94900 40.99800
C  -8.95600 42.43100 40.94100
C  -10.07000 42.99000 41.58800
C  -11.07400 41.93900 41.79200
C  -7.69300 43.07100 40.41300
C  -10.27100 44.45300 41.95000
O  -9.54000 45.33300 41.49100
C  -11.35300 44.89400 42.90000
N  -13.12400 39.75100 42.78700
C  -13.41200 41.06400 42.65000
C  -14.90800 41.43200 42.94700
C  -15.49000 40.02600 43.33100
C  -14.30500 39.08100 43.15200
C  -15.11600 42.44600 44.11100
C  -16.71500 39.51900 42.37800
C  -18.08000 39.33100 43.09200
N  -12.09800 37.12300 42.68700
C  -13.39600 36.75700 43.04100
C  -13.49000 35.33900 43.18400
C  -12.26800 34.90900 42.72400
C  -11.45000 35.99300 42.36700
C  -14.69200 34.58300 43.56100
C  -11.49500 33.73700 42.49500
O  -11.69200 32.59700 42.70400
C  -10.10700 34.10800 41.83900
C  -8.88000 33.63100 42.57400
O  -8.78200 33.63500 43.76600
O  -7.95700 33.18600 41.72200
C  -6.63700 32.94700 42.46000
H  -7.38300 40.36100 40.26300
H  -12.81700 43.08100 42.23200
H  -15.39400 37.23900 43.38800
H  -7.34100 35.68000 41.24100
H  -7.19100 37.66400 38.91500
H  -6.10900 38.62500 41.56800
H  -5.47900 38.44500 39.84300
H  -5.34800 37.14400 41.01300
H  -8.16800 35.85100 38.26900
H  -8.90000 34.70900 39.16700
H  -7.04600 33.31400 38.65500
H  -6.16000 34.33700 39.79700
H  -7.50200 44.04200 40.86900
H  -7.83300 43.25700 39.34800
H  -6.84000 42.48500 40.75500
H  -11.49400 44.15400 43.68700
H  -12.15600 45.02300 42.17400
H  -11.03900 45.74100 43.51000
H  -15.27100 41.81700 41.99400
H  -15.77500 40.00300 44.38300
H  -15.81100 41.98200 44.81200
H  -15.45100 43.41400 43.73600
H  -14.17700 42.60600 44.64100
H  -16.42000 38.62300 41.83300
H  -16.76700 40.35600 41.68200
H  -18.05100 39.53900 44.16200
H  -18.36700 38.29000 42.94200
H  -18.89600 39.98500 42.78400
H  -14.77000 34.17900 44.57000
H  -14.66200 33.68200 42.94900
H  -15.67200 34.94700 43.25400
H  -10.08300 33.73500 40.81500
H  -6.38600 31.89200 42.34700
H  -6.52200 33.28600 43.49000
H  -5.88600 33.39900 41.81300

