158

Mg 0.70700 8.57400 25.87900
C  1.68900 10.24600 28.71700
C  1.18300 5.61400 27.55700
C  0.32700 6.91000 22.95200
C  1.04100 11.59800 23.99800
N  1.31700 7.98900 27.88400
C  1.49500 8.85300 28.88600
C  1.55000 8.16200 30.27100
C  1.58500 6.67600 29.85100
C  1.33400 6.71900 28.32400
C  2.85800 5.90900 30.26300
C  0.37400 8.46900 31.34800
C  0.67600 8.35200 32.87800
H  1.79100 7.38400 33.28200
N  0.52400 6.53700 25.38900
C  0.74000 5.47700 26.22300
C  0.49700 4.28600 25.50900
C  0.26200 4.55900 24.06100
C  0.33400 6.04800 24.08800
C  0.57700 2.89300 26.21100
C  0.04500 3.62200 22.86300
O  -0.21300 3.97100 21.71200
C  0.05400 2.22800 23.06000
N  0.72500 9.19600 23.78300
C  0.35000 8.28100 22.85400
C  0.41000 8.86200 21.50900
C  0.15300 10.36500 21.88300
C  0.66400 10.43500 23.33300
C  1.68300 8.57900 20.71000
C  -1.35800 10.83800 21.78000
C  -1.67400 11.90800 20.66600
N  1.30300 10.56200 26.28300
C  1.31800 11.69800 25.40300
C  1.68400 12.91300 26.17800
C  1.85300 12.30700 27.56900
C  1.63800 10.94300 27.49400
C  1.73000 14.31200 25.80400
C  2.16200 12.64300 28.86200
O  2.60200 13.70700 29.30200
C  1.92100 11.35900 29.77000
C  3.02200 11.11300 30.82200
O  4.02900 10.45300 30.59900
O  2.68500 11.72100 31.98900
C  3.61500 11.51200 33.01300
H  1.22900 4.71400 28.17300
H  0.25300 6.39700 21.99000
H  1.11100 12.55400 23.47400
H  2.45900 8.40100 30.82300
H  0.72800 6.13400 30.25000
H  3.48600 6.54300 30.88900
H  3.60900 5.75800 29.48800
H  2.68800 4.92000 30.68700
H  -0.51700 7.86900 31.16000
H  -0.01900 9.47300 31.19300
H  -0.26600 8.05000 33.33500
H  1.00200 9.36700 33.10700
H  0.97700 2.15600 25.51500
H  -0.43600 2.57200 26.45500
H  1.29400 2.98400 27.02700
H  -0.80500 2.01900 23.69800
H  1.00000 1.93000 23.51400
H  -0.06200 1.72200 22.10100
H  -0.48700 8.40000 21.09800
H  0.76800 10.87100 21.13900
H  2.36000 7.95500 21.29300
H  2.30300 9.37200 20.29100
H  1.27900 7.87800 19.98000
H  -1.74600 11.27500 22.70000
H  -1.92000 9.92500 21.58200
H  -0.79000 12.25400 20.13100
H  -2.02700 12.79500 21.19300
H  -2.55500 11.63600 20.08500
H  2.08100 14.45700 24.78300
H  2.29500 14.95800 26.47500
H  0.69100 14.63300 25.73200
H  1.04900 11.76200 30.28400
H  3.98000 12.50200 33.28400
H  4.53500 10.96000 32.81600
H  3.18000 11.14700 33.94300
Mg -9.23900 39.87800 39.89300
C  -8.24300 36.77400 38.67700
C  -6.20100 41.07000 38.98700
C  -10.60900 42.88400 40.00600
C  -12.50000 38.42300 40.30700
N  -7.50700 38.95700 38.66600
C  -7.19600 37.66200 38.62300
C  -5.78200 37.38100 38.03900
C  -5.12800 38.70100 38.55000
C  -6.35800 39.69700 38.78000
C  -4.11200 38.60800 39.66200
C  -5.96800 37.25700 36.43300
C  -5.41300 36.01700 35.62200
H  -6.37100 35.51700 34.55000
N  -8.46800 41.75300 39.66700
C  -7.19000 42.01600 39.32200
C  -7.04700 43.50700 39.19200
C  -8.27000 44.06800 39.62500
C  -9.24200 42.87600 39.79700
C  -5.85700 44.13200 38.60000
C  -8.48800 45.51100 39.74800
O  -7.56100 46.27800 39.51000
C  -9.80300 46.19400 40.26500
N  -11.31600 40.61700 40.04900
C  -11.61500 41.89500 40.08200
C  -13.16800 42.03900 40.24200
C  -13.70400 40.60300 40.45600
C  -12.38600 39.80600 40.25400
C  -13.73000 42.93000 41.36700
C  -14.92800 40.18400 39.61200
C  -16.06100 39.50200 40.41900
N  -10.17600 38.06300 39.68500
C  -11.46100 37.64000 39.90100
C  -11.52800 36.21900 39.71100
C  -10.31300 35.82700 39.22800
C  -9.60300 36.97800 39.12700
C  -12.77100 35.33400 39.89600
C  -9.53800 34.74300 38.78100
O  -9.78900 33.53000 38.70900
C  -8.17100 35.34000 38.45800
C  -7.20900 34.75700 39.40000
O  -6.91600 35.32200 40.41600
O  -6.57000 33.60700 38.95300
C  -5.38300 33.25300 39.72100
H  -5.19900 41.45400 38.79000
H  -11.07600 43.86300 40.13100
H  -13.54500 38.12500 40.41900
H  -5.57800 36.41900 38.50900
H  -4.64600 39.20000 37.71000
H  -4.51500 38.93200 40.62100
H  -3.24900 39.22600 39.41100
H  -3.73900 37.59200 39.79100
H  -5.63800 38.19300 35.98100
H  -7.04100 37.21800 36.24600
H  -5.04700 35.15300 36.17600
H  -4.51000 36.36300 35.11800
H  -6.01100 44.67600 37.66800
H  -5.12800 43.32300 38.55600
H  -5.45600 44.80000 39.36200
H  -10.70600 45.87100 39.74700
H  -9.65200 47.26400 40.12100
H  -9.81900 45.92800 41.32200
H  -13.53000 42.32600 39.25500
H  -13.92200 40.37600 41.49900
H  -12.96400 43.67200 41.59100
H  -14.09200 42.42700 42.26400
H  -14.56100 43.48100 40.92600
H  -14.57200 39.44000 38.89900
H  -15.23300 41.07000 39.05500
H  -16.26100 38.52800 39.97300
H  -16.98700 39.98400 40.10500
H  -16.06700 39.47400 41.50900
H  -13.09500 35.35700 40.93700
H  -12.53000 34.30200 39.64200
H  -13.68600 35.70500 39.43300
H  -7.90100 35.04400 37.44400
H  -5.65800 32.81500 40.68000
H  -4.70900 34.10200 39.83800
H  -4.72000 32.55400 39.21000

