158

Mg -0.85000 43.25400 26.68500
C  1.70900 43.20900 29.08900
C  -3.16400 42.77100 29.22900
C  -3.21100 43.22900 24.34900
C  1.63100 43.54900 24.11400
N  -0.72000 42.98200 28.81900
C  0.43500 43.04100 29.62200
C  0.05100 42.95500 31.14000
C  -1.43200 42.52400 31.16600
C  -1.85600 42.81700 29.64000
C  -1.58800 41.02000 31.51100
C  0.34300 44.32800 31.84300
C  0.45100 44.29600 33.36900
H  0.26600 43.06700 34.19200
N  -2.97500 43.13400 26.79900
C  -3.69800 42.93100 27.92200
C  -5.09900 42.96300 27.51600
C  -5.15700 43.02400 26.08000
C  -3.73700 43.10300 25.68800
C  -6.34100 42.85000 28.43100
C  -6.32100 42.94900 25.10700
O  -6.28600 42.99500 23.88300
C  -7.71500 42.88700 25.73300
N  -0.75000 43.28500 24.56000
C  -1.89400 43.32100 23.85700
C  -1.63300 43.47300 22.35700
C  -0.06600 43.66000 22.21100
C  0.29200 43.56900 23.68300
C  -2.17100 42.22500 21.59800
C  0.47100 44.99900 21.50500
C  0.10400 46.29100 22.10100
N  1.22500 43.19900 26.58000
C  2.06600 43.33600 25.50100
C  3.44600 43.22800 26.00500
C  3.39500 43.19900 27.38700
C  2.00000 43.19600 27.69100
C  4.64700 43.30100 25.20500
C  4.12900 43.05000 28.65500
O  5.38500 42.86900 28.73800
C  3.08000 43.23600 29.82200
C  3.29600 42.09600 30.74600
O  3.26000 40.87600 30.53000
O  3.59700 42.60400 31.93900
C  3.92800 41.58200 32.98100
H  -3.90200 42.68700 30.03000
H  -3.99800 43.17200 23.59300
H  2.38100 43.69400 23.33500
H  0.68900 42.17900 31.56300
H  -2.01300 43.12800 31.86500
H  -0.81700 40.50000 30.94200
H  -2.57900 40.63200 31.27700
H  -1.31700 40.79400 32.54200
H  -0.44400 45.06800 31.70000
H  1.28300 44.72000 31.45400
H  -0.24900 45.00300 33.81200
H  1.44600 44.71700 33.51200
H  -7.08000 43.51400 27.98100
H  -6.26100 43.18900 29.46400
H  -6.54000 41.77900 28.42100
H  -8.37100 42.77400 24.87000
H  -8.05100 43.83900 26.14600
H  -7.84400 42.07700 26.45100
H  -2.18300 44.34200 21.99400
H  0.30700 42.79500 21.66400
H  -2.04900 41.32200 22.19600
H  -1.61500 41.98700 20.69100
H  -3.24100 42.34700 21.42900
H  -0.01900 44.97000 20.53200
H  1.53800 44.92600 21.29500
H  -0.38100 46.93100 21.36400
H  1.04700 46.76700 22.36900
H  -0.47100 46.23800 23.02600
H  4.61900 44.16200 24.53700
H  4.81900 42.39500 24.62300
H  5.52600 43.51300 25.81300
H  3.24900 44.13200 30.41900
H  3.99900 42.21500 33.86500
H  4.89100 41.08700 32.86200
H  3.09700 40.87700 33.00000
Mg -5.57300 25.24900 26.22100
C  -3.79000 26.69500 28.85700
C  -6.88200 23.00800 28.28700
C  -7.03200 23.83300 23.47400
C  -3.71100 27.27100 24.00100
N  -5.46700 25.07500 28.36800
C  -4.69300 25.72900 29.25000
C  -5.11200 25.29700 30.70200
C  -5.82700 23.90400 30.45400
C  -6.18000 24.05600 28.97300
C  -4.98500 22.65200 30.80200
C  -6.10500 26.35700 31.32400
C  -5.86400 26.63100 32.84500
H  -5.35700 25.30700 33.71000
N  -6.97100 23.78900 25.97900
C  -7.30200 22.86700 26.95800
C  -8.21800 21.88000 26.40100
C  -8.30800 22.16500 24.98900
C  -7.42900 23.33500 24.77500
C  -8.73800 20.72500 27.17100
C  -9.04000 21.49600 23.91900
O  -9.12200 21.85300 22.72700
C  -9.69000 20.23100 24.24400
N  -5.40000 25.44700 24.03200
C  -6.12100 24.79100 23.14300
C  -5.82200 25.17400 21.65700
C  -4.95200 26.41400 21.90900
C  -4.64400 26.38800 23.39000
C  -5.06300 24.02800 20.88600
C  -5.61300 27.76300 21.46100
C  -5.43300 28.14600 20.00500
N  -3.98200 26.67800 26.36500
C  -3.33600 27.37800 25.33000
C  -2.36600 28.22700 26.00100
C  -2.55600 28.02500 27.37400
C  -3.48100 27.05600 27.53400
C  -1.40400 29.31000 25.34200
C  -2.06100 28.41100 28.68700
O  -1.28700 29.29200 29.02000
C  -2.87600 27.51100 29.73200
C  -2.01300 26.66300 30.62800
O  -1.57000 25.55500 30.34400
O  -1.83900 27.22400 31.82700
C  -1.07600 26.58900 32.86400
H  -7.24500 22.15600 28.86600
H  -7.40700 23.30800 22.59300
H  -3.37900 27.99800 23.25700
H  -4.20700 25.15700 31.29400
H  -6.81100 23.79500 30.90900
H  -5.56600 21.93500 31.38100
H  -4.07100 22.99800 31.28500
H  -4.63500 22.23200 29.85900
H  -7.13100 25.99100 31.28400
H  -6.14400 27.33800 30.85100
H  -6.74900 27.10000 33.27400
H  -5.05500 27.35900 32.91500
H  -9.82000 20.82000 27.26000
H  -8.42400 20.58500 28.20500
H  -8.48500 19.78800 26.67500
H  -8.95600 19.50800 24.59800
H  -10.27600 19.83000 23.41700
H  -10.39100 20.45100 25.04900
H  -6.70600 25.50800 21.11200
H  -4.02600 26.38200 21.33600
H  -4.05000 24.34900 20.64300
H  -5.76000 23.81900 20.07500
H  -4.98400 23.11900 21.48200
H  -5.12000 28.63200 21.89700
H  -6.65500 27.91000 21.74400
H  -6.47500 28.30900 19.72700
H  -5.06200 27.28800 19.44400
H  -4.98900 29.12100 19.80300
H  -0.78600 28.97200 24.51100
H  -0.76600 29.75100 26.10800
H  -2.00200 30.09700 24.88300
H  -3.44400 28.17000 30.38900
H  -0.70000 25.57500 32.73100
H  -1.68800 26.67500 33.76200
H  -0.24300 27.29200 32.85100

