158

Mg 15.64400 51.10300 26.48500
C  17.91300 50.47500 29.14100
C  13.38200 52.09000 28.74200
C  13.55200 51.24200 23.96000
C  18.19400 50.04200 24.19900
N  15.77400 51.41000 28.67600
C  16.74700 51.01000 29.60000
C  16.35400 51.27100 31.02500
C  14.79100 51.57700 30.87500
C  14.59900 51.66300 29.34600
C  13.96700 50.34200 31.41100
C  17.15200 52.43900 31.62700
C  17.88000 52.13600 32.94700
H  17.00700 51.53900 34.00500
N  13.77500 51.65000 26.35400
C  12.99800 52.09400 27.38500
C  11.60700 52.27600 26.86000
C  11.64600 52.00300 25.48400
C  13.05400 51.61700 25.21800
C  10.51000 52.65500 27.82900
C  10.48900 52.15300 24.42500
O  10.61700 51.83400 23.22700
C  9.10200 52.43900 24.94400
N  15.88500 50.78200 24.30200
C  14.81900 50.84400 23.49200
C  15.14400 50.39400 22.05200
C  16.65800 50.00700 22.20300
C  16.98100 50.32300 23.66500
C  14.24800 49.33800 21.35000
C  17.58100 50.89000 21.26700
C  18.61800 50.10500 20.53300
N  17.49100 50.27600 26.58000
C  18.42900 49.96800 25.63100
C  19.68900 49.52600 26.20500
C  19.51700 49.64100 27.59500
C  18.17200 50.15100 27.78100
C  20.97300 49.01400 25.44100
C  20.12600 49.49300 28.87500
O  21.23900 49.19100 29.25000
C  19.06200 49.92000 29.94000
C  18.63500 48.73000 30.70400
O  17.98000 47.84500 30.22100
O  19.10900 48.83300 32.01200
C  18.58800 47.83200 32.94600
H  12.66000 52.31400 29.52900
H  12.88100 51.08300 23.11200
H  19.00500 49.69700 23.55500
H  16.47800 50.42800 31.70500
H  14.40800 52.49900 31.31300
H  13.57400 49.79400 30.55500
H  13.18400 50.73100 32.06100
H  14.59000 49.63200 31.95600
H  16.43300 53.23200 31.83300
H  17.86200 53.01400 31.03200
H  18.43500 52.98600 33.34300
H  18.58600 51.35400 32.66400
H  10.14200 51.76600 28.34200
H  9.70700 53.25900 27.40700
H  10.94200 53.22300 28.65400
H  8.96100 53.50500 25.12100
H  8.76900 51.87100 25.81300
H  8.37000 52.13400 24.19600
H  15.01100 51.24900 21.39000
H  16.72000 48.94100 21.98300
H  13.85600 48.63000 22.08000
H  14.80800 48.85300 20.55100
H  13.38500 49.86600 20.94600
H  17.98700 51.73000 21.83000
H  16.98100 51.42500 20.53100
H  18.60000 50.49500 19.51500
H  18.42700 49.03500 20.62400
H  19.52900 50.34800 21.07900
H  21.13900 49.81400 24.72000
H  20.78000 48.08400 24.90600
H  21.78800 48.85200 26.14600
H  19.33500 50.68700 30.66500
H  17.50200 47.90300 32.89000
H  18.92000 47.83200 33.98400
H  18.75000 46.80200 32.62800
Mg 8.96300 47.69600 26.64400
C  6.61400 47.82000 29.42900
C  11.47100 48.23100 28.81600
C  11.07800 47.54600 24.11200
C  6.24400 47.47200 24.53700
N  9.00600 47.85500 28.88400
C  7.96800 47.94600 29.82600
C  8.60300 48.38800 31.16600
C  10.02700 48.84500 30.87700
C  10.21900 48.20700 29.44100
C  10.28500 50.36400 30.95400
C  8.44500 47.30300 32.30500
C  8.22000 47.86100 33.68200
H  8.12900 46.81600 34.77100
N  11.00000 47.73500 26.49100
C  11.88000 48.11600 27.49200
C  13.18500 48.16800 26.97600
C  13.11600 47.66300 25.63600
C  11.68300 47.64700 25.33600
C  14.37100 48.56800 27.73800
C  14.18200 47.21200 24.70500
O  13.99200 46.72300 23.60700
C  15.61300 47.35700 25.23600
N  8.72400 47.85500 24.63400
C  9.69900 47.62800 23.75200
C  9.15300 47.41700 22.33400
C  7.65200 47.45000 22.44300
C  7.50800 47.53600 24.01500
C  9.80000 48.21400 21.15800
C  7.06900 46.23600 21.82500
C  5.54800 46.39900 21.43200
N  6.88800 47.63400 26.85500
C  5.92100 47.56700 25.91900
C  4.67800 47.62400 26.58300
C  4.89400 47.66400 27.95800
C  6.27400 47.67900 28.05900
C  3.51600 47.78700 25.77300
C  4.21900 47.76300 29.23300
O  3.00800 47.76900 29.46700
C  5.36900 47.65500 30.27200
C  5.31000 46.30900 30.91000
O  5.89700 45.32300 30.51000
O  4.48500 46.42700 31.98600
C  4.46000 45.25300 32.92200
H  12.31400 48.45600 29.47300
H  11.70400 47.33000 23.24300
H  5.41200 47.15600 23.90500
H  7.94500 49.17200 31.54000
H  10.69500 48.28000 31.52700
H  9.40500 50.88200 30.57300
H  11.09600 50.69900 30.30700
H  10.50100 50.76800 31.94300
H  9.26600 46.58600 32.29900
H  7.54700 46.70400 32.15500
H  7.26300 48.37200 33.78700
H  9.06900 48.53100 33.82100
H  14.19800 48.78800 28.79100
H  14.79300 49.49900 27.36000
H  14.98700 47.67200 27.82200
H  15.79100 48.41800 25.41400
H  16.32500 46.99000 24.49700
H  15.80700 46.72300 26.10100
H  9.36500 46.36000 22.16900
H  7.28200 48.38400 22.01900
H  10.04600 47.49000 20.38100
H  10.65600 48.78100 21.52600
H  9.07600 48.98000 20.88100
H  7.13100 45.34900 22.45600
H  7.44900 45.97000 20.83900
H  5.09400 45.53600 21.91800
H  5.40800 46.27000 20.35900
H  5.26200 47.42800 21.65000
H  3.19400 46.84000 25.34000
H  3.62300 48.63300 25.09400
H  2.69300 48.04700 26.43800
H  5.20200 48.33100 31.11000
H  5.16700 44.45500 32.69400
H  3.50000 44.74600 32.82700
H  4.43400 45.50100 33.98300

