158

Mg 30.84900 57.88300 40.16100
C  28.14300 55.91700 38.91100
C  32.88700 55.14000 39.25800
C  33.59400 59.95900 40.23500
C  28.69000 60.63000 40.35100
N  30.55700 55.78500 39.07800
C  29.33200 55.17600 38.78700
C  29.59700 53.76500 38.22300
C  31.04200 53.44800 38.75100
C  31.57300 54.84400 39.13400
C  30.98600 52.51200 39.95600
C  29.38100 53.92500 36.72500
C  28.17500 53.08400 36.20600
H  27.31100 53.77800 35.13700
N  32.97000 57.56300 40.07200
C  33.54400 56.35900 39.57100
C  34.96400 56.51000 39.74600
C  35.22200 57.85000 40.03900
C  33.85800 58.50700 40.15000
C  35.88100 55.34400 39.70100
C  36.59500 58.50800 40.20600
O  37.59500 57.84500 40.17700
C  36.79400 59.99400 40.49200
N  31.13000 60.02200 40.38100
C  32.32500 60.59800 40.39300
C  32.14300 62.15700 40.64200
C  30.52800 62.24000 40.90000
C  30.08000 60.90400 40.51800
C  33.04700 62.58400 41.92200
C  30.03400 63.45200 40.00500
C  29.24200 64.46800 40.81400
N  28.82000 58.26800 39.79800
C  28.09300 59.41600 39.96900
C  26.70200 59.13400 39.78200
C  26.62200 57.80500 39.40100
C  27.99100 57.33000 39.33500
C  25.57700 60.11300 39.94100
C  25.76900 56.72300 39.09500
O  24.53600 56.69200 38.91600
C  26.69300 55.40200 38.75900
C  26.32000 54.26800 39.64100
O  26.94200 53.91700 40.62200
O  25.27800 53.58800 39.11600
C  24.71700 52.38100 39.74600
H  33.50300 54.25100 39.10700
H  34.39100 60.70600 40.20900
H  28.08000 61.50600 40.57900
H  28.87600 53.20300 38.81700
H  31.67000 53.09300 37.93500
H  31.60900 51.65300 39.70700
H  30.02900 52.00200 40.07300
H  31.40900 52.91800 40.87500
H  30.19100 53.52200 36.11700
H  29.26300 54.96300 36.41600
H  27.47100 52.89200 37.01600
H  28.49600 52.13400 35.78000
H  36.95500 55.39300 39.88200
H  35.86000 55.00300 38.66600
H  35.47900 54.49000 40.24500
H  37.85300 60.25100 40.46900
H  36.31400 60.17600 41.45400
H  36.29500 60.58800 39.72600
H  32.56700 62.69100 39.79100
H  30.26300 62.32700 41.95400
H  33.35600 61.67300 42.43300
H  32.39500 62.97100 42.70500
H  33.91700 63.22000 41.75500
H  29.59500 62.98800 39.12100
H  30.92100 63.97400 39.64600
H  29.71300 65.43400 40.99800
H  29.01700 64.10000 41.81500
H  28.35000 64.75600 40.25700
H  25.91000 61.05700 39.51000
H  25.31600 60.21600 40.99500
H  24.67200 59.77100 39.43800
H  26.52000 55.00700 37.75800
H  25.04300 52.31600 40.78500
H  25.11900 51.48900 39.26600
H  23.62800 52.39300 39.75500
Mg -2.26900 34.77100 27.14000
C  -4.09900 33.17900 29.72700
C  -0.83400 36.84100 29.42600
C  -1.32700 36.82900 24.57700
C  -4.26500 32.89200 24.93000
N  -2.54800 35.02700 29.38700
C  -3.30000 34.25100 30.25500
C  -2.99300 34.58800 31.73100
C  -2.26400 35.98500 31.51800
C  -1.77600 35.93500 30.06500
C  -2.96000 37.29600 31.80700
C  -2.17300 33.48600 32.41300
C  -1.92300 33.72300 33.88000
H  -2.48600 32.82800 34.93300
N  -1.06800 36.43300 27.02000
C  -0.44400 37.08500 28.07500
C  0.43200 38.09400 27.56400
C  0.27400 38.12300 26.10800
C  -0.78400 37.10600 25.84700
C  1.35800 38.85800 28.45200
C  1.14100 38.90500 25.08700
O  0.89200 38.73800 23.91400
C  2.23200 39.76900 25.42200
N  -2.80000 34.91700 25.07100
C  -2.22500 35.88600 24.19700
C  -2.73800 35.70400 22.75500
C  -3.56400 34.34300 22.86100
C  -3.54800 33.98200 24.36800
C  -3.56400 36.88600 22.27900
C  -3.24100 33.12900 21.82300
C  -2.32500 31.93100 22.38200
N  -3.84900 33.28100 27.20000
C  -4.48400 32.53600 26.24800
C  -5.40700 31.61000 26.79700
C  -5.21200 31.76200 28.18800
C  -4.30500 32.84600 28.40600
C  -6.31600 30.67100 26.09300
C  -5.64800 31.23400 29.47800
O  -6.56500 30.45600 29.82400
C  -4.92300 32.14500 30.48600
C  -5.94300 32.73000 31.42400
O  -6.85000 33.45500 31.01600
O  -5.73500 32.36300 32.76100
C  -6.82400 32.65300 33.62500
H  -0.27600 37.42800 30.15900
H  -0.99000 37.54300 23.82300
H  -4.74500 32.14500 24.29400
H  -3.90500 34.78100 32.29600
H  -1.29400 35.92600 32.01100
H  -3.76200 37.20000 32.53800
H  -3.33900 37.59200 30.83000
H  -2.23200 37.97500 32.25200
H  -1.17000 33.37600 32.00200
H  -2.77500 32.58000 32.34300
H  -2.25200 34.73900 34.09700
H  -0.84600 33.79900 34.02900
H  0.87100 39.81100 28.65800
H  2.33800 38.94000 27.98300
H  1.57600 38.39400 29.41400
H  2.66200 40.35900 24.61200
H  3.02700 39.11300 25.77600
H  1.96100 40.53400 26.15000
H  -1.83800 35.67100 22.14100
H  -4.61800 34.56900 22.70000
H  -4.62100 36.62100 22.30200
H  -3.30900 37.29900 21.30400
H  -3.59100 37.64900 23.05700
H  -2.82000 33.64100 20.95800
H  -4.20300 32.76600 21.45900
H  -1.73100 31.58100 21.53800
H  -2.98000 31.07800 22.55900
H  -1.67400 32.20500 23.21200
H  -7.30000 31.13900 26.05800
H  -6.37500 29.83200 26.78600
H  -6.03800 30.27700 25.11500
H  -4.18700 31.51100 30.97900
H  -6.50400 32.93400 34.62900
H  -7.32400 31.68700 33.69300
H  -7.48300 33.44200 33.26300

