158

Mg 17.35000 -1.57700 27.63400
C  16.19200 0.62800 30.01700
C  19.18700 -3.30600 29.93800
C  18.82300 -3.27500 25.14700
C  16.16500 0.82000 25.24400
N  17.51100 -1.42900 29.79300
C  16.94100 -0.44800 30.55900
C  17.29200 -0.70100 32.01200
C  18.46100 -1.74700 31.90200
C  18.35600 -2.27600 30.48200
C  19.91800 -1.35400 32.50900
C  16.03300 -1.08800 32.85800
C  15.89800 -0.28300 34.21000
H  17.15600 0.17400 34.84400
N  18.63400 -3.27200 27.56600
C  19.31900 -3.79400 28.64400
C  20.11600 -4.92400 28.12700
C  19.99200 -4.95200 26.74200
C  19.13300 -3.80300 26.42000
C  20.87300 -5.84700 29.16500
C  20.65200 -5.91300 25.74500
O  20.50900 -5.83900 24.53500
C  21.59800 -6.96100 26.27300
N  17.37800 -1.35200 25.55800
C  18.02100 -2.24000 24.67200
C  18.00300 -1.80600 23.22000
C  17.04800 -0.53700 23.30300
C  16.82900 -0.33600 24.80200
C  19.37000 -1.48600 22.63200
C  15.70500 -0.72000 22.54100
C  15.23800 0.51500 21.81600
N  16.33500 0.36000 27.60300
C  15.91300 1.14100 26.51400
C  15.14700 2.21900 26.99800
C  15.17000 2.03200 28.38000
C  15.92700 0.92800 28.67200
C  14.51600 3.34800 26.12900
C  14.72600 2.57600 29.66400
O  13.98800 3.53600 29.91200
C  15.51000 1.78100 30.72300
C  16.35000 2.76600 31.51200
O  17.56300 2.93100 31.45800
O  15.55600 3.36400 32.50900
C  16.18400 4.36200 33.45700
H  19.91900 -3.69400 30.64900
H  19.40400 -3.72200 24.33900
H  15.76600 1.50400 24.49100
H  17.73600 0.23000 32.36300
H  18.19000 -2.58300 32.54700
H  20.58100 -1.22600 31.65300
H  20.22300 -2.07800 33.26400
H  19.75000 -0.35700 32.91600
H  16.02400 -2.09400 33.27600
H  15.14400 -0.83800 32.28000
H  15.31200 -0.80600 34.96500
H  15.37400 0.61900 33.89300
H  21.94600 -5.84900 28.97200
H  20.45700 -6.82800 29.39200
H  20.77200 -5.39500 30.15200
H  22.35800 -6.55000 26.93800
H  22.03800 -7.41500 25.38500
H  20.97900 -7.67900 26.81100
H  17.49700 -2.52000 22.57100
H  17.51600 0.36900 22.91900
H  19.91600 -1.07100 23.47900
H  19.25800 -0.87500 21.73700
H  19.90900 -2.38200 22.32300
H  14.90600 -0.99500 23.22900
H  15.89600 -1.45600 21.76000
H  14.97000 0.21400 20.80400
H  16.01000 1.28500 21.80100
H  14.35200 0.94500 22.28300
H  14.16900 2.99500 25.15700
H  15.11800 4.24400 25.97900
H  13.55400 3.53100 26.60700
H  14.82100 1.23200 31.36600
H  15.70700 5.33100 33.60700
H  17.21600 4.58600 33.18400
H  16.26500 3.79400 34.38300
Mg 26.52200 49.59600 27.30900
C  24.47500 50.82100 29.97000
C  28.83400 48.64000 29.77300
C  28.67400 48.69100 24.86600
C  24.42000 51.02200 25.02800
N  26.55700 49.68500 29.65100
C  25.58600 50.15900 30.44400
C  25.98800 49.93700 31.93300
C  27.44500 49.35200 31.87700
C  27.64400 49.20400 30.32000
C  28.57200 50.26600 32.53600
C  24.93200 49.10500 32.77100
C  24.27100 49.77800 33.99400
H  24.26100 48.97000 35.32900
N  28.46300 48.88000 27.27700
C  29.20200 48.48200 28.42500
C  30.54000 48.06400 27.96400
C  30.51500 48.07900 26.57100
C  29.18800 48.51400 26.19600
C  31.53100 47.62400 29.02600
C  31.60900 47.69100 25.56000
O  31.54000 47.89000 24.35800
C  33.02000 47.23500 26.03800
N  26.57000 49.89800 25.26100
C  27.52300 49.36900 24.44000
C  27.09200 49.34900 22.96500
C  25.73400 50.03800 22.99200
C  25.57500 50.36000 24.51100
C  27.99700 49.94300 21.89100
C  24.52400 49.12700 22.50900
C  23.79500 49.72700 21.30000
N  24.72800 50.57700 27.46700
C  24.02200 51.22400 26.44200
C  22.82200 51.73700 26.89200
C  22.89700 51.57400 28.30400
C  24.13100 50.97400 28.57700
C  21.76800 52.39600 26.05000
C  22.28700 51.93400 29.52300
O  21.28000 52.48200 29.74300
C  23.21600 51.32800 30.63100
C  23.45900 52.35400 31.62200
O  24.31700 53.19300 31.60000
O  22.43700 52.34000 32.53400
C  22.48200 53.29800 33.59100
H  29.39800 48.41000 30.68000
H  29.25900 48.22200 24.07200
H  23.69200 51.37400 24.29400
H  26.02600 50.93700 32.36400
H  27.61400 48.34900 32.26700
H  28.17300 50.93000 33.30300
H  28.91100 50.84300 31.67500
H  29.47600 49.74500 32.85100
H  25.35800 48.20400 33.21300
H  24.24500 48.85000 31.96400
H  23.24500 50.00500 33.70500
H  24.69800 50.78100 34.02200
H  32.52400 48.01200 28.80000
H  31.59000 46.55300 28.83600
H  31.23800 47.84200 30.05300
H  33.70500 47.91400 26.54600
H  33.51200 46.65200 25.26000
H  32.87100 46.41100 26.73600
H  27.05700 48.28000 22.75500
H  25.78200 51.01800 22.51700
H  28.53500 49.12200 21.41600
H  28.82800 50.58600 22.17700
H  27.44500 50.43200 21.08800
H  23.80600 48.90900 23.30000
H  24.85600 48.11000 22.30300
H  22.81700 50.10800 21.59500
H  23.51400 48.92500 20.61700
H  24.39900 50.51400 20.84900
H  21.53400 51.91300 25.10100
H  22.13000 53.40500 25.85000
H  20.86900 52.62900 26.61900
H  22.72200 50.51700 31.16600
H  22.32700 54.34000 33.31000
H  23.36400 53.14900 34.21500
H  21.57300 53.06100 34.14300

