158

Mg -1.11600 43.88800 26.29800
C  1.48700 43.54100 28.68000
C  -3.33100 42.89700 28.71100
C  -3.45000 43.28100 23.94700
C  1.35400 44.03700 23.76600
N  -0.92500 43.34000 28.43900
C  0.19000 43.33500 29.22000
C  -0.14000 43.23100 30.77800
C  -1.56300 42.55700 30.59900
C  -1.99900 42.84500 29.15100
C  -1.62300 41.10300 31.02800
C  -0.05800 44.66900 31.37500
C  -0.03700 44.84800 32.93800
H  -0.17000 43.59600 33.75200
N  -3.21300 43.52400 26.34100
C  -3.92400 43.07100 27.43500
C  -5.34200 42.86700 27.07000
C  -5.34300 42.86800 25.57800
C  -3.95700 43.22100 25.22600
C  -6.38900 42.46700 28.08500
C  -6.45900 42.36800 24.58100
O  -6.42200 42.41400 23.39000
C  -7.74200 41.75900 25.11900
N  -1.03900 43.73100 24.14100
C  -2.14800 43.46700 23.41600
C  -1.81600 43.62700 21.88800
C  -0.35400 44.15500 21.92200
C  -0.01500 43.96700 23.34700
C  -1.89700 42.31300 21.06300
C  -0.09200 45.65800 21.61500
C  0.69900 45.98800 20.33800
N  1.01300 43.88500 26.20300
C  1.85400 43.97500 25.12300
C  3.22900 43.98200 25.55800
C  3.13000 43.82000 26.97800
C  1.79600 43.83000 27.33500
C  4.51500 44.05400 24.79700
C  3.90800 43.61300 28.15900
O  5.15700 43.50600 28.35400
C  2.83300 43.54700 29.33500
C  3.20800 42.44600 30.18700
O  2.51300 41.48600 30.36900
O  4.37600 42.78900 30.90300
C  4.52500 42.00200 32.12800
H  -3.94300 42.33300 29.41800
H  -4.20400 43.08400 23.18200
H  2.17300 44.28700 23.08800
H  0.54600 42.55600 31.28900
H  -2.30900 42.91200 31.30900
H  -2.02800 40.57200 30.16600
H  -2.42100 41.04700 31.76800
H  -0.69800 40.61800 31.34100
H  -0.86100 45.33600 31.06200
H  0.90100 45.04000 31.01400
H  -0.86700 45.51900 33.15700
H  0.83700 45.43600 33.21700
H  -6.27200 43.24500 28.83900
H  -6.16200 41.45000 28.40400
H  -7.41100 42.53000 27.71000
H  -7.34200 40.99300 25.78300
H  -8.40100 41.18100 24.47100
H  -8.31700 42.52500 25.64000
H  -2.38500 44.45800 21.46900
H  0.32200 43.54400 21.32400
H  -0.95100 41.77500 20.99600
H  -2.27000 42.45900 20.04900
H  -2.55300 41.63400 21.60700
H  0.30800 46.20600 22.46800
H  -1.03800 46.16600 21.42400
H  1.54400 46.62900 20.58800
H  -0.09200 46.44600 19.74300
H  1.02100 45.12400 19.75700
H  4.61700 45.05800 24.38500
H  4.31200 43.38600 23.96000
H  5.32400 43.60700 25.37500
H  2.92400 44.46400 29.91700
H  4.54000 42.78800 32.88300
H  5.47700 41.48900 31.98800
H  3.80200 41.21500 32.34000
Mg -2.57200 34.82200 27.13500
C  -3.64600 33.34300 30.07300
C  -1.25800 37.53500 29.02200
C  -2.07500 36.58500 24.25800
C  -4.05000 32.37900 25.33500
N  -2.53100 35.35500 29.26200
C  -2.98300 34.51300 30.29200
C  -2.52600 35.02600 31.63100
C  -1.70400 36.33100 31.24500
C  -1.89300 36.47900 29.72500
C  -2.06800 37.56700 31.99300
C  -1.79400 33.94200 32.48000
C  -2.46800 33.67200 33.85200
H  -1.50300 33.65700 35.09700
N  -1.68200 36.72100 26.68200
C  -1.17400 37.63300 27.61800
C  -0.47600 38.69000 26.89400
C  -0.69600 38.39900 25.43800
C  -1.55900 37.22700 25.40300
C  0.24400 39.78700 27.52400
C  -0.15200 39.16900 24.18500
O  -0.46100 38.93400 23.06900
C  0.55300 40.50500 24.41800
N  -3.22800 34.67300 25.14000
C  -2.88500 35.46000 24.09200
C  -3.49400 34.97500 22.77100
C  -3.51600 33.47900 23.07400
C  -3.65900 33.47000 24.64700
C  -4.76800 35.71500 22.42800
C  -2.30300 32.68500 22.63500
C  -1.06500 32.67000 23.49100
N  -3.60100 33.13400 27.53700
C  -4.20100 32.22800 26.69500
C  -4.86500 31.16700 27.50900
C  -4.70100 31.59100 28.80900
C  -3.93500 32.79200 28.76100
C  -5.59900 29.95000 27.01600
C  -5.02000 31.31400 30.19700
O  -5.71500 30.39700 30.67000
C  -4.37700 32.40300 31.08000
C  -5.49500 33.02100 31.79400
O  -5.98900 34.07900 31.45700
O  -5.91400 32.20800 32.83500
C  -6.95100 32.82600 33.67400
H  -0.76800 38.30400 29.62300
H  -2.00400 37.02400 23.26100
H  -4.46500 31.72200 24.56800
H  -3.41000 35.24900 32.22800
H  -0.65700 36.11000 31.45500
H  -1.15500 38.03200 32.36400
H  -2.74300 37.31000 32.81000
H  -2.57200 38.34700 31.42200
H  -0.81200 34.32200 32.76500
H  -1.68500 33.02200 31.90600
H  -3.19100 32.85600 33.87900
H  -2.99500 34.60100 34.07000
H  0.17200 39.71000 28.60800
H  -0.27300 40.68000 27.17100
H  1.24500 39.80300 27.09200
H  1.50400 40.13800 24.80500
H  0.03700 41.24000 25.03600
H  0.65400 41.02000 23.46200
H  -2.71900 35.03500 22.00700
H  -4.46200 33.05000 22.74300
H  -5.06900 36.37800 23.23900
H  -5.58600 35.00000 22.34900
H  -4.65500 36.21600 21.46600
H  -2.09600 33.09200 21.64500
H  -2.68300 31.66400 22.58900
H  -0.33600 33.05000 22.77500
H  -0.79200 31.67400 23.84000
H  -1.02900 33.31700 24.36800
H  -6.57800 30.31600 26.70700
H  -5.75500 29.24100 27.82900
H  -5.09200 29.55600 26.13500
H  -3.70300 31.98000 31.82500
H  -6.31800 33.41100 34.34100
H  -7.43600 31.97600 34.15400
H  -7.71800 33.36800 33.12200

