158

Mg 17.09800 -1.71300 27.74800
C  16.27700 0.49600 30.36200
C  19.22800 -3.38100 29.92900
C  18.39600 -3.40900 25.04700
C  15.65400 0.55700 25.52200
N  17.64100 -1.47300 29.92100
C  17.04900 -0.54700 30.80000
C  17.47100 -0.88100 32.21700
C  18.43400 -2.20000 32.11600
C  18.49600 -2.33800 30.59100
C  19.82500 -2.03100 32.80800
C  16.17700 -1.12500 33.06600
C  16.00600 -0.29400 34.39100
H  17.27200 -0.06300 35.24600
N  18.47000 -3.28800 27.47200
C  19.25600 -3.78000 28.50600
C  19.99800 -4.96500 28.03900
C  19.88400 -4.87300 26.59600
C  18.90200 -3.85600 26.29900
C  20.86400 -5.81600 28.92300
C  20.66300 -5.72900 25.54700
O  20.53400 -5.58000 24.32900
C  21.75000 -6.77000 26.05800
N  17.05400 -1.38300 25.49300
C  17.59100 -2.34200 24.66100
C  17.36600 -1.88900 23.20200
C  16.26100 -0.79700 23.39300
C  16.31000 -0.53600 24.89700
C  18.73000 -1.23900 22.54300
C  14.87200 -1.25900 22.99800
C  14.18400 -2.28600 23.92300
N  16.24300 0.16700 27.82700
C  15.66900 0.94200 26.82800
C  15.07800 2.17000 27.45700
C  15.35200 2.04100 28.84700
C  15.94800 0.75900 29.00900
C  14.46500 3.24900 26.70500
C  15.28500 2.64500 30.12100
O  14.87100 3.76000 30.42400
C  15.91400 1.71600 31.14800
C  17.04000 2.43600 31.87100
O  18.20400 2.67200 31.46000
O  16.49600 3.04800 32.99000
C  17.30400 3.92800 33.90700
H  19.94000 -3.94300 30.53700
H  18.80400 -3.98400 24.21300
H  15.27500 1.29800 24.81600
H  18.11500 -0.10300 32.62600
H  17.93300 -3.10400 32.46300
H  19.82500 -1.24200 33.56100
H  20.66700 -1.88400 32.13200
H  20.02800 -3.00100 33.26200
H  16.07500 -2.18800 33.28600
H  15.26600 -0.90900 32.50800
H  15.14300 -0.67300 34.93900
H  15.90100 0.77100 34.18200
H  20.37700 -5.79100 29.89800
H  21.87600 -5.41300 28.94400
H  20.74600 -6.88100 28.72600
H  21.13400 -7.58600 26.43700
H  22.35000 -6.37600 26.87900
H  22.36500 -7.04800 25.20300
H  16.98500 -2.71200 22.59700
H  16.61600 0.10400 22.89300
H  19.66800 -1.29300 23.09500
H  18.63600 -0.18000 22.30400
H  18.82800 -1.68100 21.55100
H  14.83700 -1.68500 21.99500
H  14.24800 -0.36900 23.08500
H  13.54400 -1.78000 24.64500
H  14.87000 -2.97600 24.41400
H  13.57100 -3.00000 23.37400
H  13.65200 2.91000 26.06300
H  15.20700 3.73000 26.06700
H  13.99600 3.94200 27.40400
H  15.21400 1.55200 31.96800
H  16.90600 3.69000 34.89400
H  17.15000 5.00300 33.82600
H  18.36300 3.69200 33.79800
Mg 46.69600 15.82800 28.42800
C  44.93100 15.23700 31.40400
C  49.01500 17.67500 30.23700
C  48.19500 16.94600 25.51000
C  44.07400 14.48000 26.52800
N  46.88100 16.39300 30.56300
C  46.09200 16.02400 31.60500
C  46.61300 16.55400 32.95100
C  47.77800 17.44900 32.53500
C  47.91900 17.13700 31.02100
C  47.59200 19.00900 32.90000
C  46.98200 15.47600 33.99800
C  46.24100 15.44000 35.32700
H  45.98600 16.75300 35.99500
N  48.39400 17.06400 27.96000
C  49.26600 17.61200 28.88100
C  50.36000 18.26200 28.22500
C  50.14600 18.13800 26.80800
C  48.90200 17.33200 26.69000
C  51.55600 18.71400 29.03500
C  50.98200 18.69300 25.70900
O  50.73800 18.40200 24.52100
C  52.15600 19.54800 25.98700
N  46.22700 15.63800 26.30600
C  46.94400 16.24500 25.30700
C  46.36100 15.90800 23.88600
C  45.18100 14.93500 24.29100
C  45.12900 15.03000 25.79500
C  45.88600 17.20800 23.15400
C  45.21300 13.44800 23.84100
C  46.53900 12.81500 24.12500
N  44.89200 14.91600 28.86000
C  43.91300 14.39200 27.99300
C  42.83200 13.84700 28.77000
C  43.24700 14.10100 30.12900
C  44.46700 14.80000 30.17400
C  41.54200 13.15900 28.31800
C  42.78800 13.93900 31.43900
O  41.72200 13.51700 31.86800
C  43.86400 14.57800 32.33800
C  43.16300 15.56800 33.22700
O  43.05400 16.80100 32.99900
O  42.69400 14.95200 34.35400
C  42.08900 15.85200 35.29900
H  49.67400 18.18900 30.94100
H  48.50100 17.31900 24.53000
H  43.26400 13.94400 26.02800
H  45.88700 17.28200 33.31300
H  48.73800 17.25600 33.01400
H  46.57900 19.26700 33.20900
H  47.73800 19.66300 32.04100
H  48.29300 19.33700 33.66700
H  48.04400 15.50200 34.24300
H  46.83000 14.52200 33.49400
H  46.86500 14.88200 36.02600
H  45.24800 14.99200 35.35200
H  51.71700 19.79200 29.02300
H  52.33300 18.14200 28.52700
H  51.53200 18.37900 30.07100
H  53.00300 18.88300 26.15600
H  51.79600 20.05800 26.88000
H  52.45900 20.23400 25.19600
H  47.13600 15.43300 23.28500
H  44.24500 15.22200 23.81100
H  46.61600 17.56100 22.42600
H  45.71000 18.02900 23.84900
H  45.11600 16.98800 22.41400
H  44.92400 13.35600 22.79400
H  44.42500 12.87800 24.33200
H  47.29900 13.54900 24.39400
H  46.74900 12.31200 23.18100
H  46.46700 12.06300 24.91000
H  41.29100 13.48600 27.30900
H  40.72900 13.49900 28.96000
H  41.64100 12.07300 28.32000
H  44.41900 13.81400 32.88200
H  42.00100 15.43800 36.30400
H  41.12300 16.24600 34.98500
H  42.72600 16.69200 35.57700

