158

Mg 27.08700 49.05300 26.35900
C  24.79100 50.34100 28.90600
C  29.20800 48.02800 28.93500
C  29.13200 47.86900 24.12900
C  25.00900 50.45900 23.96300
N  26.97100 49.19200 28.66800
C  25.87700 49.66800 29.48700
C  26.19200 49.42600 30.99800
C  27.64700 48.83900 30.95100
C  27.98000 48.69600 29.45100
C  28.70800 49.69700 31.73200
C  25.16600 48.43900 31.67300
C  24.36200 49.04100 32.83400
H  24.19400 48.24700 34.11700
N  28.98500 48.20200 26.50400
C  29.68900 47.79500 27.62300
C  30.89000 47.09200 27.29600
C  30.84100 46.97000 25.84400
C  29.61300 47.67900 25.45600
C  31.87600 46.53300 28.29800
C  31.75000 46.34700 24.87000
O  31.60000 46.41300 23.62500
C  32.89700 45.65100 25.38200
N  27.13800 49.22200 24.27000
C  28.06700 48.55900 23.54600
C  27.65800 48.65700 21.98900
C  26.31500 49.39000 22.03900
C  26.08300 49.66300 23.51300
C  28.73000 49.37200 21.10600
C  25.19900 48.53600 21.38900
C  24.36400 47.51300 22.27000
N  25.27400 50.26600 26.36800
C  24.57100 50.72900 25.30200
C  23.38300 51.46700 25.79500
C  23.45500 51.41400 27.22100
C  24.56200 50.61100 27.52000
C  22.30000 52.04000 24.94900
C  22.74500 51.69700 28.46200
O  21.70300 52.27500 28.61500
C  23.66600 51.11100 29.63200
C  24.08200 52.21800 30.49200
O  24.78600 53.19800 30.16500
O  23.59500 52.01500 31.71400
C  24.06300 52.90900 32.78200
H  29.80600 47.63500 29.76000
H  29.64700 47.36500 23.30900
H  24.40800 50.88200 23.15500
H  26.12100 50.40600 31.46900
H  27.63500 47.85800 31.42600
H  28.22200 50.26400 32.52600
H  29.16000 50.42700 31.06200
H  29.51900 49.07800 32.11600
H  25.61300 47.49800 31.99300
H  24.50800 48.05300 30.89500
H  23.35600 49.12600 32.42200
H  24.63700 50.04700 33.15100
H  32.89000 46.79700 27.99700
H  31.92100 45.44500 28.33700
H  31.74600 46.85700 29.33100
H  33.59300 46.38200 25.79400
H  33.13300 44.95100 24.58000
H  32.58800 45.01900 26.21400
H  27.45100 47.62400 21.70800
H  26.34400 50.40000 21.62900
H  29.01100 48.71100 20.28500
H  29.66500 49.60600 21.61500
H  28.34100 50.29500 20.67700
H  25.57700 48.00400 20.51600
H  24.44300 49.09300 20.83500
H  23.33000 47.84700 22.34800
H  24.68200 47.29900 23.29000
H  24.42900 46.62300 21.64400
H  21.74900 51.39800 24.26200
H  22.77800 52.79800 24.32900
H  21.61100 52.34400 25.73700
H  23.04900 50.36000 30.12500
H  24.02900 53.93800 32.42300
H  25.11000 52.69200 32.99300
H  23.29500 52.84500 33.55200
Mg -12.14700 16.38500 42.80800
C  -9.03800 14.83300 42.03300
C  -10.96900 19.18900 41.16000
C  -15.28400 17.52400 42.56100
C  -13.37800 13.13900 43.68200
N  -10.24100 16.86100 41.63900
C  -9.12300 16.15700 41.54800
C  -8.00600 16.97200 40.88800
C  -8.67400 18.36900 40.73800
C  -10.06600 18.10900 41.24700
C  -7.90900 19.47100 41.32300
C  -7.54200 16.24400 39.54600
C  -6.00300 16.12800 39.32700
H  -5.42600 16.62800 37.98500
N  -12.96400 18.15300 42.12100
C  -12.30300 19.19100 41.57900
C  -13.23900 20.31300 41.45200
C  -14.49200 19.88200 41.98000
C  -14.30400 18.46400 42.22400
C  -12.83600 21.64400 40.85400
C  -15.70900 20.73500 42.29200
O  -15.74500 21.90600 42.03200
C  -17.00100 20.26500 42.88800
N  -14.10000 15.42800 43.09300
C  -15.25000 16.16800 42.96100
C  -16.50300 15.30700 43.32400
C  -15.79300 13.90600 43.71500
C  -14.26300 14.17400 43.48200
C  -17.69500 15.80900 44.17800
C  -16.29700 12.71300 42.84000
C  -16.35600 11.32200 43.52300
N  -11.38400 14.38700 42.96200
C  -11.94200 13.25300 43.50800
C  -10.97000 12.15900 43.52100
C  -9.81700 12.83000 42.99800
C  -10.12500 14.14900 42.62000
C  -11.16000 10.79900 44.04400
C  -8.36600 12.63200 42.78200
O  -7.65500 11.67600 43.02900
C  -7.81900 13.90300 42.09800
C  -6.65900 14.49600 42.85500
O  -6.77700 15.19200 43.88000
O  -5.52000 14.20400 42.20700
C  -4.20500 14.42000 42.84100
H  -10.72900 20.11600 40.63700
H  -16.32100 17.85700 42.48100
H  -13.71700 12.20000 44.12500
H  -7.17400 16.99300 41.59200
H  -8.72200 18.68400 39.69500
H  -8.00100 20.48300 40.92900
H  -6.87700 19.14300 41.20200
H  -8.16600 19.52900 42.38100
H  -7.84000 16.76800 38.63700
H  -7.99700 15.25500 39.61300
H  -5.86300 15.05800 39.47900
H  -5.36300 16.54300 40.10600
H  -13.32500 21.81600 39.89500
H  -11.77100 21.73100 40.64000
H  -13.03200 22.46100 41.54800
H  -17.53100 19.87800 42.01700
H  -17.53200 21.14800 43.24300
H  -16.85500 19.63200 43.76300
H  -17.00400 15.00800 42.40300
H  -15.83000 13.66100 44.77600
H  -18.67500 15.76700 43.70200
H  -17.45800 16.86000 44.33800
H  -17.79900 15.29800 45.13500
H  -15.70300 12.54600 41.94100
H  -17.22600 12.80400 42.27700
H  -15.88500 10.61400 42.84200
H  -17.33500 10.95600 43.83200
H  -15.80300 11.28900 44.46200
H  -10.88000 10.75200 45.09700
H  -10.52600 10.08000 43.52400
H  -12.19400 10.49400 43.88500
H  -7.44900 13.49200 41.15900
H  -4.00200 14.03900 43.84200
H  -3.99200 15.48500 42.93000
H  -3.53000 13.97300 42.11100

