158

Mg 24.81500 -6.98500 47.00100
C  26.42100 -4.09900 45.66800
C  22.19500 -6.40100 44.94000
C  23.70000 -9.92000 47.90400
C  27.85400 -7.34400 48.94800
N  24.42400 -5.37900 45.57700
C  25.14600 -4.29900 45.18500
C  24.42100 -3.49000 44.13700
C  22.91700 -4.04700 44.25300
C  23.18300 -5.40200 44.98000
C  21.89000 -3.08900 44.99300
C  24.91500 -3.64600 42.64600
C  25.47400 -2.34200 42.06600
H  25.20100 -2.09100 40.59800
N  23.12900 -7.98600 46.54400
C  22.14500 -7.57200 45.70200
C  21.10200 -8.63500 45.71700
C  21.59000 -9.76700 46.39800
C  22.87000 -9.24800 46.99500
C  19.74200 -8.43800 44.96300
C  20.93000 -11.09000 46.47600
O  19.79900 -11.32900 46.04000
C  21.50900 -12.18900 47.25900
N  25.83900 -8.54900 48.02200
C  25.00400 -9.52900 48.41700
C  25.76800 -10.43500 49.43200
C  27.02900 -9.59300 49.88000
C  26.92800 -8.44100 48.91100
C  24.94100 -10.75400 50.65400
C  28.41200 -10.34900 49.76900
C  28.96200 -10.86700 51.06700
N  26.72900 -5.88900 47.34000
C  27.81500 -6.20600 48.14300
C  28.81700 -5.19000 48.05000
C  28.29200 -4.37800 47.01700
C  27.04600 -4.84100 46.63700
C  30.16000 -5.12200 48.75700
C  28.57600 -3.19600 46.31000
O  29.50000 -2.37600 46.34600
C  27.49100 -3.05200 45.29700
C  27.13000 -1.69000 45.14900
O  27.31900 -1.04200 44.18100
O  26.50400 -1.26200 46.30700
C  25.90000 0.09600 46.28800
H  21.31800 -6.14300 44.34300
H  23.43700 -10.87000 48.37500
H  28.66700 -7.45200 49.66900
H  24.60800 -2.46900 44.46800
H  22.44700 -4.21300 43.28400
H  22.22600 -2.05200 44.96400
H  21.75200 -3.32700 46.04800
H  20.90100 -3.23800 44.55900
H  24.22300 -4.04800 41.90600
H  25.67700 -4.42000 42.73800
H  26.54600 -2.37100 42.26200
H  25.01000 -1.51300 42.60000
H  19.60000 -9.17900 44.17600
H  19.57900 -7.41900 44.61200
H  18.95300 -8.79800 45.62300
H  22.52700 -12.37700 46.91600
H  20.96500 -13.10200 47.01800
H  21.46300 -12.04400 48.33800
H  26.14800 -11.28400 48.86400
H  26.87600 -9.13900 50.85900
H  24.39000 -11.68500 50.52300
H  24.21400 -9.96200 50.82800
H  25.57800 -10.78000 51.53800
H  29.15700 -9.71900 49.28300
H  28.32300 -11.09800 48.98300
H  28.49200 -10.56300 52.00300
H  30.00600 -10.55800 51.11200
H  29.16400 -11.93700 51.02000
H  30.95200 -5.77700 48.39400
H  29.82100 -5.30700 49.77700
H  30.64700 -4.15300 48.85900
H  27.81200 -3.37600 44.30700
H  25.19900 0.21700 45.46200
H  26.59200 0.88900 46.00400
H  25.35500 0.41200 47.17800
Mg 35.69400 0.99400 28.96300
C  33.63800 2.61200 31.39300
C  38.20200 1.08100 31.36300
C  37.85300 0.23400 26.55400
C  33.35800 2.09900 26.57200
N  35.83200 1.63200 31.09700
C  34.81300 2.10200 31.87300
C  35.21800 2.13900 33.41800
C  36.82700 1.99600 33.39200
C  36.99100 1.51000 31.85500
C  37.66500 3.24400 33.84500
C  34.51300 0.99500 34.16800
C  34.43600 1.20900 35.65900
H  35.06500 2.41600 36.34700
N  37.69200 0.54700 28.92700
C  38.55000 0.65900 30.02600
C  39.91300 0.32400 29.58900
C  39.85200 -0.03400 28.14500
C  38.42100 0.17800 27.83300
C  41.10500 0.27500 30.55500
C  40.91200 -0.44300 27.19000
O  40.65000 -0.66400 25.98200
C  42.30600 -0.80100 27.59800
N  35.59600 1.09500 26.85800
C  36.62000 0.66900 26.11700
C  36.22500 0.61000 24.63100
C  34.65800 0.90100 24.74900
C  34.51800 1.47900 26.13300
C  37.05600 1.47600 23.70100
C  33.77100 -0.37000 24.60300
C  32.95700 -0.38100 23.35100
N  33.84800 2.13200 28.96400
C  33.01400 2.38200 27.93300
C  31.83300 3.02200 28.42700
C  32.03200 3.07900 29.78700
C  33.29100 2.60500 30.05300
C  30.66700 3.42400 27.63500
C  31.44700 3.44300 31.07300
O  30.34300 3.89700 31.33700
C  32.44300 3.20100 32.16600
C  32.59000 4.49400 32.95000
O  33.17500 5.54700 32.60700
O  31.91900 4.32700 34.23100
C  31.52200 5.63100 34.85900
H  39.00600 1.23500 32.08600
H  38.49800 -0.06000 25.72400
H  32.61500 2.13800 25.77200
H  35.05400 3.14400 33.80700
H  36.94700 1.13600 34.05100
H  36.97300 3.97900 34.25600
H  38.17500 3.66900 32.98000
H  38.37700 3.10800 34.65800
H  34.92600 -0.00700 34.05500
H  33.48900 0.98600 33.79400
H  34.81100 0.29800 36.12500
H  33.39500 1.35900 35.94500
H  41.49800 -0.70700 30.81700
H  40.93200 0.80200 31.49300
H  41.94200 0.60400 29.94000
H  42.76900 -1.33400 26.76700
H  42.36300 -1.42700 28.48800
H  42.81800 0.16100 27.60100
H  36.28500 -0.41600 24.26700
H  34.35100 1.72000 24.09900
H  37.85300 1.99700 24.23200
H  36.43700 2.16200 23.12200
H  37.43200 0.81000 22.92400
H  33.00900 -0.30200 25.37900
H  34.40000 -1.25800 24.66900
H  33.18600 0.40900 22.63600
H  31.89800 -0.37000 23.60900
H  33.08700 -1.33600 22.84400
H  30.82700 4.38500 27.14500
H  29.72400 3.43900 28.18200
H  30.49100 2.75100 26.79500
H  32.04700 2.45300 32.85300
H  31.02500 6.30200 34.15800
H  32.46900 6.04500 35.20600
H  30.89200 5.44600 35.72900

