158

Mg 30.16100 57.98300 40.62000
C  27.31600 56.17800 39.75500
C  32.05600 55.17600 39.98600
C  33.02400 59.98500 40.73900
C  28.20800 60.83800 40.86000
N  29.77600 55.98300 39.85900
C  28.48700 55.46600 39.73800
C  28.55300 53.97800 39.36200
C  30.00400 53.59800 39.82600
C  30.70100 55.02400 39.90300
C  30.10000 52.72500 41.09500
C  28.17100 53.65000 37.88800
C  28.51300 54.73300 36.79400
H  28.39400 54.46100 35.20900
N  32.33700 57.60500 40.38500
C  32.88500 56.36000 40.07500
C  34.30000 56.52800 39.88400
C  34.59400 57.90800 40.17900
C  33.29200 58.58100 40.46800
C  35.19700 55.37600 39.60100
C  35.94700 58.59900 40.09400
O  36.83700 57.89800 39.62900
C  36.18100 60.08300 40.28700
N  30.60000 60.16600 40.69800
C  31.84400 60.72000 40.91800
C  31.73300 62.16600 41.33500
C  30.19900 62.33200 41.48000
C  29.56300 61.09800 40.90200
C  32.58600 62.72300 42.47900
C  29.54400 63.59500 40.79200
C  28.77500 64.62100 41.62400
N  28.18100 58.52100 40.39600
C  27.46100 59.68200 40.60900
C  26.07000 59.39800 40.39900
C  25.97800 58.03200 40.04400
C  27.25600 57.59400 40.07500
C  24.88500 60.28000 40.52500
C  25.04500 56.94100 39.64300
O  23.82500 57.00300 39.48300
C  25.91000 55.63200 39.46500
C  25.25600 54.61300 40.42500
O  25.09200 54.77500 41.63800
O  24.96500 53.52100 39.76300
C  24.72400 52.35900 40.60600
H  32.54800 54.20300 40.04000
H  33.93900 60.50200 41.03600
H  27.55000 61.68000 41.08700
H  27.82200 53.43100 39.95700
H  30.40600 52.84900 39.14300
H  30.78600 51.89300 40.93700
H  29.12400 52.44300 41.48800
H  30.46600 53.38400 41.88200
H  27.10600 53.46900 37.74700
H  28.64500 52.70100 37.63700
H  29.54300 55.02300 37.00000
H  27.95600 55.64100 37.02200
H  35.78700 55.35400 38.68500
H  34.55600 54.49900 39.50700
H  35.81400 55.09700 40.45500
H  36.07700 60.34700 41.33900
H  35.39200 60.52200 39.67700
H  37.12900 60.44500 39.88800
H  32.01700 62.67700 40.41500
H  29.97700 62.30200 42.54700
H  33.52100 62.17900 42.61900
H  31.98300 62.54300 43.36800
H  32.91900 63.73100 42.23300
H  28.84300 63.25200 40.03100
H  30.28600 64.02700 40.12100
H  27.88500 64.92500 41.07200
H  29.44900 65.44000 41.87600
H  28.45800 64.08000 42.51500
H  25.20600 61.31000 40.36900
H  24.54400 60.20500 41.55800
H  24.09700 59.96900 39.84000
H  25.74800 55.32000 38.43300
H  25.11500 51.47400 40.10400
H  23.64000 52.30600 40.50900
H  25.11600 52.35800 41.62300
Mg 1.35800 42.50400 26.30800
C  3.45500 42.47100 29.04000
C  -1.34100 41.66700 28.42800
C  -0.60600 41.99800 23.52200
C  4.17000 42.91400 24.14600
N  1.07000 42.09600 28.44900
C  2.11300 42.23500 29.38500
C  1.51900 42.36600 30.78700
C  0.15100 41.71900 30.59200
C  -0.06400 41.89900 29.09700
C  -0.01000 40.27900 31.11000
C  1.64200 43.83200 31.31800
C  2.04100 43.99600 32.81900
H  1.78200 42.82100 33.87100
N  -0.70800 42.00400 26.01300
C  -1.58600 41.80400 27.05500
C  -2.90800 41.58500 26.39400
C  -2.73700 41.58500 24.97200
C  -1.28200 41.91300 24.76500
C  -4.01800 41.12300 27.21900
C  -3.63100 41.12600 23.84500
O  -3.31500 41.20300 22.67000
C  -4.89800 40.26600 24.12300
N  1.74200 42.44500 24.14900
C  0.77700 42.32000 23.22700
C  1.34400 42.09600 21.78900
C  2.75800 42.67000 21.93100
C  2.93800 42.70100 23.47600
C  1.25200 40.70600 21.09000
C  2.87600 44.05900 21.18200
C  4.28500 44.34500 20.68600
N  3.31400 42.74300 26.47400
C  4.30300 42.95400 25.57800
C  5.63000 42.97100 26.27600
C  5.33200 42.87200 27.64800
C  3.91000 42.66900 27.72700
C  7.03200 42.98600 25.63000
C  5.83400 42.92100 29.00900
O  6.98500 43.04700 29.45100
C  4.57400 42.72700 29.93900
C  4.86400 41.53200 30.70800
O  5.11600 40.34600 30.30500
O  4.73000 41.89700 32.06900
C  5.18600 40.83400 33.03400
H  -2.18300 41.37300 29.05700
H  -1.21700 41.80800 22.63700
H  5.00600 43.24100 23.52500
H  2.17100 41.67400 31.32000
H  -0.59100 42.39200 31.02200
H  -0.83500 40.34300 31.82000
H  0.92600 40.10000 31.63800
H  -0.17400 39.58600 30.28500
H  0.67900 44.31600 31.15500
H  2.36400 44.39900 30.73100
H  1.64300 44.94900 33.16900
H  3.12400 44.10700 32.86500
H  -3.93000 40.05500 27.41700
H  -4.98100 41.19400 26.71300
H  -4.16300 41.61200 28.18300
H  -4.81300 39.67100 25.03300
H  -5.07500 39.65000 23.24100
H  -5.75000 40.91300 24.33200
H  0.76200 42.82500 21.22500
H  3.47900 41.99600 21.46900
H  0.72100 40.04200 21.77100
H  2.16100 40.15300 20.85100
H  0.61000 40.86400 20.22400
H  2.58000 44.78900 21.93600
H  2.27700 44.10500 20.27200
H  4.36900 44.43800 19.60300
H  4.97200 43.54600 20.96300
H  4.62200 45.30800 21.07000
H  7.22600 42.15300 24.95300
H  7.75400 42.80400 26.42600
H  7.22800 43.94600 25.15300
H  4.49000 43.67900 30.46300
H  4.44900 40.09200 33.34100
H  5.45200 41.32100 33.97200
H  6.12800 40.38000 32.72600

