158

Mg 47.06700 24.70100 28.71200
C  47.64000 27.01900 31.24500
C  45.99300 22.44700 31.15500
C  46.51400 22.44000 26.38500
C  48.69600 26.69600 26.37800
N  46.84100 24.75900 31.01200
C  47.06700 25.81400 31.80700
C  46.69100 25.49300 33.28500
C  46.32600 23.98300 33.24000
C  46.38500 23.67900 31.73000
C  47.17000 23.10100 34.17200
C  45.53800 26.43100 33.71400
C  45.92800 27.27000 34.94000
H  46.55000 26.54500 36.28000
N  46.25900 22.80800 28.77900
C  45.85100 22.05600 29.86000
C  45.24500 20.77300 29.38200
C  45.43200 20.74800 27.97600
C  46.00000 22.04400 27.60600
C  44.90400 19.64300 30.26500
C  45.18900 19.55000 26.98600
O  45.41600 19.58800 25.82100
C  44.80200 18.15700 27.44400
N  47.53100 24.60900 26.59700
C  47.24200 23.46000 25.93100
C  47.61400 23.64000 24.47900
C  48.35500 25.01300 24.51800
C  48.30400 25.43600 25.91900
C  48.33900 22.48000 23.71700
C  47.77900 26.13600 23.56700
C  46.35800 26.74300 23.88700
N  47.95800 26.47000 28.73200
C  48.57400 27.24800 27.70800
C  48.98200 28.53800 28.28700
C  48.72900 28.44000 29.64600
C  48.03400 27.19800 29.87700
C  49.66700 29.64000 27.50400
C  48.85700 29.15900 30.91100
O  49.36300 30.24200 31.22600
C  48.15000 28.27500 31.92900
C  49.22700 27.88900 32.96900
O  50.00600 26.90300 32.80600
O  49.16800 28.70200 34.08600
C  49.97300 28.18300 35.25400
H  45.67900 21.75800 31.94200
H  46.31400 21.73400 25.57700
H  49.27300 27.27200 25.65100
H  47.67200 25.66300 33.72800
H  45.31500 23.60200 33.38300
H  47.69700 22.22600 33.79100
H  46.46800 22.76200 34.93400
H  47.89500 23.75600 34.65400
H  44.50100 26.09600 33.71900
H  45.46800 27.16700 32.91300
H  44.95600 27.71800 35.14600
H  46.54500 28.12900 34.67800
H  45.62000 18.85000 30.05200
H  43.84500 19.40400 30.16200
H  45.12600 19.84300 31.31300
H  44.66200 17.43400 26.64000
H  43.85400 18.18900 27.98000
H  45.59200 17.77400 28.09000
H  46.69600 23.90100 23.95200
H  49.39400 24.91800 24.20100
H  49.14500 22.88600 23.10600
H  47.64900 22.01200 23.01600
H  48.77600 21.80800 24.45600
H  47.65700 25.63500 22.60700
H  48.58400 26.86700 23.48900
H  45.87900 26.51900 24.84000
H  45.73200 26.55300 23.01500
H  46.41800 27.82800 23.80900
H  50.70200 29.76300 27.82500
H  49.14500 30.55500 27.78300
H  49.59700 29.49800 26.42500
H  47.43900 28.88100 32.49000
H  49.58100 27.21600 35.56700
H  50.13200 28.95200 36.01000
H  50.95300 27.88900 34.87700
Mg -10.78900 15.73100 43.09100
C  -7.35900 16.31000 43.05700
C  -11.26500 19.11400 42.80900
C  -14.04300 15.14300 42.10700
C  -10.17100 12.29100 42.83200
N  -9.39200 17.49500 42.79600
C  -8.03900 17.47600 42.98000
C  -7.46000 18.88200 42.80900
C  -8.75700 19.78300 42.96700
C  -9.93800 18.73400 42.93400
C  -8.84600 20.55400 44.32000
C  -6.81900 19.09500 41.38300
C  -5.42300 19.75700 41.35200
H  -4.34200 19.25000 40.38300
N  -12.43900 16.95200 42.49200
C  -12.42900 18.32200 42.53900
C  -13.70700 18.87000 42.16900
C  -14.53700 17.72300 41.85900
C  -13.66300 16.51500 42.13400
C  -14.05000 20.30400 41.98900
C  -15.93900 17.91300 41.48000
O  -16.52000 18.97600 41.50300
C  -16.69000 16.70600 41.17100
N  -12.00000 13.98200 42.59700
C  -13.31100 14.03100 42.44700
C  -13.95600 12.57100 42.34500
C  -12.63900 11.69200 42.30100
C  -11.55200 12.73700 42.69200
C  -14.81100 12.20200 43.53000
C  -12.44400 10.95100 40.92200
C  -12.34900 9.41800 41.00300
N  -9.17600 14.46200 43.02900
C  -9.03800 13.11000 42.97400
C  -7.62200 12.72500 43.15800
C  -6.91700 13.96300 43.15800
C  -7.87800 14.97400 43.10400
C  -7.08800 11.31500 43.14200
C  -5.55600 14.59400 43.14000
O  -4.42200 14.10000 43.06100
C  -5.81200 16.11800 43.29800
C  -5.40300 16.43100 44.68800
O  -6.05700 16.52700 45.72400
O  -4.05200 16.61900 44.64400
C  -3.21500 16.81600 45.83000
H  -11.29900 20.20200 42.72000
H  -15.01500 14.85000 41.70500
H  -10.07300 11.23500 42.57400
H  -6.82100 18.99600 43.68400
H  -8.84500 20.43100 42.09500
H  -8.94000 21.57500 43.94900
H  -7.93100 20.47200 44.90600
H  -9.72800 20.17400 44.83500
H  -7.63400 19.46800 40.76400
H  -6.72600 18.07600 41.00700
H  -5.01300 19.49100 42.32700
H  -5.45900 20.84600 41.32100
H  -13.25200 20.87600 42.46000
H  -14.87600 20.57600 42.64500
H  -14.30800 20.48700 40.94600
H  -17.70700 16.91900 40.84100
H  -16.95400 16.20600 42.10200
H  -16.17900 15.98900 40.52800
H  -14.45500 12.60000 41.37600
H  -12.76700 10.92800 43.06800
H  -15.83900 12.01800 43.21800
H  -14.80300 12.89400 44.37300
H  -14.65700 11.23300 44.00300
H  -11.49800 11.23000 40.45800
H  -13.13800 11.32800 40.17100
H  -11.39800 9.13300 40.55200
H  -13.21300 9.05400 40.44800
H  -12.27900 8.95900 41.99000
H  -7.40700 10.74700 44.01500
H  -6.00000 11.30000 43.07500
H  -7.30400 10.80400 42.20300
H  -5.23400 16.66500 42.55300
H  -2.53700 15.96900 45.93800
H  -3.65700 17.09700 46.78500
H  -2.54700 17.66300 45.66600

