158

Mg 45.28800 5.17400 47.68800
C  43.34700 7.84200 46.97300
C  42.80300 3.12400 46.72100
C  47.45800 2.59100 47.89000
C  48.00300 7.41400 48.02100
N  43.34800 5.49600 46.84700
C  42.73800 6.64800 46.70300
C  41.25200 6.53000 46.24100
C  41.01800 5.00600 46.41900
C  42.48000 4.47700 46.66500
C  40.09400 4.56800 47.51400
C  41.14800 7.01700 44.73000
C  39.88200 7.88000 44.37700
H  39.14500 7.67200 43.03800
N  45.13300 3.11700 47.35900
C  44.05600 2.45300 46.89400
C  44.42000 1.08100 46.63500
C  45.75400 0.90000 47.05900
C  46.17700 2.20000 47.55700
C  43.50200 0.00600 46.13400
C  46.55800 -0.41400 46.87200
O  46.10700 -1.36900 46.28300
C  47.89400 -0.48900 47.60400
N  47.42900 5.05600 47.74900
C  48.04100 3.84700 48.02900
C  49.51000 3.99300 48.25600
C  49.71500 5.55500 48.33600
C  48.28700 6.05800 48.11900
C  49.97700 3.20400 49.48300
C  50.66800 6.14500 47.25300
C  51.47600 7.27900 47.69700
N  45.65700 7.27600 47.62200
C  46.72400 8.04700 47.84000
C  46.42700 9.45600 47.74700
C  45.07500 9.45500 47.32300
C  44.65700 8.13900 47.35700
C  47.39000 10.60100 47.77700
C  43.94300 10.27400 46.97700
O  43.79800 11.47200 46.82600
C  42.73600 9.24000 46.78900
C  41.71200 9.54200 47.84400
O  41.49600 8.96400 48.85900
O  40.76800 10.44600 47.30800
C  39.50400 10.61600 48.14800
H  41.97600 2.45100 46.48500
H  48.24800 1.84600 48.00200
H  48.85800 8.08800 48.10900
H  40.58700 7.15700 46.83500
H  40.63200 4.52900 45.51900
H  39.41300 5.39700 47.70200
H  40.47400 4.18500 48.46200
H  39.63400 3.66900 47.10500
H  41.21100 6.11600 44.12100
H  42.06000 7.60300 44.61100
H  40.20400 8.91500 44.26300
H  39.08100 7.88400 45.11500
H  43.73800 -0.35300 45.13200
H  42.42600 0.17800 46.13600
H  43.75100 -0.85900 46.75000
H  48.09200 -1.54800 47.76700
H  47.50400 -0.05600 48.52600
H  48.77100 0.04500 47.24000
H  50.00800 3.60200 47.36800
H  49.92600 5.93500 49.33600
H  50.28100 2.16700 49.34200
H  49.06400 3.17300 50.07700
H  50.68900 3.82000 50.03100
H  49.93700 6.47400 46.51500
H  51.30200 5.33700 46.88800
H  52.44500 7.13700 47.21900
H  51.54700 7.22000 48.78300
H  51.07200 8.20800 47.29500
H  46.87700 11.55100 47.62200
H  48.06200 10.55000 46.92000
H  48.03100 10.62100 48.65900
H  42.19000 9.42600 45.86400
H  39.57700 11.09400 49.12500
H  39.17000 9.60700 48.38700
H  38.77200 11.09400 47.49800
Mg 1.42000 42.47000 25.84500
C  2.98800 42.58700 29.02900
C  -1.51800 41.56000 27.59800
C  0.16000 41.56100 22.94700
C  4.51500 43.06700 24.39200
N  0.79700 42.09900 28.04700
C  1.65200 42.27300 29.14600
C  0.96900 41.83300 30.48500
C  -0.44600 41.42700 29.99300
C  -0.40700 41.75500 28.45500
C  -0.83800 39.91300 30.34500
C  0.89400 43.12000 31.46500
C  0.93200 42.94900 32.95700
H  0.80800 41.48200 33.52900
N  -0.49700 41.80200 25.29500
C  -1.56600 41.61500 26.17000
C  -2.69900 41.27600 25.28900
C  -2.24500 41.19200 23.88500
C  -0.84700 41.50700 23.99900
C  -4.08800 40.95400 25.75900
C  -2.93200 40.80000 22.64400
O  -2.39600 40.77400 21.52200
C  -4.41000 40.54100 22.62500
N  2.18100 42.47500 23.96100
C  1.46200 41.96700 22.89600
C  2.38300 41.77900 21.62900
C  3.52800 42.83900 21.98700
C  3.43900 42.77500 23.55300
C  2.89600 40.30200 21.54800
C  3.42500 44.26400 21.47200
C  4.36400 44.62200 20.30800
N  3.33700 42.80200 26.51700
C  4.48000 43.08200 25.80100
C  5.56700 43.16000 26.71300
C  5.06300 42.98900 27.96800
C  3.68600 42.76700 27.82400
C  6.94500 43.25800 26.21100
C  5.38700 42.77500 29.36800
O  6.50300 42.66600 29.89200
C  4.00900 42.64000 30.18900
C  4.13200 41.37200 31.03300
O  4.19100 40.21700 30.61600
O  4.33100 41.82100 32.31700
C  4.77500 40.72700 33.28100
H  -2.42200 41.24700 28.12400
H  -0.13700 41.22000 21.95300
H  5.51300 43.29000 24.00800
H  1.52300 41.09100 31.06000
H  -1.23300 42.01800 30.46100
H  -0.83900 39.35000 29.41100
H  -1.78500 39.78500 30.86800
H  -0.07900 39.40500 30.94000
H  -0.10400 43.44000 31.16700
H  1.53500 43.87300 31.00700
H  0.01300 43.45700 33.24900
H  1.83300 43.41700 33.35400
H  -4.12900 39.87600 25.60300
H  -4.78500 41.57100 25.19200
H  -4.19100 41.02100 26.84200
H  -4.55300 39.51300 22.95600
H  -4.60800 40.59000 21.55500
H  -4.89800 41.37100 23.13600
H  1.72600 42.05800 20.80500
H  4.47100 42.45300 21.60000
H  2.65200 39.91600 22.53700
H  3.96400 40.17100 21.36900
H  2.44700 39.72700 20.73900
H  3.58000 44.96200 22.29400
H  2.42000 44.30600 21.05300
H  3.80000 44.92500 19.42600
H  5.18700 43.91100 20.23400
H  4.82100 45.57400 20.58300
H  7.17900 42.50800 25.45600
H  7.57000 43.25400 27.10400
H  7.04900 44.19000 25.65600
H  3.88300 43.54300 30.78700
H  5.86400 40.75000 33.31600
H  4.47800 39.72800 32.96100
H  4.23600 40.91300 34.21000

