158

Mg -2.10800 17.58600 26.94000
C  -2.48300 15.29900 29.55600
C  -2.89100 20.19200 28.94000
C  -2.22000 19.50400 24.19200
C  -2.11200 14.65300 24.74800
N  -2.60100 17.72000 28.95300
C  -2.51600 16.65500 29.89200
C  -2.79100 17.04600 31.30300
C  -3.24200 18.49400 31.04700
C  -2.97600 18.89600 29.50700
C  -4.62000 19.01100 31.58300
C  -1.71900 16.66400 32.37300
C  -1.46300 17.56000 33.61900
H  -1.35500 16.86600 35.01400
N  -2.35300 19.67500 26.60600
C  -2.56500 20.55000 27.60900
C  -2.38000 21.87900 27.02700
C  -2.25300 21.74100 25.59800
C  -2.31200 20.29100 25.39400
C  -2.57400 23.12500 27.91500
C  -2.12700 22.78600 24.44400
O  -2.14200 22.47300 23.25800
C  -1.97200 24.21000 24.76900
N  -2.44200 17.15600 24.78500
C  -2.28900 18.16500 23.92900
C  -2.21300 17.69000 22.50800
C  -2.32100 16.16300 22.65100
C  -2.20200 15.98200 24.16800
C  -3.24700 18.31800 21.46900
C  -1.24600 15.30100 21.84400
C  0.22800 15.46900 22.17900
N  -2.18200 15.40000 27.03700
C  -2.15700 14.35800 26.07100
C  -2.36500 13.07400 26.72400
C  -2.40000 13.36600 28.13400
C  -2.30400 14.76300 28.24700
C  -2.43500 11.77600 26.09300
C  -2.52600 12.83800 29.47100
O  -2.55000 11.66400 29.81400
C  -2.63700 14.02500 30.46600
C  -1.47700 13.77800 31.29500
O  -0.30600 14.16900 31.15700
O  -1.94200 12.99900 32.28800
C  -0.91800 12.73900 33.32700
H  -3.01100 20.94100 29.72600
H  -2.02000 20.13000 23.31900
H  -2.05500 13.76600 24.11400
H  -3.71800 16.58300 31.64200
H  -2.47400 19.12100 31.50000
H  -5.26500 19.26800 30.74200
H  -4.54100 19.95400 32.12400
H  -5.03300 18.34200 32.33800
H  -0.77800 16.56800 31.83100
H  -1.89900 15.69600 32.84100
H  -2.31300 18.24200 33.61600
H  -0.51600 18.07600 33.46700
H  -3.18100 22.82100 28.76800
H  -3.16300 23.81000 27.30500
H  -1.74000 23.74500 28.24500
H  -1.13500 24.46600 25.41900
H  -2.82600 24.47700 25.39200
H  -1.81400 24.83100 23.88800
H  -1.20700 17.80900 22.10500
H  -3.29600 15.75800 22.38100
H  -3.90000 17.51500 21.12900
H  -2.66300 18.53200 20.57400
H  -3.79800 19.21400 21.75500
H  -1.46900 15.52700 20.80100
H  -1.50900 14.26400 22.05100
H  0.51800 16.09100 21.33200
H  0.83600 14.57900 22.01700
H  0.45000 15.95200 23.13000
H  -3.50900 11.65600 25.95500
H  -2.07900 11.09100 26.86200
H  -1.78900 11.85900 25.21900
H  -3.58800 14.00800 30.99800
H  0.03900 13.19700 33.08000
H  -0.78800 11.66200 33.43500
H  -1.32000 13.23900 34.20800
Mg -1.87900 34.18500 27.31400
C  -3.58300 32.14900 29.75200
C  -0.62600 36.03100 30.08600
C  -0.61800 36.45600 25.24000
C  -3.55100 32.58300 24.81600
N  -2.12200 34.08300 29.62800
C  -2.88400 33.24900 30.36800
C  -2.86400 33.51100 31.83200
C  -2.03200 34.86600 31.84800
C  -1.52400 35.04700 30.48300
C  -2.95100 36.10800 32.32900
C  -2.16900 32.33300 32.55700
C  -2.95700 31.70700 33.79400
H  -2.23500 31.77400 35.15400
N  -0.67300 35.89300 27.64800
C  -0.17200 36.39500 28.83900
C  0.77800 37.46100 28.49900
C  0.72700 37.69800 27.09500
C  -0.23700 36.70500 26.60000
C  1.61700 38.18000 29.45400
C  1.32700 38.72700 26.25200
O  1.12200 38.91300 25.06400
C  2.35400 39.61700 26.87700
N  -2.06500 34.46500 25.31900
C  -1.51900 35.55300 24.71300
C  -1.93500 35.57900 23.22900
C  -2.53800 34.19200 23.07600
C  -2.77200 33.74400 24.48200
C  -2.97600 36.76400 22.91200
C  -1.70400 33.20000 22.15400
C  -0.94300 32.08400 22.88800
N  -3.23000 32.67600 27.22000
C  -3.75700 32.10000 26.07800
C  -4.71400 31.10300 26.50900
C  -4.59500 31.07800 27.88500
C  -3.68800 32.03400 28.26500
C  -5.59100 30.25400 25.60300
C  -5.09600 30.38500 29.05800
O  -5.88000 29.44200 29.13900
C  -4.48100 31.03900 30.30400
C  -5.67500 31.53000 31.08900
O  -6.54100 32.28400 30.74200
O  -5.62900 30.90300 32.30900
C  -6.79700 30.82000 33.20500
H  -0.17500 36.70900 30.81400
H  -0.27000 37.21000 24.53000
H  -4.07900 32.25200 23.91900
H  -3.88500 33.76600 32.11600
H  -1.23700 34.78700 32.59000
H  -2.45400 36.50300 33.21500
H  -3.97600 35.76400 32.46900
H  -2.92800 36.88600 31.56600
H  -1.17800 32.70400 32.81700
H  -2.03400 31.58100 31.77900
H  -3.28500 30.69000 33.57800
H  -3.90600 32.22600 33.92900
H  1.53900 37.71300 30.43600
H  1.18100 39.17900 29.44200
H  2.61100 38.04000 29.02800
H  1.95100 40.19800 27.70700
H  2.73500 40.33800 26.15400
H  3.20100 39.06700 27.28500
H  -1.08100 35.77000 22.57900
H  -3.54200 34.31900 22.67300
H  -3.90400 36.47800 22.41800
H  -2.48100 37.60800 22.43000
H  -3.33700 37.06000 23.89700
H  -0.96900 33.69600 21.52000
H  -2.36000 32.76800 21.39800
H  -0.43600 32.53000 23.74400
H  -0.17200 31.70400 22.21900
H  -1.65200 31.30500 23.17000
H  -6.49500 30.00900 26.16100
H  -5.11300 29.33800 25.25500
H  -5.90800 30.89600 24.78200
H  -3.85500 30.32100 30.83400
H  -6.92500 29.79000 33.53900
H  -7.72300 31.04900 32.67800
H  -6.61300 31.42200 34.09500

