158

Mg 24.47100 -7.04500 47.38300
C  27.18700 -4.96400 46.34800
C  22.69700 -5.59100 44.88000
C  22.22800 -9.47500 47.70900
C  26.76400 -8.74500 49.38200
N  24.83100 -5.34800 45.94100
C  26.01400 -4.79600 45.58600
C  25.78500 -3.74500 44.50200
C  24.22600 -3.68300 44.31200
C  23.89500 -4.96700 45.05300
C  23.45200 -2.44600 44.80700
C  26.51100 -4.13000 43.11100
C  27.05800 -2.91100 42.37200
H  26.88700 -2.83700 40.84500
N  22.64700 -7.43200 46.54300
C  22.12500 -6.71100 45.48600
C  20.78500 -7.16100 45.26700
C  20.54300 -8.33600 46.11400
C  21.89600 -8.46600 46.81700
C  19.76300 -6.45900 44.35300
C  19.36200 -9.18500 46.24800
O  18.33900 -8.95600 45.59100
C  19.26700 -10.37700 47.14900
N  24.49000 -8.82100 48.47300
C  23.43100 -9.66700 48.45200
C  23.64800 -10.86200 49.37700
C  25.12600 -10.65300 49.83100
C  25.49500 -9.37300 49.22500
C  22.66200 -10.98000 50.58300
C  26.12400 -11.80300 49.55400
C  27.00500 -12.00700 50.78100
N  26.52500 -6.88200 47.88000
C  27.30600 -7.60900 48.71600
C  28.55900 -7.05100 48.81700
C  28.59600 -5.98800 47.93200
C  27.33500 -5.90000 47.38900
C  29.71300 -7.63600 49.66200
C  29.38300 -4.88900 47.35800
O  30.46800 -4.45800 47.67500
C  28.53100 -4.23200 46.31600
C  28.47400 -2.76400 46.64100
O  28.18100 -2.26600 47.70500
O  28.76300 -2.03800 45.50900
C  28.66600 -0.61500 45.71000
H  22.14700 -5.12000 44.06200
H  21.61000 -10.32800 47.99500
H  27.57600 -9.25800 49.90000
H  26.12800 -2.75300 44.79500
H  23.94000 -3.79700 43.26700
H  23.01100 -1.89200 43.97800
H  24.07900 -1.91300 45.52100
H  22.50700 -2.75600 45.25300
H  25.84000 -4.68200 42.45200
H  27.38100 -4.78500 43.15200
H  28.10100 -2.81900 42.67500
H  26.50500 -2.07400 42.79900
H  19.14900 -7.15400 43.78000
H  20.33300 -5.81200 43.68600
H  19.14800 -5.79500 44.96000
H  20.00800 -11.12000 46.85500
H  18.29000 -10.81800 46.95200
H  19.44300 -10.02700 48.16600
H  23.62600 -11.79700 48.81700
H  25.22600 -10.47800 50.90200
H  23.23800 -10.96500 51.50900
H  22.18300 -11.94200 50.40400
H  21.96000 -10.14600 50.59700
H  26.65700 -11.49200 48.65600
H  25.66100 -12.76800 49.34500
H  27.71500 -12.77000 50.46300
H  26.39800 -12.49400 51.54400
H  27.38200 -11.07800 51.20900
H  30.53700 -6.93200 49.78100
H  30.03000 -8.48500 49.05500
H  29.43600 -8.05200 50.63100
H  28.93200 -4.41900 45.32000
H  29.29200 -0.34600 46.56100
H  27.67800 -0.15700 45.75900
H  29.21100 -0.14100 44.89400
Mg 25.82500 50.87900 26.42100
C  23.50200 51.88700 28.89000
C  28.09300 50.36200 29.02200
C  28.22200 50.76700 24.07900
C  23.52300 51.97700 24.04500
N  25.75400 51.07500 28.69500
C  24.68100 51.24900 29.41400
C  24.90500 50.96200 30.89600
C  26.48000 50.76200 30.88600
C  26.80400 50.73900 29.37000
C  27.27900 51.85300 31.62500
C  24.15700 49.71200 31.47100
C  23.14200 49.92500 32.64300
H  23.37000 49.17500 33.93800
N  27.82800 50.37100 26.50600
C  28.51700 50.18500 27.64900
C  29.85500 49.74300 27.24900
C  29.91300 49.86300 25.82900
C  28.62200 50.33600 25.39500
C  30.91100 49.31200 28.21100
C  31.06100 49.51800 24.91800
O  30.92200 49.64000 23.73300
C  32.30800 49.01300 25.51300
N  25.90700 51.28000 24.29500
C  26.98300 51.17500 23.52800
C  26.62400 51.49700 21.98900
C  25.08300 51.72100 22.06300
C  24.79400 51.64500 23.53700
C  27.49800 52.71800 21.64100
C  24.20400 50.70600 21.20100
C  23.85400 51.15600 19.77000
N  23.96300 51.80200 26.40400
C  23.10500 52.11400 25.36300
C  21.86200 52.64100 25.91300
C  21.99400 52.61700 27.28400
C  23.25600 52.05800 27.55200
C  20.73000 53.20400 25.05600
C  21.32500 52.89100 28.52100
O  20.21600 53.35400 28.78900
C  22.35500 52.41400 29.68600
C  22.74900 53.62100 30.47700
O  23.66900 54.41700 30.21000
O  21.81500 53.77900 31.48000
C  22.14300 54.86800 32.41200
H  28.84300 50.05700 29.75400
H  29.04000 50.84200 23.36000
H  22.69800 52.20300 23.36600
H  24.64200 51.86000 31.45600
H  26.66400 49.78500 31.33200
H  27.59900 51.69400 32.65500
H  26.80100 52.81200 31.42200
H  28.25600 51.97800 31.15900
H  24.91000 49.02300 31.85300
H  23.48000 49.28700 30.73000
H  22.16600 49.63100 32.25800
H  23.31700 50.97100 32.89300
H  31.04400 48.23200 28.26500
H  30.77800 49.77800 29.18800
H  31.85500 49.77900 27.92800
H  32.17100 48.25900 26.28800
H  32.81400 49.93500 25.80000
H  32.84800 48.56100 24.68200
H  26.91000 50.62800 21.39600
H  24.89400 52.71100 21.64800
H  28.57300 52.53600 21.61800
H  27.34600 53.62800 22.22100
H  27.30700 52.91800 20.58600
H  23.24100 50.60000 21.70200
H  24.63300 49.71700 21.04300
H  24.06700 50.39700 19.01800
H  24.45000 52.02900 19.50400
H  22.79000 51.38200 19.69800
H  19.87900 53.32600 25.72600
H  20.36200 52.55900 24.25800
H  21.04000 54.18500 24.69800
H  21.99800 51.66800 30.39600
H  23.03000 54.69400 33.02000
H  21.35900 55.07800 33.13900
H  22.31000 55.84900 31.96700

