158

Mg 49.23300 34.48700 26.10100
C  47.21300 33.24400 28.68300
C  50.15700 36.98200 28.07800
C  50.67700 35.77300 23.31600
C  48.07700 31.81700 24.14400
N  48.64600 35.04200 28.16800
C  47.90000 34.40800 29.04200
C  48.03100 35.08800 30.42700
C  48.69400 36.41100 30.13200
C  49.27200 36.12400 28.71300
C  47.77900 37.61500 30.14300
C  48.80100 34.18600 31.46600
C  48.10600 34.19000 32.86200
H  47.43700 35.41300 33.34600
N  50.36600 36.08800 25.79600
C  50.67400 36.99800 26.74400
C  51.56300 37.92600 26.16500
C  51.74900 37.55400 24.73200
C  50.86500 36.43900 24.53600
C  52.19600 39.09200 26.86600
C  52.62800 38.25800 23.63300
O  52.81500 37.80200 22.49200
C  53.38200 39.55300 24.10900
N  49.22900 33.95300 23.96800
C  49.97100 34.62500 23.00300
C  50.06300 33.81900 21.64800
C  49.42400 32.46900 22.03100
C  48.96300 32.74800 23.50500
C  49.31600 34.50000 20.39800
C  50.37400 31.27200 21.85100
C  49.82100 30.03700 21.13800
N  47.78400 32.89100 26.22100
C  47.50400 31.83500 25.38900
C  46.57000 30.88200 26.05700
C  46.29900 31.50600 27.31000
C  47.20500 32.60900 27.40600
C  45.96900 29.61700 25.57800
C  45.62600 31.30500 28.49400
O  44.78800 30.49000 28.83100
C  46.14800 32.49600 29.43400
C  46.47100 31.83300 30.77700
O  47.53400 31.30200 31.07200
O  45.33900 31.96300 31.54700
C  45.49600 31.27000 32.86100
H  50.39400 37.91000 28.60300
H  51.11500 36.19500 22.40900
H  47.95700 30.88800 23.58300
H  46.99400 35.23800 30.72600
H  49.42800 36.68900 30.88800
H  46.94400 37.62000 30.84300
H  47.39500 37.63600 29.12300
H  48.30000 38.56900 30.21500
H  49.75600 34.69500 31.59700
H  48.88800 33.19500 31.02200
H  48.93300 34.15100 33.57100
H  47.46000 33.33100 33.04200
H  52.11700 38.93700 27.94200
H  51.70300 40.06000 26.78700
H  53.26400 39.10800 26.64700
H  52.60100 40.13900 24.59300
H  53.85200 40.00300 23.23400
H  54.23200 39.30700 24.74500
H  51.11800 33.66700 21.42200
H  48.54800 32.23500 21.42700
H  50.09100 34.64400 19.64500
H  48.83700 35.44500 20.65600
H  48.54300 33.78400 20.11900
H  50.56100 30.84200 22.83500
H  51.35800 31.58100 21.50100
H  48.82400 30.21200 20.73400
H  49.83900 29.20000 21.83700
H  50.52600 29.89300 20.31900
H  46.52200 29.20200 24.73500
H  44.89000 29.68800 25.44300
H  46.23300 28.92500 26.37800
H  45.17700 32.97600 29.55300
H  46.40600 30.69900 33.04400
H  44.70000 30.52600 32.86700
H  45.44000 31.90600 33.74400
Mg -6.35100 25.48500 26.82200
C  -5.30000 27.37800 29.59300
C  -8.00100 23.45400 28.95900
C  -7.26500 23.61600 24.13100
C  -4.37900 27.49600 24.68000
N  -6.41000 25.34700 29.11300
C  -6.04100 26.25500 30.03200
C  -6.70300 26.01200 31.37300
C  -7.32000 24.61500 31.16500
C  -7.29600 24.48200 29.62200
C  -6.51700 23.46600 31.92000
C  -7.58100 27.15600 31.84200
C  -7.88300 27.19700 33.38000
H  -7.27100 26.01500 34.31600
N  -7.55900 23.77700 26.59000
C  -8.17900 23.08800 27.59700
C  -9.00400 22.10200 26.92900
C  -8.70900 22.07200 25.51300
C  -7.76100 23.15200 25.36200
C  -9.88600 21.26500 27.67200
C  -9.27900 21.15300 24.44100
O  -8.92000 21.07400 23.25700
C  -10.48400 20.31500 24.79800
N  -5.82300 25.42000 24.72500
C  -6.33700 24.57300 23.75300
C  -5.73700 24.80700 22.38800
C  -5.15300 26.23300 22.57300
C  -5.07000 26.41700 24.12800
C  -4.66400 23.72700 21.86800
C  -5.98700 27.38500 21.87000
C  -5.28000 28.00600 20.64700
N  -5.09200 27.10100 26.99200
C  -4.36100 27.87600 26.06400
C  -3.69300 28.97800 26.87300
C  -3.99800 28.80000 28.14200
C  -4.87400 27.67000 28.22300
C  -2.78900 30.11500 26.28100
C  -3.85600 29.42400 29.45700
O  -3.27700 30.46300 29.77300
C  -4.65700 28.47200 30.41300
C  -3.77000 27.98700 31.49900
O  -3.00200 27.03600 31.50800
O  -4.00000 28.78500 32.57200
C  -3.11500 28.59400 33.69000
H  -8.42000 22.68000 29.60500
H  -7.58500 22.93000 23.34400
H  -3.82500 28.11900 23.97400
H  -5.81400 25.86100 31.98500
H  -8.33800 24.49900 31.53600
H  -5.89400 23.02600 31.14100
H  -7.23600 22.69400 32.19400
H  -5.96700 23.76900 32.81100
H  -8.47700 27.09200 31.22500
H  -7.18300 28.08800 31.44200
H  -8.96400 27.06700 33.40800
H  -7.78200 28.21300 33.76400
H  -9.83000 20.24300 27.29900
H  -10.94000 21.54400 27.64400
H  -9.58000 21.19800 28.71600
H  -11.11400 20.81700 25.53300
H  -10.34200 19.29300 25.15100
H  -11.11600 20.19800 23.91800
H  -6.51400 24.84600 21.62500
H  -4.14500 26.27000 22.16200
H  -3.81400 24.30400 21.50500
H  -5.20300 23.20600 21.07600
H  -4.35300 23.00700 22.62500
H  -6.30200 28.15300 22.57600
H  -6.84000 26.89100 21.40500
H  -5.89400 27.87900 19.75500
H  -4.27600 27.64000 20.43200
H  -5.24400 29.07500 20.85600
H  -1.82900 29.70200 25.97200
H  -2.59700 30.83300 27.07800
H  -3.38800 30.48700 25.45000
H  -5.51000 29.04700 30.77300
H  -3.23700 29.46900 34.32800
H  -2.06400 28.53600 33.40700
H  -3.45600 27.73600 34.26900

