158

Mg 2.03800 8.24500 27.06200
C  2.15000 10.45000 29.86500
C  2.07200 5.69700 29.32900
C  1.91600 6.15800 24.50300
C  2.46200 10.96900 24.87700
N  2.05300 8.12800 29.38100
C  2.00800 9.10100 30.25200
C  1.86400 8.57500 31.71800
C  2.20800 7.05900 31.59800
C  2.19000 6.93800 30.02700
C  3.62100 6.60300 32.22900
C  0.44300 8.85300 32.39800
C  0.54000 9.60400 33.70300
H  1.13100 8.83600 34.92300
N  1.87500 6.27200 26.90000
C  1.90500 5.35200 27.93400
C  1.78300 3.97800 27.44400
C  1.81600 4.09400 26.06200
C  1.88800 5.57400 25.80200
C  1.57600 2.75000 28.39800
C  1.74600 3.02900 24.94700
O  1.90300 3.25500 23.77100
C  1.64400 1.58600 25.33500
N  2.01200 8.51900 25.02300
C  1.98000 7.49000 24.11400
C  2.19400 8.08400 22.67500
C  1.86600 9.58800 22.88700
C  2.25000 9.69200 24.35600
C  3.58800 7.85400 21.98100
C  0.35500 9.98800 22.57600
C  -0.00900 11.35600 22.11400
N  2.42300 10.27200 27.27500
C  2.60100 11.24200 26.27700
C  2.73900 12.47100 26.93600
C  2.63000 12.21500 28.33000
C  2.49000 10.84300 28.52200
C  2.95800 13.83500 26.20800
C  2.55200 12.80200 29.66200
O  2.76000 13.93200 30.02700
C  2.25600 11.67300 30.63900
C  3.34000 11.61500 31.69300
O  4.44100 11.07900 31.62600
O  2.81800 12.18700 32.85700
C  3.71200 12.08700 34.00900
H  2.03400 4.90300 30.07900
H  1.74600 5.46200 23.67900
H  2.75000 11.74800 24.16800
H  2.68800 9.03200 32.26600
H  1.50300 6.39200 32.09400
H  3.37900 5.60800 32.60300
H  3.95100 7.34000 32.96100
H  4.43800 6.59600 31.50800
H  -0.11200 7.93700 32.60100
H  -0.14500 9.38100 31.64600
H  -0.44900 10.03100 33.86900
H  1.17600 10.45500 33.46000
H  2.47000 2.42600 28.93000
H  1.13800 1.91500 27.85000
H  0.93700 3.05800 29.22700
H  0.63200 1.28400 25.60300
H  2.31400 1.51200 26.19100
H  2.00200 0.85700 24.60700
H  1.50300 7.67800 21.93700
H  2.68700 10.01600 22.31200
H  4.00900 7.03200 22.56100
H  4.29800 8.68000 22.00500
H  3.47800 7.40200 20.99500
H  -0.21600 9.76700 23.47800
H  0.03800 9.24400 21.84500
H  0.87200 11.83100 21.68100
H  -0.56600 11.99500 22.79900
H  -0.74800 11.30700 21.31400
H  2.18000 13.83700 25.44500
H  3.92000 13.91700 25.70300
H  2.78800 14.69000 26.86300
H  1.33600 11.86700 31.19000
H  3.78300 11.05600 34.35600
H  3.40100 12.75700 34.81000
H  4.71300 12.43200 33.75100
Mg -5.07000 25.30700 25.93000
C  -3.94100 26.79500 28.91500
C  -7.09800 23.22900 27.83800
C  -5.71000 23.70800 23.16100
C  -2.66000 27.24600 24.24600
N  -5.44000 25.00000 28.18600
C  -4.97300 25.83100 29.21000
C  -5.66000 25.39500 30.51800
C  -6.32900 24.02700 30.15900
C  -6.28800 24.04900 28.67500
C  -5.66100 22.79600 30.70400
C  -6.73600 26.38600 31.14000
C  -6.83300 26.40900 32.67700
H  -6.18800 25.32800 33.52500
N  -6.23600 23.62800 25.60600
C  -7.07600 22.98900 26.47100
C  -7.76400 21.96900 25.77700
C  -7.34000 22.01900 24.39100
C  -6.36100 23.11500 24.35500
C  -8.76800 21.11500 26.46200
C  -7.78000 21.13900 23.18200
O  -7.31700 21.42800 22.08900
C  -8.82200 20.06900 23.34600
N  -4.54300 25.70300 23.98100
C  -4.85500 24.79400 23.06000
C  -4.12100 25.00600 21.67800
C  -3.40300 26.29500 21.95900
C  -3.47700 26.40900 23.45000
C  -3.27900 23.78700 21.25100
C  -3.86300 27.59500 21.18100
C  -2.80200 28.09500 20.15700
N  -3.65100 26.82500 26.42900
C  -2.74800 27.49300 25.61000
C  -1.97100 28.47500 26.45300
C  -2.45700 28.24000 27.73400
C  -3.42000 27.24700 27.68200
C  -1.04200 29.56900 26.04800
C  -2.43300 28.64500 29.05400
O  -1.79000 29.65800 29.52000
C  -3.40500 27.75700 29.90600
C  -2.48800 27.06400 30.84900
O  -1.64900 26.21100 30.63900
O  -2.83300 27.50400 32.08200
C  -2.25600 26.83600 33.26000
H  -7.79400 22.55100 28.33700
H  -5.81700 23.13700 22.23600
H  -1.96600 27.87100 23.68000
H  -4.96000 25.29300 31.34600
H  -7.35000 23.94700 30.53100
H  -5.04300 22.24500 29.99500
H  -6.44700 22.11400 31.02700
H  -5.07000 22.99300 31.59900
H  -7.72600 26.17700 30.73400
H  -6.54900 27.37200 30.71400
H  -7.89600 26.37800 32.91600
H  -6.52000 27.41200 32.96600
H  -9.01200 21.28000 27.51200
H  -8.58000 20.04200 26.41700
H  -9.62300 21.23300 25.79700
H  -8.87900 19.34500 22.53200
H  -9.82700 20.46100 23.50100
H  -8.47900 19.45900 24.18200
H  -5.02500 25.02600 21.06900
H  -2.34700 26.13000 21.74400
H  -2.25500 23.98800 20.93700
H  -3.87400 23.21200 20.54200
H  -3.09200 23.13700 22.10600
H  -3.91400 28.37400 21.94100
H  -4.89900 27.46900 20.86600
H  -3.28400 28.30000 19.20100
H  -2.04400 27.35600 19.89700
H  -2.35300 29.03800 20.46800
H  -0.81500 29.46200 24.98800
H  -0.19200 29.60700 26.73000
H  -1.49600 30.56000 26.06800
H  -4.26500 28.25600 30.35300
H  -1.43800 27.51700 33.49700
H  -1.78000 25.85800 33.18900
H  -2.98000 26.82700 34.07400

