158

Mg 16.82600 -2.62100 28.87900
C  15.60600 -0.24300 31.14300
C  18.58800 -4.09300 31.36700
C  17.99600 -4.60400 26.52100
C  15.04100 -0.91500 26.22400
N  17.27100 -1.98800 30.99000
C  16.54600 -1.08700 31.76500
C  16.93400 -1.25000 33.24000
C  18.04800 -2.39900 33.22600
C  17.94800 -2.86400 31.75500
C  19.54900 -1.87300 33.62900
C  15.73800 -1.48900 34.16600
C  15.55700 -0.73800 35.49000
H  16.83300 -0.07600 35.97500
N  18.07000 -4.22300 28.95400
C  18.69100 -4.70900 30.05000
C  19.45300 -5.81400 29.70200
C  19.43200 -5.99100 28.28400
C  18.40000 -4.99400 27.85100
C  20.27300 -6.54400 30.75000
C  20.21300 -6.83600 27.31800
O  19.96100 -6.69400 26.09800
C  21.20900 -7.85000 27.78900
N  16.56500 -2.65900 26.63700
C  17.21700 -3.60400 25.92500
C  17.12100 -3.24800 24.42800
C  15.95100 -2.24400 24.36200
C  15.84200 -1.90800 25.79900
C  18.38400 -2.68600 23.86300
C  14.65300 -2.84000 23.60600
C  14.45500 -2.32300 22.14800
N  15.49400 -1.01100 28.72400
C  14.85600 -0.42400 27.60000
C  14.12100 0.76600 28.02200
C  14.30400 0.82900 29.39700
C  15.10400 -0.24700 29.81100
C  13.26100 1.66500 27.19300
C  13.93200 1.50200 30.64800
O  13.17800 2.39700 30.86500
C  14.77000 0.85400 31.80300
C  15.63100 1.91800 32.34300
O  16.62400 2.48200 31.87100
O  15.13000 2.17300 33.57600
C  15.68000 3.28100 34.32500
H  18.98600 -4.72300 32.16500
H  18.46300 -5.18700 25.72400
H  14.57700 -0.29600 25.45300
H  17.33300 -0.27600 33.52200
H  17.81600 -3.18500 33.94500
H  19.74700 -2.36500 34.58100
H  19.53500 -0.81300 33.88200
H  20.18000 -1.95600 32.74400
H  15.58900 -2.55700 34.32300
H  14.83100 -1.37200 33.57300
H  15.11700 -1.31600 36.30300
H  14.89600 0.10300 35.28200
H  20.41600 -6.02700 31.69800
H  21.30400 -6.59900 30.40000
H  19.92400 -7.57000 30.86900
H  20.94500 -8.35200 28.71900
H  22.20000 -7.39600 27.82900
H  21.17100 -8.58400 26.98400
H  16.85200 -4.19000 23.94900
H  16.21900 -1.36300 23.77800
H  18.58400 -1.65300 24.14700
H  18.38800 -2.71000 22.77300
H  19.24700 -3.32200 24.06300
H  13.68400 -2.70200 24.08500
H  14.66500 -3.91300 23.41600
H  15.12800 -1.47900 21.99600
H  13.52200 -1.77500 22.01400
H  14.35700 -3.10600 21.39600
H  12.88000 1.33200 26.22700
H  13.87800 2.54900 27.03000
H  12.37900 1.89200 27.79100
H  14.08000 0.49200 32.56600
H  16.71700 3.49300 34.06600
H  15.70200 3.02600 35.38400
H  14.97900 4.09800 34.15400
Mg 9.89700 48.28400 26.01200
C  7.92100 48.33600 28.91700
C  12.51700 49.65400 27.94300
C  11.79700 48.25800 23.32600
C  6.94300 47.87200 24.03900
N  10.19200 48.93400 28.15900
C  9.21500 48.83500 29.13300
C  9.75300 49.21500 30.48500
C  11.05800 49.98800 30.01900
C  11.31700 49.48500 28.60100
C  11.21900 51.55800 30.06400
C  10.05300 48.04500 31.45300
C  10.19200 48.65500 32.95100
H  9.58700 47.75700 34.06000
N  11.97100 48.61700 25.67900
C  12.87200 49.14500 26.62300
C  14.21500 49.12200 26.09400
C  14.02400 48.77900 24.73100
C  12.52700 48.57600 24.48500
C  15.47500 49.43200 26.93400
C  15.09000 48.75600 23.57600
O  14.77500 48.57300 22.42100
C  16.59100 48.78500 23.85800
N  9.45100 48.08600 24.05200
C  10.44300 48.08000 23.09700
C  9.78200 47.93600 21.64400
C  8.32200 47.57800 21.92500
C  8.17900 47.84400 23.44300
C  9.82000 49.10200 20.71700
C  8.01500 46.06300 21.73700
C  8.67600 45.00500 22.68800
N  7.82900 48.13000 26.40100
C  6.79100 47.90400 25.51100
C  5.59700 47.74100 26.27000
C  5.97500 47.82400 27.59400
C  7.36900 48.04700 27.62500
C  4.27600 47.42700 25.64100
C  5.47900 47.69500 28.92800
O  4.34900 47.42100 29.31400
C  6.75100 47.90900 29.89500
C  7.02200 46.59400 30.56800
O  7.80300 45.75000 30.11400
O  6.35600 46.44800 31.68900
C  6.64900 45.24800 32.45300
H  13.33100 50.11100 28.50900
H  12.31000 48.39400 22.37200
H  6.02500 47.58800 23.52100
H  9.22800 50.02400 30.99400
H  11.93800 49.67500 30.58100
H  12.28900 51.76600 30.08700
H  10.73800 51.89300 30.98300
H  10.69100 52.04700 29.24500
H  11.05000 47.69500 31.18200
H  9.30700 47.25100 31.43500
H  9.77600 49.65100 33.10600
H  11.27500 48.64600 33.06900
H  15.60200 50.50700 27.06400
H  16.28400 48.82300 26.53100
H  15.39400 49.03200 27.94400
H  17.01300 47.80900 24.09700
H  16.76700 49.55800 24.60600
H  17.02200 49.05700 22.89500
H  10.23800 47.12800 21.07200
H  7.59500 48.22400 21.43300
H  9.47800 48.77800 19.73400
H  10.84400 49.46900 20.65400
H  9.24100 49.94800 21.08900
H  8.46700 45.66900 20.82700
H  6.95500 45.83700 21.62400
H  8.26900 45.20300 23.68000
H  9.75200 45.17900 22.69600
H  8.31000 44.01200 22.42700
H  4.17800 48.00400 24.72100
H  3.56000 47.50400 26.45900
H  4.18000 46.38000 25.35300
H  6.49000 48.63900 30.66100
H  7.72300 45.07700 32.37900
H  6.07800 44.38200 32.11800
H  6.44900 45.37700 33.51700

