158

Mg 2.03300 -1.73300 44.23400
C  5.32400 -1.11000 43.38900
C  1.20200 1.03800 42.30900
C  -1.08300 -2.87100 43.92000
C  3.08300 -4.56700 45.92600
N  3.20900 -0.28100 42.82300
C  4.54400 -0.14500 42.79000
C  5.01800 1.03000 41.92000
C  3.67900 1.84100 41.77400
C  2.59800 0.85000 42.30500
C  3.69600 3.11000 42.66700
C  5.71800 0.60900 40.60700
C  6.81800 1.57600 40.06600
H  6.28900 2.50800 38.92200
N  0.24700 -0.90600 43.37500
C  0.14200 0.25900 42.72600
C  -1.28000 0.57800 42.49900
C  -1.98500 -0.65300 42.87800
C  -0.93900 -1.57900 43.34600
C  -1.73600 1.89200 42.10800
C  -3.52100 -0.75100 42.94100
O  -4.19800 0.18000 42.58500
C  -4.27700 -1.90200 43.56200
N  1.07500 -3.36500 44.93400
C  -0.19600 -3.71500 44.58200
C  -0.50600 -5.16300 44.98700
C  0.88700 -5.75400 45.37600
C  1.73000 -4.43500 45.52400
C  -1.59600 -5.29400 46.02800
C  1.27200 -6.98400 44.54100
C  1.53100 -8.22800 45.42400
N  3.76700 -2.59600 44.69000
C  4.08300 -3.70700 45.42900
C  5.53100 -3.90300 45.53900
C  6.02600 -2.85600 44.81100
C  4.91900 -2.15500 44.20900
C  6.22100 -5.02700 46.34200
C  7.26200 -2.17900 44.40200
O  8.41400 -2.42600 44.69800
C  6.86200 -1.00000 43.51100
C  7.37700 0.22000 44.11900
O  6.97500 0.61700 45.23100
O  8.25400 0.90600 43.28300
C  8.37000 2.32600 43.46200
H  0.83700 1.94900 41.82900
H  -2.03400 -3.36200 43.70500
H  3.31400 -5.56500 46.30300
H  5.73200 1.66300 42.44600
H  3.34300 1.95900 40.74400
H  3.02900 3.05800 43.52700
H  3.28700 3.86500 41.99600
H  4.64200 3.39700 43.12700
H  4.98000 0.54400 39.80800
H  6.19500 -0.36600 40.71200
H  7.69100 1.05700 39.67100
H  7.25800 2.30600 40.74600
H  -1.12300 2.21600 41.26700
H  -1.55200 2.55300 42.95500
H  -2.79600 1.92700 41.85400
H  -5.25400 -1.64800 43.97200
H  -3.79200 -2.26400 44.46900
H  -4.36400 -2.69400 42.81800
H  -0.86300 -5.63000 44.06900
H  0.73900 -6.05400 46.41300
H  -2.15100 -4.35500 46.04000
H  -1.10400 -5.39000 46.99600
H  -2.31800 -6.11000 46.00900
H  2.15800 -6.64700 44.00400
H  0.52300 -7.36700 43.84800
H  2.55200 -8.57800 45.26900
H  0.83500 -9.01900 45.14200
H  1.50700 -8.09100 46.50500
H  5.56400 -5.68500 46.91000
H  6.88100 -4.43400 46.97500
H  6.74700 -5.65400 45.62100
H  7.33600 -1.12700 42.53800
H  7.71400 2.85200 42.76800
H  9.37800 2.68200 43.24700
H  8.12000 2.57900 44.49300
Mg -5.57500 25.17300 25.93200
C  -4.25500 26.52900 28.80200
C  -7.77200 23.32800 27.72400
C  -6.30600 23.47800 23.05200
C  -3.15700 27.14400 24.10600
N  -5.78000 24.83800 28.05700
C  -5.23300 25.56200 29.08300
C  -5.84400 25.12600 30.41800
C  -6.82500 24.04600 30.02200
C  -6.85400 24.08000 28.49200
C  -6.46100 22.63600 30.66000
C  -6.52900 26.40100 31.03100
C  -6.52900 26.64700 32.52800
H  -6.01700 25.47100 33.43100
N  -6.99000 23.71500 25.43600
C  -7.82400 23.08600 26.37500
C  -8.57400 22.08300 25.69300
C  -8.21700 22.17000 24.25100
C  -7.07700 23.12800 24.20800
C  -9.65700 21.31400 26.31200
C  -8.74600 21.46200 22.97400
O  -8.40600 21.78400 21.83400
C  -9.75400 20.46000 23.17000
N  -4.73200 25.22200 23.93200
C  -5.25300 24.41200 22.93400
C  -4.47300 24.74900 21.58500
C  -3.89200 26.12700 21.95100
C  -3.85800 26.16300 23.43500
C  -3.42600 23.72000 21.07100
C  -4.47300 27.43600 21.36300
C  -3.47300 28.11900 20.46500
N  -4.01300 26.57300 26.32800
C  -3.21800 27.31500 25.49600
C  -2.44200 28.27900 26.31600
C  -2.75500 27.97600 27.65000
C  -3.73100 26.90500 27.56800
C  -1.44900 29.37500 25.80800
C  -2.50500 28.38700 29.06300
O  -1.73900 29.18700 29.57400
C  -3.45600 27.41300 29.83500
C  -2.77500 26.53400 30.83200
O  -2.15800 25.53700 30.56400
O  -2.88800 27.07400 32.09500
C  -1.99500 26.35300 33.13000
H  -8.57500 22.84700 28.28700
H  -6.48300 22.90900 22.13700
H  -2.57200 27.81000 23.46900
H  -5.09000 24.79900 31.13300
H  -7.85100 24.28600 30.30000
H  -6.37500 21.87200 29.88700
H  -7.27300 22.23600 31.26700
H  -5.58300 22.63900 31.30500
H  -7.59300 26.37200 30.79700
H  -6.22400 27.31300 30.51800
H  -7.57500 26.74500 32.81600
H  -5.91800 27.53700 32.68000
H  -9.19300 20.50700 26.87900
H  -10.36900 20.91400 25.59100
H  -10.19700 21.97800 26.98700
H  -9.81000 19.78900 22.31200
H  -10.71600 20.85300 23.49700
H  -9.43400 19.78100 23.96000
H  -5.22200 24.74000 20.79300
H  -2.81700 26.03300 21.79300
H  -2.37600 23.91200 21.28800
H  -3.58100 23.53300 20.00900
H  -3.60500 22.86300 21.72000
H  -4.67400 28.11100 22.19500
H  -5.37700 27.09700 20.85800
H  -3.00400 28.97900 20.94300
H  -3.96000 28.38700 19.52700
H  -2.61500 27.52400 20.15000
H  -0.70300 29.54700 26.58400
H  -1.76500 30.34300 25.41900
H  -0.92200 28.84000 25.01800
H  -4.05800 28.12200 30.40300
H  -2.14300 25.27500 33.06300
H  -2.14300 26.73500 34.14000
H  -0.92900 26.55400 33.02200

