158

Mg 6.42200 53.97400 41.36100
C  5.70000 50.58600 41.22000
C  9.63400 53.18900 40.46700
C  6.71500 57.23300 40.48200
C  3.06500 54.56900 41.82900
N  7.51700 52.04900 40.72500
C  7.04300 50.76000 40.82200
C  8.14900 49.75500 40.65100
C  9.42400 50.66300 40.68500
C  8.81600 52.08500 40.58700
C  10.18500 50.55000 41.96600
C  8.01600 49.02800 39.28000
C  7.76200 49.89100 38.00100
H  6.72100 49.27100 37.01300
N  7.98700 55.06900 40.54800
C  9.28000 54.58800 40.32300
C  10.11600 55.67400 39.97100
C  9.27200 56.81000 39.89700
C  7.89700 56.40200 40.34600
C  11.63300 55.64200 39.82500
C  9.70200 58.14300 39.54300
O  10.81300 58.25100 38.99200
C  8.96900 59.44800 39.81400
N  5.03300 55.61400 40.94900
C  5.41500 56.91200 40.74700
C  4.30000 57.91600 40.97100
C  3.06800 57.06700 41.40700
C  3.69400 55.62000 41.31000
C  4.48900 59.14800 41.78700
C  1.78800 57.25900 40.55200
C  0.63800 58.10000 41.11900
N  4.78800 52.85800 41.54600
C  3.52600 53.22300 41.85800
C  2.71400 52.10200 42.23400
C  3.54000 51.03200 41.91600
C  4.75700 51.54600 41.54700
C  1.24400 51.99300 42.61800
C  3.56600 49.64600 41.92000
O  2.81200 48.74500 42.23400
C  4.97200 49.26400 41.35700
C  4.69300 48.65800 40.05100
O  4.25800 49.24300 39.01200
O  5.00100 47.33700 40.11200
C  4.54100 46.52600 38.93300
H  10.68400 52.97200 40.26000
H  6.70600 58.30600 40.28000
H  2.01500 54.61400 42.12700
H  8.25400 49.01900 41.44900
H  10.09500 50.56600 39.83200
H  10.22600 51.58100 42.31900
H  11.23500 50.29400 41.82700
H  9.67200 49.96100 42.72600
H  7.28400 48.22100 39.25000
H  9.00800 48.59900 39.13900
H  8.64500 49.76200 37.37500
H  7.74000 50.97100 38.14300
H  12.02700 56.52700 40.32500
H  12.01000 55.55900 38.80600
H  12.01700 54.78500 40.38000
H  8.22600 59.59300 39.03000
H  9.69500 60.24300 39.64100
H  8.67600 59.56900 40.85600
H  4.13800 58.28600 39.95900
H  2.74000 57.18600 42.44000
H  4.48300 60.06100 41.19100
H  5.42500 59.08200 42.34200
H  3.69300 59.19800 42.53100
H  1.44500 56.24700 40.33600
H  2.08500 57.68700 39.59500
H  0.61500 59.11800 40.73000
H  0.63400 58.18700 42.20500
H  -0.31800 57.61900 40.91000
H  0.60200 51.41600 41.95400
H  0.84500 53.00500 42.54400
H  1.18500 51.46600 43.57000
H  5.43000 48.51200 42.00000
H  4.47000 47.08100 37.99800
H  3.53300 46.16700 39.14200
H  5.24400 45.71900 38.73100
Mg -9.68500 40.38800 42.08800
C  -8.72300 37.00300 40.90900
C  -6.76100 41.51800 40.81100
C  -11.04300 43.38800 42.21300
C  -12.95900 38.80800 42.56600
N  -8.03900 39.36700 40.85500
C  -7.72900 38.00200 40.75900
C  -6.31600 37.83500 40.06200
C  -5.65700 39.20800 40.36400
C  -6.83300 40.11100 40.72700
C  -4.61200 39.30400 41.56100
C  -6.44000 37.43200 38.58900
C  -5.80900 36.12000 37.99300
H  -5.58000 36.21300 36.49500
N  -8.98900 42.26600 41.69000
C  -7.75600 42.53300 41.12900
C  -7.56800 43.94300 41.16100
C  -8.81900 44.50500 41.48700
C  -9.68000 43.41600 41.81100
C  -6.32000 44.62900 40.71000
C  -9.21100 46.06000 41.50700
O  -8.48100 46.98200 41.19700
C  -10.52000 46.51500 42.06100
N  -11.65700 40.97300 42.29100
C  -11.96100 42.33500 42.39700
C  -13.44600 42.64500 42.74600
C  -14.07100 41.18500 42.94900
C  -12.87300 40.25700 42.51200
C  -13.61400 43.58600 44.00800
C  -15.48300 40.91800 42.30000
C  -16.46000 40.04500 43.06700
N  -10.61400 38.33700 42.01700
C  -11.95500 37.89300 42.22700
C  -12.02200 36.39900 42.07800
C  -10.75300 36.01000 41.63900
C  -9.94900 37.20100 41.57100
C  -13.23500 35.54700 42.17500
C  -10.04800 34.87400 41.14400
O  -10.33600 33.70200 41.09400
C  -8.56600 35.51000 40.73200
C  -7.57900 34.79500 41.57400
O  -7.10600 35.21400 42.65200
O  -7.33100 33.64400 40.89300
C  -6.53700 32.62200 41.47900
H  -5.79300 41.92800 40.51800
H  -11.54300 44.31700 42.49300
H  -13.88600 38.26200 42.75400
H  -5.77100 37.02000 40.53800
H  -5.12000 39.60400 39.50200
H  -3.58700 39.27200 41.19200
H  -4.83100 38.44200 42.19100
H  -4.77400 40.18200 42.18700
H  -5.92200 38.24700 38.08500
H  -7.50800 37.45000 38.37000
H  -6.46400 35.26200 38.14500
H  -4.92600 35.82700 38.56100
H  -5.97600 44.23500 39.75300
H  -5.56500 44.39700 41.46100
H  -6.29700 45.71600 40.62700
H  -10.71700 46.05600 43.03000
H  -11.29500 46.09700 41.41800
H  -10.49500 47.60200 42.13400
H  -13.77600 43.22100 41.88100
H  -14.19500 41.15600 44.03200
H  -12.71700 43.62900 44.62600
H  -14.49000 43.22600 44.54800
H  -13.82700 44.63000 43.77800
H  -15.40900 40.51800 41.28900
H  -15.84800 41.92700 42.11300
H  -17.39900 40.58500 43.18400
H  -16.13300 40.04200 44.10700
H  -16.63400 38.99500 42.83200
H  -13.96000 35.59800 41.36300
H  -13.73400 35.84600 43.09700
H  -12.81500 34.57100 42.41700
H  -8.30100 35.21900 39.71600
H  -5.85800 33.01500 42.23700
H  -6.00900 32.05600 40.71200
H  -7.21700 31.94700 41.99900

