158

Mg 6.23000 53.71400 39.84000
C  5.66400 50.24800 39.62400
C  9.43600 53.35300 39.11700
C  6.38900 56.99700 39.51900
C  2.57900 53.99700 40.30100
N  7.34200 51.98300 39.35500
C  6.94100 50.63500 39.43800
C  8.18500 49.78200 39.22900
C  9.42900 50.76900 39.50300
C  8.69600 52.11700 39.33700
C  10.17000 50.62000 40.87200
C  8.28400 49.03800 37.84600
C  8.28400 49.97700 36.63600
H  7.43400 49.55600 35.40600
N  7.80600 55.05400 39.46300
C  8.99500 54.65200 39.05400
C  9.84900 55.82300 38.79900
C  8.98900 56.93100 39.04700
C  7.64400 56.39900 39.27000
C  11.31400 55.74500 38.55500
C  9.40600 58.35400 39.08600
O  10.58000 58.58700 38.80000
C  8.46900 59.45700 39.50600
N  4.64900 55.24100 39.81500
C  5.06500 56.53500 39.80300
C  3.96700 57.50700 40.09900
C  2.74300 56.62500 40.28100
C  3.34100 55.17900 40.13500
C  4.28900 58.34700 41.36400
C  1.61400 56.94100 39.20500
C  0.20800 57.28000 39.74800
N  4.43000 52.42200 40.00100
C  3.08400 52.69700 40.26400
C  2.40800 51.44100 40.44100
C  3.31400 50.44100 40.16700
C  4.57100 51.07800 39.89900
C  0.90800 51.28700 40.60700
C  3.53800 49.02500 40.01900
O  2.83200 48.04800 40.05900
C  5.03800 48.86000 39.63800
C  4.82800 48.23500 38.25000
O  4.15200 48.80600 37.38800
O  5.24200 47.00000 38.26800
C  4.74900 46.02300 37.29100
H  10.48700 53.06500 39.04400
H  6.25100 58.06900 39.36000
H  1.52100 54.13400 40.53800
H  8.17100 48.88600 39.84900
H  10.15500 50.66900 38.69600
H  10.01700 51.48100 41.52400
H  11.20800 50.64300 40.54200
H  10.01400 49.74700 41.50500
H  7.56700 48.21800 37.81800
H  9.27200 48.59400 37.96100
H  9.29000 50.09300 36.23400
H  8.03100 51.00000 36.91200
H  11.78700 54.78300 38.35500
H  11.85300 56.15200 39.41000
H  11.74900 56.39100 37.79300
H  8.98600 60.40900 39.38300
H  8.27200 59.37000 40.57400
H  7.54200 59.51700 38.93500
H  3.91400 58.15700 39.22600
H  2.35400 56.61100 41.30000
H  5.24100 58.02200 41.78500
H  3.53300 58.24100 42.14100
H  4.46600 59.38500 41.08000
H  1.50500 56.06300 38.56900
H  1.83300 57.74100 38.49800
H  -0.54300 56.72300 39.18800
H  0.02100 58.34500 39.87900
H  0.07600 56.92400 40.76900
H  0.53600 52.14500 40.04800
H  0.75500 51.24700 41.68500
H  0.49100 50.34400 40.25200
H  5.39500 48.06200 40.28800
H  4.92600 45.11700 37.87100
H  5.32100 46.06300 36.36400
H  3.69400 46.15900 37.05600
Mg 0.10000 42.71800 24.64700
C  1.47500 42.83600 27.98600
C  -2.68900 41.33700 25.98900
C  -0.79300 41.87400 21.69700
C  3.46400 43.38000 23.50400
N  -0.48600 42.27400 26.82600
C  0.09900 42.53800 28.03200
C  -0.83000 42.30600 29.18400
C  -2.17600 41.74000 28.47500
C  -1.76600 41.72600 26.99600
C  -2.67100 40.32400 28.93900
C  -0.99600 43.43800 30.21100
C  -0.53000 43.37400 31.70900
H  -1.71900 43.50200 32.75600
N  -1.64600 42.11700 23.95200
C  -2.71300 41.59300 24.65100
C  -3.82000 41.29200 23.73300
C  -3.27000 41.39200 22.38000
C  -1.86500 41.81700 22.57800
C  -5.24300 40.90200 24.10400
C  -3.82400 41.01800 21.01500
O  -3.22300 41.33200 19.96400
C  -5.17600 40.32600 21.01100
N  1.14400 42.72100 22.79600
C  0.53600 42.37500 21.65800
C  1.44800 42.37800 20.45400
C  2.75200 43.00100 21.06500
C  2.48500 43.01000 22.57400
C  1.67800 40.95400 19.79000
C  3.09200 44.41100 20.45900
C  2.50900 45.66000 21.07400
N  2.05800 43.09200 25.45400
C  3.33200 43.33900 24.91100
C  4.29700 43.50800 25.90900
C  3.56700 43.44700 27.10200
C  2.22500 43.11000 26.81900
C  5.72200 43.83700 25.76900
C  3.69200 43.69900 28.51600
O  4.60500 44.08500 29.19400
C  2.31400 43.18800 29.11400
C  2.68300 42.02400 29.95600
O  2.54600 40.81300 29.75900
O  3.04600 42.54600 31.16100
C  3.58900 41.60100 32.11000
H  -3.53300 40.78400 26.40400
H  -1.04600 41.72700 20.64500
H  4.39800 43.64900 23.00600
H  -0.45700 41.42600 29.70800
H  -2.95500 42.50200 28.48500
H  -2.06700 39.92700 29.75400
H  -2.60000 39.69800 28.04900
H  -3.74500 40.33800 29.12800
H  -2.04400 43.73000 30.14900
H  -0.50900 44.34700 29.85900
H  0.25400 44.12600 31.79200
H  -0.08000 42.38800 31.82900
H  -5.35800 39.83200 24.28100
H  -5.99100 41.24000 23.38800
H  -5.54400 41.32100 25.06400
H  -5.14700 39.66400 20.14500
H  -5.92900 41.09700 20.85100
H  -5.34500 39.70700 21.89200
H  1.18200 43.11000 19.69200
H  3.63500 42.41500 20.80900
H  2.72700 40.68400 19.90300
H  1.38600 40.96500 18.74000
H  1.02600 40.25100 20.30800
H  2.77300 44.42100 19.41700
H  4.18100 44.41700 20.50600
H  3.32500 46.20400 21.55000
H  1.87100 45.30100 21.88100
H  1.82200 46.15700 20.38900
H  5.99800 44.07000 24.74100
H  6.35300 43.08400 26.24200
H  5.93900 44.70600 26.38900
H  1.81000 43.90700 29.76100
H  3.40800 42.18200 33.01500
H  4.65800 41.45800 31.95300
H  3.10900 40.63000 32.23400

