158

Mg -2.34900 16.97600 27.25400
C  -2.91900 14.82200 29.86200
C  -3.28000 19.55600 29.19900
C  -2.11400 18.98900 24.52000
C  -2.10300 14.17500 25.11300
N  -3.00500 17.14300 29.20500
C  -2.98000 16.18100 30.17400
C  -3.33000 16.66500 31.61500
C  -3.47500 18.25900 31.28700
C  -3.35700 18.31400 29.80100
C  -4.71000 19.00400 31.96900
C  -2.30600 16.35100 32.76100
C  -2.20500 17.40300 33.89600
H  -1.70500 17.02900 35.31600
N  -2.54100 19.03100 26.90900
C  -2.90100 19.91400 27.87500
C  -2.69100 21.23200 27.38800
C  -2.12600 21.09600 26.03200
C  -2.24300 19.63900 25.72100
C  -3.06800 22.58000 28.09000
C  -1.63600 22.05400 25.03200
O  -1.16900 21.78600 23.91900
C  -1.61900 23.50700 25.26000
N  -2.38200 16.62500 25.16300
C  -2.17300 17.63200 24.23000
C  -2.28700 17.04200 22.78100
C  -2.13100 15.53200 23.00900
C  -2.16600 15.40200 24.55800
C  -3.58900 17.38900 21.95700
C  -0.87900 14.85000 22.32300
C  0.44200 15.14200 22.93300
N  -2.48500 14.88200 27.39200
C  -2.33800 13.88700 26.47200
C  -2.49600 12.65000 27.12800
C  -2.74700 12.94800 28.43600
C  -2.70700 14.33600 28.59100
C  -2.27600 11.28800 26.48000
C  -3.15900 12.41000 29.76900
O  -3.36600 11.28100 30.17200
C  -3.28500 13.58400 30.70200
C  -2.35500 13.37800 31.83200
O  -1.18300 13.43500 31.75800
O  -3.08500 13.06100 32.93800
C  -2.36100 12.76100 34.15800
H  -3.42100 20.38700 29.89400
H  -2.07200 19.62500 23.63300
H  -1.82700 13.28900 24.53700
H  -4.24800 16.13100 31.86100
H  -2.56100 18.73800 31.63900
H  -4.46200 19.92500 32.49700
H  -5.12300 18.37600 32.75800
H  -5.49300 19.28800 31.26600
H  -1.32200 16.09100 32.37000
H  -2.75300 15.48900 33.25500
H  -3.11800 17.99600 33.95700
H  -1.42900 17.99400 33.40900
H  -3.67000 23.11800 27.35800
H  -2.23100 23.17600 28.45400
H  -3.73800 22.31200 28.90700
H  -2.61900 23.92300 25.38300
H  -1.01300 24.00800 24.50500
H  -1.22700 23.72300 26.25300
H  -1.36500 17.41600 22.33600
H  -2.98000 14.96400 22.62700
H  -4.16600 18.11700 22.52700
H  -4.19200 16.54100 21.63100
H  -3.27200 17.86500 21.02900
H  -0.87500 15.06100 21.25300
H  -1.03000 13.78100 22.47600
H  0.22500 15.86700 23.71800
H  1.06700 15.70900 22.24300
H  1.01100 14.35000 23.41900
H  -3.18300 11.21300 25.88000
H  -2.17000 10.38300 27.07900
H  -1.44800 11.28800 25.77200
H  -4.31600 13.51800 31.05100
H  -2.93200 11.98200 34.66300
H  -2.25100 13.66200 34.76200
H  -1.38000 12.31900 33.98300
Mg 42.69400 42.02100 26.72200
C  41.59800 44.06600 29.36400
C  43.78200 39.75200 28.89500
C  43.73900 40.22600 24.02300
C  42.08900 44.69900 24.58000
N  42.56200 41.91400 28.84300
C  41.92400 42.76000 29.71100
C  41.92300 42.18500 31.17000
C  42.91100 40.99800 31.01300
C  43.07700 40.81100 29.46700
C  44.23900 41.11500 31.76800
C  40.48700 41.77700 31.67400
C  39.91400 42.65100 32.89500
H  39.49600 41.99900 34.24600
N  43.79000 40.24800 26.54300
C  44.05400 39.42900 27.56800
C  44.78700 38.35700 27.02500
C  44.71200 38.41600 25.64000
C  44.07600 39.72500 25.32200
C  45.55100 37.28900 27.86300
C  45.25200 37.47900 24.59700
O  44.98100 37.57500 23.40500
C  46.11000 36.32300 25.00800
N  42.78400 42.40900 24.48600
C  43.27500 41.49200 23.68200
C  43.28000 42.06700 22.22600
C  42.86400 43.53000 22.38100
C  42.48300 43.56700 23.87700
C  44.54500 41.97800 21.46800
C  41.74600 43.98900 21.39600
C  40.29000 44.03000 21.89600
N  41.89400 43.96800 26.86900
C  41.74000 44.90100 25.89600
C  41.21700 46.18000 26.49000
C  41.13100 45.81000 27.84900
C  41.66600 44.52900 28.02900
C  40.71600 47.46400 25.79600
C  40.79300 46.33700 29.21500
O  40.21400 47.35500 29.62500
C  41.01000 45.18500 30.19500
C  42.00600 45.67300 31.15100
O  43.22900 45.69900 30.87300
O  41.42500 46.12800 32.32800
C  42.23700 46.90600 33.26900
H  44.11700 39.04300 29.65400
H  44.06600 39.58800 23.19900
H  42.05100 45.63700 24.02200
H  42.27400 42.93800 31.87600
H  42.37600 40.14200 31.42300
H  44.50200 42.08200 32.19800
H  45.05600 40.82800 31.10600
H  44.20300 40.27200 32.45800
H  40.36800 40.71700 31.90000
H  39.82700 41.88800 30.81400
H  39.06000 43.20800 32.51100
H  40.66300 43.41700 33.09700
H  45.01600 36.34600 27.75400
H  45.37100 37.56400 28.90200
H  46.59600 37.28400 27.55400
H  46.17700 35.70000 24.11600
H  45.64100 35.72900 25.79300
H  47.09200 36.58500 25.40200
H  42.54500 41.55700 21.60300
H  43.67400 44.24700 22.25100
H  45.27900 42.58400 21.99800
H  44.50500 42.41600 20.47100
H  44.90400 40.95000 21.51000
H  41.86800 43.59200 20.38800
H  41.85200 45.05300 21.18500
H  40.17700 43.26400 22.66200
H  39.68400 43.66200 21.06800
H  40.04900 45.00500 22.32000
H  41.46700 47.37600 25.01100
H  40.91400 48.35800 26.38700
H  39.73500 47.33000 25.33900
H  40.04200 44.98800 30.65500
H  41.53800 47.54800 33.80500
H  42.94100 47.54700 32.73800
H  42.64700 46.15500 33.94400

