158

Mg 1.79200 -2.32100 44.50300
C  5.04400 -1.05200 44.27200
C  0.66400 0.22800 42.48200
C  -1.29400 -3.79500 44.71200
C  3.19100 -5.28900 45.85600
N  2.80800 -0.64500 43.44000
C  4.13400 -0.30300 43.50600
C  4.41600 0.83500 42.53500
C  3.00800 1.39200 42.12100
C  2.07500 0.24600 42.62500
C  2.60100 2.77100 42.65400
C  5.30200 0.49500 41.28000
C  6.45900 1.52500 40.99400
H  6.42900 2.08200 39.58200
N  -0.05500 -1.79200 43.83400
C  -0.31100 -0.65000 43.02500
C  -1.76300 -0.63500 42.76200
C  -2.36900 -1.78800 43.43400
C  -1.26600 -2.51400 44.04300
C  -2.40300 0.41000 41.92300
C  -3.79600 -2.06100 43.45700
O  -4.62400 -1.33600 42.95800
C  -4.39300 -3.26300 44.10200
N  1.17000 -4.27100 45.10000
C  -0.20700 -4.55400 45.17300
C  -0.49000 -5.87500 45.87700
C  0.88300 -6.48300 46.03500
C  1.82200 -5.31700 45.57200
C  -1.22300 -5.58700 47.20000
C  1.16700 -7.68800 45.12400
C  2.05900 -8.82200 45.59200
N  3.71200 -3.06500 45.10100
C  4.11700 -4.26600 45.62200
C  5.53100 -4.33300 45.90000
C  5.97900 -3.07100 45.39200
C  4.79500 -2.33400 44.92100
C  6.31000 -5.45500 46.49100
C  7.12300 -2.17800 45.17900
O  8.30400 -2.45600 45.29600
C  6.54200 -0.90600 44.38500
C  6.77300 0.35600 45.13700
O  6.28700 0.54500 46.26200
O  7.61500 1.22700 44.45900
C  8.09500 2.32900 45.30500
H  0.32200 1.08500 41.89700
H  -2.23400 -4.30200 44.94000
H  3.43900 -6.18700 46.42600
H  5.04400 1.47400 43.15400
H  2.91400 1.58100 41.05200
H  1.68200 2.68000 43.23200
H  2.22900 3.33800 41.80000
H  3.42100 3.31300 43.12700
H  4.64200 0.45600 40.41400
H  5.68300 -0.52300 41.35800
H  7.35300 0.91800 41.13500
H  6.41500 2.34400 41.71300
H  -3.22800 -0.13900 41.46900
H  -1.85700 0.50900 40.98500
H  -2.69900 1.35300 42.38300
H  -4.05800 -4.09600 43.48400
H  -5.45900 -3.26400 43.87400
H  -4.14100 -3.50400 45.13500
H  -1.20400 -6.43700 45.27300
H  1.11300 -6.59400 47.09500
H  -2.03200 -6.31700 47.22900
H  -1.70600 -4.61000 47.20600
H  -0.55200 -5.67400 48.05500
H  1.53900 -7.28200 44.18400
H  0.23500 -8.20000 44.88200
H  1.37400 -9.61600 45.89400
H  2.46200 -8.44900 46.53400
H  2.91000 -8.89800 44.91600
H  6.51200 -6.25000 45.77400
H  5.87100 -5.92400 47.37200
H  7.22500 -4.93700 46.77800
H  7.06400 -0.83200 43.43100
H  8.58700 2.93000 44.54000
H  8.81900 2.02000 46.05800
H  7.33800 3.02300 45.67100
Mg 49.22200 36.53000 27.34500
C  47.17900 34.79300 29.74800
C  48.99100 39.31400 29.29500
C  50.76900 38.12100 24.91600
C  48.61500 33.76500 25.26900
N  48.18100 36.97800 29.29500
C  47.55000 36.09700 30.11700
C  47.16500 36.81300 31.43200
C  47.60700 38.29100 31.18300
C  48.32200 38.19600 29.83500
C  46.57500 39.45500 31.30100
C  47.81500 36.23100 32.80400
C  46.73900 36.04000 33.99200
H  46.50200 37.18600 35.02600
N  49.86000 38.48700 27.15100
C  49.78100 39.46000 28.09900
C  50.53700 40.63600 27.62400
C  51.12500 40.29700 26.29000
C  50.62100 38.94500 26.06900
C  50.71100 41.84300 28.59500
C  51.97100 41.16300 25.41400
O  52.32600 40.76300 24.29700
C  52.35100 42.59800 25.82900
N  49.48300 36.09600 25.43200
C  50.24800 36.86900 24.68600
C  50.56100 36.22400 23.28500
C  50.19900 34.69800 23.59000
C  49.33300 34.82300 24.81600
C  49.60600 36.86800 22.27000
C  51.40600 33.66700 23.67000
C  51.23200 32.31300 22.94100
N  48.16800 34.59200 27.46200
C  47.93700 33.63900 26.48700
C  46.98800 32.59500 27.00800
C  46.80400 32.98000 28.34100
C  47.46800 34.17800 28.52800
C  46.51200 31.39800 26.27800
C  46.09700 32.59600 29.60500
O  45.39100 31.62200 29.93300
C  46.44600 33.70900 30.58400
C  47.03700 33.01200 31.82000
O  48.16300 32.85000 32.17300
O  45.95000 32.61100 32.59600
C  46.30100 31.80000 33.74200
H  48.92700 40.12800 30.02000
H  51.20200 38.67400 24.08000
H  48.42000 32.97800 24.53800
H  46.08200 36.73100 31.51900
H  48.35800 38.60100 31.90900
H  46.57200 40.01700 30.36700
H  46.76200 40.19000 32.08300
H  45.65400 38.93000 31.55700
H  48.53100 36.99200 33.11500
H  48.35700 35.28900 32.72400
H  46.93900 35.08000 34.46900
H  45.72800 35.95300 33.59300
H  50.75700 41.44600 29.61000
H  49.91900 42.57200 28.43000
H  51.61900 42.44600 28.58200
H  52.98000 42.46600 26.70900
H  51.52800 43.25900 26.10000
H  52.90700 43.16700 25.08500
H  51.56700 36.42600 22.91600
H  49.48100 34.38900 22.83000
H  49.23600 37.75000 22.79300
H  48.86100 36.18300 21.86500
H  50.17700 37.30200 21.44900
H  51.57600 33.50500 24.73400
H  52.26300 34.27600 23.37800
H  51.42000 31.49300 23.63300
H  51.95900 32.37400 22.13200
H  50.24100 32.26900 22.48900
H  45.48700 31.60600 25.97200
H  46.60700 30.52200 26.92000
H  47.10600 31.21800 25.38100
H  45.46700 34.17500 30.69900
H  46.50700 30.77500 33.43500
H  45.43500 31.78400 34.40300
H  47.21200 32.10600 34.25600

