158

Mg 47.39600 24.23900 28.21800
C  48.15200 26.48400 30.98500
C  46.65100 21.82700 30.41900
C  47.19600 22.22000 25.59200
C  48.39500 26.98300 26.05600
N  47.35700 24.22900 30.51600
C  47.69400 25.25900 31.41000
C  47.43500 24.74000 32.80200
C  47.00100 23.19500 32.59400
C  46.92800 23.06300 31.05900
C  47.86100 22.13800 33.31000
C  46.42400 25.62600 33.47500
C  46.69300 25.86200 34.99000
H  45.54700 25.85800 36.02500
N  46.88200 22.27200 28.05200
C  46.53500 21.44600 29.09700
C  46.22900 20.16600 28.53400
C  46.41500 20.23200 27.15800
C  46.89400 21.60200 26.85700
C  45.90900 18.94500 29.36500
C  46.20800 19.13300 26.14000
O  46.48300 19.33400 24.95200
C  45.52000 17.76200 26.53600
N  47.69300 24.59500 26.14800
C  47.61300 23.54000 25.28400
C  47.92200 24.03200 23.84700
C  47.91600 25.61500 23.94100
C  48.02200 25.78900 25.48600
C  49.35200 23.52900 23.36300
C  46.69800 26.38900 23.35200
C  45.29000 26.11300 23.94700
N  48.08700 26.31300 28.41200
C  48.48200 27.26600 27.43300
C  48.88700 28.47400 28.07900
C  48.79100 28.17500 29.42800
C  48.34500 26.84400 29.62400
C  49.29500 29.79900 27.52200
C  49.02900 28.77700 30.70900
O  49.36800 29.95100 30.90000
C  48.71400 27.63000 31.82200
C  50.01100 27.20400 32.45900
O  50.87500 26.52200 31.97600
O  50.07100 27.72700 33.69300
C  51.25900 27.29100 34.47100
H  46.31400 21.08800 31.14900
H  47.27600 21.63300 24.67500
H  48.56600 27.90200 25.49000
H  48.42900 24.93400 33.20600
H  45.98800 22.97700 32.93200
H  48.43300 22.68500 34.06000
H  48.60500 21.85500 32.56500
H  47.43400 21.29300 33.84800
H  45.43600 25.24300 33.22100
H  46.34100 26.60600 33.00500
H  47.21000 26.81900 35.05500
H  47.42200 25.15000 35.37600
H  44.87600 18.67600 29.14500
H  45.96300 19.16700 30.43100
H  46.59700 18.13100 29.13600
H  45.22200 17.18400 25.66200
H  44.57500 17.90600 27.05900
H  46.15500 17.17600 27.20100
H  47.20900 23.79100 23.05900
H  48.69300 25.93700 23.24700
H  49.30900 23.25000 22.31000
H  49.86200 22.76400 23.94800
H  50.12600 24.29500 23.40000
H  46.79300 26.20900 22.28200
H  46.86700 27.44400 23.56500
H  45.45000 25.34500 24.70400
H  44.64600 25.71800 23.16200
H  44.79500 26.96800 24.40800
H  48.76400 29.76700 26.57100
H  50.36800 29.89700 27.35800
H  48.85500 30.57100 28.15400
H  48.02300 27.95200 32.60100
H  52.08200 27.59800 33.82500
H  51.20700 26.24900 34.78400
H  51.26500 27.96100 35.33100
Mg -4.94000 25.57100 25.81300
C  -3.21900 27.11700 28.46100
C  -5.93000 23.10600 28.24900
C  -6.40800 23.90000 23.31800
C  -3.36300 27.58400 23.56400
N  -4.61600 25.22400 28.02300
C  -4.00600 26.07700 28.86400
C  -4.41900 25.68700 30.32700
C  -4.74100 24.15100 30.14900
C  -5.07500 24.15700 28.74300
C  -3.57100 23.15600 30.63200
C  -5.55500 26.66700 30.84000
C  -5.37600 26.97500 32.34200
H  -4.85200 25.88000 33.29300
N  -6.17600 23.92000 25.86100
C  -6.45500 23.03500 26.90700
C  -7.40900 22.06000 26.36900
C  -7.68900 22.38000 24.95400
C  -6.70800 23.41900 24.61400
C  -8.12400 21.07500 27.23100
C  -8.69700 21.63700 23.99000
O  -8.76500 21.89700 22.80000
C  -9.50600 20.49300 24.48900
N  -4.64700 25.54500 23.72400
C  -5.45400 24.82600 22.93800
C  -5.21400 25.09900 21.44700
C  -4.36300 26.38100 21.58700
C  -4.01800 26.47800 23.01600
C  -4.70000 23.88800 20.43900
C  -5.00700 27.64500 20.87400
C  -4.00900 28.44900 20.02500
N  -3.60500 27.07200 25.93500
C  -3.16500 27.87800 24.91000
C  -2.37400 28.98700 25.54500
C  -2.33400 28.72300 26.91700
C  -3.06500 27.50500 27.07600
C  -1.62900 30.01900 24.78500
C  -1.89700 29.14500 28.23600
O  -1.23800 30.07500 28.60100
C  -2.56600 28.15800 29.26400
C  -1.44500 27.76400 30.15300
O  -0.28200 27.62100 29.82000
O  -1.94700 27.82000 31.42200
C  -1.07000 27.68900 32.59000
H  -6.29000 22.37400 28.97400
H  -7.11400 23.39100 22.65900
H  -2.90700 28.10500 22.72000
H  -3.49400 25.80800 30.89200
H  -5.62900 23.97400 30.75600
H  -2.60300 23.65700 30.64800
H  -3.56900 22.36600 29.88100
H  -3.83100 22.74400 31.60700
H  -6.50600 26.15200 30.70400
H  -5.55200 27.62900 30.32700
H  -6.40300 27.19200 32.63700
H  -4.78500 27.88800 32.40500
H  -9.19800 21.11300 27.05100
H  -8.08200 21.37500 28.27800
H  -7.76100 20.06700 27.03100
H  -10.33000 20.62300 25.19100
H  -8.71500 19.83800 24.85500
H  -9.83900 19.86300 23.66400
H  -6.19700 25.38300 21.07200
H  -3.40300 26.27700 21.08000
H  -5.45400 23.68900 19.67700
H  -4.39400 23.04300 21.05600
H  -3.81300 24.21700 19.89700
H  -5.37700 28.30800 21.65600
H  -5.87800 27.38900 20.27000
H  -3.91000 29.43200 20.48300
H  -4.22600 28.55600 18.96200
H  -2.97700 28.09900 19.98000
H  -2.19800 30.28000 23.89200
H  -0.61800 29.65300 24.60600
H  -1.51000 30.92800 25.37400
H  -3.21400 28.81200 29.84800
H  0.01900 27.65700 32.57300
H  -1.38500 26.87700 33.24400
H  -1.21700 28.65700 33.06900

