158

Mg 1.19600 -0.62600 44.56200
C  4.67100 0.30200 43.75000
C  0.29200 2.35200 42.72100
C  -1.72600 -1.86600 44.08200
C  2.55200 -3.67900 45.49800
N  2.37400 1.07100 43.30500
C  3.74600 1.15100 43.15600
C  4.12500 2.36200 42.22300
C  2.81600 3.21200 42.24000
C  1.73300 2.13800 42.72400
C  2.74700 4.54800 43.02800
C  4.53200 1.85300 40.81600
C  5.98100 2.28400 40.30700
H  6.08800 2.79300 38.85800
N  -0.46700 0.20300 43.69100
C  -0.73200 1.38800 43.08000
C  -2.10300 1.56400 42.76100
C  -2.78400 0.38000 43.09300
C  -1.65000 -0.51800 43.67200
C  -2.64700 2.82700 42.08500
C  -4.29700 0.00100 42.88000
O  -5.06800 0.84900 42.42900
C  -4.89600 -1.21900 43.47300
N  0.58300 -2.44800 44.85600
C  -0.72100 -2.75100 44.59000
C  -1.05900 -4.15400 45.06200
C  0.21600 -4.66900 45.69100
C  1.19000 -3.61600 45.28500
C  -2.41300 -4.20700 45.90700
C  0.42200 -6.12600 45.32500
C  0.78700 -7.11400 46.45400
N  3.23000 -1.54300 44.80300
C  3.58400 -2.77800 45.19900
C  4.97500 -2.90300 45.35300
C  5.53000 -1.70400 44.81100
C  4.39900 -0.97000 44.41500
C  5.69300 -4.11600 45.84400
C  6.68400 -0.91900 44.44800
O  7.90800 -1.06000 44.50600
C  6.15600 0.34300 43.71300
C  6.70900 1.58200 44.34400
O  6.43700 2.05300 45.42500
O  7.52800 2.19700 43.39800
C  8.03000 3.53000 43.76800
H  -0.06700 3.25100 42.21600
H  -2.66800 -2.40200 43.94800
H  2.89700 -4.61700 45.93900
H  4.93000 2.90300 42.72200
H  2.47400 3.40600 41.22400
H  3.75000 4.89200 43.27900
H  2.36200 4.33300 44.02500
H  2.15700 5.24700 42.43500
H  3.86600 2.19200 40.02300
H  4.57700 0.76400 40.84000
H  6.66100 1.44000 40.42700
H  6.35400 2.96800 41.06900
H  -2.49700 2.70300 41.01300
H  -2.23400 3.73200 42.53000
H  -3.72400 2.86200 42.25100
H  -5.97200 -1.12500 43.62000
H  -4.43600 -1.42600 44.44000
H  -4.70100 -2.03400 42.77500
H  -1.24300 -4.72400 44.15200
H  0.27300 -4.62500 46.77900
H  -2.26400 -4.56500 46.92500
H  -3.13200 -4.86000 45.41200
H  -2.86600 -3.21500 45.93100
H  1.28400 -6.15600 44.65800
H  -0.33500 -6.58200 44.68600
H  1.56300 -7.82300 46.16500
H  -0.08000 -7.75800 46.60300
H  0.96900 -6.59300 47.39400
H  6.58700 -3.78900 46.37600
H  5.76700 -4.66200 44.90400
H  5.07900 -4.73000 46.50200
H  6.62200 0.41100 42.73000
H  8.91000 3.82500 43.19500
H  8.32200 3.45600 44.81500
H  7.33100 4.36600 43.77100
Mg 16.88900 52.22400 26.74400
C  18.63500 50.81200 29.45900
C  14.37800 53.06200 28.87300
C  15.22000 53.26200 24.11800
C  19.27900 50.73800 24.55100
N  16.43700 51.66800 28.95300
C  17.41600 51.37500 29.92600
C  16.91600 51.60500 31.34800
C  15.41400 52.07600 31.09500
C  15.43600 52.40300 29.58400
C  14.35800 51.01700 31.49600
C  17.99500 52.58100 32.12600
C  18.31000 52.30500 33.59300
H  17.32300 51.61900 34.59800
N  15.00400 53.06300 26.53300
C  14.11300 53.30600 27.54700
C  12.92600 53.84400 27.02600
C  13.14100 53.89300 25.59300
C  14.49500 53.48000 25.37100
C  11.70000 54.25100 27.76700
C  12.32400 54.52600 24.44400
O  12.75500 54.82900 23.32200
C  10.99100 54.97900 24.71100
N  17.02200 51.76200 24.62100
C  16.28400 52.52200 23.74900
C  16.77800 52.40000 22.29800
C  18.25500 51.97700 22.53900
C  18.24800 51.43200 23.96400
C  15.89800 51.33200 21.48400
C  19.19600 53.23700 22.33800
C  20.68000 52.93100 22.16000
N  18.55700 50.93400 26.91200
C  19.45200 50.41800 25.95300
C  20.44600 49.66700 26.61900
C  20.14800 49.88700 27.96500
C  19.02500 50.62800 28.09600
C  21.54300 48.87700 26.03500
C  20.55100 49.50700 29.29800
O  21.44900 48.79800 29.69800
C  19.59800 50.13200 30.30000
C  19.05800 49.03200 31.22500
O  18.18900 48.24800 30.89500
O  19.74800 48.96700 32.38700
C  19.43900 47.90500 33.36400
H  13.59700 53.36800 29.57300
H  14.81300 53.73300 23.22100
H  20.11700 50.45700 23.91000
H  16.98900 50.64100 31.85100
H  15.29600 52.99700 31.66500
H  13.56400 50.85000 30.76700
H  13.79900 51.41800 32.34200
H  14.84400 50.07600 31.75300
H  17.49100 53.54200 32.01700
H  18.97300 52.63900 31.64900
H  18.51500 53.30600 33.97300
H  19.27100 51.81900 33.75600
H  11.69100 54.14500 28.85200
H  10.98400 53.63700 27.22000
H  11.46100 55.29400 27.55700
H  11.06600 55.70600 25.52000
H  10.51000 54.03800 24.97900
H  10.39100 55.32300 23.86800
H  16.64600 53.36000 21.79800
H  18.63800 51.25800 21.81500
H  16.48200 50.41500 21.40300
H  15.70200 51.62200 20.45200
H  14.90200 51.11000 21.86900
H  19.08700 53.84300 23.23800
H  18.83300 53.86000 21.52100
H  20.66700 51.84500 22.24800
H  21.40300 53.30700 22.88400
H  20.94800 53.20700 21.14000
H  22.33600 49.56900 25.75000
H  21.14900 48.43000 25.12200
H  21.87300 48.09200 26.71500
H  20.18900 50.86200 30.85400
H  20.30600 47.59600 33.94800
H  18.97400 47.05000 32.87400
H  18.70100 48.39100 34.00300

