158

Mg 49.50800 44.67900 42.83600
C  46.21400 45.24200 41.79800
C  49.22200 41.48100 41.65500
C  52.87900 44.48000 42.84000
C  49.88000 48.27100 43.03100
N  47.93100 43.51500 41.89200
C  46.65400 43.89900 41.64000
C  45.75700 42.74700 40.96700
C  46.63700 41.53600 41.29500
C  48.01800 42.15900 41.66200
C  46.08500 40.44500 42.25000
C  45.30800 42.98900 39.47900
C  43.84000 43.18000 39.11700
H  43.48800 42.97100 37.64200
N  50.85400 43.16000 42.49500
C  50.55200 41.92500 41.99700
C  51.78200 41.16700 41.81700
C  52.80600 41.97200 42.32400
C  52.21200 43.24900 42.63700
C  51.87200 39.90700 41.01000
C  54.26300 41.54200 42.57100
O  54.56700 40.40100 42.24700
C  55.33100 42.36900 43.21600
N  51.13300 46.19200 43.02000
C  52.40200 45.81300 43.15200
C  53.35800 46.98700 43.35700
C  52.37900 48.24100 43.56700
C  51.04500 47.56100 43.19700
C  54.35400 46.79200 44.55800
C  52.68800 49.38300 42.59100
C  53.09900 50.66700 43.29800
N  48.25700 46.46400 42.65600
C  48.61300 47.82600 42.70900
C  47.34400 48.62400 42.47000
C  46.37100 47.61800 42.13100
C  47.01200 46.35000 42.16800
C  47.35900 50.19500 42.42300
C  45.03500 47.37400 41.68800
O  44.09500 48.13500 41.40500
C  44.85800 45.85700 41.47500
C  43.84200 45.50300 42.37300
O  43.91600 45.72200 43.55700
O  42.75800 44.90300 41.68400
C  41.58700 44.55200 42.48600
H  49.14200 40.44400 41.32200
H  53.96500 44.38900 42.77800
H  49.88300 49.35600 43.15300
H  44.83400 42.86200 41.53700
H  46.95100 41.06000 40.36600
H  46.03900 39.52600 41.66600
H  45.14100 40.79600 42.66700
H  46.76700 40.35400 43.09600
H  45.69600 42.26800 38.75900
H  45.74600 43.91500 39.10700
H  43.49700 44.14300 39.49500
H  43.34900 42.34400 39.61600
H  52.40700 39.12000 41.54100
H  52.60200 40.08500 40.22000
H  50.84300 39.67300 40.73800
H  55.71900 43.16400 42.57900
H  56.14600 41.79600 43.65800
H  54.84200 42.88400 44.04200
H  53.99900 47.25000 42.51500
H  52.37900 48.56800 44.60700
H  55.38100 46.84000 44.19800
H  54.07900 45.80500 44.93200
H  54.25800 47.53500 45.35000
H  51.90600 49.57500 41.85600
H  53.57300 49.12300 42.01000
H  52.88800 50.68800 44.36700
H  52.54100 51.49100 42.85200
H  54.16400 50.88200 43.20900
H  46.33300 50.56200 42.40700
H  47.82500 50.38700 41.45600
H  47.86900 50.79000 43.18000
H  44.51800 45.70000 40.45200
H  41.66800 43.56600 42.94300
H  40.64700 44.39000 41.95800
H  41.36600 45.35300 43.19000
Mg 16.47900 52.63100 26.76000
C  18.05400 50.73000 29.35000
C  14.08000 53.60100 29.10800
C  14.82100 54.08200 24.27500
C  18.84800 51.28100 24.52000
N  16.12100 52.16300 29.01300
C  16.94500 51.48500 29.83500
C  16.57300 51.67700 31.33200
C  15.18700 52.36400 31.17300
C  15.11800 52.77300 29.62500
C  13.88700 51.49300 31.51700
C  17.68000 52.62600 32.03700
C  18.08500 52.12300 33.50700
H  17.21600 52.57600 34.73500
N  14.64900 53.69000 26.75000
C  13.82700 53.97500 27.74900
C  12.84100 55.02000 27.23800
C  13.06200 55.13700 25.81800
C  14.24000 54.28500 25.51600
C  11.81600 55.63300 28.21000
C  12.27700 56.01600 24.85300
O  12.53900 56.00000 23.65100
C  11.09800 56.84600 25.36500
N  16.81100 52.80800 24.66900
C  15.96400 53.37500 23.84400
C  16.47200 53.31900 22.37400
C  17.87500 52.64000 22.55400
C  17.83300 52.09500 24.01200
C  15.47600 52.57800 21.36500
C  19.13700 53.56900 22.33900
C  20.01300 53.37300 21.06400
N  18.13600 51.26100 26.82000
C  18.94900 50.81600 25.84700
C  19.88700 49.86700 26.38800
C  19.60900 49.84600 27.77800
C  18.50000 50.68500 27.96200
C  21.01100 49.11900 25.66000
C  20.01000 49.38400 29.10700
O  20.91200 48.61300 29.36300
C  19.07700 49.86900 30.17400
C  18.43100 48.82400 30.98600
O  17.50400 48.14900 30.57300
O  19.14700 48.54400 32.13500
C  18.64000 47.60400 33.05200
H  13.33900 53.82500 29.87900
H  14.20800 54.49600 23.47200
H  19.62700 50.94000 23.83400
H  16.35800 50.70800 31.78200
H  15.22500 53.30400 31.72400
H  13.14400 52.07900 32.05800
H  14.24400 50.66600 32.13100
H  13.55300 51.11600 30.55100
H  17.34600 53.66100 32.11000
H  18.64900 52.71000 31.54500
H  19.00900 52.63100 33.78300
H  18.10200 51.03500 33.43900
H  10.82300 55.20200 28.07900
H  11.71600 56.70500 28.03900
H  12.10300 55.43900 29.24400
H  10.46700 56.15800 25.92800
H  10.53300 57.22300 24.51300
H  11.55300 57.51800 26.09300
H  16.53100 54.36400 22.07000
H  17.80800 51.74600 21.93300
H  14.45800 52.50800 21.75000
H  15.96700 51.64000 21.11000
H  15.26800 53.13800 20.45300
H  19.66700 53.50200 23.28900
H  18.70200 54.56300 22.23600
H  19.61900 52.48800 20.56400
H  20.96100 53.05000 21.49600
H  19.92800 54.25300 20.42600
H  21.29500 48.21900 26.20500
H  21.81600 49.82200 25.44600
H  20.74000 48.78300 24.65900
H  19.45000 50.56100 30.93000
H  19.26200 46.70900 33.03600
H  17.65600 47.20600 32.80500
H  18.48800 48.15900 33.97800

