158

Mg 24.25700 -4.83000 44.96300
C  26.44500 -2.49100 43.55400
C  21.75600 -3.63900 43.05400
C  22.50000 -7.79700 45.59100
C  26.86700 -6.04000 46.79700
N  24.16200 -3.33100 43.36700
C  25.09000 -2.35400 43.06400
C  24.55400 -1.40800 42.00800
C  22.99900 -1.53800 42.37300
C  22.95000 -2.89200 43.05300
C  22.35700 -0.45300 43.21400
C  24.81600 -1.81100 40.55700
C  25.16700 -0.60000 39.59800
H  24.85600 -0.78500 38.11700
N  22.30900 -5.64700 44.36700
C  21.40800 -4.93800 43.63900
C  20.12100 -5.66000 43.68000
C  20.29500 -6.74800 44.51100
C  21.77600 -6.80800 44.79400
C  18.94500 -5.08000 42.84800
C  19.20600 -7.78000 44.86000
O  18.05900 -7.66000 44.41400
C  19.43500 -9.04200 45.65200
N  24.66500 -6.72200 45.95200
C  23.78600 -7.68700 46.16400
C  24.43800 -8.83400 47.02700
C  25.67900 -8.12700 47.57900
C  25.72200 -6.84900 46.79100
C  23.46800 -9.37600 48.15500
C  26.92000 -9.08600 47.62700
C  27.82600 -9.05700 48.93800
N  26.30600 -4.46300 45.17900
C  27.23800 -5.03800 45.93100
C  28.48800 -4.34000 45.78400
C  28.24700 -3.35900 44.86300
C  26.87100 -3.45400 44.53000
C  29.77300 -4.59000 46.55700
C  28.88100 -2.22200 44.16600
O  30.01700 -1.77300 44.17700
C  27.69800 -1.67500 43.30000
C  27.52200 -0.24100 43.68900
O  27.59300 0.22700 44.76700
O  27.28700 0.51400 42.56900
C  27.42100 1.96900 42.91600
H  21.01800 -3.16700 42.40100
H  21.95000 -8.71400 45.81400
H  27.64600 -6.29900 47.51800
H  24.74500 -0.34500 42.15400
H  22.47200 -1.46400 41.42100
H  21.78700 0.22700 42.58000
H  23.18400 0.06200 43.70500
H  21.74300 -0.91100 43.98900
H  24.01000 -2.37900 40.09300
H  25.69900 -2.45000 40.53000
H  26.24800 -0.48100 39.66600
H  24.67700 0.28500 40.00400
H  17.96200 -5.17700 43.30900
H  18.71300 -5.65600 41.95300
H  19.01700 -3.99900 42.72300
H  18.61000 -9.75200 45.60500
H  19.59900 -8.63400 46.64900
H  20.21700 -9.67300 45.23000
H  24.73500 -9.64100 46.35600
H  25.52700 -7.72800 48.58200
H  23.16500 -10.42300 48.13800
H  22.60000 -8.75500 48.37600
H  24.09100 -9.47000 49.04500
H  27.59400 -8.79500 46.82200
H  26.61200 -10.12600 47.51300
H  28.80700 -8.63000 48.73000
H  28.08600 -10.05900 49.28200
H  27.18700 -8.56600 49.67200
H  30.57200 -3.94600 46.19000
H  30.04300 -5.64000 46.43800
H  29.46100 -4.41600 47.58700
H  27.97900 -1.73000 42.24800
H  28.18100 2.20600 43.66100
H  26.50300 2.45900 43.24000
H  27.79000 2.43700 42.00300
Mg 34.98100 3.33800 29.48900
C  32.82200 4.22600 32.17200
C  37.59400 3.51000 31.67400
C  37.02700 2.68400 26.87400
C  32.35300 3.46500 27.35000
N  35.17400 3.73700 31.74400
C  34.16600 4.03500 32.60900
C  34.75100 4.12000 34.01400
C  36.26800 4.18900 33.75800
C  36.39800 3.69600 32.35800
C  36.93300 5.53700 34.00100
C  34.25500 2.86600 34.82200
C  33.94400 3.23100 36.29600
H  34.66400 4.33100 36.89000
N  37.02000 3.09700 29.29800
C  37.97500 3.29500 30.26400
C  39.27800 2.95500 29.85400
C  39.13800 2.66100 28.49200
C  37.68700 2.81700 28.11500
C  40.45600 2.95600 30.79800
C  40.16800 2.22300 27.42700
O  39.94100 2.18000 26.23100
C  41.48700 1.75700 27.94600
N  34.75900 3.13400 27.35700
C  35.71500 2.82100 26.51500
C  35.16200 2.62900 25.10000
C  33.62200 2.92600 25.20400
C  33.55800 3.22100 26.76700
C  36.02600 3.44400 24.09100
C  32.63200 1.79100 24.85900
C  31.51200 2.18300 23.87100
N  33.05800 3.70800 29.67500
C  32.04900 3.82800 28.68000
C  30.76300 4.10500 29.25700
C  31.11100 4.25800 30.61600
C  32.48900 4.01100 30.84600
C  29.51900 4.23700 28.53300
C  30.46600 4.53400 31.90200
O  29.28900 4.69400 32.12800
C  31.58600 4.50600 32.98800
C  31.69000 5.84900 33.62000
O  32.43500 6.72700 33.21700
O  30.88900 5.88800 34.75000
C  31.33800 6.87500 35.75800
H  38.42100 3.54600 32.38700
H  37.77600 2.48200 26.10500
H  31.48100 3.51000 26.69500
H  34.50800 5.08000 34.47000
H  36.82000 3.49400 34.39000
H  37.16300 6.10400 33.09900
H  37.88200 5.36000 34.50600
H  36.40900 6.15200 34.73300
H  34.98900 2.06600 34.91300
H  33.35400 2.52400 34.31200
H  33.97100 2.35600 36.94600
H  32.91200 3.56900 36.20000
H  40.35600 3.90000 31.33400
H  41.40100 2.89500 30.25800
H  40.32000 2.16800 31.53800
H  41.90200 1.11300 27.17100
H  41.35000 1.26800 28.91100
H  42.17300 2.60000 28.03200
H  35.21600 1.57100 24.84200
H  33.37600 3.77100 24.56100
H  36.46800 4.30300 24.59500
H  35.42100 3.76200 23.24200
H  36.83700 2.78700 23.77600
H  32.08000 1.38100 25.70500
H  33.19500 1.03800 24.30700
H  31.42700 3.26900 23.82700
H  30.53400 1.74800 24.07800
H  31.77900 1.78000 22.89400
H  28.77900 4.72000 29.17100
H  29.13500 3.26300 28.22800
H  29.67000 4.81000 27.61800
H  31.51000 3.71000 33.73000
H  30.57700 7.64600 35.87500
H  32.22200 7.44900 35.47900
H  31.56600 6.27900 36.64200

