158

Mg 10.03900 49.16500 26.11800
C  8.03400 49.04600 28.91100
C  12.52600 50.74400 27.93000
C  11.92500 49.36800 23.24000
C  7.46000 47.86800 24.23900
N  10.18400 49.85500 28.22500
C  9.28300 49.61500 29.16800
C  9.93800 50.10300 30.56100
C  11.32200 50.77700 30.21900
C  11.40800 50.42300 28.71400
C  11.13400 52.38900 30.59600
C  10.13400 48.85000 31.53300
C  9.21800 48.89900 32.83200
H  9.89000 49.72200 34.01900
N  11.93900 49.76600 25.73600
C  12.86000 50.25600 26.62900
C  14.14500 50.32100 25.98700
C  13.97100 50.00200 24.56000
C  12.53300 49.63300 24.43700
C  15.41700 50.68400 26.75900
C  15.01300 49.89400 23.49000
O  14.72600 49.63800 22.31800
C  16.46100 50.28800 23.73200
N  9.70000 48.64500 24.00900
C  10.59900 48.91000 23.03000
C  10.12300 48.35100 21.71300
C  8.70700 47.71500 22.08800
C  8.64600 48.01100 23.56700
C  10.12800 49.46600 20.70800
C  8.61900 46.14200 21.80800
C  9.46400 45.15900 22.64300
N  8.06800 48.81400 26.46000
C  7.15600 48.22500 25.59300
C  5.89000 48.21300 26.28600
C  6.17100 48.37000 27.61500
C  7.57100 48.71900 27.62800
C  4.56700 47.87100 25.63200
C  5.68000 48.44400 29.00400
O  4.57100 48.24600 29.50900
C  6.91800 48.61400 29.87800
C  7.04700 47.36300 30.56900
O  7.79500 46.50600 30.17500
O  6.31800 47.30000 31.78600
C  6.50700 46.22900 32.78600
H  13.27900 51.21400 28.56600
H  12.53500 49.37900 22.33400
H  6.65000 47.45000 23.63800
H  9.18300 50.74400 31.01600
H  12.23600 50.40000 30.67700
H  12.01600 52.76900 31.11200
H  10.19400 52.56300 31.11900
H  11.14300 52.90700 29.63700
H  11.11200 48.67800 31.98300
H  10.10600 47.84800 31.10600
H  9.01000 47.85000 33.04300
H  8.28600 49.45100 32.71500
H  15.37300 50.52800 27.83700
H  15.66200 51.72400 26.54400
H  16.15300 50.00400 26.33100
H  16.82400 49.58300 24.48000
H  16.48100 51.16500 24.37900
H  17.11600 50.29400 22.86100
H  10.73400 47.48000 21.47200
H  7.90300 48.25900 21.59100
H  10.19200 50.48200 21.09800
H  9.17700 49.38500 20.18100
H  10.97700 49.34100 20.03500
H  8.78100 45.97200 20.74400
H  7.56500 45.86800 21.86700
H  10.15600 45.56500 23.38200
H  9.98000 44.56900 21.88600
H  8.76100 44.59000 23.25100
H  3.81400 47.92100 26.41900
H  4.59000 46.89500 25.14800
H  4.35800 48.63200 24.88000
H  6.74200 49.36000 30.65300
H  6.77600 46.57200 33.78500
H  7.37000 45.62200 32.51300
H  5.62600 45.59200 32.85800
Mg -0.88700 34.95100 27.14800
C  -2.70800 33.16600 29.50400
C  0.48500 36.78500 29.78300
C  0.84800 36.65600 24.92900
C  -2.13100 32.86600 24.71600
N  -1.16100 35.00500 29.35200
C  -1.90200 34.12400 30.09000
C  -1.64100 34.38500 31.57600
C  -0.71300 35.62500 31.58500
C  -0.45500 35.78000 30.14800
C  -1.41800 36.91900 32.11200
C  -1.21800 33.14900 32.42700
C  -1.96600 32.85600 33.78000
H  -1.17600 32.78900 35.03400
N  0.47100 36.57600 27.31700
C  0.93500 37.13500 28.45000
C  1.92200 38.11700 28.08700
C  2.04100 38.09200 26.67100
C  1.06800 37.09900 26.22500
C  2.69400 38.97700 29.06100
C  2.98300 38.97600 25.81300
O  3.13200 38.77200 24.60900
C  3.94400 40.06600 26.28100
N  -0.67200 34.79700 25.05000
C  -0.02300 35.73600 24.32700
C  -0.01500 35.44000 22.84500
C  -0.87000 34.10300 22.82400
C  -1.30100 33.92100 24.27700
C  -0.68200 36.58000 21.98700
C  -0.07400 32.86000 22.33000
C  -0.82400 31.73200 21.59700
N  -2.27800 33.41300 27.04500
C  -2.69600 32.65200 25.98400
C  -3.70500 31.59700 26.48600
C  -3.74400 31.77600 27.81200
C  -2.84200 32.92000 28.13700
C  -4.35500 30.43400 25.68600
C  -4.31100 31.30800 29.06100
O  -5.18200 30.45000 29.28700
C  -3.58500 32.16600 30.16800
C  -4.74800 32.84900 30.86500
O  -5.28300 33.85300 30.49000
O  -4.96800 32.23800 32.12100
C  -5.90200 32.94000 33.04900
H  1.03400 37.26200 30.59800
H  1.38000 37.21100 24.15300
H  -2.54800 32.30000 23.88000
H  -2.58200 34.77400 31.96300
H  0.27800 35.62500 32.04000
H  -2.23400 36.71700 32.80700
H  -1.79700 37.42100 31.22200
H  -0.73800 37.61700 32.60100
H  -0.16400 33.18800 32.70100
H  -1.17400 32.25500 31.80500
H  -2.49900 31.91300 33.65600
H  -2.74300 33.61600 33.86100
H  2.40700 40.00100 28.82100
H  3.75600 38.76300 28.93500
H  2.38600 38.67600 30.06200
H  4.87200 39.55300 26.53300
H  3.45900 40.55800 27.12500
H  4.05700 40.80100 25.48400
H  1.01800 35.23300 22.56800
H  -1.73700 34.17900 22.16800
H  -0.81600 36.27800 20.94900
H  0.02500 37.40900 22.02800
H  -1.65400 36.85100 22.39900
H  0.49600 32.42600 23.15100
H  0.59100 33.28700 21.57800
H  -0.59000 30.78000 22.07200
H  -0.40400 31.76700 20.59100
H  -1.89300 31.89400 21.73500
H  -5.39000 30.74500 25.54800
H  -4.30900 29.51000 26.26300
H  -3.73700 30.32300 24.79500
H  -3.05400 31.56100 30.90300
H  -6.27500 32.08000 33.60500
H  -6.72200 33.51300 32.61500
H  -5.38200 33.53800 33.79700

