158

Mg 24.46000 -7.51100 46.11400
C  26.90200 -5.12700 45.05900
C  22.11400 -5.99100 44.13600
C  22.41400 -10.02300 46.78000
C  27.13300 -9.26100 47.63100
N  24.54200 -5.79400 44.81600
C  25.61100 -4.91800 44.60100
C  25.22900 -3.79000 43.59100
C  23.62900 -3.99600 43.41200
C  23.42800 -5.35500 44.27200
C  22.76100 -2.82600 43.91400
C  25.92800 -3.86300 42.30900
C  26.48100 -2.53000 41.76500
H  25.52000 -1.89500 40.73900
N  22.38000 -7.86300 45.68600
C  21.63500 -7.17000 44.82000
C  20.33900 -7.77500 44.78700
C  20.34200 -8.95300 45.59200
C  21.72600 -8.98700 46.11100
C  19.14800 -7.06300 44.16300
C  19.16600 -9.87900 45.83500
O  18.20000 -9.71200 45.07400
C  19.22300 -10.98900 46.77800
N  24.81100 -9.31600 46.97800
C  23.75400 -10.15700 47.12700
C  24.14100 -11.47100 47.89200
C  25.64200 -11.24700 48.23900
C  25.87700 -9.90000 47.52600
C  23.26000 -11.94000 49.13700
C  26.74000 -12.31000 48.08600
C  27.49300 -12.85700 49.31600
N  26.56500 -7.34000 46.28100
C  27.53700 -8.10900 46.97100
C  28.85400 -7.48900 46.88000
C  28.67600 -6.32800 46.11400
C  27.26900 -6.28900 45.77300
C  30.01500 -7.93000 47.67700
C  29.32000 -5.04900 45.63900
O  30.43100 -4.64300 45.87500
C  28.21900 -4.34100 44.79800
C  28.23100 -2.96600 45.05300
O  28.91500 -2.19800 44.35400
O  27.49000 -2.57500 46.13800
C  27.50700 -1.19300 46.45100
H  21.35700 -5.51400 43.51000
H  21.72100 -10.80100 47.10500
H  28.05000 -9.68300 48.04800
H  25.43600 -2.80200 44.00200
H  23.30800 -4.14000 42.38000
H  23.32100 -2.04600 44.42900
H  21.93300 -3.11800 44.56100
H  22.19800 -2.19600 43.22500
H  25.17300 -4.21100 41.60500
H  26.76900 -4.55700 42.31300
H  27.48000 -2.79100 41.41600
H  26.71100 -1.80500 42.54500
H  19.30600 -6.00500 43.95800
H  18.21900 -7.30100 44.68200
H  19.00600 -7.44800 43.15400
H  19.49500 -10.51900 47.72300
H  20.03000 -11.63100 46.42600
H  18.31200 -11.58100 46.86300
H  23.90200 -12.25100 47.16900
H  25.69100 -11.00200 49.30000
H  22.92300 -12.94800 48.89700
H  22.48100 -11.20700 49.34700
H  23.90900 -11.99100 50.01000
H  27.39500 -11.98500 47.27800
H  26.27600 -13.15500 47.57700
H  27.03900 -13.84800 49.33700
H  27.14000 -12.21700 50.12400
H  28.57100 -12.84200 49.15400
H  29.75400 -8.47200 48.58700
H  30.75200 -7.14800 47.85900
H  30.58300 -8.68300 47.13100
H  28.44500 -4.58500 43.76000
H  27.07000 -1.18700 47.44900
H  27.04900 -0.59400 45.66400
H  28.50400 -0.78800 46.62700
Mg -4.53700 24.65100 26.96600
C  -2.91300 26.52900 29.43100
C  -5.47700 22.43700 29.42800
C  -6.00300 22.80600 24.67900
C  -3.13900 26.74700 24.54900
N  -4.26600 24.54800 29.19000
C  -3.70200 25.47600 29.95200
C  -4.07100 25.22500 31.43400
C  -4.77600 23.84900 31.46800
C  -4.84600 23.56700 29.92200
C  -3.91700 22.75200 31.99100
C  -4.90800 26.35200 32.08600
C  -4.58100 26.51500 33.61800
H  -5.64300 26.11600 34.64900
N  -5.46200 22.75100 27.04400
C  -5.75000 21.97900 28.10100
C  -6.41900 20.79200 27.77700
C  -6.51000 20.81000 26.33400
C  -6.00300 22.14500 25.91100
C  -6.76200 19.73300 28.87600
C  -6.97400 19.73000 25.34700
O  -7.01100 19.97200 24.13300
C  -7.28000 18.39700 25.84100
N  -4.61000 24.82900 24.86800
C  -5.33200 23.91400 24.16800
C  -5.15000 24.10400 22.72100
C  -4.12700 25.36400 22.59100
C  -3.99500 25.70400 24.10800
C  -4.77900 22.84000 21.94700
C  -4.78000 26.53200 21.83400
C  -3.78600 27.41100 21.03000
N  -3.24200 26.28700 26.92400
C  -2.83600 27.07500 25.90200
C  -2.08400 28.26500 26.40000
C  -2.07800 28.05600 27.78400
C  -2.77100 26.82000 28.04800
C  -1.47400 29.38100 25.64800
C  -1.68100 28.63000 29.05700
O  -1.14900 29.67900 29.39600
C  -2.20600 27.64900 30.12800
C  -1.05200 27.14400 30.89200
O  -0.28100 26.20900 30.59900
O  -1.05000 27.80300 32.07600
C  0.06800 27.28300 32.94500
H  -6.01400 21.86600 30.18900
H  -6.45200 22.13100 23.94700
H  -2.76800 27.39500 23.75300
H  -3.07900 25.12300 31.87500
H  -5.77100 23.77700 31.90700
H  -3.24600 23.12300 32.76600
H  -3.42000 22.23600 31.17000
H  -4.54400 22.08000 32.57700
H  -5.97200 26.20800 31.89800
H  -4.73800 27.29500 31.56600
H  -4.29800 27.55900 33.75400
H  -3.73000 25.90000 33.91100
H  -5.89000 19.28300 29.35100
H  -7.36700 18.96700 28.39100
H  -7.35200 20.15200 29.69100
H  -8.22200 18.41200 26.39000
H  -6.52800 17.96900 26.50400
H  -7.25600 17.74000 24.97200
H  -6.11900 24.57600 22.55700
H  -3.15400 25.09900 22.17600
H  -4.15000 22.18000 22.54500
H  -4.28100 23.04900 21.00000
H  -5.69600 22.43900 21.51700
H  -5.09700 27.29700 22.54200
H  -5.65200 26.23800 21.25000
H  -3.59500 28.40200 21.44200
H  -4.04300 27.44500 19.97100
H  -2.83500 26.88400 20.96000
H  -0.68400 28.97400 25.01800
H  -1.02000 30.08000 26.35100
H  -2.27700 29.74100 25.00600
H  -2.87000 28.24800 30.75100
H  1.06300 27.54900 32.58900
H  0.06000 26.21400 33.16100
H  -0.15200 27.83800 33.85700

