158

Mg -0.26900 7.50000 26.71100
C  0.85100 9.73400 29.05300
C  -0.63200 5.11600 29.28100
C  -1.03200 5.18200 24.43200
C  0.38300 9.78600 24.25400
N  0.12500 7.45400 28.81600
C  0.52500 8.50400 29.59000
C  0.42300 8.20700 31.05300
C  0.46000 6.64000 31.07100
C  -0.00300 6.37400 29.58600
C  1.83600 5.98200 31.41100
C  -0.86100 8.86900 31.78900
C  -0.88900 8.80000 33.33800
H  0.32300 8.36600 34.15300
N  -0.84200 5.40000 26.87700
C  -0.93500 4.63300 27.99100
C  -1.36200 3.21200 27.59300
C  -1.47800 3.25700 26.18600
C  -1.09200 4.59200 25.73500
C  -1.46000 2.00000 28.52600
C  -1.74900 2.03700 25.18900
O  -1.54900 2.12000 23.98600
C  -2.19900 0.71400 25.80600
N  -0.37600 7.52800 24.66100
C  -0.75000 6.44600 23.89900
C  -0.97000 6.81100 22.42100
C  -0.75700 8.39700 22.43100
C  -0.19000 8.59500 23.89300
C  -0.04900 6.11300 21.40800
C  -2.08200 9.22000 22.18700
C  -2.17800 10.08600 20.91300
N  0.52200 9.38700 26.63700
C  0.71700 10.19900 25.57500
C  1.27400 11.46800 25.95400
C  1.31400 11.41000 27.38500
C  0.90400 10.11300 27.68000
C  1.58600 12.55800 24.93600
C  1.64900 12.13200 28.62500
O  2.09100 13.22300 28.86100
C  1.32300 11.03700 29.74900
C  2.56000 10.80200 30.59300
O  3.50200 10.14800 30.20800
O  2.34100 11.37200 31.83800
C  3.43300 10.99300 32.71800
H  -0.62500 4.29400 30.00000
H  -1.36100 4.44700 23.69400
H  0.53900 10.57500 23.51500
H  1.24700 8.70700 31.56300
H  -0.38100 6.14600 31.55700
H  2.44800 5.64900 30.57300
H  1.63500 5.13700 32.07000
H  2.49300 6.67500 31.93700
H  -1.72300 8.30800 31.42800
H  -0.82300 9.89100 31.41100
H  -1.66400 8.06400 33.55400
H  -1.18300 9.76200 33.75700
H  -0.94400 1.06900 28.28800
H  -2.53700 1.83100 28.51800
H  -1.36800 2.20400 29.59300
H  -2.54300 0.13900 24.94600
H  -3.06800 0.77500 26.46100
H  -1.40400 0.22700 26.37000
H  -1.98500 6.58100 22.09900
H  -0.04800 8.81800 21.71800
H  0.91900 5.87500 21.84800
H  0.13100 6.90500 20.68200
H  -0.56800 5.22100 21.05800
H  -2.24800 9.92700 23.00000
H  -2.92700 8.55200 22.35400
H  -1.38400 9.89600 20.19000
H  -2.00500 11.12300 21.20000
H  -3.19100 10.05500 20.51100
H  0.89500 12.54900 24.09300
H  2.52900 12.22700 24.50100
H  1.53700 13.55000 25.38400
H  0.50300 11.40300 30.36600
H  3.47500 9.93900 32.99200
H  3.27400 11.60400 33.60700
H  4.43600 11.30000 32.41900
Mg -5.41500 25.45000 25.52800
C  -4.09900 26.81200 28.42700
C  -7.36100 23.42100 27.25200
C  -6.29800 24.10200 22.54500
C  -3.00300 27.43100 23.76900
N  -5.48200 24.94300 27.66800
C  -5.01400 25.78700 28.68100
C  -5.60000 25.39800 30.00600
C  -6.62800 24.24100 29.60600
C  -6.47800 24.14700 28.07000
C  -6.48900 22.93000 30.42400
C  -6.35700 26.52400 30.79900
C  -6.09700 26.55900 32.33400
H  -5.65900 25.29200 32.99800
N  -6.62300 23.90900 24.99600
C  -7.41500 23.21300 25.86600
C  -8.34400 22.29500 25.17900
C  -8.06500 22.54600 23.72900
C  -6.93200 23.55600 23.70500
C  -9.24400 21.39300 25.93800
C  -8.66800 21.81100 22.52300
O  -8.31500 22.09700 21.34500
C  -9.80900 20.87900 22.73100
N  -4.71700 25.69800 23.44200
C  -5.33700 25.07000 22.46400
C  -4.66100 25.33700 21.11000
C  -3.98200 26.65700 21.48800
C  -3.85000 26.59200 22.99800
C  -3.59900 24.26400 20.73800
C  -4.77400 27.84300 20.88400
C  -3.96900 28.82400 19.91400
N  -3.91300 26.95400 25.98200
C  -3.02400 27.63500 25.17000
C  -2.17300 28.49800 25.94100
C  -2.56400 28.19500 27.28300
C  -3.57900 27.23700 27.24100
C  -1.05300 29.41700 25.50000
C  -2.28400 28.49900 28.57200
O  -1.51600 29.28700 29.01500
C  -3.36900 27.69500 29.44900
C  -2.67500 26.99600 30.56900
O  -1.90800 26.08600 30.39400
O  -2.74800 27.64000 31.78700
C  -2.06700 27.01000 32.93400
H  -8.23500 23.05600 27.79600
H  -6.58600 23.72200 21.56200
H  -2.24700 27.84600 23.09900
H  -4.75900 24.99700 30.57100
H  -7.66600 24.53200 29.77200
H  -5.99400 22.25200 29.72800
H  -7.50700 22.65100 30.69600
H  -5.89900 23.06700 31.33000
H  -7.42500 26.49200 30.58500
H  -6.00800 27.46200 30.36700
H  -6.93100 26.95000 32.91600
H  -5.28400 27.23800 32.59000
H  -8.89300 21.23200 26.95700
H  -9.35000 20.40200 25.49500
H  -10.19800 21.90700 26.05600
H  -10.62400 21.44800 23.17700
H  -9.42800 20.09500 23.38600
H  -10.23300 20.41300 21.84200
H  -5.44900 25.43900 20.36300
H  -2.97000 26.66700 21.08200
H  -3.43700 23.98000 19.69800
H  -3.83300 23.32100 21.23300
H  -2.61400 24.57400 21.08600
H  -5.15000 28.27600 21.81000
H  -5.60700 27.55800 20.24100
H  -3.09500 28.26400 19.58300
H  -3.44700 29.55700 20.52900
H  -4.63200 29.18900 19.12900
H  -1.48600 29.92700 24.64000
H  -0.14500 28.82300 25.39400
H  -0.87900 30.10200 26.33000
H  -3.97400 28.45500 29.94400
H  -1.04300 26.70000 32.72200
H  -2.58100 26.25000 33.52200
H  -1.94900 27.86000 33.60500

