158

Mg 1.16600 8.47700 26.78500
C  1.17700 10.40900 29.66000
C  1.63200 5.73000 28.73000
C  1.11900 6.61900 23.89400
C  1.17900 11.37500 24.91400
N  1.35400 8.16800 28.97100
C  1.13400 9.03900 29.93500
C  0.95800 8.39500 31.25600
C  1.42100 6.93400 31.00100
C  1.47400 6.91300 29.41700
C  2.77900 6.59800 31.56900
C  -0.47800 8.63700 31.81200
C  -0.53600 8.92000 33.33000
H  0.54200 8.26100 34.20600
N  1.31000 6.42400 26.37600
C  1.48100 5.49200 27.31100
C  1.49000 4.16900 26.65000
C  1.33100 4.41900 25.24800
C  1.20800 5.86100 25.10800
C  1.60300 2.90600 27.37600
C  1.36100 3.42400 24.10800
O  1.43200 3.79700 22.97200
C  1.49600 1.93000 24.37700
N  0.91700 8.92200 24.75200
C  0.95700 8.00200 23.74700
C  1.01900 8.64300 22.35100
C  0.74500 10.22800 22.70300
C  1.04300 10.16800 24.20400
C  2.31600 8.41900 21.58300
C  -0.73300 10.73900 22.44200
C  -0.96200 11.89800 21.29300
N  1.24500 10.49300 27.15100
C  1.33400 11.56400 26.29500
C  1.55800 12.83000 26.98800
C  1.54100 12.35200 28.30900
C  1.22500 11.00100 28.35500
C  1.92400 14.22000 26.52300
C  1.79700 12.76300 29.66700
O  2.18500 13.85600 30.06800
C  1.33900 11.59200 30.55600
C  2.28600 11.42500 31.67800
O  3.49600 11.31100 31.55500
O  1.63600 11.59000 32.91100
C  2.52700 11.69800 34.13100
H  1.61100 4.89300 29.43000
H  1.54100 6.10300 23.02800
H  1.05700 12.29800 24.34300
H  1.70500 8.91200 31.85800
H  0.64800 6.23900 31.32700
H  3.52700 6.19500 30.88700
H  2.51200 5.86300 32.32800
H  3.26900 7.40200 32.11800
H  -1.17100 7.83300 31.56500
H  -0.85700 9.58600 31.43200
H  -1.48300 8.60400 33.76800
H  -0.60500 9.98900 33.53400
H  2.66500 2.69500 27.25100
H  1.02600 2.04700 27.03400
H  1.19800 3.00900 28.38300
H  0.61700 1.49000 24.84900
H  2.42600 1.75800 24.91800
H  1.66600 1.46000 23.40900
H  0.17700 8.33500 21.73200
H  1.47200 10.85600 22.18800
H  1.99500 8.07800 20.59900
H  2.90800 7.70700 22.15800
H  2.78300 9.40000 21.49700
H  -1.14900 11.04300 23.40200
H  -1.34400 9.89100 22.13400
H  -1.36700 12.81600 21.72000
H  -1.68900 11.42000 20.63700
H  -0.11500 12.28900 20.72900
H  2.12900 14.13200 25.45600
H  2.77500 14.68800 27.01900
H  1.05800 14.84700 26.73300
H  0.46000 11.78400 31.17200
H  3.28500 10.92000 34.22300
H  1.92400 11.52100 35.02100
H  2.90300 12.72100 34.16000
Mg 9.57900 48.17500 25.40900
C  7.48800 48.20200 28.28300
C  12.17600 49.49400 27.25100
C  11.50700 47.90700 22.70200
C  6.56900 47.72000 23.44200
N  9.71200 48.85300 27.49600
C  8.83500 48.73600 28.55200
C  9.45700 49.16700 29.89900
C  10.71200 49.80400 29.42200
C  10.95600 49.32700 27.96200
C  10.80100 51.32200 29.51600
C  9.55000 48.09000 31.01300
C  9.12500 48.51900 32.38300
H  9.01200 47.44700 33.41800
N  11.57900 48.68400 25.02700
C  12.46700 49.11900 25.96900
C  13.80400 49.00200 25.35300
C  13.68200 48.49000 24.07100
C  12.20100 48.35500 23.86900
C  15.04400 49.44000 26.07100
C  14.81600 48.17900 23.06300
O  14.63600 47.85700 21.93100
C  16.17800 48.24300 23.53500
N  9.06600 47.97300 23.34200
C  10.10800 47.64800 22.47000
C  9.56500 47.13300 21.09500
C  8.01000 47.46400 21.30400
C  7.81600 47.79100 22.75900
C  10.18300 47.73100 19.81400
C  6.92300 46.59500 20.58900
C  5.94700 47.37300 19.73500
N  7.49800 47.85700 25.74000
C  6.39800 47.74300 24.86000
C  5.19300 47.56400 25.60700
C  5.64700 47.60300 26.92100
C  6.98700 47.88700 26.99800
C  3.78100 47.51500 24.96600
C  5.18400 47.45700 28.26000
O  4.07000 47.03600 28.62200
C  6.37300 47.91700 29.21000
C  6.46800 46.72900 30.11200
O  6.90200 45.62100 29.84700
O  5.87700 47.01400 31.31700
C  5.85900 46.07000 32.39300
H  12.97800 49.85100 27.90000
H  12.09300 47.65500 21.81600
H  5.61700 47.56500 22.93000
H  8.82100 49.90700 30.38400
H  11.52700 49.45000 30.05500
H  10.13700 51.77000 30.25500
H  10.60700 51.73000 28.52400
H  11.77100 51.76400 29.74500
H  10.59500 47.85100 31.21300
H  9.09900 47.20700 30.56100
H  8.08200 48.83600 32.38600
H  9.77500 49.36800 32.59200
H  14.74200 50.01200 26.94800
H  15.55300 50.18600 25.46100
H  15.77500 48.70000 26.39600
H  16.89100 47.65800 22.95300
H  16.31200 47.74700 24.49600
H  16.43500 49.30000 23.61300
H  9.57200 46.04800 20.99800
H  7.86400 48.44800 20.85700
H  10.84500 48.52900 20.14900
H  9.49100 48.08400 19.04900
H  10.81600 46.97400 19.35100
H  6.52500 45.87900 21.30800
H  7.29300 45.98000 19.76800
H  4.94500 46.96900 19.87700
H  6.13500 47.25100 18.66900
H  5.91900 48.43900 19.96100
H  2.95800 47.63200 25.67100
H  3.65900 46.68400 24.27100
H  3.72900 48.51800 24.54300
H  6.24100 48.86300 29.73500
H  4.81200 45.86600 32.61900
H  6.36400 46.54900 33.23100
H  6.42300 45.18100 32.10900

