158

Mg 35.01300 48.66700 26.17200
C  35.37800 46.64700 28.99500
C  33.53600 51.12700 28.23200
C  34.02100 50.45400 23.44200
C  35.74300 45.92100 24.28800
N  34.67100 48.95300 28.38400
C  34.94000 47.97200 29.34600
C  34.66100 48.46700 30.78300
C  34.03300 49.87800 30.51200
C  34.12800 50.05000 28.95600
C  32.62000 50.12800 31.08000
C  35.85900 48.55900 31.74700
C  35.73900 48.19900 33.23900
H  36.04200 49.26700 34.31300
N  33.99100 50.53800 25.89000
C  33.49000 51.36200 26.89600
C  32.87300 52.46200 26.21200
C  32.99500 52.35100 24.79400
C  33.64900 51.06600 24.62900
C  32.33500 53.66700 26.96500
C  32.58300 53.20400 23.64700
O  32.72500 52.95300 22.50000
C  31.93300 54.62800 23.83400
N  35.00000 48.28400 24.13700
C  34.65100 49.21200 23.18100
C  34.73800 48.58300 21.79000
C  35.20600 47.19100 22.06400
C  35.42500 47.11400 23.58200
C  33.41300 48.68100 20.92800
C  36.43900 46.60000 21.24600
C  36.14900 45.43700 20.28700
N  35.84200 46.72300 26.49200
C  35.92300 45.62800 25.63000
C  36.16500 44.39200 26.37900
C  36.08000 44.78900 27.71600
C  35.77300 46.15900 27.73600
C  36.40300 43.01400 25.76700
C  36.19600 44.26400 29.09600
O  36.53800 43.12700 29.46700
C  35.73000 45.51800 30.01200
C  34.66700 45.04000 30.86400
O  33.54600 44.78400 30.49200
O  35.01900 44.89600 32.19200
C  33.99000 44.79200 33.19300
H  33.21600 52.02400 28.76600
H  33.50200 51.04500 22.68500
H  35.89700 45.05600 23.63900
H  33.89900 47.82200 31.22000
H  34.67000 50.60400 31.01800
H  32.13100 49.27200 31.54500
H  31.98300 50.50400 30.27900
H  32.54700 50.86900 31.87700
H  36.37400 49.51900 31.74600
H  36.58400 47.88100 31.29700
H  36.33500 47.31700 33.47100
H  34.73300 47.82500 33.43200
H  32.18300 54.60900 26.43800
H  33.02100 53.84700 27.79200
H  31.36100 53.31600 27.30300
H  31.68200 54.98500 22.83500
H  32.75900 55.16000 24.30700
H  31.07600 54.66100 24.50600
H  35.51800 49.13500 21.26500
H  34.36700 46.51900 21.88300
H  32.55100 48.81800 21.58100
H  33.27300 47.71500 20.44400
H  33.50000 49.47100 20.18100
H  37.20900 46.22800 21.92100
H  36.85100 47.41800 20.65600
H  36.25400 44.43600 20.70800
H  36.76400 45.50900 19.39000
H  35.14600 45.54300 19.87400
H  37.48900 42.93700 25.72600
H  36.04900 42.89200 24.74400
H  35.81500 42.26400 26.29700
H  36.55400 45.89300 30.61900
H  33.00200 45.05900 32.81900
H  34.23400 45.56000 33.92800
H  33.96700 43.91200 33.83500
Mg -10.86900 17.59300 41.33000
C  -7.25600 17.43100 41.87100
C  -10.48700 20.92700 40.59200
C  -14.12500 17.51800 40.36200
C  -10.72100 14.06200 41.28100
N  -9.04700 18.93800 41.30700
C  -7.74000 18.70400 41.50000
C  -6.86500 19.92000 41.31700
C  -7.98200 21.03000 41.42400
C  -9.26700 20.26600 41.06200
C  -8.10000 21.77800 42.71400
C  -6.35400 19.97100 39.78600
C  -4.90400 19.55700 39.47900
H  -4.72200 18.59900 38.30500
N  -12.11300 19.05800 40.65700
C  -11.77700 20.34800 40.49400
C  -12.92900 21.10700 40.07900
C  -14.05400 20.18300 40.03700
C  -13.52800 18.83400 40.33200
C  -12.84300 22.62300 39.69300
C  -15.42600 20.61200 39.45800
O  -15.72700 21.78700 39.31700
C  -16.46000 19.54200 39.16300
N  -12.26100 15.96000 40.86600
C  -13.60600 16.20500 40.55300
C  -14.39300 14.90500 40.41000
C  -13.23000 13.85600 40.43000
C  -11.96800 14.63700 40.94400
C  -15.37200 14.56500 41.59400
C  -12.94400 13.06200 39.16800
C  -13.88500 12.01400 38.82000
N  -9.30700 16.01500 41.61900
C  -9.46800 14.65400 41.61500
C  -8.23300 14.03200 42.07000
C  -7.37200 15.08600 42.10500
C  -8.06100 16.24500 41.85700
C  -7.82700 12.62400 42.39900
C  -5.99900 15.39200 42.36500
O  -5.00100 14.66900 42.49400
C  -5.86200 16.99300 42.31600
C  -5.48700 17.57200 43.64200
O  -4.51500 18.34900 43.71000
O  -6.24100 17.11500 44.66800
C  -6.03800 17.81100 45.89900
H  -10.24800 21.97500 40.39900
H  -15.19200 17.49900 40.13100
H  -10.77200 12.98900 41.47700
H  -6.15500 20.09600 42.12500
H  -7.91800 21.72400 40.58600
H  -8.87500 21.31600 43.32600
H  -8.49300 22.77000 42.49000
H  -7.11400 21.75400 43.17700
H  -6.32300 21.02200 39.49800
H  -6.99000 19.35100 39.15300
H  -4.49700 19.12200 40.39100
H  -4.34500 20.48600 39.36700
H  -13.10500 22.48300 38.64400
H  -11.84900 22.97500 39.97200
H  -13.57700 23.15300 40.30000
H  -15.96300 18.79500 38.54400
H  -17.24100 19.93100 38.51000
H  -16.74800 19.06700 40.10100
H  -14.92400 14.85200 39.46000
H  -13.21500 13.07000 41.18600
H  -15.09900 15.31700 42.33500
H  -15.18700 13.53300 41.89000
H  -16.38000 14.64000 41.18700
H  -11.98700 12.59800 39.40700
H  -12.75100 13.66900 38.28400
H  -14.41500 11.54900 39.65100
H  -13.27600 11.24600 38.34300
H  -14.65200 12.33000 38.11200
H  -7.44900 12.00100 41.58900
H  -8.58700 12.09100 42.97000
H  -6.95400 12.73400 43.04300
H  -5.08500 17.20700 41.58200
H  -5.80900 17.02600 46.62000
H  -6.95900 18.30000 46.21400
H  -5.17500 18.46800 46.00700

