158

Mg -0.01800 7.86700 27.08500
C  0.99000 10.23500 29.64600
C  0.33000 5.52400 29.68300
C  -0.33600 5.65800 24.71300
C  0.43800 10.50100 24.69000
N  0.76700 7.92800 29.37200
C  0.93200 8.99600 30.14800
C  0.91700 8.72200 31.64900
C  0.90500 7.11300 31.65200
C  0.56200 6.80400 30.14500
C  2.19300 6.39600 32.10500
C  -0.38800 9.21300 32.22400
C  -0.76700 8.97800 33.69300
H  0.33500 8.42800 34.61500
N  -0.13800 5.91800 27.22800
C  0.04300 5.09900 28.37900
C  -0.17300 3.80700 27.94700
C  -0.45600 3.80200 26.53500
C  -0.25700 5.18200 26.07300
C  0.02300 2.65200 28.86600
C  -0.66800 2.59700 25.61500
O  -0.86800 2.68000 24.39300
C  -0.77300 1.18800 26.14200
N  0.09200 8.07800 24.95900
C  -0.13900 6.93000 24.19500
C  -0.18300 7.32200 22.70400
C  -0.25700 8.88900 22.78700
C  0.07700 9.22700 24.22400
C  1.03300 6.88200 21.88100
C  -1.54300 9.64600 22.19800
C  -1.19200 10.65400 21.10200
N  0.51700 9.98800 27.11700
C  0.68100 10.91900 26.03700
C  1.05100 12.16300 26.57500
C  1.13600 11.90500 28.00100
C  0.80500 10.55400 28.26500
C  1.24800 13.44900 25.79900
C  1.54800 12.57600 29.29300
O  1.97500 13.76500 29.54600
C  1.40700 11.48200 30.39200
C  2.65700 11.29400 31.15900
O  3.64600 10.58000 30.87700
O  2.62800 12.09700 32.29900
C  3.46900 11.78900 33.46700
H  0.30600 4.87100 30.55800
H  -0.58400 4.96500 23.90600
H  0.61000 11.29200 23.95700
H  1.78300 9.02600 32.23800
H  0.05500 6.83200 32.27400
H  2.66100 6.02600 31.19200
H  1.97000 5.54200 32.74500
H  2.92100 6.98800 32.66000
H  -1.16800 8.68100 31.68000
H  -0.36500 10.28600 32.02900
H  -1.64900 8.33700 33.71400
H  -1.11500 9.89300 34.17300
H  0.91800 2.04200 28.75200
H  -0.80400 1.97100 28.66600
H  -0.03200 2.91400 29.92200
H  -0.99700 0.43400 25.38700
H  -1.61900 1.05200 26.81600
H  0.24000 0.90900 26.43400
H  -1.10100 6.96600 22.23600
H  0.61900 9.30300 22.28700
H  1.85600 6.68400 22.56700
H  1.13500 7.63400 21.09900
H  0.97700 5.90800 21.39400
H  -1.99200 10.16800 23.04400
H  -2.31700 8.99200 21.79700
H  -1.13400 11.59600 21.64700
H  -2.00600 10.72100 20.38100
H  -0.35900 10.35400 20.46700
H  0.32100 13.63800 25.25800
H  2.11000 13.27000 25.15500
H  1.40800 14.24500 26.52600
H  0.61300 11.83000 31.05300
H  2.84400 11.85300 34.35800
H  4.16700 12.62400 33.51500
H  4.01600 10.84700 33.41800
Mg 7.94900 3.57900 27.27500
C  9.37500 2.04300 30.17100
C  5.67000 5.16000 29.29700
C  6.75600 4.82300 24.55500
C  9.94800 1.40500 25.37200
N  7.50800 3.56000 29.53700
C  8.25400 2.95400 30.49200
C  7.72100 3.21400 31.90800
C  6.51500 4.16700 31.56300
C  6.61500 4.40300 30.08500
C  5.10000 3.68400 32.01500
C  8.78300 3.88500 32.83700
C  8.25100 4.44500 34.17600
H  9.22200 4.36100 35.38300
N  6.47400 4.88200 27.04400
C  5.59600 5.37800 27.96000
C  4.66000 6.22500 27.25500
C  4.95900 6.09200 25.86200
C  6.12600 5.26100 25.74200
C  3.52200 6.98100 27.94900
C  4.43600 6.74700 24.74100
O  4.48500 6.39400 23.56100
C  3.73800 8.13700 24.90900
N  8.32300 3.22400 25.26900
C  7.66300 3.87900 24.30200
C  7.95600 3.37100 22.82600
C  9.14500 2.34000 23.16900
C  9.10200 2.25000 24.69800
C  6.75900 2.93600 21.96000
C  10.53000 2.62000 22.54400
C  11.56200 3.44200 23.44100
N  9.45500 2.12700 27.64000
C  10.15600 1.32700 26.73500
C  10.99500 0.34000 27.43800
C  10.68400 0.68800 28.77000
C  9.75900 1.73100 28.82500
C  11.72500 -0.79200 26.90400
C  11.05400 0.29600 30.09600
O  11.78800 -0.58300 30.46700
C  10.23000 1.22000 31.04100
C  9.44100 0.33400 31.93300
O  8.73500 -0.66800 31.59800
O  9.66400 0.68400 33.16600
C  8.58400 0.25800 34.07100
H  4.93000 5.72300 29.86900
H  6.38600 5.10500 23.56700
H  10.60900 0.76100 24.78800
H  7.55300 2.32200 32.51100
H  6.60400 5.17400 31.97000
H  4.55300 4.45700 32.55400
H  5.19200 2.76800 32.59900
H  4.45000 3.58200 31.14500
H  9.24800 4.65100 32.21600
H  9.52600 3.19700 33.24100
H  7.39200 3.79300 34.33400
H  7.93900 5.48000 34.03800
H  3.98500 7.81200 28.48000
H  3.17200 6.26500 28.69200
H  2.67800 7.29400 27.33400
H  2.75000 7.93200 25.32000
H  3.72900 8.61500 23.92900
H  4.38300 8.65200 25.62000
H  8.22700 4.28600 22.30000
H  8.80700 1.44200 22.65200
H  6.00500 2.34000 22.47400
H  7.12000 2.41900 21.07200
H  6.26100 3.83000 21.58300
H  10.40000 3.09300 21.57100
H  10.97300 1.68400 22.20400
H  11.13700 4.01600 24.26500
H  11.87000 4.33600 22.89900
H  12.41200 2.83300 23.74900
H  11.88000 -0.76900 25.82500
H  11.34300 -1.76300 27.22000
H  12.74500 -0.67700 27.27100
H  11.00000 1.77900 31.57300
H  8.77900 -0.68700 34.57700
H  7.56500 0.21000 33.68600
H  8.56000 0.89100 34.95800

