158

Mg 0.56800 8.05000 27.07600
C  1.10200 10.26600 29.61300
C  0.90500 5.46100 29.35900
C  0.56300 5.79400 24.38300
C  0.74300 10.69100 24.87900
N  1.00700 7.89100 29.16700
C  1.03400 8.97200 30.06500
C  0.95800 8.52800 31.53100
C  1.26200 7.04700 31.35800
C  1.06500 6.74800 29.86600
C  2.56700 6.55700 32.00800
C  -0.46800 8.87600 32.04700
C  -0.71600 8.98700 33.57200
H  0.42500 8.62900 34.54800
N  0.54900 5.91800 26.93600
C  0.67000 5.04800 28.00500
C  0.45900 3.71800 27.55300
C  0.20200 3.76400 26.13200
C  0.50100 5.21600 25.72700
C  0.51200 2.52100 28.52200
C  -0.14800 2.63800 25.18300
O  -0.19400 2.82100 24.00100
C  -0.51200 1.24500 25.75200
N  0.60400 8.24300 24.98300
C  0.61700 7.17500 24.06900
C  0.68900 7.74100 22.65600
C  0.17300 9.15900 22.88000
C  0.57900 9.40500 24.33900
C  2.12100 7.55600 22.04600
C  -1.41300 9.41800 22.63900
C  -1.69400 10.35600 21.39000
N  0.83700 10.09600 27.14300
C  0.93800 11.03900 26.17200
C  1.12900 12.36000 26.70200
C  1.17400 12.15600 28.05100
C  1.01000 10.71100 28.32900
C  1.34300 13.64900 25.97700
C  1.42300 12.77600 29.32500
O  1.63500 13.92800 29.65600
C  1.23800 11.60200 30.36900
C  2.36600 11.69300 31.34200
O  3.47700 11.27000 31.12400
O  1.94300 12.12500 32.51800
C  2.85700 12.01400 33.61700
H  0.69400 4.63900 30.04700
H  0.38300 5.15700 23.51500
H  0.64300 11.49900 24.15100
H  1.69100 9.03100 32.16100
H  0.52200 6.44800 31.88800
H  3.16000 7.43300 32.27300
H  3.09900 6.04500 31.20500
H  2.47300 5.81400 32.79900
H  -1.08400 8.10700 31.58000
H  -0.87000 9.76200 31.55600
H  -1.58500 8.38900 33.84900
H  -0.96800 10.04000 33.70000
H  0.87500 2.78000 29.51700
H  1.21900 1.74100 28.24100
H  -0.46900 2.17700 28.85000
H  -1.30200 1.19100 26.50000
H  0.34800 0.81300 26.26500
H  -0.91900 0.69600 24.90200
H  0.02700 7.28200 21.92100
H  0.80400 9.76900 22.23400
H  2.49400 6.55900 22.28300
H  2.78300 8.34300 22.40500
H  2.08900 7.66300 20.96200
H  -1.93400 9.80300 23.51600
H  -1.84000 8.42800 22.48000
H  -2.38100 9.75400 20.79600
H  -0.84600 10.55700 20.73600
H  -2.12400 11.28000 21.77900
H  1.70900 13.50700 24.96000
H  2.01500 14.17300 26.65700
H  0.39000 14.17800 25.97400
H  0.34200 11.64400 30.98900
H  3.39300 12.95700 33.72700
H  3.59100 11.21600 33.50100
H  2.28000 11.89000 34.53300
Mg 17.38400 -0.77900 28.61400
C  15.80800 0.90200 31.35700
C  19.22300 -2.54100 30.88300
C  18.78300 -2.27600 26.06700
C  15.42800 1.14700 26.47500
N  17.53400 -0.84500 30.88800
C  16.82900 0.02300 31.76600
C  17.15400 -0.27800 33.25300
C  18.30500 -1.39800 32.99200
C  18.42800 -1.60400 31.49300
C  19.53100 -1.01000 33.80400
C  15.93200 -0.83600 34.01400
C  15.59100 -0.27600 35.40000
H  16.73800 0.22400 36.26600
N  18.78000 -2.28500 28.45700
C  19.40100 -2.88000 29.57400
C  20.25000 -3.97400 29.07800
C  20.15200 -3.94100 27.65300
C  19.26700 -2.78500 27.31100
C  21.08200 -4.91000 30.01100
C  20.68200 -4.84800 26.60500
O  20.33600 -4.71600 25.44900
C  21.60700 -6.00500 27.12500
N  17.08800 -0.69200 26.58300
C  17.85300 -1.33500 25.73500
C  17.53000 -0.92800 24.24600
C  16.34100 0.06900 24.39300
C  16.31000 0.20200 25.90100
C  18.80900 -0.47600 23.49900
C  15.04000 -0.34200 23.67500
C  13.93100 -1.06900 24.44000
N  15.99200 0.80600 28.84400
C  15.23700 1.39500 27.85500
C  14.31700 2.36900 28.54200
C  14.49200 2.10700 29.90800
C  15.51200 1.15300 30.02500
C  13.23800 3.20900 27.87700
C  14.06500 2.59200 31.16900
O  13.22200 3.31800 31.53500
C  15.00200 1.89200 32.21100
C  15.90300 2.86500 32.87100
O  16.99700 3.29200 32.46900
O  15.19400 3.33100 33.97600
C  15.82600 4.44700 34.63700
H  19.75300 -3.05500 31.68700
H  19.19600 -2.83300 25.22400
H  14.77900 1.72900 25.81700
H  17.61800 0.61100 33.67900
H  17.98500 -2.31100 33.49600
H  19.91600 -1.75500 34.49900
H  19.40500 -0.04500 34.29600
H  20.39100 -0.78200 33.17400
H  15.91800 -1.89100 34.28900
H  15.03600 -0.60000 33.44000
H  15.00700 -1.03100 35.92600
H  14.94600 0.60000 35.33300
H  20.84600 -5.97400 30.04600
H  21.05500 -4.62300 31.06200
H  22.06800 -4.83600 29.55300
H  21.13100 -6.54400 27.94400
H  22.47800 -5.55500 27.60100
H  22.02000 -6.67900 26.37500
H  17.19200 -1.87500 23.82500
H  16.60000 1.03100 23.94900
H  18.73900 0.46800 22.95700
H  19.11500 -1.29200 22.84500
H  19.56200 -0.28500 24.26300
H  15.29200 -0.88600 22.76500
H  14.63000 0.58700 23.27800
H  13.12600 -1.51500 23.85600
H  13.41600 -0.44900 25.17400
H  14.44600 -1.89300 24.93400
H  12.88500 2.56000 27.07600
H  13.57700 4.19700 27.56600
H  12.46300 3.11300 28.63800
H  14.36700 1.29700 32.86900
H  15.84600 5.34700 34.02300
H  16.84000 4.19300 34.94500
H  15.26500 4.81800 35.49500

