158

Mg 35.30300 2.90100 30.12700
C  33.06600 4.12700 32.45300
C  37.89600 3.28500 32.41300
C  37.66100 2.13900 27.72500
C  32.83200 3.16400 27.71800
N  35.41400 3.65700 32.15300
C  34.38200 4.01200 32.98700
C  34.80600 4.29300 34.41900
C  36.41200 4.30000 34.17100
C  36.60400 3.70500 32.81100
C  37.08000 5.77400 34.23500
C  34.39600 3.24400 35.44400
C  33.78800 3.80900 36.76600
H  34.69800 3.77000 37.96100
N  37.47100 2.53500 30.14600
C  38.29100 2.69600 31.20600
C  39.66800 2.28200 30.83800
C  39.58400 1.88000 29.49500
C  38.21100 2.22500 29.05600
C  40.73200 2.29000 31.93000
C  40.68600 1.43400 28.59000
O  40.48800 1.18900 27.43400
C  42.08900 1.23500 29.11700
N  35.25300 2.51500 28.09100
C  36.36600 2.31400 27.26900
C  35.91500 2.40300 25.84600
C  34.34200 2.21500 25.93800
C  34.08000 2.70300 27.35700
C  36.36900 3.74800 25.10100
C  33.94500 0.69500 25.76800
C  32.50800 0.36300 25.67700
N  33.30800 3.50600 30.02700
C  32.44200 3.59600 28.99300
C  31.15800 4.01000 29.44800
C  31.33300 4.06300 30.82200
C  32.68100 3.84400 31.10800
C  29.86100 4.19200 28.77000
C  30.64800 4.41900 32.07400
O  29.48000 4.77200 32.32400
C  31.78400 4.47100 33.15400
C  31.79300 5.80200 33.70900
O  32.10700 6.81300 33.10700
O  31.45200 5.76100 35.05000
C  31.55500 7.04500 35.78800
H  38.61300 3.56000 33.19000
H  38.39100 1.95100 26.93500
H  32.03600 3.17600 26.97000
H  34.57400 5.33000 34.66300
H  37.01300 3.69200 34.84700
H  36.35700 6.56700 34.42600
H  37.51800 5.99100 33.26000
H  37.85100 5.73100 35.00400
H  35.16500 2.60600 35.87900
H  33.73500 2.58100 34.88600
H  32.80400 3.42200 37.02900
H  33.55600 4.86200 36.60400
H  40.24100 2.49000 32.88300
H  41.49400 3.00900 31.62700
H  41.25400 1.33300 31.94700
H  42.59600 2.19700 29.20300
H  42.62400 0.69200 28.33900
H  42.32300 0.61200 29.98000
H  36.30500 1.58800 25.23700
H  33.81000 2.75300 25.15300
H  35.50400 4.38300 24.91000
H  36.75600 3.49900 24.11300
H  37.03800 4.37300 25.69200
H  34.41500 0.22900 26.63400
H  34.36900 0.36200 24.82100
H  32.25000 -0.32700 26.48000
H  32.10800 -0.08000 24.76400
H  31.89900 1.26300 25.76900
H  29.62200 5.24500 28.62000
H  29.16300 3.65300 29.41000
H  30.03300 3.71900 27.80200
H  31.48100 3.75800 33.92000
H  32.17600 7.85500 35.40800
H  32.03900 6.88600 36.75200
H  30.59600 7.51500 36.00600
Mg 43.26700 41.72000 26.30100
C  42.29500 43.70200 29.07100
C  44.50100 39.50700 28.76800
C  44.51000 39.92700 23.87600
C  42.60800 44.34200 24.14400
N  43.21400 41.63500 28.71400
C  42.78400 42.52000 29.49300
C  43.01400 42.15400 30.93800
C  43.88300 40.83700 30.85400
C  43.92900 40.65900 29.36000
C  45.38100 40.94500 31.45400
C  41.71700 41.86900 31.70900
C  41.66600 41.67500 33.26400
H  40.96400 42.81900 34.15900
N  44.31000 39.92700 26.26400
C  44.72700 39.17700 27.37900
C  45.28200 37.92400 26.84900
C  45.19800 38.04800 25.43400
C  44.64300 39.36000 25.12200
C  45.92000 36.86300 27.78700
C  45.55400 36.96200 24.34300
O  45.49600 37.09100 23.12000
C  45.99300 35.63000 24.83900
N  43.73300 42.18300 24.29400
C  44.17400 41.15000 23.48200
C  43.93200 41.57600 21.98900
C  43.35900 43.02500 22.05400
C  43.24600 43.21000 23.57400
C  45.19100 41.47000 21.02400
C  42.07500 43.26500 21.18500
C  41.95300 42.70200 19.76500
N  42.58800 43.58300 26.49900
C  42.32400 44.52600 25.52200
C  41.53300 45.58500 26.14800
C  41.56300 45.28600 27.51500
C  42.24600 44.10000 27.71900
C  40.85900 46.68200 25.46700
C  41.03800 45.77600 28.75800
O  40.44900 46.76900 29.11600
C  41.58400 44.78900 29.84100
C  42.54300 45.60400 30.63900
O  43.75100 45.84800 30.32700
O  41.92400 45.89100 31.78400
C  42.57100 46.92800 32.64800
H  44.91700 38.79800 29.48800
H  44.54200 39.30400 22.98000
H  42.37600 45.12300 23.41700
H  43.55300 43.02400 31.31300
H  43.25900 40.08500 31.33700
H  45.54600 41.87800 31.99300
H  46.10800 40.95300 30.64300
H  45.60800 40.08100 32.08000
H  41.24900 40.97100 31.30600
H  41.03600 42.68700 31.47400
H  42.64500 41.55400 33.72800
H  41.11500 40.76200 33.49200
H  45.88500 35.81000 27.50700
H  45.30000 36.79900 28.68100
H  46.89900 37.24800 28.07300
H  46.79400 35.81000 25.55600
H  46.36600 34.94100 24.08100
H  45.10300 35.24500 25.33500
H  43.19700 40.93000 21.50800
H  44.09800 43.80500 21.86900
H  44.97400 40.70600 20.27700
H  46.04600 41.16800 21.63000
H  45.38700 42.45400 20.60000
H  41.78200 44.31400 21.15400
H  41.31300 42.81400 21.82100
H  42.89800 42.29200 19.41000
H  41.60800 43.49600 19.10200
H  41.25800 41.87500 19.61700
H  41.58000 47.31100 24.94300
H  40.44100 47.29400 26.26600
H  40.04000 46.29000 24.86400
H  40.64900 44.47600 30.30800
H  41.80000 47.64800 32.91800
H  43.47200 47.33700 32.18900
H  42.83800 46.36200 33.54100

