158

Mg -2.08900 17.13700 26.71500
C  -2.63100 15.10600 29.50700
C  -2.91700 19.92800 28.76000
C  -1.75500 19.13700 24.12800
C  -2.09500 14.33300 24.63600
N  -2.69200 17.55300 28.89700
C  -2.70800 16.55300 29.84200
C  -2.97700 17.11400 31.24400
C  -3.30800 18.63600 30.93200
C  -2.97500 18.73800 29.42600
C  -4.71500 19.23500 31.15500
C  -1.78200 16.80300 32.17400
C  -2.16200 16.55000 33.64000
H  -1.12800 16.74400 34.76600
N  -2.25800 19.26600 26.48400
C  -2.53700 20.23500 27.42400
C  -2.47000 21.52900 26.75600
C  -2.08200 21.36300 25.46100
C  -2.04900 19.85300 25.27500
C  -2.86800 22.75500 27.48200
C  -1.73200 22.43600 24.48800
O  -1.48300 22.20600 23.32900
C  -1.80800 23.95000 24.88400
N  -2.04200 16.73300 24.68000
C  -1.94500 17.74500 23.77800
C  -1.81300 17.26400 22.36700
C  -1.70100 15.70900 22.54500
C  -1.90200 15.56100 24.04700
C  -2.87100 17.65700 21.29400
C  -0.40500 15.04800 22.12700
C  0.78900 15.37100 23.01800
N  -2.38600 15.11800 26.95900
C  -2.33600 14.10100 26.01500
C  -2.58900 12.85900 26.77700
C  -2.59300 13.18200 28.12700
C  -2.48900 14.58400 28.24200
C  -2.76200 11.48300 26.22300
C  -2.68800 12.63200 29.43100
O  -2.75200 11.44300 29.71600
C  -2.65000 13.86500 30.44700
C  -1.42100 13.57600 31.26100
O  -0.27100 13.61700 30.81400
O  -1.76100 13.24100 32.56500
C  -0.61100 12.95700 33.50900
H  -3.10900 20.78600 29.40800
H  -1.70000 19.75500 23.23000
H  -1.99100 13.43400 24.02400
H  -3.87900 16.58300 31.54900
H  -2.67700 19.33600 31.47900
H  -5.26800 18.36400 31.50600
H  -5.30400 19.65900 30.34200
H  -4.69200 19.97600 31.95400
H  -1.13800 17.67800 32.09500
H  -1.20000 16.06300 31.62400
H  -2.40400 15.48700 33.63000
H  -3.07400 17.11000 33.84500
H  -3.47700 22.44400 28.33000
H  -3.56200 23.37800 26.91800
H  -1.89500 23.20500 27.67600
H  -1.29400 24.43500 24.05400
H  -1.18200 24.09700 25.76300
H  -2.88500 24.09000 24.98400
H  -0.86900 17.70500 22.04900
H  -2.48200 15.13100 22.05000
H  -2.38700 17.60300 20.31900
H  -3.20200 18.68900 21.41000
H  -3.65900 16.90500 21.34700
H  -0.24200 15.41700 21.11400
H  -0.60300 13.97700 22.10200
H  0.58100 16.25500 23.62000
H  1.60700 15.58400 22.33000
H  1.01300 14.51100 23.64900
H  -3.83300 11.34700 26.07700
H  -2.27000 10.76600 26.88100
H  -2.42900 11.23700 25.21500
H  -3.45600 13.90700 31.17900
H  -0.31600 13.75300 34.19300
H  0.28500 12.53000 33.05900
H  -0.89100 12.10700 34.13000
Mg 25.21700 1.22800 30.22800
C  27.40500 1.33100 32.90200
C  22.59100 1.49200 32.54600
C  23.15500 1.21800 27.72500
C  27.93500 0.91100 28.06000
N  25.07800 1.36400 32.50000
C  26.07800 1.42800 33.37400
C  25.66300 1.67600 34.82300
C  24.12100 1.52500 34.71200
C  23.89100 1.45800 33.15100
C  23.51600 0.38800 35.64700
C  26.20100 3.07500 35.36600
C  26.86200 2.99700 36.75500
H  26.52400 4.00300 37.84300
N  23.17000 1.20200 30.14200
C  22.28900 1.33700 31.18500
C  20.94200 1.17800 30.66700
C  21.05600 1.19100 29.21300
C  22.53700 1.14900 28.98300
C  19.75000 1.15700 31.52800
C  19.95500 1.25400 28.27100
O  20.21100 1.11200 27.08400
C  18.51600 1.58100 28.68400
N  25.54200 1.05500 28.11000
C  24.46700 1.17700 27.28200
C  24.92100 1.06800 25.80500
C  26.48900 1.03000 25.97800
C  26.71200 1.03300 27.43900
C  24.33700 -0.08500 24.90900
C  27.21000 2.19800 25.13900
C  26.79100 3.64500 25.52700
N  27.19800 0.98500 30.40500
C  28.16400 0.91800 29.44200
C  29.44300 0.72300 30.14800
C  29.21900 0.91500 31.46500
C  27.82400 1.05200 31.56900
C  30.74100 0.45600 29.39200
C  29.86000 0.94500 32.77300
O  31.02400 0.82200 33.21900
C  28.70100 1.31500 33.71300
C  28.63200 0.41700 34.90500
O  28.06700 -0.67300 34.87800
O  29.12100 1.05600 35.98500
C  29.07000 0.31300 37.24400
H  21.73000 1.64200 33.20000
H  22.45600 1.39200 26.90400
H  28.89800 0.79800 27.55700
H  26.08800 0.81200 35.33300
H  23.71900 2.49700 34.99800
H  24.33000 -0.12200 36.16100
H  23.00800 -0.38400 35.07000
H  22.74500 0.91100 36.21200
H  25.51700 3.92400 35.38700
H  27.01700 3.33700 34.69400
H  27.94500 2.89000 36.69200
H  26.55500 2.04400 37.18500
H  18.76200 0.85900 31.17700
H  19.78800 2.05900 32.13800
H  19.99000 0.42500 32.30000
H  18.56600 2.46400 29.32100
H  17.99900 0.84300 29.29800
H  17.89800 1.81300 27.81600
H  24.79100 2.00800 25.26700
H  26.82600 0.15700 25.41800
H  23.46800 -0.54400 25.37900
H  25.02000 -0.92700 24.79500
H  24.06700 0.40300 23.97200
H  26.99700 2.02600 24.08400
H  28.29300 2.07600 25.16400
H  26.09900 3.72100 26.36600
H  26.23700 3.99700 24.65600
H  27.61200 4.35500 25.62900
H  30.72700 1.16300 28.56300
H  30.86600 -0.56700 29.03500
H  31.50900 0.77100 30.09900
H  29.04800 2.22600 34.20000
H  29.95800 -0.31900 37.21200
H  28.13700 -0.25100 37.25800
H  29.06500 0.95200 38.12700

