158

Mg -1.12000 17.86500 27.16500
C  -1.82500 15.79500 29.99100
C  -1.99500 20.59900 29.12100
C  -0.71500 19.83100 24.53100
C  -1.11700 14.90700 25.18000
N  -1.87200 18.11300 29.27900
C  -1.81000 17.17300 30.29400
C  -2.02500 17.81800 31.60700
C  -2.28000 19.30300 31.25000
C  -2.08400 19.34200 29.78300
C  -3.64500 19.89600 31.59200
C  -0.80400 17.62600 32.53500
C  -1.18300 17.18400 33.90100
H  -0.14000 17.02900 34.98600
N  -1.14300 19.94500 26.87900
C  -1.46400 20.94200 27.82700
C  -1.23600 22.23700 27.25200
C  -0.79200 21.94400 25.90100
C  -0.84400 20.54000 25.72000
C  -1.55500 23.51100 28.01800
C  -0.40900 22.97900 24.79900
O  -0.04000 22.66200 23.72200
C  -0.76700 24.48200 25.07900
N  -0.97200 17.43900 25.19700
C  -0.77100 18.44800 24.30000
C  -0.75300 17.79800 22.90900
C  -0.66800 16.26200 23.11200
C  -0.88900 16.22200 24.64100
C  -1.89000 18.28900 22.01700
C  0.80900 15.84300 22.70400
C  1.95000 16.40500 23.58300
N  -1.32900 15.74400 27.47600
C  -1.33700 14.68800 26.58500
C  -1.65500 13.45100 27.28600
C  -1.77400 13.83000 28.62400
C  -1.60600 15.21900 28.67200
C  -1.96200 12.13700 26.84300
C  -1.95300 13.34700 29.97800
O  -2.04000 12.23200 30.42500
C  -1.87000 14.60400 30.93100
C  -0.65000 14.36100 31.77000
O  0.52000 14.52400 31.37300
O  -0.98100 13.90200 32.98900
C  0.17400 13.30600 33.71300
H  -2.21000 21.45100 29.77000
H  -0.69300 20.42200 23.61300
H  -1.03300 14.06200 24.49400
H  -2.80700 17.27400 32.13800
H  -1.55200 19.96600 31.71700
H  -4.33900 19.19700 32.05900
H  -4.18200 20.23100 30.70400
H  -3.58300 20.85700 32.10300
H  -0.35800 18.61200 32.66000
H  0.05000 17.10000 32.10700
H  -1.70700 16.23100 33.83600
H  -1.81000 17.94500 34.36600
H  -0.65000 24.11700 28.03600
H  -1.71800 23.30400 29.07600
H  -2.37600 23.98800 27.48200
H  -1.83800 24.65200 25.18700
H  -0.42300 24.95200 24.15800
H  -0.24200 24.76400 25.99200
H  0.13900 18.29600 22.52900
H  -1.31300 15.60000 22.53500
H  -2.43700 18.84200 22.78000
H  -2.67600 17.58600 21.74100
H  -1.52400 18.96100 21.24000
H  1.04000 16.11500 21.67400
H  0.87100 14.75500 22.71900
H  1.54500 17.01900 24.38800
H  2.69700 17.01900 23.08100
H  2.50200 15.54600 23.96300
H  -2.21100 12.15900 25.78200
H  -2.81700 11.68200 27.34100
H  -1.10300 11.49800 27.04600
H  -2.79200 14.63800 31.51200
H  -0.24300 13.14400 34.70700
H  1.11900 13.83500 33.58800
H  0.21800 12.32400 33.24300
Mg 46.09100 4.54500 47.86200
C  43.78800 7.34900 47.46600
C  43.37100 2.51600 46.81600
C  48.26000 2.01800 47.38000
C  48.60900 6.82400 48.17700
N  43.83700 4.91300 47.27300
C  43.19900 6.09500 47.16200
C  41.70800 5.94300 46.77900
C  41.59700 4.35100 46.61400
C  42.97100 3.86700 46.94500
C  40.49000 3.74200 47.47500
C  41.26700 6.79600 45.52700
C  42.25500 6.92200 44.31200
H  41.55800 6.94100 42.94800
N  45.83300 2.52600 47.38000
C  44.62200 1.90600 47.03100
C  44.94600 0.51600 46.75100
C  46.32600 0.31200 47.02200
C  46.88300 1.61700 47.34000
C  43.94700 -0.51400 46.21400
C  47.01200 -0.98000 46.75000
O  46.42900 -1.98000 46.43800
C  48.51400 -1.01300 46.70900
N  48.11300 4.35900 47.80300
C  48.83000 3.22500 47.76000
C  50.32200 3.50600 47.80400
C  50.38300 5.03500 47.99000
C  48.95300 5.48200 48.01600
C  50.95900 2.60700 48.96200
C  51.03900 5.86500 46.83500
C  52.09800 6.82100 47.37300
N  46.22100 6.62600 47.82300
C  47.32500 7.40000 48.01000
C  46.96400 8.80500 48.00800
C  45.58900 8.86000 47.81600
C  45.20000 7.47400 47.71800
C  47.90900 9.86200 48.28300
C  44.49700 9.73500 47.74500
O  44.38400 10.98000 47.76000
C  43.27500 8.76400 47.48900
C  42.26300 9.05800 48.47900
O  42.08200 8.22900 49.41100
O  41.54800 10.19000 48.25900
C  40.52100 10.46500 49.26000
H  42.59300 1.85400 46.43200
H  49.02500 1.26100 47.19400
H  49.40300 7.57300 48.17800
H  41.12300 6.43200 47.55800
H  41.49600 4.12100 45.55400
H  39.70200 4.46000 47.70100
H  40.89000 3.22700 48.34800
H  40.06100 2.96900 46.83700
H  40.84300 7.75600 45.82100
H  40.32900 6.38500 45.15300
H  42.94700 6.08200 44.36700
H  42.88100 7.81100 44.22400
H  44.16700 -0.72600 45.16800
H  42.90700 -0.18900 46.23200
H  44.03000 -1.44600 46.77300
H  48.92400 -0.79900 47.69600
H  48.95400 -0.27900 46.03500
H  48.97700 -1.94700 46.39000
H  50.79800 3.26100 46.85400
H  50.79800 5.36500 48.94200
H  51.58200 3.30800 49.51800
H  51.76700 2.05500 48.48200
H  50.34300 1.94700 49.57400
H  50.35500 6.40900 46.18400
H  51.65600 5.12000 46.33200
H  53.09900 6.66500 46.97100
H  52.23400 6.90100 48.45100
H  51.92300 7.84600 47.04600
H  48.36800 9.74700 49.26500
H  47.50700 10.86000 48.11100
H  48.72500 9.94100 47.56600
H  42.85200 9.05000 46.52600
H  40.47500 11.53500 49.45800
H  40.65600 10.02800 50.25000
H  39.54800 10.11900 48.91100

