158

Mg 25.16400 -7.81400 48.62300
C  27.52100 -5.53200 47.16500
C  23.14700 -7.04700 45.99400
C  23.53500 -10.31200 49.56800
C  27.90800 -8.69000 50.92400
N  25.34000 -6.34800 46.80900
C  26.32400 -5.49300 46.40600
C  25.91500 -4.66700 45.23100
C  24.39700 -5.00500 45.08500
C  24.28400 -6.21200 46.01800
C  23.36000 -3.96500 45.36800
C  26.74500 -5.13400 44.01000
C  27.48000 -4.02700 43.27300
H  27.28800 -3.80000 41.76900
N  23.56600 -8.62300 47.74800
C  22.83600 -8.17600 46.71900
C  21.63700 -9.01700 46.61800
C  21.81600 -10.09700 47.56600
C  22.98000 -9.74200 48.31900
C  20.58400 -8.77500 45.61600
C  20.98700 -11.25900 47.83600
O  20.01600 -11.48400 47.13700
C  21.24500 -12.40400 48.86900
N  25.77600 -9.31500 50.03200
C  24.70800 -10.16900 50.34800
C  25.07400 -11.00400 51.55900
C  26.56900 -10.73300 51.72500
C  26.79800 -9.49400 50.85700
C  24.18000 -10.68000 52.77400
C  27.56900 -11.83400 51.35300
C  28.73100 -12.03800 52.31000
N  27.25700 -7.21300 49.06400
C  28.20600 -7.68000 50.00000
C  29.41600 -6.88000 49.81300
C  29.15500 -6.01500 48.71100
C  27.84500 -6.26100 48.32100
C  30.67900 -7.01200 50.44800
C  29.74900 -5.00600 47.84300
O  30.87100 -4.53900 47.83600
C  28.68100 -4.56300 46.94000
C  28.27900 -3.25700 47.38300
O  27.87300 -2.95000 48.49900
O  28.37400 -2.28900 46.45000
C  28.04100 -0.95200 46.91300
H  22.28700 -6.67900 45.43100
H  22.77600 -10.85600 50.13400
H  28.79500 -8.97700 51.49300
H  26.04600 -3.66000 45.62600
H  24.28800 -5.37700 44.06700
H  22.74600 -3.89400 44.47000
H  23.92200 -3.03200 45.39800
H  22.88300 -4.22300 46.31400
H  26.10200 -5.64200 43.29100
H  27.49500 -5.87500 44.28600
H  28.52800 -4.30800 43.36700
H  27.20000 -3.12400 43.81600
H  20.51400 -7.71400 45.37600
H  19.58700 -8.92000 46.03400
H  20.72100 -9.38600 44.72500
H  22.22900 -12.86600 48.79600
H  20.53900 -13.16700 48.54100
H  20.87900 -12.07100 49.84000
H  24.90400 -12.07000 51.41000
H  26.81500 -10.50000 52.76100
H  23.97300 -11.59700 53.32500
H  23.22000 -10.38400 52.35000
H  24.64900 -9.90100 53.37500
H  28.11900 -11.48000 50.48100
H  26.99300 -12.75900 51.32800
H  29.39200 -12.80000 51.89900
H  28.18600 -12.34300 53.20300
H  29.27300 -11.10700 52.47600
H  31.33700 -6.37300 49.85800
H  30.97200 -8.05900 50.37700
H  30.63400 -6.76100 51.50700
H  28.90500 -4.42700 45.88200
H  28.82500 -0.54000 47.54800
H  27.05700 -0.86800 47.37500
H  28.14800 -0.34800 46.01300
Mg 6.45900 56.30900 41.47500
C  5.45800 52.90200 41.79900
C  9.54600 54.95600 40.40900
C  7.53900 59.38700 40.88400
C  3.31100 57.36200 41.94800
N  7.34600 54.10800 41.03700
C  6.72300 52.92600 41.11700
C  7.56000 51.81600 40.61200
C  8.95900 52.44200 40.66600
C  8.60900 53.91400 40.64700
C  9.76000 52.07200 42.02200
C  7.18600 51.32800 39.24100
C  7.72600 49.97000 38.80400
H  8.52500 50.02300 37.52300
N  8.30600 57.08700 40.79900
C  9.44400 56.35400 40.47900
C  10.52500 57.30100 40.25100
C  9.95200 58.64600 40.34800
C  8.58100 58.44700 40.71700
C  11.92200 56.90200 39.76500
C  10.70800 59.91900 40.27300
O  11.86100 59.90200 40.06500
C  9.99200 61.23300 40.38900
N  5.54100 58.14300 41.38000
C  6.15100 59.27800 41.17000
C  5.17400 60.47200 41.29800
C  3.80100 59.88300 41.73700
C  4.23200 58.37500 41.68300
C  5.57100 61.61800 42.30500
C  2.54800 60.33500 40.95500
C  1.60700 61.19900 41.87800
N  4.70500 55.39800 41.80100
C  3.51200 55.96000 42.12900
C  2.65700 54.97100 42.62100
C  3.40500 53.70100 42.56000
C  4.66400 54.04000 42.10200
C  1.32000 55.22300 43.08600
C  3.38300 52.29600 42.75100
O  2.51900 51.56300 43.12900
C  4.79800 51.75300 42.41700
C  4.64000 50.66100 41.38000
O  3.98500 50.79100 40.37900
O  5.14600 49.45300 41.85100
C  4.80400 48.21600 41.12700
H  10.56900 54.60800 40.25400
H  7.75800 60.44200 40.70800
H  2.31000 57.68300 42.24400
H  7.48900 50.94700 41.26600
H  9.54500 52.24900 39.76800
H  10.70600 51.61300 41.73400
H  9.25800 51.29300 42.59600
H  9.97800 52.94300 42.63900
H  7.44200 52.12000 38.53900
H  6.09700 51.32100 39.29600
H  6.94100 49.23600 38.62000
H  8.39900 49.53500 39.54300
H  11.78700 56.48900 38.76500
H  12.31500 56.12900 40.42600
H  12.63400 57.72600 39.73100
H  9.53900 61.27500 41.37900
H  9.24200 61.23600 39.59900
H  10.60100 62.13600 40.34900
H  5.11800 60.87900 40.28800
H  3.72800 60.13700 42.79500
H  5.05900 61.55300 43.26500
H  5.10000 62.53700 41.95500
H  6.65800 61.66700 42.37200
H  1.95700 59.61100 40.39400
H  2.94600 60.91100 40.12000
H  0.60500 60.81000 42.06300
H  1.61200 62.12600 41.30500
H  2.11200 61.51800 42.78900
H  1.14600 55.91200 43.91200
H  0.89200 54.24000 43.28700
H  0.76300 55.61000 42.23300
H  5.28900 51.42700 43.33400
H  3.72600 48.05600 41.10300
H  5.30600 47.33100 41.51800
H  4.98800 48.41200 40.07100

