158

Mg -1.85600 17.49800 27.32700
C  -2.34500 15.54900 30.09600
C  -2.86100 20.29900 29.14100
C  -1.33600 19.39600 24.44500
C  -1.64900 14.63200 25.38000
N  -2.36600 17.89400 29.49500
C  -2.47300 16.91300 30.47200
C  -2.69400 17.61100 31.85700
C  -3.27000 18.99900 31.42300
C  -2.78200 19.14400 29.90700
C  -4.75200 19.23500 31.43900
C  -1.45300 17.55900 32.77400
C  -1.80600 17.40700 34.31900
H  -0.71000 17.72900 35.32800
N  -1.88300 19.59100 26.95000
C  -2.39100 20.55500 27.83700
C  -2.29800 21.84100 27.18700
C  -1.76200 21.59500 25.85100
C  -1.62000 20.13400 25.68900
C  -2.64100 23.17600 27.83800
C  -1.38800 22.62000 24.82500
O  -1.02000 22.29800 23.71700
C  -1.51300 24.07000 25.12500
N  -1.56300 17.04700 25.17000
C  -1.34800 18.04400 24.16300
C  -1.07300 17.37600 22.76900
C  -0.99800 15.88200 23.20400
C  -1.42400 15.78500 24.65500
C  -2.23300 17.68100 21.79300
C  0.47600 15.23400 23.04200
C  1.49400 16.06200 23.85600
N  -2.05400 15.46100 27.54900
C  -2.01700 14.40600 26.70800
C  -2.21300 13.16200 27.42500
C  -2.31600 13.57100 28.81000
C  -2.22700 14.96200 28.81500
C  -2.27500 11.79100 26.74000
C  -2.49900 13.09500 30.13200
O  -2.58700 11.94900 30.56900
C  -2.42700 14.36900 31.05800
C  -1.19400 14.16600 31.79200
O  -0.02000 14.17400 31.41700
O  -1.52500 14.07600 33.12800
C  -0.42800 13.87000 34.06800
H  -3.21300 21.15500 29.72000
H  -1.13100 20.02100 23.57400
H  -1.51900 13.76400 24.73100
H  -3.40500 16.93000 32.32500
H  -2.85200 19.85400 31.95500
H  -5.22400 18.26600 31.27500
H  -5.18300 19.81000 30.61900
H  -5.06800 19.78700 32.32400
H  -0.81300 18.42900 32.62500
H  -0.79700 16.71000 32.58300
H  -2.12300 16.42400 34.66700
H  -2.67500 18.03700 34.51000
H  -1.73700 23.78400 27.83600
H  -2.80900 23.07000 28.91000
H  -3.57100 23.66700 27.55000
H  -1.66800 24.52400 24.14600
H  -0.62300 24.42700 25.64400
H  -2.35800 24.38900 25.73600
H  -0.16600 17.67900 22.24500
H  -1.67500 15.32600 22.55500
H  -3.15000 17.43200 22.32600
H  -2.11100 17.22100 20.81300
H  -2.28100 18.76500 21.68600
H  0.80600 15.17600 22.00500
H  0.41600 14.20000 23.38100
H  2.17900 15.32100 24.26600
H  1.10300 16.80000 24.55700
H  2.14100 16.61500 23.17500
H  -2.01700 11.82400 25.68200
H  -3.28100 11.37600 26.80300
H  -1.62900 11.08300 27.25900
H  -3.30400 14.51200 31.69000
H  -0.64600 14.35200 35.02100
H  0.54200 14.25400 33.75100
H  -0.35600 12.78800 34.17700
Mg -5.11800 25.59400 26.58800
C  -3.65500 26.82600 29.64000
C  -7.26100 23.64300 28.48800
C  -6.18300 24.21100 23.70300
C  -2.98300 27.50300 24.81900
N  -5.27200 25.18000 28.74400
C  -4.62900 25.84400 29.77400
C  -5.24100 25.38900 31.11900
C  -6.22000 24.22500 30.71900
C  -6.29200 24.32400 29.22000
C  -5.70400 22.86800 31.22900
C  -5.98100 26.58600 31.91800
C  -7.04100 26.31500 33.03000
H  -6.70400 25.24500 34.10000
N  -6.51500 24.26200 26.15200
C  -7.31600 23.58100 27.08800
C  -8.25300 22.76700 26.38300
C  -7.96000 22.87700 25.00800
C  -6.81600 23.79200 24.90500
C  -9.32100 22.06300 27.15200
C  -8.60500 22.22700 23.81700
O  -8.30400 22.50500 22.63700
C  -9.55200 21.06700 24.13500
N  -4.62400 25.77300 24.55100
C  -5.18000 25.11700 23.53100
C  -4.46700 25.39100 22.27000
C  -3.63300 26.68300 22.52400
C  -3.79300 26.76200 24.04900
C  -3.64400 24.16800 21.72400
C  -4.09100 27.96100 21.77300
C  -3.10200 28.41500 20.72800
N  -3.56600 26.87300 27.03500
C  -2.84900 27.65400 26.17500
C  -1.89300 28.50500 26.97200
C  -2.24400 28.26000 28.34000
C  -3.25500 27.28200 28.29400
C  -0.83400 29.38600 26.41000
C  -1.97300 28.64200 29.72900
O  -1.24900 29.53900 30.20500
C  -2.93600 27.70400 30.65900
C  -2.13200 27.01200 31.70500
O  -1.45300 26.00100 31.63100
O  -2.27600 27.71400 32.88100
C  -2.21000 26.93700 34.13200
H  -7.87400 22.91400 29.02100
H  -6.47800 23.90900 22.69600
H  -2.18500 27.98300 24.24800
H  -4.48400 25.09900 31.84700
H  -7.22200 24.32100 31.13900
H  -4.98100 22.99100 32.03600
H  -5.21100 22.42300 30.36400
H  -6.54900 22.27500 31.57800
H  -6.40500 27.09500 31.05200
H  -5.26000 27.28000 32.34900
H  -7.86400 25.97900 32.39900
H  -7.32300 27.27400 33.46600
H  -9.01000 21.07400 27.49000
H  -10.20000 21.76000 26.58300
H  -9.68900 22.65800 27.98800
H  -9.87100 20.63600 23.18600
H  -10.48200 21.36400 24.61900
H  -9.05200 20.30400 24.73200
H  -5.28900 25.68100 21.61500
H  -2.56700 26.51500 22.36700
H  -3.38300 23.45600 22.50700
H  -2.77900 24.56100 21.19000
H  -4.27700 23.68000 20.98300
H  -4.25400 28.81200 22.43500
H  -5.04200 27.81900 21.26000
H  -3.42400 28.09100 19.73800
H  -2.07700 28.09100 20.90200
H  -3.09100 29.50500 20.68800
H  -0.43700 28.98800 25.47600
H  -0.03600 29.58600 27.12500
H  -1.30600 30.35600 26.25700
H  -3.73700 28.28500 31.11600
H  -1.29600 27.22200 34.65400
H  -2.32800 25.86700 33.96200
H  -3.08500 27.20800 34.72300

