158

Mg 16.93400 53.48200 26.97600
C  19.04800 51.78200 29.33900
C  14.85400 54.14200 29.40800
C  14.85300 54.96800 24.62200
C  19.12200 52.46000 24.36000
N  16.86500 52.85400 29.02600
C  17.81400 52.28400 29.76600
C  17.38100 52.16600 31.20900
C  15.89700 52.54900 31.17100
C  15.84700 53.24100 29.79700
C  14.85000 51.40100 31.20500
C  18.29700 53.17700 32.08500
C  18.25800 53.10100 33.58800
H  17.23400 52.14200 34.17600
N  15.21000 54.55200 27.05600
C  14.50800 54.73500 28.19600
C  13.44800 55.66000 27.94900
C  13.38400 55.87000 26.53000
C  14.58800 55.14800 26.01000
C  12.47100 56.21200 29.03700
C  12.56200 56.72100 25.66300
O  12.70000 56.85000 24.51500
C  11.56500 57.59800 26.26600
N  16.96800 53.71900 24.79600
C  15.99500 54.37100 24.04700
C  16.24700 54.25300 22.52800
C  17.77900 53.73400 22.53700
C  17.98600 53.25500 23.96800
C  15.13900 53.33800 21.89400
C  18.88200 54.63600 21.78700
C  20.19400 54.91100 22.57800
N  18.79500 52.33500 26.74500
C  19.53700 52.05400 25.64100
C  20.78000 51.35700 26.19300
C  20.61400 51.26900 27.58500
C  19.38900 51.84500 27.93300
C  21.84900 50.78300 25.35500
C  21.24500 50.69700 28.84500
O  22.34400 50.22300 29.10800
C  20.28600 51.15800 30.00300
C  19.81000 50.02400 30.83300
O  19.09000 49.15300 30.33900
O  20.23700 50.04900 32.11900
C  19.85700 48.93200 32.99200
H  14.14400 54.33600 30.21400
H  14.12800 55.34400 23.89700
H  19.83200 52.04800 23.64100
H  17.45700 51.10900 31.46700
H  15.71500 53.25500 31.98100
H  14.72800 50.91500 32.17300
H  15.21200 50.69600 30.45600
H  13.84900 51.75800 30.96400
H  18.07900 54.19400 31.75700
H  19.34600 52.98200 31.86200
H  18.00500 54.14800 33.75300
H  19.25900 52.98300 34.00300
H  12.88200 55.98200 30.02100
H  11.51900 55.73000 28.81500
H  12.25900 57.27800 28.96100
H  12.17900 58.40700 26.66200
H  10.97600 57.09600 27.03300
H  10.91700 58.02300 25.50000
H  16.21600 55.22400 22.03300
H  17.79800 52.80000 21.97600
H  15.55200 52.46500 21.38800
H  14.62800 53.89600 21.10900
H  14.30500 52.96100 22.48600
H  18.36600 55.46000 21.29500
H  18.97700 53.97700 20.92400
H  19.99400 55.12700 23.62700
H  20.84400 55.68300 22.16400
H  20.80400 54.01500 22.46900
H  22.44100 49.96800 25.77000
H  22.47400 51.57300 24.93900
H  21.31000 50.35300 24.51100
H  20.73300 51.92900 30.63100
H  20.43100 48.85500 33.91600
H  20.05800 48.00600 32.45300
H  18.80000 48.93600 33.25700
Mg -1.76200 34.85500 25.73500
C  -3.77000 33.33900 28.31800
C  -1.10000 37.47800 27.99900
C  0.04700 36.40900 23.37700
C  -2.82100 32.44100 23.66600
N  -2.67600 35.54700 27.79500
C  -3.20600 34.59100 28.70000
C  -3.17300 35.17700 30.19200
C  -2.47200 36.54900 30.01300
C  -2.08500 36.54500 28.50600
C  -3.41500 37.80600 30.24700
C  -2.49900 34.23300 31.22300
C  -3.19600 34.07900 32.64400
H  -2.52400 34.82300 33.74600
N  -0.66400 36.73700 25.66400
C  -0.50400 37.61200 26.73900
C  0.35300 38.69900 26.29900
C  0.76300 38.33600 25.03200
C  0.05900 37.13500 24.63300
C  0.66200 39.94300 27.09100
C  1.78100 38.93600 24.17300
O  2.13200 38.47700 23.10500
C  2.59500 40.10100 24.71800
N  -1.61700 34.58400 23.72100
C  -0.71300 35.30500 22.97100
C  -0.44500 34.45500 21.60900
C  -1.19400 33.12900 21.88900
C  -1.93300 33.39200 23.15400
C  -1.12600 35.18400 20.38500
C  -0.30400 31.80100 21.98800
C  0.97900 31.82900 22.87500
N  -3.10000 33.27600 25.86600
C  -3.33900 32.32900 24.92000
C  -4.24800 31.32200 25.49300
C  -4.45700 31.64000 26.87600
C  -3.76200 32.84000 27.03600
C  -4.80800 30.15700 24.69900
C  -5.05800 31.24600 28.07900
O  -5.82600 30.35900 28.36800
C  -4.55200 32.33400 29.15900
C  -5.67800 32.87100 29.91800
O  -6.30800 33.90100 29.72700
O  -5.89300 32.12000 31.03600
C  -6.95200 32.53200 31.98800
H  -0.75200 38.17200 28.76700
H  0.70300 36.56200 22.51700
H  -3.04000 31.61700 22.98300
H  -4.20600 35.36400 30.48600
H  -1.64100 36.65300 30.71100
H  -4.34200 37.45000 30.69700
H  -3.60000 38.42300 29.36800
H  -2.83800 38.41500 30.94300
H  -1.49200 34.59800 31.42100
H  -2.46000 33.20000 30.87900
H  -3.26500 33.01700 32.87900
H  -4.19000 34.49100 32.47000
H  1.71400 40.14900 27.28600
H  0.01200 39.90700 27.96500
H  0.21900 40.80500 26.59400
H  2.07300 41.05200 24.82500
H  3.38800 40.31300 24.00100
H  3.21500 39.76000 25.54700
H  0.63900 34.46400 21.50000
H  -1.96000 32.85200 21.16500
H  -1.73800 35.97400 20.81900
H  -1.80700 34.52300 19.84800
H  -0.39700 35.65600 19.72700
H  0.13300 31.50900 21.03300
H  -0.96500 31.05800 22.43400
H  0.88300 31.12600 23.70300
H  1.09400 32.86500 23.19100
H  1.87000 31.58900 22.29500
H  -3.93400 29.76400 24.17800
H  -5.50000 30.53200 23.94500
H  -5.34000 29.42600 25.30800
H  -3.89900 31.88200 29.90500
H  -6.51600 33.45100 32.38000
H  -6.97100 31.76000 32.75700
H  -7.91700 32.71500 31.51600

