158

Mg 7.23700 3.18800 27.27400
C  8.80200 2.04900 30.16200
C  5.19400 5.26200 29.10900
C  5.93400 4.31000 24.43000
C  8.77800 0.58800 25.59700
N  7.03100 3.56600 29.42200
C  7.81300 3.05500 30.45400
C  7.35100 3.59900 31.78900
C  6.03600 4.34200 31.50400
C  6.01400 4.37000 29.91000
C  4.77300 3.69000 32.00200
C  8.39000 4.37100 32.60600
C  8.28600 4.16800 34.14800
H  9.38700 4.66300 35.10700
N  5.83700 4.81100 26.80800
C  5.11000 5.53100 27.73100
C  4.23600 6.46400 27.00300
C  4.39100 6.10900 25.62700
C  5.39100 5.02400 25.54100
C  3.47100 7.56600 27.76900
C  3.75400 6.75800 24.45300
O  3.83900 6.36000 23.29600
C  2.69900 7.88600 24.59900
N  7.26200 2.47100 25.33600
C  6.80400 3.22400 24.29700
C  7.13700 2.62600 22.94400
C  8.07400 1.42700 23.36200
C  8.04200 1.46500 24.87400
C  5.87000 2.25200 22.13700
C  9.54700 1.46400 22.79400
C  10.08800 0.31700 21.97100
N  8.49300 1.65000 27.70600
C  9.02400 0.70900 26.93400
C  9.91100 -0.11800 27.61800
C  9.87900 0.39000 28.89500
C  9.02000 1.47100 28.91000
C  10.73400 -1.23300 27.18600
C  10.41600 0.19100 30.27100
O  11.23000 -0.60500 30.65100
C  9.59900 1.22900 31.14200
C  8.67900 0.60200 32.13100
O  7.49700 0.35200 32.02000
O  9.41300 0.30800 33.23700
C  8.71500 -0.47400 34.32400
H  4.63300 5.94200 29.75200
H  5.54300 4.63500 23.46400
H  9.38200 -0.20100 25.14500
H  7.16900 2.82200 32.53100
H  6.07100 5.40100 31.75900
H  4.89200 2.67600 32.38400
H  4.15200 3.59200 31.11200
H  4.19900 4.15200 32.80500
H  8.23200 5.44400 32.49700
H  9.38000 4.15300 32.20600
H  8.18600 3.15900 34.54800
H  7.45100 4.80600 34.43600
H  3.79800 8.53600 27.39600
H  3.68800 7.57300 28.83700
H  2.40300 7.50200 27.56100
H  2.38500 8.34500 23.66200
H  3.30600 8.58700 25.17300
H  1.95700 7.46200 25.27600
H  7.75700 3.34000 22.40100
H  7.50300 0.59100 22.95700
H  4.93400 2.37200 22.68200
H  5.84100 1.20300 21.84300
H  5.76200 2.98700 21.33900
H  10.33300 1.68600 23.51600
H  9.53300 2.29900 22.09400
H  10.11000 0.55000 20.90600
H  9.51100 -0.58900 22.15700
H  11.12500 0.12100 22.24400
H  11.53200 -1.34300 27.92100
H  11.27200 -0.94400 26.28300
H  10.27400 -2.21900 27.11300
H  10.34800 1.76900 31.72100
H  8.04200 0.23700 34.80300
H  9.40400 -0.73500 35.12700
H  8.10700 -1.32000 34.00300
Mg -11.82700 38.11300 41.34100
C  -9.55400 35.45800 40.96500
C  -9.48800 40.17900 39.86300
C  -14.27400 40.32600 40.89500
C  -14.15100 35.81000 42.66200
N  -9.83800 37.75300 40.35200
C  -9.05400 36.64800 40.33100
C  -7.69400 36.85700 39.66200
C  -7.64900 38.38500 39.77100
C  -9.04600 38.84200 39.96200
C  -6.57900 38.94100 40.75800
C  -7.61900 36.20100 38.21500
C  -6.24800 35.53700 37.88200
H  -5.42000 36.16000 36.83100
N  -11.88700 40.02100 40.38200
C  -10.80900 40.75700 40.04700
C  -11.21100 42.11000 39.79400
C  -12.63000 42.19900 40.03800
C  -12.98500 40.77000 40.45200
C  -10.23700 43.25100 39.45500
C  -13.47900 43.46800 39.95400
O  -13.00600 44.53400 39.58600
C  -14.99700 43.42100 40.05600
N  -13.92500 38.03000 41.73400
C  -14.72100 39.10100 41.44100
C  -16.20400 38.87200 41.77600
C  -16.10400 37.37500 42.32500
C  -14.65200 37.01600 42.22400
C  -16.85000 39.87000 42.74800
C  -16.94900 36.40900 41.48200
C  -18.44500 36.50700 41.65200
N  -11.85100 36.05200 41.87900
C  -12.80800 35.26600 42.54700
C  -12.21000 33.95000 42.82000
C  -10.95900 34.00700 42.16700
C  -10.82000 35.21700 41.54000
C  -12.95700 32.91300 43.60000
C  -9.75400 33.26900 41.92400
O  -9.42300 32.13300 42.31500
C  -8.81100 34.16700 41.05900
C  -7.58500 34.19300 41.83100
O  -6.74900 33.30300 41.79500
O  -7.41900 35.36300 42.49100
C  -6.31000 35.22000 43.38100
H  -8.70200 40.88600 39.59100
H  -15.04600 41.07100 40.69000
H  -14.86200 35.12800 43.13400
H  -6.82600 36.52300 40.23000
H  -7.29000 38.85200 38.85400
H  -5.99600 38.13800 41.21000
H  -7.16800 39.38500 41.56100
H  -5.97000 39.69900 40.26600
H  -7.84800 36.99800 37.50800
H  -8.37400 35.41700 38.15700
H  -6.47600 34.50400 37.61700
H  -5.62800 35.44300 38.77400
H  -10.42900 43.61100 38.44400
H  -9.19400 43.04100 39.21800
H  -10.28600 44.04100 40.20400
H  -15.51000 44.37200 39.91200
H  -15.22100 42.98100 41.02800
H  -15.31100 42.66800 39.33400
H  -16.83700 38.85300 40.88800
H  -16.28500 37.32400 43.39800
H  -17.28500 39.34200 43.59700
H  -17.56400 40.48200 42.19700
H  -16.12000 40.57400 43.14800
H  -16.60600 35.37600 41.54700
H  -16.75900 36.71800 40.45400
H  -18.73600 35.46700 41.80000
H  -18.97100 36.92900 40.79600
H  -18.66900 37.09900 42.54000
H  -12.42400 32.56400 44.48500
H  -13.14100 32.02700 42.99300
H  -13.87000 33.36500 43.98900
H  -8.73500 33.65200 40.10100
H  -5.42100 35.20200 42.75100
H  -6.33900 34.29900 43.96300
H  -6.29200 36.07300 44.06000

