158

Mg 26.23300 50.83900 26.52100
C  23.81100 51.97400 28.92000
C  28.34500 50.19600 29.13300
C  28.57900 50.01400 24.30900
C  24.15300 52.01700 24.00300
N  26.02300 51.01500 28.72500
C  24.92700 51.41600 29.48300
C  25.29000 51.40400 30.99000
C  26.74000 50.83200 31.00400
C  27.08600 50.71200 29.52700
C  27.78500 51.52700 31.83900
C  24.29300 50.68800 31.88400
C  24.21800 51.21700 33.24800
H  23.90100 50.25700 34.39300
N  28.17900 50.15000 26.70300
C  28.94700 50.00800 27.84200
C  30.23200 49.52200 27.51900
C  30.32900 49.47100 26.07500
C  29.03000 49.91100 25.62300
C  31.21300 48.89700 28.53100
C  31.49800 48.90200 25.07600
O  31.43100 48.80100 23.86100
C  32.78100 48.68400 25.66000
N  26.29200 50.92400 24.40000
C  27.33800 50.38700 23.71100
C  27.10500 50.71300 22.22600
C  25.68600 51.38600 22.07700
C  25.32500 51.48100 23.56500
C  28.27600 51.45500 21.59000
C  24.58600 50.72300 21.20000
C  24.10100 51.49900 19.99400
N  24.44200 51.83200 26.38000
C  23.71300 52.19200 25.29700
C  22.51300 52.88300 25.78200
C  22.53700 52.87400 27.18500
C  23.71200 52.16200 27.51100
C  21.44400 53.46400 24.93900
C  21.79200 53.06300 28.45500
O  20.68600 53.62800 28.64600
C  22.66700 52.68400 29.58500
C  22.98000 53.93600 30.39700
O  23.67200 54.86500 30.02400
O  22.38500 53.84300 31.67700
C  22.60500 54.86000 32.65000
H  28.98500 49.84200 29.94400
H  29.25200 49.61700 23.54700
H  23.47900 52.44200 23.25600
H  25.36200 52.43900 31.32500
H  26.71300 49.82700 31.42500
H  27.99700 52.53000 31.46900
H  28.66500 50.90300 31.99400
H  27.24000 51.61900 32.77800
H  24.50600 49.62100 31.94700
H  23.26200 50.75300 31.53500
H  23.37200 51.89800 33.33800
H  25.02500 51.88300 33.55600
H  30.93100 49.22300 29.53200
H  32.28100 49.11100 28.48300
H  31.21500 47.80900 28.59800
H  32.83600 49.55800 26.30800
H  33.59600 48.57600 24.94400
H  32.77700 47.74700 26.21700
H  27.03900 49.70600 21.81400
H  25.83400 52.40000 21.70500
H  28.88700 50.87600 20.89800
H  28.85500 51.85700 22.42200
H  27.91600 52.32800 21.04500
H  23.75800 50.44500 21.85300
H  24.95700 49.80100 20.75200
H  24.40200 51.09000 19.03000
H  24.45100 52.52900 20.06000
H  23.01400 51.50900 20.07200
H  21.87200 53.97700 24.07800
H  20.90200 54.11200 25.62700
H  20.83700 52.69500 24.46000
H  22.01900 51.97500 30.10000
H  22.77800 55.80500 32.13500
H  23.36400 54.56000 33.37300
H  21.65800 55.06400 33.15100
Mg -0.08100 43.58500 26.20600
C  2.13500 43.41100 28.98700
C  -2.53600 42.55100 28.41700
C  -2.17100 43.56000 23.64300
C  2.57900 44.20300 24.12100
N  -0.09400 42.95400 28.56600
C  0.87900 43.08600 29.47200
C  0.31900 42.94200 30.90400
C  -1.16100 42.46700 30.59900
C  -1.32200 42.76700 29.09300
C  -1.55000 41.00100 31.02400
C  0.40600 44.24700 31.75200
C  0.84500 44.19600 33.24500
H  0.73000 42.91300 33.99600
N  -2.07200 43.12000 26.04700
C  -2.91900 42.77500 27.09600
C  -4.32600 42.67100 26.59400
C  -4.26200 43.07100 25.20100
C  -2.80900 43.33700 24.94100
C  -5.48400 42.21800 27.45100
C  -5.35100 43.17300 24.13300
O  -5.10400 43.43800 22.99000
C  -6.78200 42.87500 24.50500
N  0.19100 43.80700 24.10800
C  -0.84400 43.86700 23.24800
C  -0.40100 44.26300 21.87000
C  1.09200 44.64300 22.13000
C  1.30300 44.23900 23.52700
C  -0.56400 43.08600 20.93100
C  1.44600 46.13700 21.75800
C  1.31600 47.10800 22.98600
N  1.94200 43.66600 26.47000
C  2.89200 43.89000 25.48800
C  4.26800 43.81800 26.13200
C  4.02900 43.67300 27.53100
C  2.56100 43.61300 27.66400
C  5.49200 44.01200 25.32700
C  4.63600 43.47400 28.84400
O  5.77200 43.52100 29.21800
C  3.39300 43.43700 29.77600
C  3.57200 42.24300 30.54100
O  3.28400 41.10900 30.25600
O  4.08800 42.53600 31.77000
C  4.36200 41.36700 32.65700
H  -3.30300 42.21300 29.11700
H  -2.81200 43.62900 22.76200
H  3.36800 44.27600 23.36900
H  0.98300 42.20800 31.36100
H  -1.91100 43.10400 31.06800
H  -2.47200 41.02400 31.60500
H  -0.78900 40.40900 31.53300
H  -1.73000 40.38900 30.14000
H  -0.57600 44.72100 31.74800
H  1.03100 45.00700 31.28500
H  0.12900 44.82700 33.77200
H  1.82200 44.66500 33.35600
H  -6.44000 42.41700 26.96600
H  -5.48100 42.90300 28.29900
H  -5.44800 41.27200 27.99100
H  -7.45800 43.01100 23.66100
H  -7.10500 43.50100 25.33700
H  -6.89600 41.83500 24.80800
H  -1.02300 45.12200 21.61700
H  1.77800 43.98900 21.59200
H  -0.56000 43.38300 19.88300
H  -1.54100 42.64800 21.13600
H  0.14400 42.26800 21.06700
H  0.77700 46.35700 20.92600
H  2.45700 46.28300 21.37700
H  0.92100 48.05900 22.62900
H  2.37300 47.24900 23.21000
H  0.72000 46.73300 23.81900
H  5.46500 44.79700 24.57100
H  5.70400 43.08300 24.79700
H  6.27700 44.31200 26.02100
H  3.51200 44.23100 30.51300
H  4.86800 40.58800 32.08700
H  3.44200 40.97700 33.09300
H  4.91600 41.65000 33.55200

