158

Mg 43.15500 41.88200 25.67700
C  42.35500 44.41900 28.00000
C  44.32700 39.97500 28.26100
C  44.27500 39.69300 23.42900
C  42.68800 44.27800 23.20700
N  43.18700 42.14600 27.90500
C  42.84000 43.24900 28.63500
C  43.00100 43.11000 30.05900
C  43.81900 41.76900 30.12400
C  43.80200 41.23300 28.67600
C  45.25600 41.93600 30.60700
C  41.75500 43.21900 31.02200
C  41.70000 42.27100 32.23500
H  40.74200 42.74100 33.37700
N  43.95100 39.94300 25.87300
C  44.41400 39.37500 27.02900
C  44.95200 38.06900 26.70500
C  44.85100 37.90200 25.27100
C  44.33800 39.21400 24.81800
C  45.59500 37.14100 27.69800
C  45.25500 36.69400 24.33700
O  45.10900 36.84900 23.12500
C  45.77800 35.47200 24.80600
N  43.43400 41.99900 23.59200
C  43.88800 40.95100 22.90000
C  44.01400 41.30900 21.36200
C  43.42400 42.76500 21.32400
C  43.04100 42.98300 22.83900
C  45.46800 41.08000 20.79300
C  42.23900 42.82200 20.30700
C  40.87300 42.39700 20.87600
N  42.59900 43.91900 25.57000
C  42.41100 44.75200 24.46000
C  41.96200 46.06400 24.90400
C  41.82900 45.91200 26.25500
C  42.24700 44.60300 26.62300
C  41.84000 47.25900 24.05100
C  41.41600 46.60500 27.44800
O  41.06700 47.79400 27.63900
C  41.65000 45.60500 28.64000
C  42.45400 46.34800 29.66200
O  43.64100 46.58200 29.50000
O  41.72000 46.61600 30.78000
C  42.55600 47.03200 31.88300
H  44.81600 39.39500 29.04600
H  44.63700 39.09000 22.59400
H  42.52700 44.95400 22.36400
H  43.55500 44.00300 30.34600
H  43.38500 41.09200 30.85900
H  45.61000 42.92600 30.89500
H  45.92900 41.62000 29.81000
H  45.45700 41.23500 31.41800
H  40.83700 42.99800 30.47800
H  41.75800 44.28000 31.27100
H  42.66400 41.93400 32.61600
H  41.24100 41.38800 31.79000
H  46.55100 36.88400 27.24100
H  45.01200 36.23300 27.85300
H  45.80000 37.50500 28.70500
H  45.63300 34.67800 24.07400
H  45.17000 35.25200 25.68400
H  46.81100 35.58700 25.13600
H  43.30900 40.69900 20.79700
H  44.07200 43.55200 20.93700
H  46.06700 40.31900 21.29200
H  46.05000 42.00200 20.82600
H  45.44700 40.74000 19.75800
H  42.42100 42.18300 19.44300
H  42.11600 43.85800 19.99300
H  40.29300 43.31600 20.96300
H  40.92600 41.84300 21.81300
H  40.46900 41.64400 20.20100
H  41.56900 46.94800 23.04200
H  42.80500 47.75700 24.13800
H  40.94600 47.78000 24.39300
H  40.68500 45.38200 29.09400
H  42.07700 47.88400 32.36800
H  43.55000 47.42500 31.66900
H  42.63500 46.20600 32.59000
Mg 7.18900 53.70500 41.63200
C  6.13200 50.36200 41.08700
C  10.30600 52.96600 40.46100
C  7.64300 56.97200 41.31800
C  3.76200 54.31500 42.32800
N  8.04200 51.88700 40.65300
C  7.50300 50.64000 40.67100
C  8.49100 49.61700 40.05600
C  9.81800 50.43800 40.24700
C  9.34400 51.88200 40.53400
C  10.82800 49.82900 41.24900
C  8.23300 49.21500 38.56800
C  8.14300 50.27900 37.48500
H  6.78300 50.36800 36.77400
N  8.82000 54.82000 41.07700
C  10.04300 54.36100 40.62300
C  10.93800 55.37700 40.34900
C  10.15000 56.54500 40.55300
C  8.81500 56.19800 41.02800
C  12.38600 55.23200 39.88000
C  10.75900 57.97200 40.44300
O  11.91200 58.18800 40.06300
C  9.83300 59.23000 40.67100
N  5.97600 55.41000 41.95400
C  6.41100 56.64100 41.89100
C  5.36300 57.72700 42.03300
C  4.06900 56.79800 42.21500
C  4.62500 55.41000 42.14900
C  5.58900 58.75300 43.19700
C  2.99800 57.05800 40.99900
C  1.71400 57.72200 41.47400
N  5.41100 52.57800 41.90100
C  4.13400 53.00100 42.29000
C  3.26700 51.87000 42.37000
C  3.99300 50.81800 41.90500
C  5.30500 51.28300 41.63300
C  1.83600 51.87000 42.78100
C  3.91000 49.39100 41.57700
O  3.07100 48.45800 41.69900
C  5.40200 49.10700 41.17800
C  5.25400 48.34500 39.86300
O  4.77800 48.77700 38.86000
O  5.86900 47.12800 39.93400
C  5.62000 46.24800 38.75800
H  11.36200 52.70600 40.36400
H  7.78100 58.05100 41.23000
H  2.77700 54.54300 42.74100
H  8.56300 48.73100 40.68800
H  10.42800 50.40800 39.34500
H  11.66700 49.29300 40.80500
H  10.34600 49.19600 41.99500
H  11.44200 50.56500 41.76800
H  7.26300 48.71800 38.57800
H  9.03900 48.50800 38.37000
H  8.93600 50.16000 36.74600
H  8.35500 51.16200 38.08900
H  12.60700 54.18100 39.69200
H  13.03500 55.59700 40.67600
H  12.46300 55.70200 38.90000
H  9.02400 59.17800 39.94200
H  10.38600 60.12100 40.37400
H  9.54100 59.22000 41.72100
H  5.25400 58.22800 41.07100
H  3.62800 56.88100 43.20800
H  4.87900 58.59900 44.01000
H  5.34500 59.72500 42.76800
H  6.61800 58.74100 43.55800
H  2.74700 56.13600 40.47500
H  3.36900 57.62500 40.14500
H  0.98900 56.90900 41.44100
H  1.41000 58.50000 40.77400
H  1.70500 58.18000 42.46300
H  1.20400 51.94300 41.89500
H  1.50800 52.57300 43.54700
H  1.57800 50.94400 43.29400
H  5.87500 48.37000 41.82800
H  4.54400 46.07400 38.72400
H  6.21000 45.34800 38.92800
H  5.94100 46.64700 37.79600

