158

Mg 48.47400 33.63100 26.72600
C  46.48500 32.23400 29.35400
C  48.80600 36.46400 28.63600
C  50.01000 34.94600 24.17600
C  47.48400 30.90100 24.73500
N  47.69500 34.24000 28.75300
C  47.10100 33.42900 29.71300
C  47.19200 34.14200 31.08500
C  47.57000 35.62400 30.67900
C  48.10300 35.42600 29.22700
C  46.35800 36.63700 30.75600
C  48.33200 33.52500 31.97100
C  48.15800 33.63900 33.56700
H  47.07900 34.46800 34.30600
N  49.26400 35.44100 26.36700
C  49.40400 36.42000 27.29200
C  50.17500 37.49000 26.70300
C  50.61300 37.03400 25.38000
C  49.98800 35.77000 25.25300
C  50.44300 38.77300 27.57700
C  51.35100 37.80500 24.29900
O  51.64000 37.27700 23.17600
C  51.84300 39.10700 24.52300
N  48.41200 33.18400 24.65600
C  49.30900 33.82600 23.88900
C  49.58500 33.10000 22.59100
C  48.86200 31.76300 22.83700
C  48.21500 31.92300 24.15600
C  49.11000 33.80200 21.31800
C  49.90100 30.54300 22.74600
C  49.93500 29.93200 21.37500
N  47.28000 31.96000 26.94400
C  46.97900 30.89500 26.04800
C  46.12700 29.82300 26.72100
C  45.90900 30.38800 27.99400
C  46.65200 31.65100 28.09600
C  45.58200 28.62800 26.09400
C  45.26100 30.11900 29.30600
O  44.64400 29.16800 29.71100
C  45.46400 31.42900 30.21700
C  45.93600 31.06500 31.63900
O  46.99800 30.60100 31.93700
O  44.93200 31.35500 32.55600
C  45.14200 30.64900 33.81300
H  48.98200 37.30300 29.31200
H  50.80600 35.08400 23.44200
H  47.42500 29.98200 24.14800
H  46.31300 34.15700 31.72900
H  48.35200 36.06800 31.29600
H  46.69600 37.55500 31.23700
H  45.54900 36.27200 31.38900
H  45.95800 36.87500 29.77100
H  49.35100 33.82900 31.73600
H  48.36400 32.46900 31.70300
H  49.17100 33.97800 33.78600
H  48.17100 32.62000 33.95200
H  49.57400 39.02100 28.18600
H  50.74800 39.64300 26.99600
H  51.29400 38.62100 28.24100
H  51.04600 39.78800 24.82300
H  52.23100 39.52300 23.59400
H  52.48800 38.96100 25.39000
H  50.67100 33.00700 22.62500
H  48.07900 31.45900 22.14200
H  48.04300 33.69600 21.12200
H  49.53000 33.56200 20.34100
H  49.19400 34.88100 21.44500
H  49.70300 29.72000 23.43300
H  50.93800 30.82500 22.92700
H  50.85400 30.25400 20.88600
H  49.06700 30.15500 20.75500
H  50.07800 28.85200 21.42900
H  46.34600 28.29900 25.38900
H  44.67200 28.92500 25.57300
H  45.30600 27.79700 26.74400
H  44.50700 31.94700 30.27300
H  45.87400 31.19000 34.41200
H  45.44700 29.62000 33.62500
H  44.19100 30.72200 34.34100
Mg 9.44100 48.03200 25.08900
C  7.28300 48.58300 27.74100
C  12.02100 48.94300 27.19300
C  11.55200 47.65100 22.64100
C  6.73000 47.76500 22.92300
N  9.63600 48.57800 27.28400
C  8.58900 48.67300 28.18400
C  9.10000 48.94500 29.53900
C  10.56200 49.42900 29.26400
C  10.79500 48.96100 27.81900
C  10.72000 50.96200 29.43300
C  8.98600 47.82800 30.57200
C  9.47700 48.13800 31.97600
H  8.94900 47.20700 33.10500
N  11.56400 48.26100 25.00200
C  12.43800 48.65300 25.90400
C  13.81600 48.50200 25.37600
C  13.73000 47.93100 24.03100
C  12.25400 47.92600 23.83900
C  14.95400 48.73400 26.19700
C  14.77900 47.44900 23.07200
O  14.45300 47.00000 21.94900
C  16.17400 47.41400 23.54600
N  9.20400 47.69500 23.13500
C  10.21600 47.61700 22.24200
C  9.76600 47.11700 20.85200
C  8.20200 47.30100 20.89700
C  7.99800 47.54100 22.39900
C  10.52700 47.69100 19.57500
C  7.44500 46.03000 20.34500
C  6.53100 46.34600 19.11400
N  7.34500 48.22900 25.23300
C  6.36100 47.98300 24.27200
C  5.04700 48.39700 24.89700
C  5.42200 48.43300 26.22400
C  6.82600 48.34600 26.38400
C  3.65900 48.33700 24.30800
C  4.83900 48.59900 27.54300
O  3.66500 48.73400 27.85500
C  6.02100 48.65500 28.62400
C  5.83200 47.43300 29.42500
O  6.02600 46.29800 28.95700
O  5.45600 47.72800 30.69800
C  5.30400 46.56800 31.54800
H  12.72100 49.38300 27.90700
H  12.25800 47.47700 21.82700
H  5.97900 47.83200 22.13300
H  8.46700 49.76200 29.88500
H  11.30200 48.90800 29.87300
H  9.76300 51.39700 29.72200
H  11.21600 51.46600 28.60300
H  11.37500 51.16100 30.28000
H  9.35600 46.97200 30.00800
H  7.95000 47.60300 30.82700
H  9.06200 49.12300 32.18900
H  10.56200 48.13600 31.86800
H  14.66000 48.75300 27.24700
H  15.35900 49.68200 25.84200
H  15.73000 48.00400 25.96700
H  16.62900 46.71600 22.84300
H  16.33200 46.95200 24.52100
H  16.65500 48.37700 23.37600
H  9.98700 46.05300 20.93700
H  7.85600 48.20100 20.38900
H  9.73100 47.91500 18.86600
H  11.08400 46.88700 19.09500
H  11.20300 48.50700 19.83300
H  6.89100 45.54300 21.14700
H  8.16700 45.33300 19.92100
H  5.53700 45.91200 19.22500
H  6.92200 45.89100 18.20500
H  6.35600 47.42000 19.03800
H  3.25300 49.31300 24.57300
H  3.08600 47.51300 24.73400
H  3.46900 48.50500 23.24800
H  5.83400 49.47600 29.31500
H  4.26900 46.24200 31.64900
H  5.70500 46.76200 32.54300
H  5.90400 45.69100 31.30500

