158

Mg 8.95000 2.92200 27.57500
C  10.59400 1.47700 30.29400
C  7.61400 5.14900 29.68400
C  7.41900 4.21000 24.91300
C  10.29800 0.47800 25.54500
N  8.92000 3.14400 29.79900
C  9.73600 2.54900 30.70800
C  9.52800 3.15000 32.14700
C  8.53600 4.30900 31.89500
C  8.25000 4.14300 30.41800
C  7.26800 4.39600 32.76700
C  10.78100 3.72000 32.82600
C  10.53400 4.52600 34.09400
H  11.40100 4.22900 35.31900
N  7.77400 4.45900 27.28400
C  7.41200 5.32800 28.31100
C  6.58200 6.35600 27.75600
C  6.52400 6.17400 26.35900
C  7.17000 4.89200 26.10500
C  6.05900 7.55300 28.61100
C  5.90100 7.04600 25.28300
O  6.05100 6.81500 24.13200
C  5.14300 8.24200 25.72100
N  8.86200 2.49000 25.50600
C  8.05700 3.07700 24.58000
C  8.25100 2.51000 23.22400
C  9.33200 1.42000 23.40900
C  9.62100 1.50900 24.93000
C  6.99100 2.09000 22.56400
C  10.61500 1.45400 22.44400
C  10.75000 0.40500 21.32900
N  10.20500 1.29900 27.83100
C  10.61100 0.40700 26.90400
C  11.38500 -0.59200 27.47300
C  11.47200 -0.21300 28.83100
C  10.72800 0.95500 28.96300
C  12.03000 -1.74600 26.81800
C  11.94800 -0.53100 30.16100
O  12.57900 -1.42700 30.71200
C  11.36700 0.58100 31.11400
C  10.45100 -0.07600 32.14000
O  9.44700 -0.71800 31.93400
O  10.90000 0.31300 33.36400
C  10.20300 -0.27400 34.49500
H  7.14100 5.91000 30.30700
H  6.98700 4.71000 24.04400
H  10.48400 -0.42700 24.96200
H  9.16200 2.37800 32.82400
H  9.03200 5.27900 31.87000
H  6.33100 4.34100 32.21200
H  7.25800 5.37800 33.23900
H  7.23500 3.68100 33.58800
H  11.31800 4.28800 32.06700
H  11.53500 2.97800 33.08800
H  9.47600 4.39700 34.32100
H  10.50600 5.60300 33.92700
H  6.50200 8.52800 28.40700
H  5.86700 7.30100 29.65300
H  5.01100 7.70900 28.35600
H  5.90100 8.74400 26.32200
H  4.25800 7.96800 26.29500
H  4.66500 8.74300 24.88000
H  8.64800 3.34900 22.65300
H  8.84800 0.45200 23.27700
H  7.01200 1.08200 22.15100
H  6.78400 2.77100 21.73800
H  6.18000 2.20100 23.28400
H  11.49800 1.36100 23.07600
H  10.80500 2.43500 22.00900
H  9.79000 -0.05900 21.10800
H  11.42600 -0.38700 21.65300
H  11.19300 0.68500 20.37300
H  12.85900 -1.33500 26.24200
H  11.45200 -2.34000 26.11000
H  12.32600 -2.30800 27.70400
H  12.15000 1.14200 31.62600
H  9.28700 -0.82500 34.27800
H  9.93100 0.40200 35.30600
H  10.85700 -0.99100 34.99300
Mg 46.28000 25.42800 28.47000
C  46.96600 27.57800 31.13200
C  45.16700 23.08100 30.61200
C  46.50500 23.15200 25.96600
C  47.59400 27.82900 26.35700
N  46.18900 25.32300 30.53900
C  46.41200 26.33400 31.43500
C  45.88500 25.93800 32.84000
C  45.47200 24.49800 32.68100
C  45.56800 24.32000 31.18300
C  46.39700 23.57300 33.49100
C  44.75800 26.95200 33.35500
C  45.09000 27.72800 34.65200
H  44.03100 27.73000 35.68600
N  45.79500 23.42200 28.31200
C  45.38700 22.56400 29.33500
C  45.10000 21.25500 28.85900
C  45.61900 21.22700 27.55100
C  46.04200 22.58500 27.23900
C  44.38500 20.23600 29.67600
C  45.71600 20.02600 26.59200
O  46.19700 20.12200 25.45900
C  45.31700 18.60300 27.05300
N  46.90100 25.48900 26.58400
C  46.92700 24.41200 25.69400
C  47.32300 24.78500 24.26000
C  47.41500 26.32800 24.32100
C  47.27500 26.58900 25.79500
C  48.73600 24.26700 23.71500
C  46.29800 27.10900 23.58700
C  44.79900 27.08400 24.11800
N  47.12500 27.30200 28.66100
C  47.57100 28.21200 27.69800
C  47.97200 29.39900 28.26400
C  47.86200 29.17300 29.68900
C  47.28500 27.87000 29.85100
C  48.38000 30.63000 27.54100
C  47.92900 29.88000 30.92900
O  48.21700 31.00600 31.28400
C  47.45100 28.75700 32.00900
C  48.57500 28.44100 32.87500
O  49.58700 27.85500 32.54500
O  48.33200 28.94700 34.13400
C  49.27300 28.39900 35.08300
H  44.66500 22.45700 31.35500
H  46.57300 22.45100 25.13200
H  47.88900 28.50600 25.55200
H  46.74500 26.08800 33.49300
H  44.43800 24.35400 32.99200
H  46.85300 24.08600 34.33700
H  47.03100 23.08200 32.75200
H  45.80100 22.83200 34.02400
H  43.93900 26.30400 33.66800
H  44.37500 27.60400 32.57000
H  45.09800 28.77600 34.35300
H  46.05500 27.33100 34.96600
H  43.41100 19.90300 29.31700
H  44.19200 20.52400 30.71000
H  45.03100 19.37100 29.82400
H  44.23000 18.57500 27.13100
H  45.82400 18.33800 27.98100
H  45.41900 17.75300 26.37800
H  46.63900 24.47300 23.47000
H  48.31900 26.83400 23.98300
H  49.53900 25.00300 23.73600
H  48.73400 23.92700 22.67900
H  49.00600 23.41300 24.33700
H  46.27600 26.67300 22.58800
H  46.63600 28.13900 23.47900
H  44.32100 26.45800 23.36500
H  44.26000 28.02000 24.26600
H  44.72700 26.57900 25.08200
H  48.30200 31.51500 28.17300
H  47.71500 30.66000 26.67800
H  49.43400 30.47200 27.31200
H  46.58400 29.17300 32.52100
H  49.01100 28.72900 36.08800
H  50.28600 28.76500 34.91800
H  49.28700 27.30900 35.08400

