158

Mg -0.93700 18.29500 27.28600
C  -1.56300 16.07400 30.19100
C  -1.93900 20.81300 29.17700
C  -0.70600 19.98200 24.53000
C  -0.45900 15.23900 25.50600
N  -1.53700 18.42400 29.52400
C  -1.71800 17.39600 30.52500
C  -1.90500 18.00600 31.90500
C  -2.32900 19.48200 31.46700
C  -1.92200 19.62500 29.97600
C  -3.85200 19.67200 31.56900
C  -0.72000 18.07100 32.83700
C  -1.12000 17.73400 34.26800
H  -0.08900 17.77500 35.29300
N  -1.16500 20.19500 26.93800
C  -1.56900 21.08600 27.83300
C  -1.66500 22.46000 27.18800
C  -1.39500 22.20300 25.76100
C  -1.06600 20.74000 25.66200
C  -2.16200 23.58300 27.94900
C  -1.33500 23.17200 24.55200
O  -1.00700 22.79900 23.42900
C  -1.80600 24.57100 24.67600
N  -0.42600 17.71300 25.39100
C  -0.41700 18.67300 24.38400
C  -0.30000 17.93200 22.93800
C  0.05600 16.52100 23.40100
C  -0.24000 16.44300 24.88700
C  -1.55300 17.96600 21.97500
C  1.51300 16.03300 23.08900
C  2.66000 16.95400 23.67300
N  -1.11200 16.07700 27.60600
C  -1.01200 14.99700 26.76400
C  -1.26400 13.74300 27.50100
C  -1.42100 14.11800 28.78200
C  -1.29600 15.52800 28.87300
C  -1.26300 12.38200 26.90500
C  -1.63900 13.59800 30.08400
O  -1.80800 12.42100 30.41600
C  -1.71200 14.87500 31.01700
C  -0.59400 14.78300 31.90600
O  0.58600 15.20200 31.63600
O  -0.99600 14.13700 33.02200
C  0.05500 13.92300 34.00600
H  -2.35300 21.67400 29.70400
H  -0.68700 20.49900 23.56800
H  -0.19500 14.31800 24.98200
H  -2.65900 17.41400 32.42400
H  -1.83200 20.31300 31.96800
H  -4.37700 18.82900 32.01900
H  -4.24100 19.85500 30.56700
H  -4.11600 20.55600 32.14900
H  -0.32700 19.08500 32.89700
H  0.14300 17.45600 32.58200
H  -1.43000 16.69100 34.19900
H  -2.00900 18.31100 34.52000
H  -1.84500 23.59700 28.99200
H  -3.24500 23.49600 27.86400
H  -1.85900 24.55800 27.56800
H  -1.59000 25.12000 23.75900
H  -1.17500 25.11700 25.37700
H  -2.82800 24.73800 25.01700
H  0.54300 18.37800 22.41100
H  -0.51300 15.78200 22.83700
H  -2.31400 17.36700 22.47600
H  -1.42500 17.58900 20.96000
H  -1.68600 19.03600 21.81100
H  1.60100 15.92300 22.00900
H  1.67800 15.02700 23.47600
H  2.97300 17.66200 22.90500
H  3.54400 16.32500 23.77200
H  2.41100 17.27500 24.68400
H  -1.13200 12.24600 25.83200
H  -2.21000 11.92500 27.19200
H  -0.57400 11.75400 27.47000
H  -2.65300 15.01000 31.54900
H  0.46900 14.89200 34.28500
H  0.86200 13.36600 33.53100
H  -0.41600 13.54400 34.91300
Mg -10.58100 39.37500 40.50600
C  -9.56200 36.31900 39.46000
C  -7.76600 40.76700 38.89600
C  -11.84200 42.56400 40.94300
C  -13.71600 38.14300 41.31300
N  -8.83700 38.58500 39.34900
C  -8.67300 37.29600 39.05500
C  -7.45400 37.03100 38.12400
C  -6.78200 38.41700 38.20500
C  -7.88300 39.37700 38.79100
C  -5.43100 38.48500 39.02800
C  -7.81500 36.60600 36.63600
C  -6.72200 36.54300 35.58800
H  -6.70100 37.63700 34.58500
N  -9.85700 41.38000 40.14000
C  -8.65800 41.68800 39.51600
C  -8.44100 43.11500 39.43200
C  -9.49100 43.62400 40.20300
C  -10.51600 42.55000 40.44400
C  -7.18800 43.89500 38.88700
C  -9.71300 45.04700 40.68400
O  -8.84200 45.91600 40.47100
C  -10.87400 45.46800 41.45100
N  -12.59000 40.24100 40.98800
C  -12.76400 41.52200 41.27000
C  -14.20400 41.86500 41.72100
C  -14.80000 40.38500 41.83700
C  -13.70000 39.56300 41.27800
C  -14.27700 42.76400 42.96700
C  -16.16900 40.13700 41.10100
C  -17.37100 40.42900 41.98800
N  -11.47600 37.60200 40.58100
C  -12.71500 37.20900 40.99600
C  -12.84000 35.76600 40.94500
C  -11.65800 35.45500 40.21600
C  -10.80700 36.58600 40.11200
C  -14.02100 34.87400 41.33100
C  -10.94300 34.36200 39.62500
O  -11.36400 33.20900 39.50900
C  -9.58000 34.85200 39.11900
C  -8.49600 34.15400 39.81100
O  -8.31100 34.14700 41.04200
O  -7.59300 33.70900 38.84000
C  -6.33100 33.23400 39.44800
H  -6.84300 41.09800 38.41700
H  -12.33100 43.51800 41.14900
H  -14.65900 37.65200 41.56300
H  -6.86300 36.29600 38.67000
H  -6.59200 38.81300 37.20800
H  -5.67600 39.21300 39.80000
H  -4.68100 38.78500 38.29600
H  -5.26000 37.52200 39.50900
H  -8.63000 37.20400 36.22900
H  -8.19800 35.59400 36.76800
H  -6.96200 35.57400 35.15300
H  -5.80400 36.57100 36.17500
H  -7.60300 44.65500 38.22400
H  -6.58000 43.21600 38.29000
H  -6.62700 44.40800 39.66900
H  -11.18500 44.73000 42.19100
H  -11.71000 45.64900 40.77700
H  -10.61500 46.36100 42.01900
H  -14.61800 42.41800 40.87800
H  -14.77300 40.15800 42.90300
H  -15.02900 43.54600 42.86100
H  -13.34400 43.30900 43.10500
H  -14.42000 42.18600 43.88000
H  -16.17900 39.15200 40.63500
H  -16.37400 40.86700 40.31800
H  -17.95000 39.51200 42.09400
H  -18.01300 41.19300 41.55000
H  -17.14100 40.81300 42.98200
H  -13.82300 33.85900 40.98700
H  -14.96500 35.19200 40.88800
H  -14.12500 34.83200 42.41600
H  -9.57900 34.73600 38.03600
H  -5.76300 32.68700 38.69500
H  -6.48800 32.57500 40.30100
H  -5.67900 34.02300 39.82500

