158

Mg 5.87400 55.58400 40.95500
C  4.32400 52.46100 41.10300
C  8.43000 54.15500 39.22100
C  7.16800 58.60300 40.71200
C  2.67300 57.04400 41.92600
N  6.10500 53.64600 39.94700
C  5.40300 52.50200 40.23600
C  5.88600 51.37000 39.29900
C  7.33300 51.81600 39.10500
C  7.30800 53.33300 39.44800
C  8.55000 51.03300 39.61200
C  4.97100 51.17500 37.98100
C  4.78000 49.75800 37.53200
H  5.43200 49.32300 36.21100
N  7.69100 56.23000 40.30900
C  8.69700 55.50900 39.64300
C  9.83700 56.35300 39.41300
C  9.53400 57.62100 39.92000
C  8.09700 57.58700 40.36100
C  11.23800 55.82500 39.05600
C  10.44400 58.91900 39.82200
O  11.60500 58.88500 39.40600
C  9.83900 60.24000 40.18300
N  4.92600 57.50000 41.15200
C  5.82000 58.62200 41.03300
C  5.07600 59.94500 41.33700
C  3.74500 59.40700 41.93400
C  3.75800 57.89200 41.75500
C  6.00100 60.96900 42.07200
C  2.49000 60.02100 41.26200
C  1.50600 60.79900 42.23400
N  3.84600 54.90600 41.45200
C  2.67900 55.62100 41.85200
C  1.66900 54.67000 42.10500
C  2.31600 53.39300 42.01000
C  3.57000 53.61400 41.50100
C  0.26900 54.94000 42.51200
C  2.18500 51.90800 42.20900
O  1.24900 51.28200 42.70000
C  3.53600 51.23500 41.64400
C  3.13000 50.16300 40.71600
O  2.36000 50.13000 39.77200
O  3.88500 49.00100 41.01500
C  3.54800 47.84500 40.18200
H  9.34000 53.70700 38.81800
H  7.40400 59.65400 40.53300
H  1.76700 57.46000 42.37300
H  6.05100 50.45900 39.87300
H  7.55000 51.82300 38.03600
H  8.21200 50.29800 40.34200
H  9.31500 51.69900 40.01200
H  8.99100 50.60000 38.71500
H  5.44700 51.68200 37.14100
H  3.99400 51.65700 38.03500
H  3.70200 49.62700 37.44700
H  5.05500 49.05000 38.31300
H  11.24500 54.74700 38.89800
H  12.04900 56.08600 39.73600
H  11.60800 56.40100 38.20800
H  10.56600 61.05000 40.23500
H  9.31800 60.12300 41.13400
H  9.10400 60.47600 39.41400
H  4.92500 60.33500 40.33000
H  3.78200 59.48000 43.02100
H  6.70600 60.31400 42.58400
H  5.50400 61.63700 42.77500
H  6.51700 61.72000 41.47400
H  1.81200 59.24800 40.90000
H  2.81500 60.70000 40.47400
H  1.90200 60.66100 43.24000
H  0.48700 60.42400 42.14300
H  1.51100 61.87600 42.06300
H  -0.27300 55.68100 41.92300
H  0.22100 55.07100 43.59300
H  -0.27200 54.01200 42.32600
H  4.01200 50.80500 42.52500
H  4.34800 47.10600 40.14900
H  3.41600 48.00400 39.11200
H  2.65600 47.38400 40.60600
Mg -10.47000 39.00500 40.21800
C  -8.98200 35.81800 40.32600
C  -7.65200 40.28500 38.79700
C  -12.27900 41.94900 39.63400
C  -13.43200 37.57800 41.51600
N  -8.54600 38.12800 39.62300
C  -8.11400 36.81100 39.73000
C  -6.81200 36.56900 38.98000
C  -6.33200 38.08300 38.93600
C  -7.61500 38.87500 39.05200
C  -5.30300 38.38400 40.08400
C  -7.09800 35.88500 37.60800
C  -6.11100 34.88000 37.00900
H  -5.29800 35.40800 35.82200
N  -10.04700 40.89600 39.30000
C  -8.72700 41.24100 38.97400
C  -8.77200 42.65000 38.69300
C  -10.09500 43.16800 38.84700
C  -10.92900 41.98500 39.21300
C  -7.51500 43.37200 38.40900
C  -10.45200 44.66200 38.58200
O  -9.61900 45.41500 38.19100
C  -11.84800 45.11000 38.70200
N  -12.66700 39.55800 40.23200
C  -13.03800 40.87300 40.16400
C  -14.51100 41.07200 40.50100
C  -14.89400 39.65800 41.04600
C  -13.60300 38.87600 40.92500
C  -14.59700 42.17900 41.59700
C  -16.25000 38.92800 40.49100
C  -17.51800 39.73200 40.45800
N  -11.11300 37.11200 40.95800
C  -12.29700 36.63400 41.48500
C  -12.13000 35.28100 41.93400
C  -10.86900 34.87100 41.43000
C  -10.25000 36.02500 40.82400
C  -13.11500 34.43700 42.76200
C  -9.99300 33.69500 41.30200
O  -10.05400 32.53300 41.69800
C  -8.83700 34.28000 40.37200
C  -7.47200 33.84000 40.86800
O  -6.83000 32.96100 40.28100
O  -7.20000 34.37900 42.16000
C  -5.90600 33.92500 42.80300
H  -6.66700 40.74400 38.68400
H  -12.86400 42.85300 39.45300
H  -14.31600 37.10000 41.94300
H  -6.14400 35.98100 39.61000
H  -5.88100 38.13300 37.94400
H  -5.79500 39.25400 40.51900
H  -4.27400 38.60900 39.80700
H  -5.26300 37.62500 40.86600
H  -7.31100 36.72100 36.94200
H  -8.04700 35.35000 37.64800
H  -6.59800 33.93000 36.78700
H  -5.40300 34.68600 37.81500
H  -7.54700 43.83000 37.42100
H  -6.62100 42.75000 38.46800
H  -7.38700 44.21800 39.08400
H  -12.44000 44.93800 39.60100
H  -12.35500 44.63300 37.86300
H  -11.85500 46.16200 38.41700
H  -15.14000 41.26700 39.63200
H  -15.10200 39.68800 42.11600
H  -15.24200 42.93200 41.14600
H  -13.62300 42.62200 41.80200
H  -15.11900 41.85300 42.49700
H  -16.31400 38.00700 41.07100
H  -16.05500 38.63100 39.46100
H  -17.39100 40.74000 40.85500
H  -18.25400 39.22500 41.08100
H  -17.82000 39.79200 39.41300
H  -12.78700 33.39800 42.80600
H  -14.09500 34.39300 42.28800
H  -13.26000 34.90100 43.73800
H  -8.98600 33.78100 39.41500
H  -5.13400 34.32900 42.14800
H  -5.81900 32.84200 42.88300
H  -5.87400 34.27600 43.83500

