158

Mg 17.34200 -2.48900 27.88000
C  16.51200 -0.81800 30.81200
C  19.24500 -4.70800 29.73900
C  18.32500 -3.83800 24.92500
C  15.42000 -0.20200 26.16300
N  17.76200 -2.74900 30.04100
C  17.20300 -2.05000 31.10200
C  17.61100 -2.58800 32.43400
C  18.66000 -3.68600 32.02600
C  18.52100 -3.79500 30.50400
C  20.15400 -3.39800 32.51000
C  16.41100 -3.06000 33.32600
C  16.52600 -2.47000 34.76100
H  17.92200 -2.44000 35.37600
N  18.42200 -4.14000 27.49600
C  19.17000 -4.92400 28.32500
C  19.93900 -5.94000 27.63300
C  19.66100 -5.64800 26.22400
C  18.78200 -4.48000 26.17800
C  20.71300 -7.07000 28.32200
C  20.22000 -6.38900 25.01900
O  20.01900 -6.08300 23.85300
C  21.09200 -7.60500 25.18100
N  16.94600 -2.07300 25.77900
C  17.33100 -2.84600 24.74400
C  16.81100 -2.42900 23.43800
C  15.65000 -1.35800 23.87600
C  16.00700 -1.16100 25.36200
C  17.90900 -1.91200 22.57300
C  14.10400 -1.69400 23.70300
C  13.62600 -3.08600 23.98900
N  16.40600 -0.65600 28.23100
C  15.52600 0.08900 27.49800
C  14.95500 1.15300 28.25400
C  15.35300 0.84300 29.57800
C  16.20000 -0.24800 29.55200
C  14.02100 2.15200 27.87500
C  15.31300 1.28000 30.94100
O  14.92400 2.37100 31.49500
C  15.98100 0.13400 31.81100
C  17.06200 0.74700 32.67200
O  18.17800 0.99400 32.34000
O  16.52300 1.12500 33.82100
C  17.28900 1.91900 34.80700
H  20.03200 -5.26600 30.25200
H  18.62900 -4.35800 24.01500
H  14.76000 0.55400 25.73400
H  18.12800 -1.68200 32.74800
H  18.39800 -4.67000 32.41500
H  20.22500 -2.68300 33.32900
H  20.82300 -3.10500 31.70100
H  20.55300 -4.26200 33.04200
H  16.34200 -4.13700 33.47500
H  15.46100 -2.66100 32.96800
H  15.81100 -3.03500 35.35900
H  16.15000 -1.45000 34.67700
H  20.37000 -8.05000 27.99200
H  20.62000 -7.04900 29.40800
H  21.73500 -6.92100 27.97300
H  22.05200 -7.19400 25.49300
H  21.31700 -8.09200 24.23100
H  20.61600 -8.30900 25.86300
H  16.29600 -3.19600 22.85900
H  15.86200 -0.34300 23.54000
H  18.75200 -1.64900 23.21200
H  17.60300 -1.05500 21.97300
H  18.23500 -2.61300 21.80400
H  13.83600 -1.43200 22.67900
H  13.47200 -1.04500 24.30800
H  12.82700 -3.14900 24.72700
H  14.42600 -3.72500 24.36300
H  13.34000 -3.64300 23.09600
H  14.43900 2.79600 27.10200
H  13.62200 2.75300 28.69300
H  13.11300 1.72200 27.45200
H  15.23200 -0.40400 32.39200
H  18.36400 1.99000 34.64300
H  17.28200 1.37200 35.74900
H  17.01800 2.97500 34.79400
Mg 16.61200 52.59700 25.69600
C  18.44100 51.04600 28.25800
C  14.11800 53.11100 27.92500
C  14.82200 53.99000 23.14100
C  18.96200 51.41300 23.35200
N  16.38400 52.22400 27.83000
C  17.29200 51.74400 28.69200
C  16.83400 51.80400 30.14000
C  15.29700 52.15300 29.91400
C  15.25100 52.60200 28.50700
C  14.34500 50.94300 30.36700
C  17.55100 52.88500 30.95900
C  17.65700 52.75500 32.50500
H  16.78900 51.86100 33.29500
N  14.70700 53.53500 25.61600
C  13.86400 53.64800 26.63000
C  12.66000 54.31700 26.16900
C  12.75700 54.47500 24.77900
C  14.16400 54.06100 24.43800
C  11.52200 54.60800 27.03300
C  11.74600 54.94200 23.78400
O  12.05500 54.95100 22.60800
C  10.36200 55.44500 24.00900
N  16.84300 52.65900 23.60300
C  16.05900 53.42600 22.78200
C  16.67600 53.68400 21.36000
C  18.05200 53.00900 21.58200
C  17.92900 52.27100 22.91300
C  15.88000 53.26500 20.12200
C  19.27500 53.91700 21.52400
C  20.41900 53.56600 20.51700
N  18.30800 51.42800 25.67800
C  19.19100 51.03700 24.69300
C  20.22900 50.22100 25.26400
C  20.00500 50.15600 26.65300
C  18.84200 50.98100 26.87300
C  21.26500 49.64700 24.39700
C  20.46900 49.65000 27.91900
O  21.41900 48.89700 28.19400
C  19.45900 50.22600 28.99000
C  18.97500 49.07400 29.91600
O  18.41300 48.06900 29.59100
O  19.58000 49.15600 31.15400
C  19.47700 48.04200 32.13800
H  13.30700 53.28100 28.63600
H  14.23500 54.54600 22.40800
H  19.67800 51.11600 22.58200
H  16.90500 50.83100 30.62600
H  15.17700 53.05300 30.51800
H  13.69500 51.33600 31.14900
H  14.80700 50.07700 30.84000
H  13.69900 50.64400 29.54100
H  17.12600 53.85300 30.69400
H  18.57900 52.85000 30.59900
H  17.58500 53.73600 32.97400
H  18.70300 52.59700 32.76800
H  10.68800 53.90700 26.99300
H  11.10600 55.58000 26.77000
H  11.80600 54.76700 28.07300
H  9.82800 54.78600 24.69300
H  9.86800 55.41600 23.03800
H  10.37800 56.47900 24.35400
H  16.73900 54.75500 21.16800
H  18.19300 52.29200 20.77200
H  16.48500 53.00200 19.25400
H  15.11300 53.98200 19.82900
H  15.14800 52.49100 20.35300
H  19.80300 53.82200 22.47300
H  19.03500 54.92600 21.18800
H  20.49000 54.28600 19.70300
H  20.30700 52.62100 19.98500
H  21.37000 53.45900 21.04000
H  21.72600 50.42800 23.79100
H  20.67600 49.02500 23.72400
H  22.03500 49.09600 24.93700
H  20.10500 50.91400 29.53500
H  18.53700 47.49300 32.10300
H  19.79800 48.43000 33.10500
H  20.29400 47.41300 31.78300

