158

Mg 26.70200 50.85300 25.86900
C  24.94200 52.09000 28.69900
C  29.27400 50.24400 28.00900
C  28.34500 49.73600 23.23000
C  24.21500 52.21300 23.91700
N  27.03400 51.18600 28.08600
C  26.17900 51.50800 29.03900
C  26.71000 51.33500 30.49400
C  28.19200 51.06800 30.24200
C  28.18600 50.74500 28.65300
C  29.16000 52.20600 30.72200
C  25.89700 50.26900 31.24900
C  25.36100 50.61200 32.61600
H  26.43200 51.05700 33.63900
N  28.58700 50.17900 25.68400
C  29.51900 50.01100 26.64100
C  30.64600 49.41300 26.03500
C  30.39700 48.97800 24.70900
C  29.12500 49.66200 24.49200
C  31.84500 49.12800 26.88500
C  31.21200 48.14500 23.74300
O  30.88900 47.91200 22.58400
C  32.48700 47.48100 24.18100
N  26.36400 50.97300 23.81600
C  27.15700 50.32300 22.93300
C  26.44700 50.30100 21.52300
C  25.15600 51.18500 21.79800
C  25.21700 51.47700 23.23400
C  27.39800 50.72800 20.37500
C  23.74300 50.45400 21.44400
C  22.56900 51.34100 20.97900
N  25.00000 51.91300 26.18200
C  24.04300 52.36700 25.28500
C  23.00600 53.08100 25.92700
C  23.29200 52.99100 27.28400
C  24.51200 52.29300 27.37600
C  21.91300 53.80600 25.28500
C  22.84700 53.31700 28.55200
O  21.81300 53.93400 28.86700
C  23.92400 52.78800 29.55800
C  24.43400 53.82500 30.54300
O  25.23600 54.72000 30.30100
O  23.93500 53.59400 31.80400
C  24.32300 54.57900 32.85700
H  30.03800 50.08200 28.77200
H  28.96100 49.25200 22.46900
H  23.47100 52.67400 23.26500
H  26.52600 52.25600 31.04700
H  28.38500 50.11700 30.73700
H  28.77500 53.21800 30.59500
H  30.04500 52.14400 30.08800
H  29.49700 52.12900 31.75500
H  26.53100 49.38900 31.36200
H  25.08500 49.91400 30.61400
H  24.91200 49.67400 32.94400
H  24.52300 51.30700 32.67400
H  31.89500 49.75100 27.77700
H  32.78000 49.40700 26.39900
H  31.88600 48.10000 27.24600
H  33.02900 48.31800 24.62200
H  32.98400 47.06800 23.30400
H  32.30200 46.64000 24.84800
H  26.10400 49.31700 21.20300
H  25.22100 52.12600 21.25000
H  28.32200 51.06400 20.84500
H  26.90600 51.48200 19.76000
H  27.62300 49.89800 19.70600
H  23.36400 49.93700 22.32600
H  23.88800 49.74300 20.63100
H  22.15600 50.93200 20.05700
H  22.77200 52.41200 20.98900
H  21.64400 51.30900 21.55400
H  21.39700 53.24500 24.50700
H  22.30800 54.74000 24.88500
H  21.15100 53.96600 26.04900
H  23.34900 52.12900 30.20900
H  24.24700 55.60800 32.50600
H  25.31500 54.33200 33.23400
H  23.63500 54.52600 33.70000
Mg -11.39500 38.89600 42.09200
C  -9.55300 36.16500 40.91900
C  -9.46400 40.93200 40.07200
C  -13.72000 41.28700 42.41300
C  -13.73500 36.53400 43.38700
N  -9.74200 38.56400 40.50300
C  -9.12200 37.35500 40.29300
C  -7.99200 37.56800 39.33000
C  -7.89600 39.13800 39.21300
C  -9.05200 39.56700 40.01900
C  -6.55600 39.71300 39.63800
C  -8.38100 36.94400 37.91600
C  -7.37100 36.00700 37.27700
H  -6.52400 36.70300 36.19100
N  -11.47100 40.86000 41.46600
C  -10.54400 41.55300 40.73200
C  -11.01900 42.95900 40.67400
C  -12.23800 43.09600 41.44500
C  -12.52400 41.68800 41.83100
C  -10.10700 43.97700 40.06500
C  -13.04600 44.34600 41.66400
O  -12.57000 45.38100 41.16700
C  -14.22800 44.49500 42.57900
N  -13.42800 38.95800 42.99100
C  -14.20900 40.08900 42.94400
C  -15.62300 39.80400 43.34700
C  -15.64000 38.23600 43.71700
C  -14.17600 37.88000 43.38100
C  -15.91400 40.71300 44.56000
C  -16.73100 37.43900 42.91400
C  -17.65700 36.62200 43.84200
N  -11.53600 36.84400 42.28000
C  -12.52500 36.04200 42.87500
C  -11.98400 34.69800 43.03600
C  -10.77500 34.71600 42.28700
C  -10.63900 35.98000 41.77700
C  -12.72300 33.57400 43.78800
C  -9.72100 33.90500 41.78600
O  -9.39800 32.76000 41.98300
C  -8.81600 34.80700 40.88500
C  -7.47300 34.82700 41.41800
O  -6.55800 34.03800 41.15000
O  -7.18400 35.91900 42.15700
C  -5.85900 35.82300 42.79800
H  -8.94800 41.65800 39.44100
H  -14.55200 41.99500 42.42900
H  -14.41700 35.78700 43.79800
H  -7.04300 37.12900 39.63800
H  -8.07000 39.51700 38.20500
H  -6.37100 40.56700 38.98700
H  -5.72600 39.05000 39.39700
H  -6.52300 39.89900 40.71200
H  -8.74300 37.70600 37.22700
H  -9.29700 36.37600 38.07900
H  -7.93600 35.23100 36.76200
H  -6.81700 35.48300 38.05600
H  -10.65700 44.62100 39.38000
H  -9.27300 43.55600 39.50500
H  -9.75700 44.46900 40.97300
H  -14.14800 45.51200 42.96400
H  -14.14100 43.94400 43.51500
H  -15.16800 44.31000 42.05900
H  -16.25900 40.12000 42.52100
H  -15.71100 38.12700 44.79900
H  -15.01600 40.79500 45.17100
H  -16.67000 40.25900 45.20100
H  -16.40400 41.65000 44.29500
H  -16.23500 36.85200 42.14100
H  -17.40800 38.13200 42.41600
H  -17.47300 35.58800 43.54900
H  -18.67500 36.91200 43.58600
H  -17.68400 36.70200 44.92900
H  -12.26500 32.58800 43.72300
H  -13.72600 33.51200 43.36600
H  -12.77300 33.87200 44.83500
H  -8.82800 34.48600 39.84400
H  -5.86300 36.37900 43.73500
H  -5.13700 36.36100 42.18300
H  -5.40200 34.86900 43.06200

