158

Mg -12.88100 16.28700 40.99200
C  -9.85800 14.60000 40.35400
C  -11.35800 19.18600 39.73000
C  -15.93600 17.83000 40.61100
C  -14.49600 13.16100 40.95600
N  -10.81100 16.76700 40.15200
C  -9.74900 15.94600 40.05100
C  -8.66200 16.60500 39.28500
C  -9.08300 18.12400 39.31000
C  -10.48900 18.03900 39.80900
C  -8.08500 19.08300 40.06200
C  -8.35500 16.04500 37.85800
C  -6.87100 16.25500 37.47900
H  -6.26500 15.30700 36.48400
N  -13.51800 18.30100 40.51400
C  -12.72900 19.27300 39.95700
C  -13.57200 20.43800 39.79700
C  -14.90200 20.07400 40.16600
C  -14.83300 18.65700 40.44200
C  -13.07800 21.74300 39.24800
C  -16.04000 20.95200 40.16900
O  -15.89600 22.19200 39.87200
C  -17.35200 20.56100 40.80900
N  -14.99300 15.62800 40.90500
C  -16.05300 16.48500 40.81200
C  -17.38400 15.69500 40.99800
C  -16.91300 14.21800 40.95700
C  -15.35800 14.31200 40.95500
C  -18.19600 16.09100 42.18700
C  -17.37100 13.37600 39.79000
C  -18.16300 12.10500 40.08500
N  -12.36000 14.30500 41.01500
C  -13.10400 13.16300 41.06700
C  -12.19300 11.98800 41.07900
C  -10.87800 12.51700 40.94900
C  -11.06500 13.94200 40.85200
C  -12.48500 10.53900 40.96100
C  -9.44800 12.16600 40.68700
O  -8.88400 11.10300 40.46100
C  -8.75000 13.55400 40.38200
C  -7.80100 13.88900 41.44600
O  -8.02200 14.23800 42.59400
O  -6.56700 13.85300 40.86700
C  -5.44800 14.39000 41.74300
H  -10.80000 20.00400 39.26900
H  -16.93900 18.16800 40.34200
H  -14.93200 12.19600 41.22100
H  -7.72800 16.52700 39.84200
H  -9.02600 18.54600 38.30600
H  -7.69300 19.85000 39.39400
H  -7.19900 18.54200 40.39700
H  -8.47600 19.72600 40.84900
H  -8.95900 16.60000 37.14000
H  -8.67900 15.00900 37.75600
H  -6.25300 16.29800 38.37500
H  -6.76000 17.22800 37.00000
H  -13.78200 22.14900 38.52200
H  -12.16300 21.68800 38.65700
H  -12.79800 22.50600 39.97400
H  -18.06500 20.18700 40.07500
H  -17.87200 21.42800 41.21600
H  -17.11500 19.91900 41.65800
H  -18.03900 15.89900 40.15000
H  -17.29400 13.70600 41.84100
H  -19.15300 16.35900 41.73900
H  -17.58600 16.92200 42.54200
H  -18.24700 15.26100 42.89200
H  -16.54200 12.93400 39.23600
H  -17.97400 13.91100 39.05700
H  -17.89900 11.49100 39.22400
H  -19.24600 12.22300 40.12400
H  -17.81000 11.48600 40.91000
H  -13.27300 10.36900 40.22700
H  -12.59900 10.04900 41.92800
H  -11.63800 10.10800 40.42700
H  -8.17600 13.41100 39.46600
H  -4.55300 14.45500 41.12500
H  -5.27800 13.68000 42.55200
H  -5.53100 15.37900 42.19300
Mg -5.36100 25.56000 26.31100
C  -3.58900 26.36900 29.00900
C  -7.44000 23.39500 28.43500
C  -6.38800 23.67800 23.62400
C  -3.15100 27.25400 24.20700
N  -5.56300 25.05000 28.47700
C  -4.78200 25.63900 29.39000
C  -5.38500 25.47800 30.83400
C  -6.27200 24.19400 30.55200
C  -6.45400 24.16000 29.05100
C  -5.76000 22.85400 31.06100
C  -6.13200 26.73100 31.37400
C  -6.17800 27.00000 32.90300
H  -5.72800 25.97400 33.88800
N  -7.02500 24.09200 26.00200
C  -7.67500 23.39400 26.98700
C  -8.49400 22.34500 26.31000
C  -8.16500 22.38000 24.91400
C  -7.14300 23.42000 24.77600
C  -9.42100 21.34800 26.99900
C  -8.80500 21.55600 23.78500
O  -8.53000 21.76100 22.54400
C  -9.94900 20.57300 24.06500
N  -4.82700 25.50100 24.18700
C  -5.33200 24.54600 23.32700
C  -4.80500 24.73600 21.88900
C  -4.01600 26.04600 22.06100
C  -4.04500 26.34600 23.55000
C  -3.99600 23.64000 21.26300
C  -4.42600 27.28700 21.20800
C  -3.28600 27.96800 20.48300
N  -3.72000 26.69400 26.55900
C  -2.90500 27.33700 25.61200
C  -1.88600 28.08700 26.33800
C  -2.09000 27.75800 27.75500
C  -3.15500 26.79200 27.74300
C  -1.05900 29.23700 25.77300
C  -1.63800 28.01600 29.09300
O  -0.78700 28.76800 29.51200
C  -2.61000 27.08200 29.98300
C  -1.90600 26.15100 30.90800
O  -1.17600 25.18600 30.61800
O  -1.83900 26.66400 32.17000
C  -1.16300 25.96300 33.23800
H  -8.12400 22.79700 29.04000
H  -6.68900 23.21500 22.68200
H  -2.50000 27.81400 23.53200
H  -4.57600 25.21100 31.51300
H  -7.22000 24.44100 31.03000
H  -4.92600 22.93100 31.75800
H  -5.38300 22.39600 30.14600
H  -6.60700 22.38000 31.55800
H  -7.15900 26.75500 31.00800
H  -5.65700 27.65800 31.05300
H  -7.22400 27.21200 33.12600
H  -5.76100 27.99100 33.08300
H  -10.46000 21.66000 26.89400
H  -9.21800 21.26300 28.06700
H  -9.31200 20.33200 26.62000
H  -9.40500 19.74800 24.52500
H  -10.47300 20.13500 23.21600
H  -10.71100 20.84900 24.79400
H  -5.71700 24.91300 21.32000
H  -2.97400 25.87900 21.78700
H  -2.96000 23.89300 21.03600
H  -4.60000 23.26000 20.43900
H  -4.01000 22.79900 21.95700
H  -4.79200 28.08900 21.84800
H  -5.26000 27.10200 20.53100
H  -2.29500 27.51400 20.46400
H  -3.05600 28.95500 20.88300
H  -3.63100 27.97400 19.44900
H  -1.36700 29.50000 24.76100
H  -0.01100 28.95700 25.66600
H  -1.16100 30.13800 26.37900
H  -3.20000 27.73900 30.62100
H  -0.08200 26.09400 33.18600
H  -1.39500 24.89800 33.23200
H  -1.43200 26.24500 34.25500

