158

Mg 41.47300 41.44000 26.90500
C  41.11500 43.68800 29.47500
C  41.95700 39.06300 29.31200
C  41.98700 39.18900 24.51400
C  41.33800 43.91700 24.49700
N  41.47800 41.36200 29.16100
C  41.24800 42.44500 30.01300
C  41.07700 42.05600 31.48800
C  41.52000 40.55500 31.45800
C  41.65400 40.26000 29.91000
C  42.88000 40.25000 32.19000
C  39.64900 42.32300 32.00200
C  39.50800 41.86600 33.48400
H  38.93100 42.93100 34.44800
N  41.87300 39.45500 26.87400
C  42.08000 38.60600 27.96700
C  42.60900 37.33600 27.54300
C  42.69100 37.37400 26.13000
C  42.22200 38.70000 25.78200
C  42.70100 36.21700 28.43800
C  43.08600 36.19800 25.19000
O  43.02300 36.20800 23.94600
C  43.53900 34.86500 25.80100
N  41.67800 41.60100 24.83500
C  41.89800 40.49700 24.04800
C  41.90500 40.85500 22.52500
C  41.67500 42.38400 22.53600
C  41.56300 42.70600 24.03000
C  43.23000 40.49900 21.86300
C  40.47700 42.84600 21.77200
C  39.07800 42.86800 22.39700
N  41.33200 43.37800 26.93700
C  41.22000 44.25800 25.90900
C  40.97900 45.55900 26.50200
C  40.98200 45.41500 27.87600
C  41.18600 44.06800 28.11100
C  40.71200 46.89000 25.78000
C  40.78500 46.10100 29.11800
O  40.60800 47.30400 29.26400
C  40.78600 45.00600 30.21900
C  41.77800 45.36100 31.25700
O  42.91200 45.66900 30.99500
O  41.22700 45.42900 32.52800
C  42.17700 45.77900 33.61200
H  42.16300 38.46900 30.20400
H  42.12900 38.51900 23.66300
H  40.99200 44.74100 23.87000
H  41.75800 42.68800 32.05900
H  40.74700 40.00500 31.99600
H  42.61000 39.57100 32.99900
H  43.34300 41.17400 32.53500
H  43.62300 39.83400 31.51000
H  38.96200 41.74900 31.38000
H  39.36700 43.36800 31.87600
H  40.40600 41.46200 33.95000
H  38.75600 41.07800 33.53000
H  43.68000 35.75800 28.57300
H  41.96300 35.46700 28.15100
H  42.35700 36.61200 29.39400
H  44.38400 35.01700 26.47300
H  43.75600 34.34200 24.87000
H  42.81700 34.26800 26.35800
H  41.01100 40.40500 22.09300
H  42.47500 43.01100 22.14400
H  43.50100 41.30500 21.18100
H  43.21300 39.57700 21.28100
H  43.93100 40.38000 22.68900
H  40.45300 42.11800 20.96100
H  40.68500 43.76900 21.22900
H  38.79100 43.10200 23.42200
H  38.56500 41.97600 22.03800
H  38.70600 43.74400 21.86400
H  40.99300 46.86800 24.72700
H  41.45400 47.54800 26.23100
H  39.71700 47.29600 25.96300
H  39.77500 44.81100 30.57600
H  41.71300 45.72500 34.59700
H  42.46300 46.82800 33.55000
H  43.04400 45.12700 33.72100
Mg 9.44400 46.48100 26.53700
C  7.44900 46.15900 29.27000
C  12.11900 47.03400 28.58300
C  11.27300 46.90900 23.80300
C  6.47700 46.75000 24.52000
N  9.67300 46.57800 28.61800
C  8.76500 46.44600 29.56500
C  9.35200 46.80900 30.89400
C  10.70700 47.41400 30.59700
C  10.85800 46.90400 29.16300
C  10.87900 48.98600 30.69900
C  9.40500 45.65600 31.92400
C  8.86200 46.06300 33.38600
H  9.39800 45.28500 34.51000
N  11.43400 46.82300 26.22100
C  12.44900 47.02800 27.22800
C  13.68400 47.14200 26.46500
C  13.47400 47.13200 25.07000
C  12.02500 46.98600 24.99300
C  14.93600 47.49000 27.04700
C  14.30700 47.13800 23.86200
O  13.93600 46.89700 22.69100
C  15.76300 47.38500 24.03200
N  8.96300 46.87800 24.49100
C  9.94300 46.98100 23.55300
C  9.27700 47.06100 22.13100
C  7.72100 46.94100 22.44000
C  7.69000 46.85200 23.90700
C  9.68800 48.35900 21.23500
C  7.09900 45.72900 21.61900
C  6.11400 46.10400 20.58100
N  7.34800 46.30900 26.73400
C  6.28500 46.49200 25.84900
C  5.07700 46.18300 26.54700
C  5.44600 46.14300 27.90000
C  6.88000 46.11000 27.94600
C  3.81000 46.01700 25.87000
C  5.00300 45.94600 29.30600
O  3.87800 45.75300 29.73000
C  6.26700 46.09400 30.17700
C  6.16300 44.87600 31.08900
O  6.58000 43.76000 30.81700
O  5.36600 45.25000 32.16300
C  5.51500 44.50200 33.41800
H  12.99600 47.32700 29.16300
H  11.78200 46.76600 22.84700
H  5.61500 46.64200 23.85800
H  8.63500 47.49000 31.35300
H  11.42900 47.01200 31.30800
H  10.86100 49.39900 29.69100
H  11.71600 49.20000 31.36400
H  10.06700 49.54800 31.16100
H  10.44400 45.33600 32.00900
H  8.81500 44.82300 31.54100
H  7.78300 45.93000 33.30200
H  9.01500 47.12200 33.58900
H  15.78000 46.81000 26.92400
H  14.82900 47.69600 28.11200
H  15.33700 48.39100 26.58100
H  16.11900 46.54600 24.63100
H  15.83100 48.40300 24.41700
H  16.38700 47.40700 23.13800
H  9.63900 46.13400 21.68800
H  7.22500 47.86900 22.15800
H  8.77100 48.86300 20.93100
H  10.24000 47.87900 20.42700
H  10.28500 48.95000 21.93000
H  6.74600 44.84800 22.15600
H  7.85900 45.35400 20.93300
H  5.24000 45.45400 20.62800
H  6.53300 46.00500 19.58000
H  5.74800 47.13000 20.54800
H  3.82000 46.40000 24.85000
H  3.07600 46.50300 26.51200
H  3.41400 45.00200 25.84000
H  6.10100 46.98400 30.78300
H  5.70000 45.23200 34.20600
H  6.37800 43.83600 33.41600
H  4.61900 43.91100 33.60700

