158

Mg -2.63300 17.24500 27.10100
C  -3.14100 15.04100 29.76000
C  -3.06300 19.84700 29.18500
C  -2.53800 19.20200 24.37100
C  -2.79600 14.36600 24.94500
N  -3.25300 17.40400 29.27600
C  -3.28900 16.41000 30.15100
C  -3.38100 16.93400 31.62600
C  -3.52300 18.46700 31.35300
C  -3.30400 18.65700 29.84100
C  -4.76500 19.22700 31.79400
C  -2.22900 16.63400 32.61000
C  -2.66600 16.13800 33.98200
H  -1.74300 16.16000 35.25600
N  -2.61000 19.24500 26.83900
C  -2.86700 20.11400 27.84100
C  -2.59900 21.41300 27.22800
C  -2.46100 21.32600 25.85300
C  -2.51400 19.89300 25.60300
C  -2.79300 22.68400 27.95200
C  -2.24300 22.33700 24.69400
O  -2.20700 22.01500 23.47500
C  -2.09900 23.81400 25.02400
N  -2.91300 16.83600 24.94300
C  -2.70300 17.85500 24.05400
C  -2.60900 17.34500 22.58000
C  -2.56400 15.74800 22.77300
C  -2.79300 15.62000 24.31400
C  -3.65700 17.86800 21.54100
C  -1.42100 14.99700 22.18800
C  -0.08600 15.31000 22.86100
N  -2.98400 15.15800 27.23400
C  -2.92500 14.11500 26.32500
C  -2.95900 12.84700 26.92300
C  -3.03300 13.18100 28.26700
C  -3.07200 14.53800 28.41100
C  -2.92200 11.59000 26.27400
C  -3.22500 12.59300 29.50400
O  -3.34700 11.45100 29.89200
C  -3.18400 13.80700 30.55900
C  -1.89400 13.57600 31.29900
O  -0.74200 13.64000 30.85800
O  -2.14800 13.22600 32.63300
C  -0.93600 12.92400 33.42400
H  -3.11100 20.71800 29.84100
H  -2.35200 19.66300 23.39900
H  -2.81500 13.53700 24.23500
H  -4.31000 16.48000 31.97100
H  -2.66300 18.96800 31.79800
H  -5.45100 19.44100 30.97500
H  -4.45100 20.14900 32.28200
H  -5.37900 18.58200 32.42400
H  -1.48500 17.43100 32.63200
H  -1.74300 15.82800 32.06100
H  -3.10500 15.14300 33.89900
H  -3.43100 16.77100 34.43000
H  -3.24400 23.52700 27.42800
H  -1.81300 22.89400 28.37900
H  -3.34400 22.46800 28.86700
H  -1.58300 24.34500 24.22300
H  -1.54200 23.91100 25.95600
H  -3.09800 24.17900 25.26000
H  -1.60000 17.59900 22.25700
H  -3.47600 15.34400 22.33200
H  -4.10000 18.78100 21.93800
H  -4.53300 17.22100 21.50700
H  -3.24600 18.02600 20.54400
H  -1.29800 15.30300 21.14900
H  -1.58500 13.92000 22.24000
H  -0.14400 15.67100 23.88700
H  0.56800 16.01400 22.34600
H  0.53700 14.41800 22.79700
H  -2.45900 11.50100 25.29100
H  -3.98600 11.45400 26.08100
H  -2.57400 10.82400 26.96600
H  -4.01900 13.79200 31.25900
H  -0.81900 11.85800 33.23400
H  -1.09900 13.02000 34.49700
H  0.00800 13.40100 33.16100
Mg 6.52500 54.43300 41.16900
C  3.91800 52.22800 41.06000
C  8.59000 52.16200 39.79400
C  8.93400 56.83800 40.91700
C  4.27000 56.94100 42.33600
N  6.13200 52.54300 40.17000
C  5.02400 51.76000 40.30100
C  5.18200 50.39000 39.60900
C  6.74600 50.23800 39.48000
C  7.20600 51.72300 39.79300
C  7.53100 49.33200 40.45500
C  4.52600 50.32800 38.17300
C  3.96400 49.01100 37.83300
H  4.50000 48.20800 36.66500
N  8.50300 54.44300 40.45200
C  9.19000 53.37000 40.01700
C  10.54000 53.72800 39.69300
C  10.55300 55.15900 39.64900
C  9.30100 55.57300 40.31500
C  11.53500 52.77700 39.13200
C  11.67000 55.99800 39.15400
O  12.72800 55.45600 38.77900
C  11.48100 57.49200 39.00700
N  6.58700 56.59700 41.47600
C  7.74600 57.32900 41.46900
C  7.57600 58.71400 42.21200
C  5.99700 58.73100 42.32800
C  5.60400 57.33900 42.10800
C  8.38700 58.92200 43.55800
C  5.31000 59.63100 41.30600
C  4.37900 60.75800 41.84400
N  4.52900 54.61700 41.56000
C  3.67500 55.64500 41.98000
C  2.38100 55.18900 42.28800
C  2.43800 53.84000 42.00900
C  3.76300 53.51500 41.58000
C  1.13900 55.91200 42.73200
C  1.68900 52.65600 41.95200
O  0.47800 52.50600 42.16900
C  2.64400 51.49900 41.61600
C  2.02200 50.63500 40.66400
O  1.50000 51.09700 39.65300
O  1.94800 49.31800 41.20500
C  0.92700 48.53200 40.45000
H  9.20300 51.33800 39.42100
H  9.82000 57.44800 41.10700
H  3.53900 57.56900 42.85000
H  4.77100 49.63400 40.27700
H  6.99400 49.98000 38.45100
H  7.41700 48.27100 40.23400
H  7.28200 49.41400 41.51300
H  8.59900 49.52400 40.35900
H  5.21500 50.70800 37.41800
H  3.70300 51.04200 38.13000
H  2.91100 49.19600 37.61700
H  4.04900 48.47300 38.77700
H  11.42000 52.57600 38.06700
H  11.38900 51.79100 39.57400
H  12.50400 53.08500 39.52600
H  10.42700 57.76300 38.93700
H  11.99300 57.84000 38.11100
H  11.93000 57.83700 39.93900
H  7.75100 59.59300 41.59200
H  5.71800 59.12300 43.30600
H  7.70600 58.82900 44.40400
H  9.07700 59.76600 43.56800
H  8.98000 58.03000 43.76000
H  4.56900 59.04500 40.76300
H  5.95200 60.17400 40.61200
H  4.38700 60.69700 42.93200
H  3.34600 60.59600 41.53800
H  4.83500 61.65500 41.42300
H  0.83500 56.72300 42.06900
H  1.40700 56.39500 43.67200
H  0.37300 55.28000 43.18200
H  2.85100 50.91400 42.51200
H  1.36200 47.56900 40.18000
H  0.65000 48.89800 39.46100
H  0.03300 48.32100 41.03600

