158

Mg 41.80300 9.94500 29.65100
C  43.63100 11.13300 32.24900
C  39.41800 8.73800 31.92100
C  39.96700 8.86400 27.09300
C  44.35500 10.84400 27.57100
N  41.70600 9.64700 31.90000
C  42.52500 10.37300 32.78300
C  41.86900 10.34200 34.17000
C  40.58100 9.50300 34.07200
C  40.54000 9.28900 32.55900
C  40.60300 8.14700 34.85300
C  41.40000 11.79300 34.73200
C  40.70900 11.79800 36.06300
H  41.22000 12.79500 37.11800
N  40.01100 8.81900 29.52800
C  39.12100 8.48000 30.56000
C  37.91100 7.93300 30.00900
C  38.04900 7.91000 28.61600
C  39.41000 8.51400 28.37500
C  36.78200 7.34700 30.87700
C  37.13500 7.34000 27.60000
O  37.38400 7.28700 26.42500
C  35.74000 6.86500 27.96700
N  42.16700 9.78400 27.62600
C  41.24500 9.41700 26.72000
C  41.56800 9.63100 25.22600
C  42.85500 10.43000 25.41300
C  43.18800 10.34100 26.98200
C  41.64400 8.29200 24.43700
C  42.76200 11.92300 24.92700
C  42.06600 12.96200 25.79100
N  43.63500 10.70200 29.83200
C  44.53800 11.09600 28.92700
C  45.65500 11.73200 29.56400
C  45.21600 11.93600 30.84300
C  44.12900 11.14900 30.93300
C  46.79200 12.32700 28.89900
C  45.61300 12.53100 32.08800
O  46.54600 13.27700 32.44500
C  44.48600 12.10100 33.05300
C  45.05000 11.50700 34.25900
O  45.53500 10.41200 34.33600
O  44.84800 12.42400 35.27500
C  45.39800 11.87200 36.52100
H  38.63100 8.54500 32.65200
H  39.23900 8.63600 26.31100
H  45.07600 11.23200 26.84800
H  42.58000 9.96800 34.90600
H  39.70600 10.13200 34.23700
H  39.79100 7.97500 35.55900
H  41.53200 8.05200 35.41500
H  40.47300 7.28000 34.20500
H  40.79100 12.19400 33.92200
H  42.34000 12.33200 34.84500
H  40.71200 10.80900 36.52100
H  39.64700 11.95800 35.87600
H  36.66900 6.27000 30.75000
H  35.85500 7.86000 30.62300
H  36.93500 7.51200 31.94400
H  35.25800 6.39200 27.11100
H  35.18500 7.75500 28.26200
H  35.74500 6.06100 28.70400
H  40.85800 10.25800 24.68700
H  43.63500 9.82400 24.95100
H  41.48900 7.44500 25.10600
H  42.54500 8.04800 23.87500
H  40.95400 8.21500 23.59700
H  42.27500 11.95300 23.95200
H  43.73900 12.33900 24.68400
H  42.93700 13.47800 26.19500
H  41.46700 12.52000 26.58700
H  41.50600 13.64000 25.14700
H  46.34600 13.08400 28.25400
H  47.36200 11.59500 28.32600
H  47.48200 12.90200 29.51600
H  43.94900 13.01500 33.30400
H  45.04000 10.85700 36.69400
H  45.12500 12.52000 37.35400
H  46.48000 11.88300 36.39100
Mg -5.30000 25.13300 26.04000
C  -4.03600 26.31000 28.93300
C  -7.35600 23.07400 27.69000
C  -6.34500 23.97500 23.09500
C  -3.00700 27.34800 24.32500
N  -5.71900 24.80800 28.10600
C  -5.10800 25.45600 29.17000
C  -5.63900 24.85600 30.53500
C  -6.49000 23.67200 30.06800
C  -6.55000 23.82800 28.50900
C  -6.13100 22.21400 30.44400
C  -6.46600 26.01100 31.23000
C  -6.31500 26.06000 32.79300
H  -5.72200 24.86900 33.59700
N  -6.66500 23.63300 25.43900
C  -7.46500 23.02100 26.26300
C  -8.41500 22.24700 25.51000
C  -8.13800 22.48100 24.14300
C  -6.97100 23.35600 24.16800
C  -9.39700 21.37800 26.17700
C  -8.85300 22.05400 22.90600
O  -8.48600 22.38300 21.76900
C  -10.08300 21.22500 23.06600
N  -4.74400 25.60500 23.95500
C  -5.32200 24.92600 22.91800
C  -4.60100 25.21200 21.64500
C  -3.72700 26.45000 21.98200
C  -3.77300 26.45000 23.52000
C  -3.81400 23.87400 21.07000
C  -4.24300 27.82000 21.36400
C  -3.11300 28.89500 21.06600
N  -3.78400 26.51200 26.45600
C  -2.93600 27.35700 25.73900
C  -2.05300 28.09000 26.59900
C  -2.48100 27.70600 27.86300
C  -3.50300 26.78300 27.72900
C  -0.98400 29.09200 26.30300
C  -2.20700 28.04800 29.28600
O  -1.40100 28.82200 29.85000
C  -3.29900 27.17700 29.99500
C  -2.55500 26.41700 30.96500
O  -2.04400 25.32300 30.76600
O  -2.61800 27.05400 32.18200
C  -1.85600 26.31400 33.16800
H  -7.94000 22.39500 28.31500
H  -6.62300 23.64000 22.09400
H  -2.45600 28.07000 23.71900
H  -4.88300 24.52800 31.24800
H  -7.53300 23.85600 30.32600
H  -5.51500 21.69000 29.71200
H  -7.10900 21.73400 30.48700
H  -5.73000 22.06600 31.44700
H  -7.52100 26.00500 30.95300
H  -5.99000 26.93100 30.89100
H  -7.29700 26.28100 33.21300
H  -5.59800 26.85200 33.00900
H  -9.73800 20.51400 25.60600
H  -10.19500 22.06900 26.44700
H  -8.99900 21.06200 27.14200
H  -9.69600 20.30800 23.51100
H  -10.45800 20.92800 22.08600
H  -10.69600 21.73600 23.80700
H  -5.28900 25.52100 20.85800
H  -2.68600 26.32300 21.68200
H  -2.96600 23.60500 21.70000
H  -3.36400 24.01600 20.08800
H  -4.39200 22.96300 21.22800
H  -4.96300 28.19500 22.09200
H  -4.86800 27.61700 20.49500
H  -3.48100 29.82300 21.50600
H  -2.98300 29.10800 20.00500
H  -2.14700 28.68600 21.52400
H  -0.57600 29.10100 25.29200
H  -0.11700 29.06000 26.96300
H  -1.49500 30.03400 26.50600
H  -3.90400 27.92000 30.51400
H  -2.34600 25.39200 33.48300
H  -1.71100 26.99400 34.00700
H  -0.84000 26.15300 32.80700

