158

Mg 48.15100 16.09200 29.01900
C  46.39100 15.50000 31.81200
C  50.49400 17.68500 30.90100
C  49.97200 16.67000 26.26500
C  45.53000 14.60400 27.05700
N  48.47400 16.40100 31.12000
C  47.53900 16.12600 32.10600
C  47.89700 16.72500 33.49100
C  49.19900 17.50000 33.08800
C  49.40400 17.24900 31.61200
C  49.13200 19.04000 33.45900
C  48.22600 15.60400 34.53100
C  47.53600 15.91000 35.85700
H  47.40000 17.34400 36.38000
N  49.99800 16.97700 28.64400
C  50.83400 17.56600 29.54400
C  52.09800 17.98000 28.92300
C  51.94600 17.72700 27.54800
C  50.63800 17.00700 27.44300
C  53.24800 18.48600 29.76600
C  52.88000 18.13500 26.37800
O  52.69000 17.65200 25.23200
C  53.95500 19.20400 26.51300
N  47.74000 15.77400 26.95500
C  48.62400 16.24600 26.03300
C  48.13000 15.94200 24.61500
C  46.73300 15.25900 24.89300
C  46.66600 15.18200 26.33700
C  48.31500 17.23300 23.68900
C  46.53700 13.84400 24.13400
C  46.86400 12.59400 24.94500
N  46.28600 15.22200 29.31500
C  45.42900 14.54200 28.43200
C  44.35500 13.89300 29.21800
C  44.62500 14.27800 30.56500
C  45.84900 15.09800 30.53600
C  43.13900 13.15000 28.78500
C  44.21000 14.25800 31.99300
O  43.29500 13.70000 32.63000
C  45.32500 15.11300 32.78000
C  44.52300 16.25700 33.25800
O  44.26600 17.32000 32.66700
O  43.98400 15.97500 34.51400
C  43.06600 16.91900 35.13900
H  51.20400 18.19000 31.55900
H  50.45300 16.87900 25.30800
H  44.71100 14.14200 26.50100
H  47.11100 17.42400 33.77600
H  49.99100 16.98700 33.63200
H  49.29900 19.80300 32.69900
H  49.90700 19.15200 34.21700
H  48.26000 19.27700 34.06800
H  49.26800 15.45800 34.81500
H  47.75200 14.67700 34.20700
H  48.05200 15.30300 36.60100
H  46.51000 15.61600 35.63700
H  52.92100 18.96400 30.69000
H  53.75500 19.25300 29.18100
H  53.97100 17.69500 29.96300
H  53.42800 19.94700 27.11100
H  54.36200 19.62300 25.59200
H  54.73100 18.74700 27.12800
H  48.69200 15.17100 24.08900
H  45.97400 15.98300 24.59900
H  49.02900 17.06800 22.88200
H  48.71900 18.07400 24.25300
H  47.31700 17.39800 23.28400
H  47.16600 13.87300 23.24400
H  45.54000 13.76700 23.70000
H  45.97200 12.34300 25.51900
H  47.68600 12.89700 25.59400
H  47.14800 11.68300 24.41800
H  42.27500 13.70800 28.42400
H  42.91600 12.44900 29.59000
H  43.49800 12.50900 27.97900
H  45.67600 14.40400 33.53000
H  42.60700 17.64700 34.47100
H  43.49800 17.51300 35.94500
H  42.22900 16.48800 35.68700
Mg -6.71800 25.72600 25.40000
C  -5.35000 27.14200 28.39200
C  -8.66300 23.74300 27.39300
C  -7.90500 24.11700 22.61600
C  -4.70600 27.75500 23.51400
N  -6.91100 25.44400 27.62900
C  -6.27500 26.12300 28.69100
C  -6.79800 25.62800 29.98900
C  -7.69700 24.44600 29.60200
C  -7.73200 24.46800 28.10100
C  -7.29900 23.00700 30.21700
C  -7.50200 26.76900 30.88200
C  -8.18300 26.29900 32.19900
H  -7.55500 25.12700 33.03600
N  -8.18700 24.24300 25.01200
C  -8.88600 23.57400 26.00100
C  -9.81200 22.59600 25.39600
C  -9.60100 22.70600 23.96400
C  -8.53400 23.71200 23.80800
C  -10.68400 21.64400 26.21900
C  -10.22300 21.85800 22.84700
O  -9.89200 22.05100 21.63000
C  -11.08500 20.71600 23.13200
N  -6.31100 25.86500 23.37500
C  -6.85000 25.05600 22.38500
C  -6.37100 25.43100 20.95700
C  -5.36800 26.62100 21.25400
C  -5.42500 26.73500 22.80100
C  -5.80100 24.23000 20.09300
C  -5.52800 27.97700 20.47000
C  -6.68900 29.04200 20.93000
N  -5.29600 27.19300 25.85500
C  -4.55300 27.92600 24.96000
C  -3.75200 28.84200 25.73100
C  -3.95400 28.55400 27.05900
C  -4.89500 27.47600 27.12100
C  -2.92900 29.95900 25.13200
C  -3.66100 28.89200 28.46700
O  -2.89800 29.77400 28.91300
C  -4.51600 27.93900 29.41400
C  -3.54100 27.15500 30.24400
O  -2.69800 26.34600 29.90900
O  -3.70900 27.47300 31.55600
C  -2.81100 26.75600 32.47400
H  -9.26200 23.08500 28.02600
H  -8.15200 23.51900 21.73600
H  -3.99300 28.26200 22.86000
H  -5.90900 25.26000 30.50200
H  -8.68000 24.67100 30.01600
H  -6.22200 22.85900 30.28500
H  -7.52900 22.14900 29.58500
H  -7.75900 22.97400 31.20500
H  -8.33700 27.26000 30.38100
H  -6.74900 27.50100 31.17500
H  -9.24600 26.14700 32.01200
H  -8.12300 27.19500 32.81600
H  -10.40900 20.64100 25.89200
H  -11.71400 21.81700 25.90800
H  -10.55700 21.67400 27.30100
H  -11.95700 21.10000 23.66200
H  -10.70500 19.88200 23.72200
H  -11.51700 20.30000 22.22200
H  -7.20100 25.86600 20.39900
H  -4.37200 26.25600 21.00400
H  -5.91200 23.26800 20.59300
H  -4.72300 24.35300 19.99500
H  -6.24900 24.20000 19.09900
H  -5.82800 27.66300 19.47000
H  -4.56200 28.48100 20.43400
H  -7.26700 28.61000 21.74700
H  -7.34800 29.03800 20.06200
H  -6.49600 30.09100 21.15500
H  -3.65000 30.44100 24.47100
H  -2.03100 29.68700 24.57700
H  -2.58200 30.68000 25.87200
H  -4.98800 28.64700 30.09600
H  -2.87800 27.22100 33.45700
H  -1.80400 26.75200 32.05800
H  -3.07200 25.69800 32.44300

