158

Mg 0.63200 7.65800 26.68300
C  1.20700 9.62500 29.43000
C  0.67700 4.87100 28.69600
C  0.48600 5.68700 23.97400
C  0.89100 10.52300 24.62800
N  1.03800 7.34200 28.83500
C  1.06800 8.24200 29.81700
C  1.12600 7.54600 31.30200
C  1.21600 6.02500 30.94800
C  0.97200 6.08100 29.41300
C  2.56800 5.29400 31.33500
C  -0.07900 8.00800 32.16200
C  0.32600 8.62600 33.46500
H  -0.45600 8.05300 34.66500
N  0.39500 5.51100 26.37800
C  0.47900 4.55900 27.34100
C  0.07800 3.25700 26.71800
C  -0.04200 3.53400 25.31200
C  0.30400 4.96500 25.17700
C  -0.18800 2.05400 27.58700
C  -0.42800 2.55400 24.22100
O  -0.50500 2.96100 23.03700
C  -0.65300 1.17200 24.51300
N  0.88500 8.04700 24.54400
C  0.78500 7.02600 23.64200
C  0.97500 7.66900 22.22900
C  0.54800 9.16800 22.47900
C  0.77400 9.29400 23.97800
C  2.48200 7.51000 21.64400
C  -1.01000 9.40600 22.19400
C  -1.27200 10.26700 21.00600
N  1.06000 9.67500 26.90200
C  1.14700 10.79100 25.98400
C  1.30400 12.03200 26.72900
C  1.30300 11.62300 28.01100
C  1.18200 10.17200 28.08700
C  1.38700 13.42600 26.07700
C  1.46000 12.09700 29.39900
O  1.69600 13.19500 29.81500
C  1.38900 10.78900 30.38200
C  2.48700 10.78400 31.40000
O  3.63900 10.38300 31.20800
O  1.97300 11.46500 32.45000
C  2.89400 11.49600 33.59800
H  0.53600 4.07300 29.42800
H  0.29300 5.11300 23.06600
H  0.83000 11.36700 23.93800
H  2.01900 7.98100 31.75100
H  0.52500 5.51700 31.62100
H  3.05700 5.09900 30.38100
H  2.37600 4.39500 31.92000
H  3.27000 5.96200 31.83400
H  -0.74200 7.14900 32.26600
H  -0.72000 8.72700 31.65200
H  -0.06400 9.64300 33.48700
H  1.38800 8.72000 33.68800
H  -1.12200 1.84900 27.06300
H  -0.38500 2.27500 28.63500
H  0.48200 1.20400 27.45800
H  -0.69900 0.63900 23.56300
H  -1.57900 1.09600 25.08100
H  0.20900 0.79700 25.06500
H  0.26800 7.15500 21.57900
H  1.20700 9.85400 21.94900
H  3.05000 7.47500 22.57400
H  2.63200 8.29600 20.90400
H  2.74200 6.49100 21.35800
H  -1.51400 9.71200 23.11000
H  -1.35100 8.42200 21.87100
H  -0.90200 11.23800 21.33500
H  -2.36000 10.32400 20.98700
H  -0.87200 9.91300 20.05600
H  1.16700 14.10000 26.90500
H  0.68000 13.54600 25.25600
H  2.41800 13.56300 25.75300
H  0.50700 10.85100 31.02000
H  2.29800 11.32500 34.49400
H  3.26300 12.51500 33.71200
H  3.66000 10.72100 33.59500
Mg 1.42600 42.53700 26.04500
C  2.62100 42.58500 29.17400
C  -1.36600 40.84500 27.26800
C  0.30600 42.16900 22.86800
C  4.32900 43.92900 24.72900
N  0.59800 41.98000 28.06400
C  1.29000 42.13400 29.17800
C  0.40600 41.86700 30.46300
C  -0.87300 41.28100 29.79000
C  -0.55200 41.33300 28.27000
C  -1.32100 39.85100 30.21900
C  0.21200 43.11600 31.39500
C  0.84700 43.17700 32.80400
H  0.72500 41.93800 33.74100
N  -0.30400 41.61400 25.22300
C  -1.26000 40.92700 25.87700
C  -2.26400 40.47500 25.01400
C  -1.85700 40.87100 23.71300
C  -0.57900 41.68000 23.88300
C  -3.57500 39.63500 25.40000
C  -2.49800 40.70600 22.34500
O  -2.09600 41.13700 21.25500
C  -3.81300 39.89000 22.18800
N  2.21500 42.95800 24.08000
C  1.50400 42.75400 22.98300
C  2.35400 42.95900 21.74200
C  3.39800 43.93200 22.31100
C  3.34400 43.66800 23.80400
C  2.84700 41.52400 21.11800
C  3.46700 45.41400 21.86100
C  2.21400 46.28700 21.88800
N  3.15600 43.00800 26.77300
C  4.22200 43.64200 26.10800
C  5.32000 43.86600 27.10200
C  4.73700 43.43500 28.34800
C  3.44600 42.91000 28.09900
C  6.64000 44.47500 26.97700
C  4.96300 43.30200 29.75100
O  6.00300 43.41400 30.39900
C  3.56900 42.75000 30.35100
C  3.84800 41.45700 31.13000
O  3.78500 40.28300 30.83600
O  4.33400 41.90100 32.36100
C  5.07700 40.86500 33.09500
H  -2.32000 40.46600 27.64100
H  0.09300 41.90600 21.83000
H  5.29000 44.26100 24.33100
H  0.94400 41.09900 31.02000
H  -1.73700 41.91800 29.97700
H  -0.60500 39.56100 30.98900
H  -1.32100 39.08800 29.44100
H  -2.29000 40.01600 30.68800
H  -0.87200 43.19800 31.48000
H  0.54400 43.99600 30.84400
H  0.40100 43.96000 33.41700
H  1.89700 43.45700 32.71200
H  -3.82400 38.95900 24.58300
H  -4.40900 40.31900 25.55400
H  -3.28000 39.17000 26.34000
H  -3.74300 38.81100 22.32500
H  -4.22100 40.13100 21.20700
H  -4.51900 40.40200 22.84200
H  1.83900 43.48100 20.93500
H  4.38500 43.60100 21.99000
H  2.10100 40.74900 21.29500
H  3.80200 41.29900 21.59300
H  2.86400 41.66000 20.03700
H  3.92000 45.38200 20.87000
H  4.16600 45.98800 22.46900
H  2.12800 46.97200 22.73100
H  1.28800 45.72200 21.77900
H  2.33800 46.88100 20.98200
H  6.47100 45.24700 26.22600
H  7.33000 43.70300 26.63600
H  6.98700 44.86500 27.93300
H  3.23400 43.41300 31.14900
H  5.74800 40.35600 32.40300
H  4.50800 40.02800 33.50000
H  5.60000 41.42700 33.86900

