158

Mg -0.86700 17.71500 26.12100
C  -1.04600 15.22900 28.60900
C  -2.00300 19.87900 28.55800
C  -1.49000 20.17900 23.75200
C  -0.54600 15.42700 23.76100
N  -1.43700 17.53800 28.38500
C  -1.20900 16.50000 29.20200
C  -1.33400 16.88800 30.68000
C  -1.90300 18.31700 30.58800
C  -1.77200 18.62900 29.11000
C  -3.38800 18.40900 31.24600
C  -0.01400 16.73400 31.46200
C  0.16400 17.47700 32.78800
H  0.04600 16.76100 34.03900
N  -1.43200 19.83300 26.20200
C  -1.96200 20.48000 27.30000
C  -2.39400 21.76600 26.94800
C  -2.10800 21.90000 25.56600
C  -1.60700 20.58400 25.09400
C  -3.06100 22.73600 27.89200
C  -2.38700 23.06400 24.68400
O  -2.11400 22.99300 23.47300
C  -2.86700 24.46100 25.25800
N  -0.66900 17.85700 24.12300
C  -0.94300 18.95900 23.31400
C  -0.73800 18.61900 21.80800
C  -0.29100 17.12200 21.95300
C  -0.53900 16.76300 23.37800
C  -1.86700 18.89900 20.79800
C  1.17300 16.74400 21.50100
C  1.22900 16.01800 20.08800
N  -0.69700 15.76000 26.12300
C  -0.64000 14.89700 25.03500
C  -0.68600 13.59200 25.44600
C  -0.81700 13.61500 26.82700
C  -0.83100 15.00300 27.21700
C  -0.75800 12.38100 24.53800
C  -0.87100 12.83800 28.04700
O  -1.06800 11.64700 28.31600
C  -1.14800 13.85600 29.22700
C  -0.18900 13.61300 30.29300
O  1.01600 13.56400 30.20800
O  -0.91500 13.45800 31.40900
C  -0.13700 13.04400 32.50900
H  -2.23000 20.48800 29.43600
H  -1.90800 20.77500 22.93800
H  -0.51800 14.73900 22.91300
H  -2.06300 16.23800 31.16300
H  -1.26700 19.06900 31.05500
H  -4.18800 18.22700 30.52800
H  -3.37100 19.45700 31.54800
H  -3.50700 17.69400 32.05900
H  0.85300 17.00100 30.85700
H  0.10900 15.69500 31.76600
H  -0.50200 18.33900 32.82200
H  1.15000 17.94000 32.83500
H  -2.74500 22.59800 28.92500
H  -4.14600 22.64500 27.95100
H  -2.85700 23.78400 27.67100
H  -2.86400 25.22100 24.47600
H  -2.08600 24.87400 25.89800
H  -3.87900 24.46100 25.66300
H  0.14500 19.14100 21.43800
H  -0.89500 16.55500 21.24500
H  -1.88500 19.96400 20.56900
H  -2.86500 18.58000 21.10000
H  -1.67700 18.38000 19.85800
H  1.58300 16.11000 22.28700
H  1.79000 17.64200 21.46600
H  2.25000 15.85800 19.74400
H  0.79800 16.64200 19.30500
H  0.72300 15.05300 20.11300
H  0.14400 12.22700 23.94500
H  -1.70000 12.53200 24.01000
H  -1.01400 11.55700 25.20400
H  -2.16000 13.65900 29.58100
H  0.31100 13.77400 33.18300
H  0.63700 12.31900 32.25600
H  -0.78900 12.46800 33.16500
Mg 9.18100 48.89400 26.22900
C  7.09500 49.36500 28.94700
C  11.83800 49.95500 28.10000
C  11.10300 48.43300 23.51500
C  6.32800 48.17700 24.22700
N  9.38100 49.62300 28.31100
C  8.44800 49.68700 29.26800
C  9.05800 50.17000 30.57000
C  10.49300 50.64500 30.08400
C  10.63000 50.01300 28.73100
C  10.77100 52.19400 30.05100
C  9.22400 49.00000 31.60300
C  8.29500 49.05800 32.84500
H  8.42600 48.01500 33.95100
N  11.20700 49.00700 25.86600
C  12.09300 49.50800 26.79000
C  13.44600 49.33900 26.26200
C  13.34000 48.83700 24.97800
C  11.87000 48.77300 24.66400
C  14.73700 49.68800 26.90300
C  14.36000 48.43700 23.93800
O  14.08800 47.81300 22.89200
C  15.77800 48.67000 24.23700
N  8.75900 48.31400 24.14800
C  9.74400 48.31000 23.20000
C  9.19400 47.84500 21.87200
C  7.64100 47.88900 22.03600
C  7.54500 48.08400 23.58300
C  9.50100 48.68600 20.60300
C  6.95800 46.52800 21.55000
C  6.34300 46.64300 20.15200
N  7.16500 48.78500 26.42300
C  6.08500 48.59100 25.58400
C  4.81600 48.72400 26.21400
C  5.17100 48.96000 27.55000
C  6.59100 48.98500 27.64200
C  3.46600 48.72900 25.50400
C  4.69100 49.19200 28.88400
O  3.50800 49.21600 29.29200
C  5.89100 49.39000 29.81100
C  5.93300 48.21000 30.66700
O  6.65700 47.20100 30.72700
O  4.99400 48.52600 31.69900
C  4.70100 47.46800 32.59700
H  12.69400 50.34100 28.65700
H  11.78300 48.32800 22.66600
H  5.41900 48.06600 23.63300
H  8.40400 50.98500 30.87900
H  11.29400 50.13400 30.61700
H  9.92200 52.83600 30.29000
H  11.11200 52.52700 29.07100
H  11.46700 52.43200 30.85500
H  10.20700 48.89000 32.06200
H  9.21000 48.05300 31.06200
H  7.25600 49.04400 32.51500
H  8.49200 50.01800 33.32100
H  14.73800 49.98100 27.95200
H  15.25400 50.48600 26.37000
H  15.34700 48.78600 26.88300
H  16.01600 48.00800 25.07000
H  15.86000 49.72500 24.49700
H  16.29900 48.27900 23.36300
H  9.70500 46.89900 21.68900
H  7.20500 48.76100 21.54800
H  10.03300 49.58400 20.91900
H  8.70900 48.95200 19.90300
H  10.21900 48.10800 20.02100
H  6.08800 46.20700 22.12300
H  7.59100 45.64500 21.46400
H  5.36000 46.17400 20.11300
H  7.07200 46.14600 19.51200
H  6.30300 47.64100 19.71500
H  3.14000 47.91900 24.85200
H  3.34200 49.68100 24.98900
H  2.65300 48.74700 26.22900
H  5.87200 50.35400 30.32000
H  5.31200 47.39000 33.49600
H  4.47300 46.47200 32.21600
H  3.73300 47.73700 33.02100

