158

Mg 40.69300 10.57900 30.04500
C  42.83400 12.01500 32.56100
C  38.97900 9.05900 32.64900
C  38.87100 9.01300 27.80900
C  43.18500 11.25800 27.76400
N  41.05600 10.53100 32.39500
C  41.77400 11.32700 33.17800
C  41.42900 11.19800 34.64000
C  40.23600 10.15900 34.66800
C  40.08500 9.86500 33.16700
C  40.54900 8.89500 35.48000
C  41.18400 12.60200 35.31300
C  41.54800 12.63300 36.82000
H  40.47300 13.20000 37.75000
N  39.07900 9.37500 30.19100
C  38.53500 8.82500 31.33500
C  37.39700 8.02200 31.02700
C  37.22000 8.07000 29.59200
C  38.39400 8.89800 29.13300
C  36.60600 7.15700 31.97600
C  36.22500 7.45600 28.66100
O  36.29600 7.58600 27.42100
C  35.13700 6.64500 29.21400
N  41.02000 10.10600 28.04000
C  40.06000 9.48500 27.29400
C  40.56000 9.35000 25.84000
C  41.99700 9.96000 25.91100
C  42.07700 10.48100 27.32400
C  40.50000 7.96400 25.22400
C  42.27300 11.11200 24.81300
C  41.74400 12.53300 25.14700
N  42.51300 11.56500 30.09000
C  43.36700 11.79000 29.04700
C  44.48100 12.56600 29.50600
C  44.30600 12.77300 30.88300
C  43.13400 12.03100 31.15100
C  45.64900 12.96300 28.63300
C  44.88200 13.27500 32.06300
O  45.99000 13.72900 32.27100
C  43.81700 12.96900 33.25900
C  44.51800 12.23200 34.40600
O  44.97900 11.06500 34.42700
O  44.73200 13.10700 35.48200
C  45.50700 12.66200 36.65700
H  38.35200 8.64700 33.44300
H  38.28300 8.48100 27.05900
H  44.06200 11.30000 27.11500
H  42.34500 10.78400 35.06200
H  39.37900 10.71900 35.04200
H  40.50600 8.06600 34.77400
H  39.80300 8.76500 36.26500
H  41.52800 8.97400 35.95200
H  40.14600 12.86600 35.11300
H  41.70800 13.47600 34.92700
H  42.46000 13.21000 36.97400
H  41.84500 11.64300 37.16600
H  36.77100 6.13500 31.63300
H  35.52400 7.26500 31.91300
H  36.92900 7.23800 33.01400
H  34.44400 6.31300 28.44200
H  34.52200 7.32600 29.80300
H  35.50200 5.79100 29.78400
H  39.91500 9.99700 25.24400
H  42.81900 9.26700 25.73300
H  39.83600 8.02400 24.36100
H  40.26200 7.16000 25.92000
H  41.46800 7.75400 24.77000
H  41.74800 10.83100 23.90000
H  43.35900 11.02100 24.81100
H  41.27200 12.95100 24.25800
H  42.47900 13.23000 25.54800
H  41.00800 12.49800 25.95000
H  46.45300 13.11300 29.35300
H  45.34000 13.83100 28.05000
H  45.99800 12.07800 28.10100
H  43.37500 13.90900 33.59000
H  44.97100 12.78100 37.59900
H  46.37800 13.31700 36.66900
H  45.86000 11.64200 36.50200
Mg 30.13600 57.63600 40.90300
C  27.13800 56.14400 39.91200
C  31.83200 55.14000 39.26300
C  32.71500 59.67000 40.63700
C  28.20700 60.26200 42.16100
N  29.61400 55.87500 39.70000
C  28.26300 55.47600 39.36800
C  28.31100 54.26400 38.44600
C  29.83700 53.76300 38.61000
C  30.48600 54.96300 39.23100
C  30.09300 52.62000 39.59100
C  27.88200 54.68900 37.00800
C  26.70500 53.84700 36.51400
H  26.48600 53.88900 35.00300
N  32.02100 57.38400 40.09700
C  32.61600 56.24700 39.57300
C  33.99700 56.41800 39.55900
C  34.27700 57.79300 39.97900
C  32.95900 58.34300 40.33500
C  34.93200 55.45700 38.99200
C  35.66000 58.40200 39.87600
O  36.59700 57.71700 39.59300
C  35.93900 59.91100 40.12100
N  30.39500 59.76300 41.17600
C  31.52700 60.38300 41.00200
C  31.45900 61.89900 41.42600
C  30.16900 61.95400 42.22800
C  29.51600 60.61500 41.79900
C  32.63300 62.42600 42.22500
C  29.29800 63.17300 41.71000
C  28.31700 63.77900 42.66900
N  28.08100 58.10300 41.21600
C  27.43700 59.15900 41.83100
C  26.02300 58.98100 41.77600
C  25.87200 57.78400 41.08200
C  27.15400 57.32100 40.71400
C  24.98000 59.87100 42.37800
C  24.87800 56.81300 40.60300
O  23.69700 56.78300 40.87400
C  25.72500 55.67900 39.80800
C  25.34000 54.37100 40.34800
O  25.82800 53.81700 41.32300
O  24.39200 53.81500 39.52900
C  23.94800 52.47800 39.90000
H  32.36200 54.26400 38.88300
H  33.57200 60.32200 40.46100
H  27.68400 61.03100 42.73300
H  27.63600 53.47800 38.78600
H  30.25700 53.63700 37.61200
H  30.63400 51.84200 39.05200
H  29.24800 52.03100 39.94600
H  30.75500 52.83400 40.43000
H  28.71500 54.42100 36.35800
H  27.69200 55.75800 36.91400
H  25.86000 54.28700 37.04300
H  26.98500 52.82200 36.75900
H  35.49000 55.77500 38.11100
H  34.46300 54.48800 38.82000
H  35.69300 55.29600 39.75600
H  35.55700 60.24400 41.08600
H  35.34200 60.41000 39.35800
H  36.94300 60.30800 39.97200
H  31.33200 62.50600 40.53000
H  30.09300 61.88400 43.31300
H  33.47900 61.78300 41.98500
H  32.36200 62.55100 43.27300
H  32.83100 63.37100 41.71900
H  28.71900 62.89700 40.82800
H  30.01200 63.93400 41.39800
H  28.46200 63.49700 43.71200
H  27.30800 63.60300 42.29700
H  28.45900 64.85900 42.65700
H  24.90800 60.86900 41.94500
H  25.24900 59.93700 43.43200
H  24.03000 59.39800 42.13100
H  25.45800 55.42400 38.78200
H  24.34800 51.78900 39.15500
H  22.85900 52.51700 39.90100
H  24.15000 52.07300 40.89200

