158

Mg 43.52900 4.42200 46.54100
C  41.42200 7.19500 46.32300
C  40.84100 2.39300 46.04200
C  45.50500 1.82600 45.65600
C  46.27300 6.58700 46.49200
N  41.38200 4.88100 46.14600
C  40.71600 6.00000 46.23100
C  39.22900 5.82600 46.47900
C  39.10600 4.22500 46.59200
C  40.57500 3.77900 46.28100
C  38.54500 3.70100 47.97100
C  38.28300 6.60400 45.43900
C  38.24800 6.23500 43.91900
H  38.99000 7.06100 42.98600
N  43.21700 2.29700 45.89100
C  41.97700 1.70600 45.82900
C  42.10900 0.34800 45.47600
C  43.50400 0.18500 45.16400
C  44.19900 1.46700 45.52900
C  41.02600 -0.59200 45.29900
C  44.11400 -1.10000 44.74200
O  43.44700 -2.10000 44.61600
C  45.58700 -1.20400 44.47900
N  45.59800 4.20800 46.01200
C  46.22100 3.05300 45.93000
C  47.79100 3.17400 45.98000
C  47.91200 4.59400 46.59300
C  46.52200 5.19500 46.31600
C  48.44400 2.03000 46.94100
C  49.14200 5.37200 46.07600
C  50.56100 4.98800 46.58200
N  43.85100 6.47900 46.47700
C  45.03900 7.19400 46.56900
C  44.68800 8.61300 46.58000
C  43.27300 8.63900 46.52100
C  42.85800 7.28500 46.49900
C  45.62800 9.79500 46.45100
C  42.13100 9.50900 46.62700
O  42.16000 10.72500 46.71500
C  40.94400 8.64300 46.61200
C  40.17100 8.82700 47.87700
O  40.45800 8.30500 48.94000
O  39.09800 9.64500 47.71300
C  38.24500 10.13400 48.82000
H  39.94400 1.77100 46.03200
H  46.29200 1.10500 45.42600
H  47.10500 7.26900 46.67900
H  38.88800 6.29100 47.40400
H  38.60200 3.82100 45.71400
H  39.27800 2.99300 48.35900
H  37.59100 3.21800 47.75600
H  38.45700 4.59600 48.58700
H  38.57700 7.64900 45.33800
H  37.25600 6.55400 45.80100
H  37.18700 6.10200 43.71100
H  38.74400 5.26500 43.95100
H  41.20000 -1.38500 44.57200
H  40.08000 -0.12400 45.02600
H  40.75800 -1.04700 46.25300
H  46.09600 -1.04500 45.43000
H  45.87500 -0.43400 43.76400
H  45.67600 -2.22700 44.11200
H  48.28000 3.01100 45.01900
H  48.04000 4.55100 47.67500
H  47.75600 1.20800 47.13700
H  48.75900 2.52400 47.86000
H  49.37300 1.59500 46.57200
H  48.99700 6.38600 46.45100
H  49.11000 5.32800 44.98700
H  50.89300 5.76600 47.26900
H  51.19600 5.15800 45.71300
H  50.62800 3.96100 46.94300
H  45.15200 10.77500 46.46800
H  46.23900 9.73800 45.54900
H  46.26000 9.82500 47.33800
H  40.21700 8.87100 45.83200
H  38.05700 11.20500 48.75200
H  38.64500 9.90800 49.80800
H  37.27100 9.65100 48.74900
Mg -12.08600 15.41400 42.67900
C  -8.98500 13.82000 41.99400
C  -10.72500 18.07200 40.87700
C  -15.13100 16.63200 42.30800
C  -13.33200 12.34900 43.71800
N  -10.03200 15.92800 41.66300
C  -9.03700 15.05900 41.43200
C  -7.89300 15.66100 40.66700
C  -8.27400 17.09400 40.48200
C  -9.74200 17.09600 41.08800
C  -7.43400 18.14800 41.21800
C  -7.53100 14.87600 39.31200
C  -6.02500 14.72400 39.01000
H  -5.33400 15.45300 37.74500
N  -12.77000 17.15800 41.78100
C  -12.08200 18.18900 41.26700
C  -13.05500 19.24700 40.90300
C  -14.33100 18.81900 41.33000
C  -14.13800 17.47000 41.86300
C  -12.70700 20.49500 40.13400
C  -15.55400 19.72700 41.38300
O  -15.51100 20.91200 40.98200
C  -16.86000 19.26600 41.93600
N  -13.90300 14.71900 43.21100
C  -15.07800 15.41800 42.98800
C  -16.27100 14.60600 43.36400
C  -15.72000 13.28000 43.83500
C  -14.18400 13.40900 43.50200
C  -17.17800 15.30400 44.48100
C  -16.36700 11.99500 43.42500
C  -16.63300 10.90300 44.50900
N  -11.27800 13.60400 43.16400
C  -11.92300 12.43100 43.54000
C  -10.89500 11.45100 43.78000
C  -9.71600 11.97200 43.15800
C  -10.07300 13.23400 42.68200
C  -11.04200 10.05200 44.35100
C  -8.35200 11.65400 42.83100
O  -7.70800 10.68700 43.12300
C  -7.79200 12.84600 42.09600
C  -6.66900 13.47600 42.89500
O  -6.76500 13.94500 44.02600
O  -5.53200 13.48600 42.11700
C  -4.62100 14.38900 42.78100
H  -10.30500 18.90900 40.31700
H  -16.16600 16.86000 42.04300
H  -13.74900 11.36900 43.96100
H  -7.12800 15.73400 41.44000
H  -8.33800 17.26300 39.40700
H  -6.40200 17.87400 40.99600
H  -7.51800 18.05300 42.30000
H  -7.75000 19.14800 40.92200
H  -8.06300 15.32600 38.47500
H  -7.95200 13.87400 39.22300
H  -5.84400 13.65000 39.04700
H  -5.38800 15.15300 39.78400
H  -12.03400 20.15100 39.34800
H  -12.18700 21.20300 40.77900
H  -13.51800 20.96200 39.57500
H  -17.52000 20.08800 42.21200
H  -16.56900 18.79900 42.87700
H  -17.29600 18.56100 41.22800
H  -16.87200 14.41700 42.47500
H  -15.77000 13.32300 44.92300
H  -16.81500 16.30000 44.73600
H  -17.43200 14.69800 45.35000
H  -18.01700 15.59900 43.84900
H  -15.73900 11.68500 42.59000
H  -17.27700 12.26900 42.89100
H  -15.74000 10.30400 44.69100
H  -17.42200 10.23000 44.17500
H  -16.97300 11.30100 45.46400
H  -10.31900 9.83300 45.13600
H  -10.74400 9.39600 43.53300
H  -12.09700 10.05100 44.62400
H  -7.46200 12.69800 41.06800
H  -5.17700 15.32600 42.74400
H  -3.80100 14.56700 42.08500
H  -4.32000 14.01200 43.75800

