158

Mg 0.07400 7.43400 26.21300
C  1.18100 9.59900 28.68200
C  -0.01300 5.05000 28.59000
C  -0.48300 5.21900 23.79900
C  0.88100 9.95000 23.75700
N  0.65900 7.35100 28.38400
C  0.80200 8.34100 29.23200
C  0.67000 7.91700 30.67500
C  0.74100 6.40800 30.56700
C  0.44700 6.24800 29.08600
C  2.12700 5.82100 31.01300
C  -0.70700 8.51400 31.20900
C  -0.82700 8.31900 32.67400
H  0.40700 8.03100 33.63500
N  -0.36100 5.46300 26.24300
C  -0.37500 4.60500 27.34500
C  -0.79700 3.33000 26.96000
C  -1.00600 3.33400 25.48800
C  -0.60400 4.69100 25.07200
C  -0.83600 2.16800 27.98800
C  -1.45500 2.24800 24.53800
O  -1.35900 2.30400 23.35400
C  -1.99700 0.95300 25.00700
N  0.18300 7.57800 24.05600
C  -0.22000 6.51700 23.32300
C  -0.07100 6.87000 21.86200
C  0.14600 8.37300 21.90500
C  0.51400 8.70200 23.30200
C  1.06000 6.06400 21.08800
C  -1.16800 9.17600 21.42900
C  -0.99400 10.06400 20.20900
N  0.95300 9.35200 26.17700
C  1.16500 10.23100 25.15200
C  1.62000 11.43400 25.69600
C  1.60500 11.26000 27.10700
C  1.26600 9.96700 27.32000
C  1.86900 12.78000 24.96300
C  1.78500 11.87800 28.40200
O  2.11800 13.05600 28.71800
C  1.48400 10.80100 29.47200
C  2.65200 10.70400 30.40100
O  3.64800 10.05000 30.25700
O  2.42300 11.60900 31.44800
C  3.42100 11.43200 32.48900
H  0.06000 4.25000 29.33000
H  -0.78600 4.58500 22.96300
H  1.05700 10.69700 22.98000
H  1.52400 8.39600 31.15500
H  -0.06700 5.96600 31.14900
H  2.88300 6.57700 31.22500
H  2.46100 5.17700 30.19900
H  1.93600 5.19600 31.88500
H  -1.50500 7.98500 30.68900
H  -0.77700 9.57200 30.95600
H  -1.59000 7.63000 33.03900
H  -1.26700 9.23500 33.06800
H  -1.22100 1.16300 27.81400
H  -1.49500 2.52400 28.77900
H  0.15100 2.17800 28.45200
H  -2.59700 0.54800 24.19200
H  -2.58800 1.14100 25.90400
H  -1.17400 0.30500 25.30800
H  -0.95300 6.55300 21.30600
H  0.88500 8.73300 21.19000
H  1.74500 6.85400 20.78100
H  0.71000 5.62400 20.15400
H  1.57000 5.44700 21.82800
H  -1.52600 9.90000 22.16100
H  -2.04300 8.55700 21.22900
H  -1.86500 9.96700 19.56100
H  -0.09400 9.91600 19.61300
H  -0.90900 11.07500 20.60800
H  2.58500 12.70500 24.14400
H  2.22700 13.53800 25.66000
H  0.91200 13.13700 24.58300
H  0.55600 11.05400 29.98400
H  3.36000 10.54800 33.12400
H  3.13700 12.25800 33.14100
H  4.43400 11.62700 32.13500
Mg 6.92600 55.56100 40.31500
C  4.34400 53.18700 39.88600
C  9.22200 52.99500 39.82900
C  9.29300 57.77400 40.14000
C  4.50100 57.99100 41.07300
N  6.75300 53.34300 39.50700
C  5.60600 52.60200 39.53700
C  5.94400 51.21800 38.99300
C  7.48900 51.14000 39.30800
C  7.85500 52.56600 39.61100
C  7.98600 50.33300 40.49900
C  5.49400 51.02900 37.49500
C  4.56100 49.83300 37.19300
H  4.77500 48.95900 35.92400
N  8.98400 55.43000 39.86600
C  9.75100 54.23700 39.81600
C  11.08400 54.58500 39.65800
C  11.16900 55.97500 39.58000
C  9.79900 56.44500 39.82700
C  12.28800 53.59600 39.46300
C  12.40200 56.77400 39.33900
O  13.44000 56.15300 39.13700
C  12.44400 58.27600 39.38800
N  6.82900 57.63200 40.44800
C  8.03800 58.27100 40.50200
C  7.88400 59.60500 41.08500
C  6.28900 59.87400 41.02400
C  5.76100 58.40500 40.82300
C  8.40900 59.71000 42.54700
C  5.95100 60.79400 39.81800
C  5.33500 62.16700 40.19900
N  4.88000 55.68600 40.46600
C  4.02800 56.70200 40.81800
C  2.69600 56.23100 40.96700
C  2.79600 54.82300 40.72800
C  4.08600 54.56300 40.23600
C  1.47600 56.98700 41.42800
C  2.06900 53.62100 40.73500
O  0.91100 53.33800 41.03900
C  2.99800 52.50200 40.12000
C  2.39500 52.08400 38.90100
O  2.66000 52.58300 37.83600
O  1.52600 51.04500 39.25500
C  0.74000 50.54600 38.21200
H  9.92100 52.17800 39.63900
H  10.09900 58.49200 40.30300
H  3.84300 58.76000 41.48200
H  5.47700 50.46900 39.63200
H  7.98300 51.00300 38.34600
H  9.01500 50.04300 40.28700
H  7.44400 49.38800 40.53000
H  7.90600 50.86900 41.44500
H  6.36300 51.06800 36.83800
H  5.02700 51.94300 37.12900
H  3.62000 50.27900 36.87200
H  4.42900 49.15300 38.03500
H  12.77200 53.66000 38.48800
H  12.23000 52.52500 39.65800
H  13.08300 54.03200 40.06800
H  11.98600 58.74100 38.51500
H  13.52100 58.44500 39.38800
H  12.18600 58.64700 40.38000
H  8.58800 60.19600 40.50000
H  5.98900 60.23100 42.00900
H  7.63400 60.05300 43.23300
H  9.36000 60.24000 42.59800
H  8.70000 58.73700 42.94300
H  5.31800 60.28600 39.09100
H  6.83500 61.01700 39.22100
H  4.74200 62.12700 41.11300
H  4.51000 62.21200 39.48900
H  5.98400 63.03600 40.30900
H  0.71400 56.21500 41.53700
H  1.06400 57.65000 40.66700
H  1.62500 57.51800 42.36800
H  3.07100 51.66800 40.81800
H  0.20300 49.66800 38.57000
H  1.28000 50.21800 37.32400
H  0.01600 51.26800 37.83400

