158

Mg 1.64200 8.54500 27.00800
C  2.18500 10.25800 29.96100
C  1.65100 5.58300 28.71500
C  1.41400 6.91500 24.04500
C  2.30600 11.54100 25.26400
N  1.85700 8.01900 29.03000
C  1.97000 8.90700 30.13000
C  1.85000 8.19400 31.48100
C  2.11500 6.73400 30.99700
C  1.81100 6.74400 29.46700
C  3.40500 6.14000 31.32800
C  0.43800 8.55100 32.15100
C  0.44600 8.81300 33.68600
H  1.70600 8.36800 34.41900
N  1.32000 6.55500 26.49800
C  1.36100 5.49000 27.32400
C  0.96000 4.26300 26.59600
C  0.94800 4.60600 25.21600
C  1.27800 6.06700 25.21500
C  0.61600 3.00200 27.26100
C  0.70900 3.71200 23.99400
O  0.48700 4.07000 22.81300
C  0.76300 2.23000 24.18300
N  1.72500 9.07800 24.99500
C  1.61900 8.26000 23.88600
C  1.55800 8.95800 22.58100
C  1.55000 10.44100 23.07400
C  1.98700 10.35200 24.53500
C  2.80400 8.64300 21.72000
C  0.21800 11.28100 22.82600
C  0.29100 12.20000 21.58100
N  2.26100 10.50200 27.45200
C  2.47800 11.61300 26.66700
C  2.77200 12.79300 27.48400
C  2.69300 12.30900 28.78700
C  2.41100 10.95300 28.73100
C  3.01400 14.19100 26.96000
C  2.79400 12.65600 30.19100
O  3.17300 13.67700 30.64800
C  2.47000 11.34400 31.01800
C  3.64200 11.18600 31.83700
O  4.55700 10.47300 31.56500
O  3.37600 11.80600 33.05200
C  4.18900 11.40300 34.15600
H  1.70500 4.55900 29.09000
H  1.21900 6.38200 23.11100
H  2.48600 12.47900 24.73600
H  2.65900 8.50000 32.14500
H  1.42500 6.11400 31.56900
H  4.21200 6.37100 30.63200
H  3.32000 5.05800 31.42100
H  3.79100 6.47400 32.29100
H  -0.10100 7.61200 32.02500
H  -0.11100 9.38200 31.70900
H  -0.42300 8.35700 34.15900
H  0.29700 9.88400 33.82400
H  0.18900 3.31700 28.21300
H  1.47300 2.39500 27.55100
H  -0.25000 2.52700 26.79900
H  1.70200 1.88200 24.61300
H  0.74100 1.75900 23.20000
H  -0.05800 1.87700 24.80600
H  0.62800 8.58700 22.14900
H  2.38300 11.03800 22.70400
H  2.88600 9.37900 20.92000
H  2.73900 7.61900 21.35300
H  3.72100 8.94900 22.22400
H  -0.09100 11.92100 23.65200
H  -0.58300 10.55200 22.70500
H  1.19500 11.92100 21.04000
H  0.46200 13.26300 21.75000
H  -0.66000 12.15300 21.04900
H  3.51500 13.97900 26.01600
H  3.75000 14.69800 27.58400
H  2.09000 14.76800 26.91800
H  1.61800 11.64700 31.62600
H  4.94300 12.19000 34.18900
H  4.54200 10.38500 33.99300
H  3.69600 11.46600 35.12700
Mg -1.76200 34.85500 25.73500
C  -3.77000 33.33900 28.31800
C  -1.10000 37.47800 27.99900
C  0.04700 36.40900 23.37700
C  -2.82100 32.44100 23.66600
N  -2.67600 35.54700 27.79500
C  -3.20600 34.59100 28.70000
C  -3.17300 35.17700 30.19200
C  -2.47200 36.54900 30.01300
C  -2.08500 36.54500 28.50600
C  -3.41500 37.80600 30.24700
C  -2.49900 34.23300 31.22300
C  -3.19600 34.07900 32.64400
H  -2.52400 34.82300 33.74600
N  -0.66400 36.73700 25.66400
C  -0.50400 37.61200 26.73900
C  0.35300 38.69900 26.29900
C  0.76300 38.33600 25.03200
C  0.05900 37.13500 24.63300
C  0.66200 39.94300 27.09100
C  1.78100 38.93600 24.17300
O  2.13200 38.47700 23.10500
C  2.59500 40.10100 24.71800
N  -1.61700 34.58400 23.72100
C  -0.71300 35.30500 22.97100
C  -0.44500 34.45500 21.60900
C  -1.19400 33.12900 21.88900
C  -1.93300 33.39200 23.15400
C  -1.12600 35.18400 20.38500
C  -0.30400 31.80100 21.98800
C  0.97900 31.82900 22.87500
N  -3.10000 33.27600 25.86600
C  -3.33900 32.32900 24.92000
C  -4.24800 31.32200 25.49300
C  -4.45700 31.64000 26.87600
C  -3.76200 32.84000 27.03600
C  -4.80800 30.15700 24.69900
C  -5.05800 31.24600 28.07900
O  -5.82600 30.35900 28.36800
C  -4.55200 32.33400 29.15900
C  -5.67800 32.87100 29.91800
O  -6.30800 33.90100 29.72700
O  -5.89300 32.12000 31.03600
C  -6.95200 32.53200 31.98800
H  -0.75200 38.17200 28.76700
H  0.70300 36.56200 22.51700
H  -3.04000 31.61700 22.98300
H  -4.20600 35.36400 30.48600
H  -1.64100 36.65300 30.71100
H  -4.34200 37.45000 30.69700
H  -3.60000 38.42300 29.36800
H  -2.83800 38.41500 30.94300
H  -1.49200 34.59800 31.42100
H  -2.46000 33.20000 30.87900
H  -3.26500 33.01700 32.87900
H  -4.19000 34.49100 32.47000
H  1.71400 40.14900 27.28600
H  0.01200 39.90700 27.96500
H  0.21900 40.80500 26.59400
H  2.07300 41.05200 24.82500
H  3.38800 40.31300 24.00100
H  3.21500 39.76000 25.54700
H  0.63900 34.46400 21.50000
H  -1.96000 32.85200 21.16500
H  -1.73800 35.97400 20.81900
H  -1.80700 34.52300 19.84800
H  -0.39700 35.65600 19.72700
H  0.13300 31.50900 21.03300
H  -0.96500 31.05800 22.43400
H  0.88300 31.12600 23.70300
H  1.09400 32.86500 23.19100
H  1.87000 31.58900 22.29500
H  -3.93400 29.76400 24.17800
H  -5.50000 30.53200 23.94500
H  -5.34000 29.42600 25.30800
H  -3.89900 31.88200 29.90500
H  -6.51600 33.45100 32.38000
H  -6.97100 31.76000 32.75700
H  -7.91700 32.71500 31.51600

