158

Mg 42.79400 3.32900 47.26900
C  41.17900 6.25000 46.51900
C  39.89600 1.59200 46.74000
C  44.65300 0.39300 47.00300
C  45.79300 5.11300 46.96900
N  40.78800 3.88200 46.51400
C  40.31000 5.17000 46.54500
C  38.77000 5.20400 46.57100
C  38.40400 3.67300 46.77500
C  39.77800 2.94100 46.62100
C  37.59200 3.33800 48.01100
C  38.12100 5.88400 45.35600
C  38.66600 5.33000 44.06400
H  39.19000 6.34500 43.04500
N  42.33400 1.25200 47.06700
C  41.06200 0.76100 46.84100
C  41.04900 -0.65400 46.77100
C  42.41600 -1.04100 46.82600
C  43.21700 0.23500 47.00900
C  39.83200 -1.53600 46.60700
C  42.93600 -2.41700 46.79800
O  42.14100 -3.41300 46.73000
C  44.39400 -2.79100 46.93200
N  44.89800 2.74100 46.87300
C  45.41800 1.51200 46.99300
C  46.93800 1.43600 46.85000
C  47.31400 3.00900 46.87600
C  45.88700 3.69900 46.92100
C  47.52800 0.50700 47.98100
C  48.16400 3.55700 45.65000
C  49.51800 4.04400 45.98400
N  43.42200 5.31400 46.93100
C  44.66500 5.92100 46.90200
C  44.57000 7.35700 46.78200
C  43.19500 7.53700 46.73200
C  42.52700 6.25200 46.69800
C  45.60400 8.41300 46.84000
C  42.16000 8.49500 46.74900
O  42.17700 9.68800 46.76900
C  40.84600 7.70700 46.62900
C  40.02600 8.04600 47.77300
O  40.18300 7.47100 48.82300
O  38.99800 8.91200 47.48700
C  37.94100 9.13300 48.49300
H  38.93000 1.09300 46.64000
H  45.19700 -0.54400 46.86800
H  46.76700 5.60400 47.00900
H  38.37800 5.65700 47.48200
H  37.76300 3.35400 45.95300
H  38.15000 2.55200 48.52100
H  36.60800 2.95100 47.74400
H  37.57300 4.21800 48.65400
H  38.22600 6.95300 45.53800
H  37.05900 5.64400 45.32400
H  37.92100 4.70200 43.57600
H  39.53800 4.71200 44.28000
H  38.90600 -1.17200 46.16300
H  39.54600 -1.95600 47.57100
H  40.06500 -2.30700 45.87300
H  44.84400 -2.34900 46.04200
H  44.43900 -3.88000 46.90100
H  44.99800 -2.42200 47.76100
H  47.26400 0.96400 45.92300
H  47.99100 3.17600 47.71400
H  47.70800 -0.44600 47.48500
H  46.80400 0.35700 48.78200
H  48.45400 0.96700 48.32500
H  47.65600 4.28000 45.01100
H  48.41900 2.68700 45.04400
H  49.60300 4.75800 46.80400
H  49.85900 4.55000 45.08100
H  50.24900 3.23600 46.01400
H  46.58400 8.04300 46.53900
H  45.77900 9.01600 47.73100
H  45.20500 9.17200 46.16700
H  40.38000 8.10300 45.72700
H  38.26200 10.00200 49.06800
H  37.71300 8.27400 49.12500
H  37.05400 9.36800 47.90500
Mg 48.41400 34.80800 27.48800
C  46.47100 33.51500 30.00600
C  48.99900 37.58200 29.20100
C  50.03800 36.15900 24.71300
C  47.82400 31.85100 25.69900
N  47.74100 35.42900 29.41100
C  47.06500 34.76300 30.31800
C  47.29300 35.44500 31.72100
C  47.70200 36.88900 31.30900
C  48.17700 36.65700 29.89600
C  46.59600 37.97100 31.47800
C  48.46300 34.67100 32.46200
C  48.41100 34.70300 33.99000
H  47.62800 35.90200 34.64200
N  49.54500 36.61200 27.04600
C  49.61600 37.66900 27.88900
C  50.44100 38.74300 27.27300
C  50.80400 38.24000 26.00000
C  50.14000 36.94300 25.83700
C  50.67100 40.10400 27.95900
C  51.68800 38.94900 24.98900
O  51.87600 38.54200 23.81100
C  52.51400 39.99000 25.40000
N  48.76700 34.11200 25.47600
C  49.42900 34.90800 24.56600
C  49.46400 34.16700 23.25600
C  48.89300 32.70700 23.60200
C  48.46800 32.86200 24.97500
C  48.75800 34.91200 22.08700
C  49.94200 31.50300 23.58500
C  49.53100 30.26900 22.86000
N  47.25900 33.00500 27.71600
C  47.16700 31.91000 26.92100
C  46.38100 30.90700 27.62900
C  46.18200 31.52800 28.86500
C  46.69100 32.80900 28.86400
C  46.06300 29.45800 27.27900
C  45.58700 31.27200 30.13000
O  45.07000 30.25600 30.55100
C  45.57400 32.64600 30.88300
C  45.86800 32.56800 32.29800
O  46.71600 31.86000 32.89300
O  44.78500 33.23500 32.91200
C  44.38600 32.98700 34.32800
H  49.29000 38.41700 29.84100
H  50.45600 36.66200 23.83800
H  47.68800 30.93300 25.12300
H  46.31700 35.38400 32.20100
H  48.64200 37.07800 31.82800
H  45.68200 37.55900 31.05000
H  46.94400 38.81700 30.88500
H  46.41000 38.27100 32.50900
H  49.43600 35.10700 32.23700
H  48.48200 33.61700 32.18500
H  49.39900 34.90100 34.40400
H  47.95000 33.81900 34.43100
H  50.44200 40.89000 27.24100
H  51.64800 40.18300 28.43600
H  49.97800 40.29200 28.78000
H  52.01100 40.95700 25.37100
H  53.42400 39.85000 24.81700
H  52.86100 39.84800 26.42400
H  50.51300 34.22700 22.96500
H  47.97900 32.49900 23.04700
H  47.95100 35.61500 22.29300
H  48.34800 34.20600 21.36500
H  49.36400 35.60500 21.50400
H  50.16000 31.14800 24.59200
H  50.87000 31.90300 23.17700
H  50.21000 30.01000 22.04700
H  48.56900 30.38800 22.36300
H  49.42100 29.40300 23.51300
H  44.98600 29.29100 27.29900
H  46.42400 28.62600 27.88400
H  46.34900 29.25400 26.24700
H  44.58300 33.08700 30.77800
H  44.78100 32.04800 34.71700
H  43.30900 32.82600 34.34600
H  44.60300 33.80700 35.01200

