158

Mg 24.15800 -5.34500 45.63200
C  26.34400 -3.07400 44.31100
C  21.66000 -4.25900 43.48700
C  22.13900 -7.86000 46.68500
C  26.72300 -6.82700 47.44100
N  24.10100 -3.83000 44.13800
C  25.10900 -3.00900 43.74600
C  24.75200 -2.25800 42.40800
C  23.11500 -2.41000 42.36200
C  22.92100 -3.57600 43.37200
C  22.28800 -1.15000 42.71200
C  25.51600 -2.85900 41.21100
C  26.26700 -1.89200 40.24700
H  25.71000 -1.66300 38.84000
N  22.12500 -5.94600 45.24100
C  21.28500 -5.36000 44.30600
C  19.99000 -6.02800 44.33500
C  20.04500 -7.01400 45.39100
C  21.48500 -6.94300 45.84400
C  18.88400 -5.71900 43.37000
C  18.91800 -7.93600 45.71400
O  17.84100 -7.73000 45.18800
C  19.14000 -9.07000 46.68700
N  24.54200 -7.16900 46.71000
C  23.43300 -7.93400 47.11800
C  23.92600 -9.21200 47.91500
C  25.49100 -8.84900 48.15500
C  25.58100 -7.52100 47.42800
C  23.10100 -9.57700 49.19400
C  26.57100 -9.90300 47.63900
C  27.72800 -10.21700 48.54700
N  26.13100 -4.98000 45.96500
C  27.01000 -5.61100 46.79700
C  28.31700 -4.89900 46.74900
C  28.09700 -3.93500 45.73800
C  26.71000 -3.99300 45.33600
C  29.51800 -5.10800 47.63500
C  28.73500 -2.89700 44.90900
O  29.91600 -2.59200 44.78900
C  27.69300 -2.24400 44.01900
C  27.40500 -0.84300 44.51600
O  26.91500 -0.65500 45.59100
O  28.04800 0.07800 43.77700
C  28.42900 1.33800 44.43700
H  20.97000 -3.79100 42.78200
H  21.53700 -8.60400 47.21000
H  27.47000 -7.19200 48.14900
H  25.00600 -1.22500 42.64600
H  22.73500 -2.72900 41.39200
H  22.02600 -1.08000 43.76800
H  21.36200 -1.17300 42.13800
H  22.88100 -0.27600 42.44300
H  24.69600 -3.30200 40.64700
H  26.23500 -3.61300 41.53000
H  27.28000 -2.28600 40.16600
H  26.48200 -0.94700 40.74500
H  18.34900 -6.63400 43.11400
H  19.22800 -5.25500 42.44600
H  18.18300 -5.07000 43.89400
H  18.19700 -9.59100 46.85200
H  19.53600 -8.67600 47.62300
H  19.87400 -9.77600 46.29700
H  23.95600 -10.10300 47.28900
H  25.60300 -8.70500 49.22900
H  23.74800 -9.43400 50.05900
H  22.60800 -10.54900 49.18100
H  22.32500 -8.81600 49.28400
H  26.98300 -9.69200 46.65300
H  26.08000 -10.82900 47.34000
H  27.33200 -10.34400 49.55400
H  28.55500 -9.51500 48.44200
H  28.00900 -11.20300 48.17700
H  29.67200 -6.12300 47.99900
H  29.33100 -4.59700 48.58000
H  30.49500 -4.85700 47.22100
H  27.93400 -2.33200 42.95900
H  28.86600 1.25500 45.43200
H  27.63700 2.08600 44.39100
H  29.17900 1.81500 43.80700
Mg 36.53100 2.46000 30.66300
C  33.67000 3.46500 32.59300
C  38.28400 2.79100 33.66800
C  39.20700 1.91400 28.95800
C  34.54000 2.66300 27.84500
N  35.97900 3.21400 32.82700
C  34.80600 3.37200 33.38600
C  34.83800 3.56100 34.91500
C  36.42300 3.63400 35.13500
C  36.95900 3.19700 33.77600
C  36.96800 5.08800 35.43100
C  34.06700 2.38200 35.62600
C  33.55300 2.43600 37.13600
H  34.21100 3.44500 38.07100
N  38.49800 2.26800 31.34700
C  39.05500 2.33500 32.54600
C  40.43400 1.93000 32.51700
C  40.75200 1.80900 31.14300
C  39.46400 2.04000 30.40900
C  41.23300 1.60300 33.70000
C  42.11700 1.45100 30.48000
O  42.32400 1.35000 29.29000
C  43.36500 1.24700 31.36700
N  36.83000 2.32800 28.67000
C  38.05700 2.08700 28.20600
C  38.00100 2.01000 26.69900
C  36.46200 2.16800 26.36900
C  35.89700 2.41400 27.73700
C  38.77200 3.15400 26.06100
C  35.75400 1.08000 25.58200
C  35.59700 -0.27300 26.29800
N  34.48800 2.91400 30.28900
C  33.83200 2.91200 29.06900
C  32.40800 3.23600 29.21200
C  32.34300 3.40500 30.60900
C  33.61400 3.24900 31.16800
C  31.36100 3.15400 28.19100
C  31.40300 3.68500 31.73800
O  30.18700 3.85800 31.68200
C  32.25500 3.64000 33.06900
C  32.06700 4.90600 33.89600
O  32.62300 5.96300 33.70800
O  31.18800 4.75700 34.95600
C  31.29200 5.82000 35.98200
H  38.81700 2.72500 34.61800
H  40.03700 1.61600 28.31400
H  33.91500 2.76900 26.95500
H  34.44400 4.55200 35.14100
H  36.81300 2.98000 35.91500
H  37.25900 5.09900 36.48100
H  36.25300 5.89500 35.27000
H  37.79800 5.29600 34.75500
H  34.74400 1.53200 35.70900
H  33.26900 1.99400 34.99300
H  33.70600 1.46900 37.61300
H  32.48600 2.64800 37.08000
H  41.56800 0.56700 33.65500
H  40.72200 1.72700 34.65400
H  42.13900 2.18900 33.85300
H  43.38200 0.32000 31.94100
H  43.28400 2.11700 32.01900
H  44.25900 1.23200 30.74300
H  38.33900 1.08100 26.23900
H  36.28800 3.11700 25.86200
H  39.84100 3.02000 26.22400
H  38.41200 4.03100 26.60000
H  38.60800 3.29000 24.99200
H  36.26100 0.95000 24.62600
H  34.77300 1.48900 25.34000
H  35.86000 -0.28100 27.35500
H  36.12700 -1.09300 25.81400
H  34.54600 -0.56200 26.26500
H  31.33700 3.95800 27.45600
H  30.39700 3.11700 28.69800
H  31.55100 2.16600 27.77100
H  31.89100 2.78200 33.63500
H  30.79000 6.75800 35.74400
H  32.32700 6.00700 36.26800
H  30.74100 5.47000 36.85500

