158

Mg 44.46300 3.69600 48.11800
C  42.39600 6.42400 47.54700
C  41.83700 1.61300 46.97000
C  46.54600 0.96800 48.10100
C  47.15400 5.89500 48.14500
N  42.38300 4.04100 47.18500
C  41.73900 5.22900 47.18500
C  40.22100 5.01700 46.71700
C  40.03400 3.47100 46.75700
C  41.51700 3.02900 46.95700
C  39.15700 2.94800 47.92300
C  39.84700 5.58900 45.38800
C  38.55400 6.45000 45.51000
H  37.62200 6.38600 44.30900
N  44.18600 1.62300 47.76400
C  43.04100 0.97100 47.32600
C  43.26900 -0.47200 47.36400
C  44.63800 -0.69200 47.71100
C  45.17800 0.66900 47.92300
C  42.12600 -1.49700 46.97400
C  45.29000 -2.08800 47.89900
O  44.65900 -3.08900 47.62500
C  46.68600 -2.23300 48.21000
N  46.53200 3.45200 48.04700
C  47.10100 2.23200 48.18200
C  48.64000 2.38500 48.26200
C  48.85400 3.93700 48.15000
C  47.37700 4.46100 48.20400
C  49.44200 1.75800 49.55300
C  49.67900 4.36000 46.94400
C  51.20900 4.35500 47.12500
N  44.72000 5.79100 48.06900
C  45.88800 6.53100 48.06000
C  45.53600 7.89800 47.89000
C  44.13500 7.94200 47.86400
C  43.70900 6.63200 47.86000
C  46.56600 9.02500 47.89500
C  42.90200 8.78800 47.73400
O  42.89300 10.02100 47.58900
C  41.73400 7.80700 47.56400
C  40.68900 7.95800 48.62700
O  40.49300 7.27100 49.60800
O  39.75800 8.90600 48.21000
C  38.79000 9.33600 49.22800
H  41.00100 0.98700 46.65200
H  47.31300 0.20700 48.26300
H  47.99500 6.56200 48.34500
H  39.70000 5.52500 47.52900
H  39.62600 3.06500 45.83200
H  38.69500 3.74100 48.51200
H  39.68100 2.27300 48.60000
H  38.35500 2.33000 47.52000
H  39.68800 4.77700 44.67800
H  40.72900 6.15000 45.07900
H  38.78300 7.51500 45.52300
H  37.92100 6.25700 46.37700
H  42.44700 -2.28200 46.28900
H  41.30300 -1.02700 46.43500
H  41.89100 -2.00800 47.90800
H  47.40200 -1.84400 47.48700
H  46.97800 -3.26900 48.38300
H  46.85400 -1.65200 49.11700
H  49.04600 1.92700 47.36000
H  49.33500 4.24600 49.07800
H  48.96900 0.92300 50.07100
H  49.85400 2.56600 50.15700
H  50.25500 1.27700 49.00900
H  49.46600 5.39600 46.67700
H  49.38500 3.70800 46.12200
H  51.62700 5.27100 46.70800
H  51.59100 3.51300 46.54900
H  51.59500 4.22200 48.13500
H  46.71200 9.50200 48.86500
H  46.23400 9.73600 47.13900
H  47.56000 8.68000 47.61300
H  41.32400 8.00000 46.57200
H  37.85800 9.75700 48.85000
H  39.21200 10.02400 49.96100
H  38.36800 8.48200 49.75900
Mg 26.10900 50.56800 26.56100
C  23.88500 51.67800 28.82500
C  28.34000 49.93000 29.16000
C  28.32300 49.33200 24.29100
C  23.90800 51.17300 23.88900
N  26.10800 50.90500 28.70400
C  24.97600 51.10800 29.45300
C  25.20200 50.83100 31.00100
C  26.69200 50.62800 31.01300
C  27.10800 50.45900 29.56700
C  27.46700 51.79900 31.76000
C  24.34200 49.64000 31.57000
C  23.87800 49.67000 33.02200
H  24.37300 50.79000 33.96300
N  28.09200 49.84700 26.73400
C  28.79000 49.61600 27.88300
C  30.05300 49.02000 27.49300
C  30.10400 48.92500 26.12100
C  28.75700 49.36500 25.66300
C  31.18400 48.82900 28.48100
C  31.17500 48.44700 25.22000
O  31.25200 48.49800 23.97900
C  32.38400 47.80600 25.85900
N  26.14900 50.37500 24.37300
C  27.12900 49.77900 23.70400
C  26.84200 49.69900 22.20000
C  25.34000 50.11500 22.13500
C  25.09000 50.60600 23.56000
C  27.82100 50.54600 21.35200
C  24.22200 49.11700 21.58000
C  23.57400 49.65900 20.24400
N  24.34000 51.40900 26.37800
C  23.57300 51.69700 25.21600
C  22.42800 52.52000 25.67500
C  22.43600 52.49300 27.07100
C  23.65100 51.85000 27.38600
C  21.31000 53.08900 24.80100
C  21.74900 52.81100 28.29900
O  20.62100 53.30100 28.47700
C  22.67600 52.36900 29.45700
C  23.03500 53.54700 30.29100
O  24.01000 54.31600 30.06600
O  22.22000 53.70600 31.43300
C  22.35300 54.98300 32.07700
H  28.89200 49.48700 29.99100
H  29.00100 48.95600 23.52200
H  23.15400 51.29600 23.10900
H  24.99100 51.80400 31.44600
H  27.08100 49.72900 31.49000
H  27.79800 52.61900 31.12200
H  28.26300 51.24800 32.26000
H  26.82600 52.11800 32.58200
H  24.92700 48.73700 31.39500
H  23.41200 49.58000 31.00500
H  23.98300 48.69100 33.48800
H  22.79000 49.62700 32.97300
H  31.48000 47.82300 28.77500
H  30.99300 49.33300 29.42800
H  32.00500 49.46700 28.15400
H  32.93600 47.43500 24.99600
H  32.09200 46.92100 26.42500
H  33.02100 48.49600 26.41300
H  26.98300 48.69000 21.81100
H  25.22900 50.93000 21.41900
H  28.26200 50.02700 20.50100
H  28.69200 50.81600 21.94800
H  27.39000 51.49300 21.02700
H  23.39500 48.99000 22.28000
H  24.68100 48.15600 21.34900
H  24.29400 49.43600 19.45700
H  23.50200 50.74600 20.26800
H  22.52700 49.36100 20.17500
H  20.76100 53.83400 25.37600
H  20.58400 52.40800 24.35700
H  21.86200 53.64900 24.04600
H  22.11900 51.69500 30.10800
H  22.65000 55.84100 31.47400
H  23.10200 54.83100 32.85400
H  21.46500 55.13300 32.69100

