158

Mg 8.77600 48.75400 26.23900
C  6.48800 48.32500 28.74000
C  11.04600 50.12000 28.53900
C  10.78800 49.46500 23.64600
C  6.12800 48.14900 23.92200
N  8.72300 49.14400 28.36500
C  7.76200 48.72400 29.17700
C  8.22000 49.04400 30.66200
C  9.49100 49.90400 30.60000
C  9.74100 49.82700 29.07500
C  9.39900 51.38400 31.01900
C  8.40600 47.75300 31.49100
C  9.18800 47.78800 32.83600
H  8.66600 47.08300 34.03800
N  10.72000 49.36800 26.21500
C  11.47000 49.95400 27.21600
C  12.70600 50.24400 26.68000
C  12.77700 49.91200 25.25200
C  11.34600 49.56000 25.01300
C  13.82400 50.87200 27.48200
C  14.00800 49.93500 24.23200
O  13.81800 49.52400 23.10600
C  15.34000 50.40300 24.57000
N  8.45500 48.97100 24.07400
C  9.53400 49.10900 23.23100
C  9.12700 48.79700 21.76900
C  7.72600 48.12900 21.95600
C  7.37600 48.46300 23.42100
C  9.17900 49.99800 20.78200
C  7.87400 46.54900 21.95000
C  8.20400 45.99000 20.52500
N  6.72700 48.29900 26.27500
C  5.73700 48.23300 25.30300
C  4.44900 47.95700 25.89500
C  4.71700 47.95900 27.27000
C  6.06400 48.21900 27.42800
C  3.28300 47.65900 25.08900
C  4.13900 47.76900 28.58400
O  3.04900 47.42000 28.92800
C  5.37000 47.85100 29.63100
C  5.49000 46.46000 29.99200
O  6.10300 45.64700 29.36600
O  4.76700 46.17800 31.16500
C  4.91400 44.82500 31.80300
H  11.79100 50.42400 29.27700
H  11.56600 49.76200 22.93900
H  5.42000 47.88500 23.13400
H  7.55800 49.62600 31.30400
H  10.32400 49.43700 31.12700
H  9.50600 52.08100 30.18800
H  10.18500 51.69600 31.70800
H  8.44000 51.51100 31.52100
H  8.83100 47.03300 30.79100
H  7.43200 47.27700 31.60100
H  9.23100 48.82900 33.15800
H  10.19500 47.51100 32.52500
H  14.80100 50.70600 27.02800
H  13.89700 50.59400 28.53300
H  13.63800 51.94600 27.48800
H  15.94100 49.77800 25.23200
H  15.28500 51.41500 24.97100
H  15.90700 50.34900 23.64100
H  9.93300 48.19100 21.35500
H  7.12800 48.56700 21.15700
H  9.49800 50.94700 21.21200
H  8.20600 50.20600 20.33800
H  9.91300 49.82100 19.99600
H  6.85300 46.23600 22.17100
H  8.59000 46.26900 22.72200
H  7.99800 46.77100 19.79300
H  7.62700 45.15600 20.12500
H  9.25100 45.77200 20.31600
H  3.05200 46.76300 24.51300
H  3.28900 48.44700 24.33500
H  2.44000 47.88600 25.74000
H  5.11900 48.56400 30.41600
H  4.02500 44.20400 31.69000
H  5.06100 44.92000 32.87900
H  5.71900 44.23800 31.36100
Mg -5.45500 24.86400 25.57200
C  -3.75000 26.36300 28.20800
C  -6.93500 22.80000 27.86600
C  -6.92800 23.35200 23.01500
C  -3.66800 27.09300 23.37200
N  -5.33200 24.64600 27.84000
C  -4.67600 25.49800 28.69500
C  -5.23500 25.31900 30.14600
C  -5.95400 23.89500 30.01900
C  -6.12300 23.74600 28.47700
C  -5.12600 22.76700 30.63900
C  -5.96800 26.60100 30.54400
C  -5.43300 27.32300 31.79000
H  -5.06900 26.50200 32.99500
N  -6.73200 23.26300 25.47300
C  -7.16700 22.51600 26.51800
C  -7.97000 21.47000 25.97400
C  -7.99400 21.61200 24.57300
C  -7.15600 22.78500 24.27800
C  -8.65100 20.41500 26.90000
C  -8.75700 20.77500 23.58800
O  -8.54100 20.79900 22.39200
C  -9.80600 19.72500 23.99900
N  -5.22000 25.06600 23.48900
C  -6.03200 24.40100 22.61100
C  -5.87400 24.97700 21.19200
C  -4.84100 26.07400 21.31300
C  -4.59600 26.13000 22.83400
C  -5.47100 23.99100 20.07100
C  -5.29400 27.42500 20.81400
C  -5.51300 27.51000 19.30100
N  -3.91200 26.32000 25.63800
C  -3.27200 27.09300 24.72100
C  -2.20600 27.89700 25.30500
C  -2.39700 27.64000 26.66300
C  -3.48200 26.75900 26.83300
C  -1.29300 28.78100 24.58800
C  -1.87300 27.98900 27.94800
O  -0.88700 28.66800 28.28900
C  -2.89800 27.35300 29.01400
C  -2.21200 26.64600 30.13600
O  -1.85600 25.49900 30.16500
O  -2.01600 27.53300 31.15500
C  -1.19700 27.16800 32.30600
H  -7.48100 22.20000 28.59700
H  -7.42200 22.85900 22.17500
H  -3.03800 27.64000 22.66700
H  -4.34000 25.33700 30.76700
H  -6.94200 23.91300 30.47800
H  -4.65000 23.13800 31.54600
H  -4.41600 22.36700 29.91400
H  -5.81500 21.96600 30.90500
H  -7.03900 26.52900 30.73400
H  -5.87400 27.34100 29.75000
H  -6.25300 27.95800 32.12400
H  -4.74300 28.13100 31.54600
H  -9.71900 20.63500 26.89400
H  -8.41800 20.39600 27.96500
H  -8.49100 19.46600 26.38900
H  -9.52700 18.82100 24.53900
H  -10.20100 19.26900 23.09100
H  -10.62600 20.20200 24.53500
H  -6.88400 25.25700 20.89200
H  -3.88000 25.89300 20.83200
H  -6.09400 24.28100 19.22500
H  -5.70300 22.95700 20.32500
H  -4.39500 24.14700 19.99100
H  -4.47600 28.10600 21.04900
H  -6.14600 27.69700 21.43800
H  -5.52200 26.47800 18.94900
H  -4.72300 28.08900 18.82400
H  -6.46900 28.03400 19.28500
H  -1.84600 29.10000 23.70500
H  -0.38200 28.31900 24.20600
H  -1.04000 29.58000 25.28500
H  -3.49500 28.18600 29.38600
H  -0.21600 27.07200 31.84100
H  -1.46100 26.21300 32.76000
H  -1.17200 27.91300 33.10100

