158

Mg 9.19700 3.46100 27.16300
C  10.31400 1.83100 29.96300
C  7.21700 5.47300 29.03000
C  8.01900 4.83400 24.25800
C  10.92700 1.11800 25.18500
N  8.67300 3.44900 29.30100
C  9.46800 2.89500 30.27400
C  9.10500 3.56400 31.71400
C  7.97600 4.57500 31.29000
C  7.92800 4.55300 29.80400
C  6.69700 4.43100 32.02000
C  10.37800 3.99500 32.48500
C  10.21500 4.85100 33.67100
H  10.39500 4.34800 35.09700
N  7.88700 4.98000 26.63900
C  7.14900 5.63100 27.61100
C  6.30500 6.61000 26.97500
C  6.53900 6.50600 25.54800
C  7.52300 5.45900 25.40700
C  5.46800 7.63300 27.78400
C  6.00500 7.29900 24.38400
O  6.30000 7.09900 23.24800
C  5.04900 8.41200 24.70100
N  9.50700 3.07600 25.09000
C  8.90100 3.78200 24.12500
C  9.34900 3.39900 22.73100
C  10.17200 2.16900 23.02600
C  10.23100 2.12700 24.51000
C  8.13900 3.30800 21.75800
C  11.48000 1.97300 22.24700
C  11.47000 0.87500 21.14300
N  10.35800 1.81100 27.44300
C  11.05400 0.95100 26.59000
C  11.86500 -0.05600 27.33600
C  11.56000 0.30100 28.70200
C  10.59500 1.38800 28.69100
C  12.74000 -1.20400 26.81900
C  12.01900 -0.01700 30.04500
O  12.97800 -0.74800 30.38300
C  11.19900 0.97500 30.89100
C  10.40100 0.48000 31.96800
O  9.22900 0.26000 31.93800
O  11.17600 0.20200 33.02000
C  10.49800 -0.13000 34.27700
H  6.73100 6.27600 29.58900
H  7.66100 5.28100 23.32800
H  11.45400 0.47100 24.48100
H  8.72600 2.77100 32.35800
H  8.42000 5.55700 31.45200
H  6.85000 3.66500 32.78100
H  5.95100 4.05700 31.31900
H  6.38700 5.40400 32.39900
H  11.14500 4.49800 31.89600
H  10.75500 3.01700 32.78400
H  9.26400 5.38100 33.65400
H  10.88200 5.69600 33.50300
H  4.50700 7.78400 27.29200
H  6.06300 8.54100 27.68400
H  5.31600 7.39600 28.83700
H  5.53900 9.13400 25.35400
H  4.13200 7.98100 25.10200
H  4.73000 8.84400 23.75200
H  10.04100 4.17200 22.39600
H  9.66600 1.21500 22.87800
H  7.21000 3.34400 22.32700
H  8.08400 2.36300 21.21700
H  8.23600 4.19700 21.13600
H  12.27000 1.68100 22.93900
H  11.89900 2.92400 21.92000
H  10.44700 0.85300 20.76700
H  11.89300 -0.04600 21.54500
H  12.03800 1.19700 20.27000
H  13.78900 -0.96700 26.64100
H  12.31300 -1.41000 25.83700
H  12.78900 -2.02500 27.53400
H  11.87700 1.71800 31.31000
H  11.14700 0.09000 35.12500
H  10.29200 -1.19300 34.40700
H  9.59600 0.47200 34.38700
Mg 9.06900 49.01700 25.51000
C  6.80500 49.05700 28.28400
C  11.51400 49.96200 27.74800
C  11.28100 48.86700 23.03600
C  6.46700 48.52800 23.46800
N  9.00800 49.61100 27.80000
C  8.11200 49.28600 28.75900
C  8.70800 49.34600 30.12300
C  9.97400 50.24800 29.82900
C  10.26700 49.88400 28.34500
C  9.75900 51.74600 29.93900
C  9.00900 47.93400 30.74100
C  9.61600 47.92900 32.21500
H  8.82600 47.08600 33.19200
N  11.18500 49.20100 25.47300
C  12.00300 49.64600 26.45600
C  13.35400 49.67800 26.02600
C  13.33000 49.27700 24.66000
C  11.87800 49.09600 24.30000
C  14.48800 50.16800 26.92700
C  14.52900 49.10800 23.77600
O  14.43400 48.80000 22.59600
C  15.83200 49.11900 24.36100
N  8.90500 48.95400 23.44100
C  9.94700 48.69900 22.63600
C  9.36200 48.46600 21.19800
C  7.83300 48.28000 21.37300
C  7.73300 48.77700 22.83300
C  9.81500 49.47400 20.05400
C  7.28300 46.86200 21.00200
C  7.39300 45.84300 22.17300
N  7.06900 48.80900 25.74800
C  6.14900 48.47500 24.79900
C  4.80000 48.34100 25.34800
C  5.07900 48.59400 26.73900
C  6.43900 48.87000 26.93500
C  3.47000 48.23800 24.61800
C  4.41600 48.64000 28.03100
O  3.24400 48.61800 28.40400
C  5.53700 49.05100 29.01000
C  5.46800 48.18800 30.25300
O  5.79700 47.06600 30.39700
O  4.71100 48.86100 31.15900
C  4.50500 48.11900 32.39800
H  12.25900 50.14300 28.52700
H  11.99600 48.86500 22.21000
H  5.62200 48.25200 22.83400
H  8.05100 49.86100 30.82500
H  10.85000 49.99000 30.42400
H  8.70600 51.96300 29.76000
H  10.39100 52.21300 29.18400
H  10.17100 52.22300 30.82800
H  9.78900 47.51500 30.10500
H  8.22700 47.17700 30.67500
H  9.73500 48.92600 32.63900
H  10.60200 47.48400 32.08100
H  15.21400 50.76900 26.37900
H  15.05300 49.33200 27.34000
H  14.03700 50.71500 27.75500
H  16.45100 48.51400 23.69900
H  15.70000 48.60000 25.31100
H  16.20200 50.12800 24.54200
H  9.79700 47.47900 21.04000
H  7.11900 48.88300 20.81100
H  8.94900 49.73200 19.44500
H  10.59400 48.96000 19.49000
H  10.33800 50.34900 20.44000
H  7.86000 46.43800 20.18000
H  6.24900 46.89500 20.65800
H  6.36300 45.66200 22.47900
H  7.85900 46.20700 23.08800
H  7.87700 44.93600 21.81000
H  3.08600 47.24000 24.83300
H  3.59100 48.32300 23.53800
H  2.85700 49.06700 24.97100
H  5.38000 50.08300 29.32500
H  4.11100 48.71700 33.21900
H  5.40200 47.62400 32.77100
H  3.78700 47.30500 32.29500

