158

Mg 42.90800 4.29200 48.26600
C  40.96200 6.93000 47.71900
C  40.20200 2.16900 47.95500
C  44.97200 1.65900 48.03500
C  45.83300 6.37700 47.51300
N  40.83000 4.52700 47.60200
C  40.25100 5.72800 47.51300
C  38.76300 5.59800 47.16800
C  38.48900 4.09700 47.63900
C  39.95600 3.56900 47.77900
C  37.75800 3.89800 48.99900
C  38.29000 5.80800 45.68600
C  37.08000 6.78400 45.54800
H  36.55200 6.76800 44.15200
N  42.61300 2.30600 48.13900
C  41.42600 1.60100 48.03300
C  41.64100 0.20900 48.09700
C  43.05300 -0.01600 48.30800
C  43.64100 1.34300 48.17500
C  40.59400 -0.83200 47.68700
C  43.70000 -1.37600 48.38900
O  43.07000 -2.41500 48.57100
C  45.16600 -1.56600 48.38300
N  45.13700 4.09600 47.75000
C  45.69000 2.88300 47.80700
C  47.21700 2.91800 47.62600
C  47.42900 4.41000 47.41600
C  46.09900 5.00300 47.57800
C  47.89900 2.41600 48.92800
C  48.07800 4.77500 46.03100
C  49.53400 4.48600 45.89600
N  43.40000 6.28700 48.04900
C  44.54300 6.99100 47.78500
C  44.20900 8.42300 47.74500
C  42.78900 8.42000 47.80400
C  42.37200 7.11000 47.88200
C  45.16700 9.61600 47.63300
C  41.58500 9.31800 47.66800
O  41.41100 10.55300 47.64200
C  40.38400 8.34400 47.63800
C  39.60600 8.58700 48.83400
O  39.99700 8.35700 49.98400
O  38.27900 8.72100 48.40000
C  37.33600 8.57400 49.52700
H  39.31000 1.54300 48.02100
H  45.68400 0.84800 47.86900
H  46.66300 7.05400 47.29900
H  38.29500 6.22400 47.92700
H  37.93100 3.52500 46.89800
H  37.48900 4.87900 49.39100
H  38.35400 3.31200 49.69900
H  36.86400 3.36500 48.67700
H  38.00200 4.90100 45.15500
H  39.12900 6.17100 45.09200
H  37.45800 7.75000 45.88400
H  36.32600 6.41600 46.24400
H  40.24700 -1.47200 48.49800
H  41.00600 -1.41200 46.86100
H  39.74400 -0.37700 47.17800
H  45.67300 -0.89000 49.07200
H  45.61900 -1.32000 47.42200
H  45.47800 -2.59200 48.57800
H  47.39500 2.27700 46.76300
H  48.03600 4.92900 48.15700
H  47.17500 2.32300 49.73700
H  48.68400 3.00300 49.40300
H  48.26200 1.41000 48.71700
H  47.90200 5.82200 45.78200
H  47.53000 4.18500 45.29700
H  50.06300 5.43400 45.79900
H  49.69900 3.88800 45.00000
H  49.86900 3.95500 46.78700
H  45.13500 10.11400 46.66400
H  46.12800 9.13600 47.81600
H  44.99300 10.35400 48.41600
H  39.77200 8.59000 46.77000
H  36.94100 9.50300 49.93700
H  37.64600 7.96700 50.37700
H  36.62700 7.90900 49.03500
Mg -4.93300 24.93900 25.46700
C  -3.35800 26.41000 28.21500
C  -6.40000 22.74600 27.60800
C  -6.37100 23.49100 22.73000
C  -2.93200 26.89300 23.23700
N  -4.59400 24.39000 27.67400
C  -4.14600 25.29100 28.58300
C  -4.73800 24.93700 30.05000
C  -5.33400 23.47800 29.87200
C  -5.48100 23.50600 28.29500
C  -4.48700 22.33400 30.44100
C  -5.64100 26.07000 30.59300
C  -5.40400 26.63300 32.04600
H  -5.10300 25.51200 33.09300
N  -6.20000 23.37300 25.18600
C  -6.76100 22.59700 26.20200
C  -7.87900 21.82000 25.69300
C  -7.81500 21.98800 24.34500
C  -6.68400 22.95200 24.03100
C  -8.83300 20.96900 26.52200
C  -8.78200 21.41600 23.23900
O  -8.59800 21.63800 22.07000
C  -9.93600 20.52200 23.61000
N  -4.65600 25.11700 23.30900
C  -5.39700 24.45000 22.39700
C  -5.18300 24.96400 20.92600
C  -4.01900 25.98900 21.07100
C  -3.82900 26.04600 22.62200
C  -4.98000 23.72100 20.07800
C  -4.11000 27.38100 20.30600
C  -5.37700 28.19000 20.74600
N  -3.43000 26.21600 25.62000
C  -2.76000 27.02200 24.66200
C  -1.89000 28.00700 25.31300
C  -2.03400 27.73900 26.72600
C  -3.02200 26.71500 26.85400
C  -1.07700 29.11700 24.73300
C  -1.64200 28.19100 28.07600
O  -0.87000 29.03600 28.44200
C  -2.52500 27.36700 29.08100
C  -1.62000 26.55600 29.98100
O  -1.27900 25.39700 29.83200
O  -1.21200 27.31100 31.06900
C  -0.57800 26.65600 32.17200
H  -6.93100 22.05000 28.25900
H  -6.99000 23.26400 21.85900
H  -2.24400 27.47700 22.62100
H  -3.88000 24.94900 30.72200
H  -6.31400 23.45100 30.34800
H  -3.50500 22.66900 30.77500
H  -4.49300 21.58800 29.64700
H  -5.06600 21.96500 31.28700
H  -6.70300 25.82300 30.61100
H  -5.44100 26.90800 29.92600
H  -6.32900 27.10900 32.37200
H  -4.52000 27.27100 32.03700
H  -9.81800 21.39500 26.71100
H  -8.38400 20.77200 27.49600
H  -8.98000 19.99300 26.05900
H  -10.61500 20.96300 24.34000
H  -9.61300 19.57600 24.04600
H  -10.41400 20.20000 22.68500
H  -6.07500 25.41800 20.49300
H  -3.06700 25.57700 20.73800
H  -4.42400 22.97500 20.64500
H  -4.31100 24.02200 19.27100
H  -5.91200 23.30900 19.69100
H  -4.14500 27.07000 19.26200
H  -3.14600 27.84300 20.51900
H  -6.11400 28.22600 19.94500
H  -5.26100 29.25200 20.96100
H  -5.79800 27.64800 21.59400
H  -1.23000 30.04300 25.28600
H  -1.38100 29.37900 23.72000
H  -0.02200 28.85900 24.83100
H  -3.10300 28.06700 29.68400
H  -0.15300 25.70100 31.86300
H  -1.31000 26.65400 32.97900
H  0.24400 27.32700 32.42300

