158

Mg 42.47900 41.86200 26.40900
C  41.46900 44.19700 28.82300
C  43.52100 39.78300 28.90600
C  43.39100 39.52800 24.14800
C  41.86300 44.21700 23.91000
N  42.47500 42.04200 28.61600
C  41.92900 43.00000 29.39200
C  41.87100 42.58200 30.91300
C  42.51300 41.15000 30.91100
C  42.92200 41.00100 29.39500
C  43.76500 40.97100 31.84400
C  40.47100 42.59200 31.56000
C  40.20800 43.44700 32.79800
H  39.37900 42.90000 33.93200
N  43.35600 39.96900 26.51700
C  43.69800 39.29700 27.61100
C  44.14400 37.99800 27.31200
C  43.88300 37.77700 25.92800
C  43.50400 39.14000 25.48700
C  44.66200 37.06800 28.39200
C  44.08300 36.48500 25.07900
O  43.72400 36.45000 23.89700
C  44.43900 35.18500 25.87600
N  42.69500 41.90000 24.30800
C  42.96500 40.79600 23.58700
C  42.87500 41.06200 22.09800
C  42.29300 42.49500 22.04100
C  42.31200 42.93900 23.52700
C  44.26700 40.77800 21.36700
C  40.87200 42.73800 21.39800
C  40.71700 43.89900 20.40800
N  41.81000 43.87500 26.34500
C  41.63900 44.64100 25.26600
C  41.01500 45.91000 25.68800
C  40.84000 45.72500 27.09600
C  41.40800 44.50700 27.41800
C  40.63600 47.00900 24.84500
C  40.44400 46.42400 28.27100
O  40.01900 47.55000 28.40600
C  40.86300 45.38100 29.48000
C  41.85600 46.03300 30.47700
O  43.08000 45.90800 30.46000
O  41.16200 46.59800 31.53600
C  42.00500 47.02000 32.67400
H  43.74700 39.19200 29.79700
H  43.60300 38.79100 23.37200
H  41.63900 44.84800 23.04800
H  42.45400 43.30000 31.48900
H  41.83900 40.31400 31.10300
H  43.63100 41.57600 32.74000
H  44.65800 41.37600 31.36800
H  43.97100 39.94500 32.14800
H  40.06900 41.61400 31.82500
H  39.82100 42.98900 30.78000
H  39.79600 44.44000 32.61500
H  41.17100 43.73900 33.21700
H  43.84900 36.40500 28.68500
H  45.15100 37.59700 29.21000
H  45.33900 36.29900 28.02000
H  45.51600 35.18500 26.04400
H  44.23300 34.33400 25.22800
H  43.77600 34.99900 26.72000
H  42.12100 40.37600 21.71100
H  43.04800 43.06300 21.49800
H  45.11100 40.75100 22.05600
H  44.47100 41.59200 20.67100
H  44.22200 39.81400 20.86100
H  40.21400 42.90300 22.25200
H  40.39200 41.86700 20.95200
H  39.94700 44.47500 20.92000
H  40.04400 43.59100 19.60800
H  41.52400 44.47800 19.95900
H  40.57400 46.59600 23.83800
H  41.35300 47.82900 24.89000
H  39.64000 47.40900 25.03900
H  40.01600 45.03600 30.07400
H  43.05200 47.15300 32.40100
H  41.93300 46.30600 33.49400
H  41.62800 47.98000 33.02700
Mg 35.80900 49.31800 24.75400
C  36.06100 47.38100 27.65100
C  34.74000 51.86200 26.81500
C  34.88700 51.02200 21.94300
C  36.76900 46.55800 22.90500
N  35.31200 49.52000 26.91600
C  35.50900 48.63400 27.92700
C  35.23300 49.23600 29.24300
C  34.66100 50.64400 28.96300
C  34.90000 50.68400 27.46000
C  33.11900 50.82100 29.34700
C  36.63000 49.41000 30.03200
C  36.54300 49.46100 31.58700
H  35.13800 49.45400 32.27200
N  34.98400 51.16300 24.38700
C  34.69500 52.10900 25.41100
C  34.24700 53.37000 24.78100
C  34.24900 53.09800 23.31900
C  34.69600 51.71400 23.16900
C  33.78600 54.53900 25.48300
C  33.90900 54.08100 22.20500
O  33.73200 53.79300 21.02800
C  33.68600 55.55200 22.62900
N  36.02400 48.91400 22.70300
C  35.61800 49.78800 21.75800
C  35.89900 49.29800 20.33000
C  36.36000 47.80700 20.59900
C  36.47200 47.74200 22.13900
C  34.62900 49.30900 19.42400
C  37.75200 47.37700 19.92900
C  39.06000 47.85500 20.52700
N  36.37400 47.41400 25.14200
C  36.90000 46.42900 24.31000
C  37.35100 45.27400 25.06000
C  37.01900 45.58800 26.37200
C  36.43000 46.89800 26.38400
C  37.93600 44.09400 24.48300
C  37.08700 45.07900 27.67500
O  37.51800 43.96700 28.08900
C  36.47500 46.22500 28.56500
C  35.32700 45.64800 29.29600
O  34.15500 45.59200 28.93800
O  35.80600 45.30300 30.56900
C  34.81500 45.09900 31.62500
H  34.76000 52.67400 27.54500
H  34.68000 51.61100 21.04700
H  37.15100 45.72300 22.31400
H  34.55700 48.61700 29.83200
H  35.18100 51.43300 29.50600
H  32.61300 49.95100 29.76600
H  32.52400 50.95900 28.44500
H  33.04300 51.71500 29.96500
H  37.12400 50.27200 29.58400
H  37.13700 48.47300 29.80000
H  37.02100 50.40500 31.85100
H  37.15700 48.65300 31.98500
H  33.73700 54.46600 26.57000
H  32.79500 54.82700 25.13500
H  34.42900 55.39500 25.27800
H  33.66200 56.03000 21.64900
H  34.51100 55.98900 23.19200
H  32.68700 55.51300 23.06100
H  36.64700 50.01700 19.99700
H  35.61100 47.10700 20.22900
H  33.73000 48.95200 19.92600
H  34.83500 48.70000 18.54400
H  34.42100 50.32800 19.09600
H  37.66200 47.64000 18.87500
H  37.70200 46.28900 19.97800
H  39.55000 48.37400 19.70400
H  39.60300 46.97200 20.86600
H  38.96300 48.57600 21.33800
H  37.10700 43.38800 24.51200
H  38.67900 43.73500 25.19500
H  38.22800 44.07600 23.43300
H  37.34300 46.43200 29.19200
H  34.77400 44.03100 31.83800
H  33.80900 45.39100 31.32200
H  35.07400 45.64800 32.53000

