158

Mg 17.76700 -1.59600 27.99600
C  16.69600 0.25100 30.66300
C  19.86300 -3.32000 30.17600
C  19.33800 -2.93500 25.32800
C  15.80500 0.52200 26.01100
N  18.16500 -1.53400 30.17400
C  17.62200 -0.71500 31.04800
C  18.11100 -0.94000 32.47800
C  19.37700 -1.85700 32.23600
C  19.10300 -2.28600 30.78200
C  20.68000 -1.11500 32.40800
C  17.01200 -1.56700 33.35700
C  17.03400 -1.21900 34.89700
H  18.20200 -0.45100 35.49000
N  19.25700 -2.98700 27.71600
C  19.89800 -3.62500 28.77800
C  20.63400 -4.73600 28.28800
C  20.59400 -4.62000 26.87800
C  19.74300 -3.49900 26.52600
C  21.24500 -5.68800 29.23000
C  21.26600 -5.62200 25.90700
O  21.23600 -5.38900 24.70400
C  22.02500 -6.90700 26.30900
N  17.66500 -1.11900 25.92100
C  18.39700 -1.97100 25.05700
C  18.07600 -1.45100 23.65500
C  16.76900 -0.54000 23.86500
C  16.67300 -0.38200 25.35600
C  19.36200 -0.82600 22.98600
C  15.46700 -0.93300 23.12600
C  14.59000 0.19400 22.44100
N  16.37000 -0.08300 28.21900
C  15.67000 0.68500 27.35700
C  14.88800 1.68400 28.05000
C  15.20800 1.50000 29.36600
C  16.17300 0.50700 29.36500
C  13.88600 2.58700 27.43600
C  14.94200 1.92800 30.64700
O  14.14600 2.77600 30.99000
C  15.91400 1.23600 31.60100
C  16.72800 2.25000 32.33800
O  17.58900 2.91800 31.78800
O  16.33400 2.28000 33.63200
C  16.98700 3.32500 34.43300
H  20.57900 -3.78900 30.85500
H  19.81800 -3.36400 24.44600
H  15.14500 1.02000 25.29700
H  18.34100 0.04200 32.89100
H  19.38100 -2.66700 32.96600
H  21.23700 -1.67200 33.16100
H  20.48400 -0.12900 32.82900
H  21.25500 -1.13400 31.48200
H  16.97300 -2.64800 33.22300
H  16.05800 -1.36100 32.87200
H  16.99900 -2.13400 35.48800
H  16.13100 -0.63900 35.09200
H  20.73700 -5.66100 30.19400
H  22.33200 -5.61300 29.26900
H  21.12900 -6.67700 28.78700
H  21.27900 -7.63400 26.63200
H  22.75900 -6.64200 27.07000
H  22.54700 -7.39600 25.48700
H  17.82400 -2.32300 23.05200
H  16.99800 0.48900 23.58800
H  20.06200 -0.69400 23.81100
H  19.05700 0.14500 22.59400
H  19.80300 -1.40600 22.17600
H  14.75100 -1.37000 23.82200
H  15.76200 -1.73500 22.45000
H  13.57600 0.07700 22.82300
H  14.53400 0.02500 21.36500
H  15.03400 1.18200 22.56300
H  13.49400 3.26000 28.19900
H  13.01600 2.09900 26.99800
H  14.41500 3.04300 26.59900
H  15.23300 0.74800 32.29800
H  16.78000 3.26000 35.50100
H  16.62400 4.31500 34.15600
H  18.07600 3.33100 34.47100
Mg 9.43400 48.79800 24.65300
C  7.31300 49.46300 27.36500
C  12.04700 50.05900 26.49500
C  11.38500 48.38800 21.96900
C  6.60100 48.09300 22.65300
N  9.58700 49.59000 26.67600
C  8.65300 49.61500 27.70200
C  9.32800 50.07000 29.00500
C  10.57800 50.78800 28.48200
C  10.76100 50.11100 27.15000
C  10.45300 52.31400 28.27400
C  9.56200 48.87600 29.97000
C  8.75500 48.91400 31.26100
H  8.22200 47.54200 31.81300
N  11.52300 48.96300 24.25600
C  12.42500 49.47900 25.20700
C  13.79300 49.41200 24.53400
C  13.60200 48.81200 23.24800
C  12.12300 48.64800 23.14400
C  15.06400 49.66200 25.38700
C  14.57200 48.33800 22.14300
O  14.16000 47.73100 21.21400
C  16.05100 48.54600 22.23400
N  9.11600 48.46900 22.64200
C  10.08600 48.25600 21.68000
C  9.53900 47.92200 20.30600
C  8.03100 47.60200 20.65100
C  7.87400 48.14000 22.03200
C  9.81500 48.87100 19.17900
C  7.55500 46.05900 20.46700
C  8.25300 45.04300 21.34300
N  7.40800 48.95200 24.82400
C  6.38100 48.59700 23.95100
C  5.09900 48.71500 24.65600
C  5.39500 49.05400 25.92200
C  6.83900 49.15800 26.02000
C  3.74100 48.44500 24.12200
C  4.81700 49.25800 27.23600
O  3.66300 49.24300 27.64600
C  6.05700 49.59000 28.19300
C  5.91400 48.55600 29.25100
O  5.89800 47.33100 29.08400
O  5.58700 49.21400 30.43300
C  5.00700 48.39900 31.52200
H  12.86700 50.58100 26.99200
H  12.08500 48.27400 21.13900
H  5.78800 47.66300 22.06600
H  8.70400 50.78500 29.54100
H  11.33500 50.44200 29.18500
H  9.43700 52.54700 27.95600
H  11.12500 52.75200 27.53600
H  10.57100 52.92800 29.16700
H  10.58700 48.77000 30.32600
H  9.28400 47.97800 29.41800
H  7.86000 49.52500 31.14800
H  9.25300 49.49700 32.03600
H  14.85800 49.85500 26.44000
H  15.55000 50.59500 25.10000
H  15.79300 48.85400 25.33900
H  16.30500 48.69700 23.28400
H  16.41500 49.43800 21.72500
H  16.48800 47.60900 21.89000
H  9.96000 46.98400 19.94300
H  7.37900 48.15700 19.97500
H  10.43000 49.68400 19.56300
H  8.88700 49.35500 18.87600
H  10.28800 48.47100 18.28200
H  7.73300 45.81600 19.41900
H  6.48400 45.91700 20.61200
H  8.57900 45.45500 22.29800
H  9.15200 44.61400 20.90100
H  7.61700 44.17300 21.50300
H  3.67700 48.13400 23.07900
H  3.10400 49.32300 24.22800
H  3.17200 47.65200 24.60700
H  5.90800 50.58300 28.61700
H  5.58400 47.47500 31.56900
H  3.95900 48.23500 31.27200
H  5.12400 48.94500 32.45900

