158

Mg 1.86900 7.96300 25.97700
C  2.36100 9.92700 28.84800
C  2.17400 5.15800 28.05500
C  1.68400 6.10600 23.32100
C  2.05000 10.86800 24.02300
N  2.17100 7.60600 28.22800
C  2.30000 8.60900 29.16900
C  2.42000 8.00000 30.60100
C  2.40100 6.48100 30.36500
C  2.26700 6.36300 28.81100
C  3.58900 5.64600 30.89100
C  1.14000 8.49700 31.52200
C  1.40600 8.68800 33.04900
H  2.58200 8.02700 33.76400
N  1.73000 5.92900 25.70700
C  1.84700 4.97600 26.65000
C  1.73100 3.66100 26.06300
C  1.53900 3.93400 24.69300
C  1.71700 5.38000 24.47200
C  1.90900 2.41400 26.79300
C  1.09600 2.88100 23.67900
O  1.10600 3.21500 22.48100
C  0.71300 1.54300 24.02500
N  1.91700 8.48400 23.92900
C  1.74300 7.51300 23.07700
C  1.61300 8.09100 21.65600
C  1.67000 9.66400 21.85400
C  1.77500 9.70400 23.36100
C  2.73000 7.55000 20.66700
C  0.39900 10.46700 21.41700
C  0.71700 11.80100 20.67400
N  2.15900 9.97600 26.30400
C  2.15900 11.06600 25.41100
C  2.19500 12.35200 26.16300
C  2.28200 11.91500 27.48900
C  2.19400 10.49800 27.53000
C  2.31200 13.69300 25.51500
C  2.54100 12.37500 28.89500
O  2.68600 13.48400 29.35400
C  2.55100 11.11700 29.76200
C  3.90400 11.15900 30.35500
O  4.89000 10.54700 29.98300
O  3.81000 11.71200 31.63200
C  4.94700 11.74300 32.54000
H  2.25100 4.28300 28.70500
H  1.49900 5.53400 22.40900
H  2.22500 11.74200 23.39100
H  3.38900 8.21100 31.05300
H  1.56400 5.99000 30.86200
H  4.24900 5.34400 30.07700
H  3.22800 4.76900 31.42700
H  4.17200 6.12800 31.67500
H  0.35500 7.76300 31.34100
H  0.82400 9.43500 31.06500
H  0.50800 8.34800 33.56400
H  1.49200 9.77300 33.10800
H  1.17200 2.17900 27.56000
H  2.89200 2.32600 27.25700
H  2.02500 1.60300 26.07400
H  1.60600 0.91700 24.03500
H  0.01000 1.25300 23.24400
H  0.19300 1.41500 24.97500
H  0.64300 7.75800 21.28600
H  2.49600 10.17400 21.35900
H  3.72500 7.48400 21.10700
H  2.88500 8.13800 19.76300
H  2.47000 6.52800 20.39100
H  -0.17800 10.91500 22.22500
H  -0.41700 9.96000 20.90200
H  1.35300 12.51700 21.19500
H  -0.08600 12.41500 20.26700
H  1.35900 11.60500 19.81600
H  1.43700 14.27100 25.81000
H  2.34000 13.51800 24.43900
H  3.24600 14.04400 25.95300
H  1.83300 11.19200 30.57900
H  5.36800 12.74800 32.56200
H  5.69600 10.97400 32.35200
H  4.49900 11.56500 33.51800
Mg 35.91900 1.01100 29.61400
C  33.57500 2.06000 31.93300
C  38.30400 0.95300 32.12000
C  38.13700 -0.05200 27.29800
C  33.52400 1.38400 27.21500
N  35.99400 1.44100 31.80400
C  34.87100 1.75400 32.51500
C  35.18400 1.78400 33.98200
C  36.80100 1.93500 33.96200
C  37.11700 1.43700 32.54100
C  37.31900 3.43900 34.16900
C  34.48100 0.52900 34.63100
C  34.15300 0.81100 36.18100
H  34.99700 1.83600 36.92200
N  37.93200 0.45600 29.71100
C  38.73200 0.45300 30.82900
C  39.93800 -0.24600 30.53300
C  39.97200 -0.42700 29.13500
C  38.64000 0.05200 28.62400
C  41.02100 -0.49200 31.58000
C  41.10100 -0.93200 28.26300
O  41.15200 -0.90200 27.00400
C  42.36800 -1.51100 28.95800
N  35.89300 0.90300 27.54300
C  36.88500 0.36300 26.80800
C  36.52200 0.11400 25.34100
C  34.99300 0.59500 25.28800
C  34.77600 0.99400 26.75800
C  37.43300 0.82700 24.27100
C  33.93000 -0.47600 24.78900
C  33.54700 -1.52500 25.84800
N  33.99100 1.75600 29.51400
C  33.09600 1.85700 28.46200
C  31.80000 2.30400 28.91400
C  31.98200 2.39500 30.26100
C  33.29800 1.99400 30.56900
C  30.61700 2.43100 28.14600
C  31.28200 2.73200 31.53600
O  30.09300 3.04500 31.80600
C  32.34600 2.50000 32.67700
C  32.42400 3.72800 33.49800
O  33.16500 4.67600 33.34100
O  31.72600 3.51600 34.66200
C  32.02400 4.50900 35.74300
H  39.04900 0.92200 32.91800
H  38.67200 -0.66500 26.57000
H  32.80700 1.52600 26.40400
H  34.69200 2.66300 34.39900
H  37.37900 1.33900 34.66700
H  37.90100 3.41300 35.09000
H  36.63000 4.28100 34.24000
H  37.98600 3.66500 33.33700
H  35.01200 -0.41300 34.49400
H  33.53100 0.47400 34.09900
H  34.22700 -0.21400 36.54300
H  33.11000 1.12700 36.21000
H  41.57600 -1.43000 31.55600
H  40.54400 -0.35400 32.55100
H  41.66500 0.38000 31.46800
H  43.07200 -0.73100 29.24700
H  42.96200 -1.92500 28.14300
H  42.14400 -2.27600 29.70000
H  36.59000 -0.96700 25.22000
H  34.81100 1.48400 24.68400
H  38.08100 1.53700 24.78500
H  36.78900 1.39100 23.59700
H  38.01400 0.08700 23.72100
H  34.21300 -0.84900 23.80500
H  32.99500 0.03300 24.55300
H  34.12000 -1.56600 26.77400
H  33.65300 -2.53000 25.44000
H  32.48600 -1.48200 26.09400
H  29.67100 2.31000 28.67400
H  30.62100 1.72200 27.31900
H  30.65400 3.46300 27.79600
H  31.96100 1.76000 33.37900
H  31.19500 4.34500 36.43200
H  32.09600 5.54700 35.41800
H  32.99700 4.33300 36.20200

