158

Mg 8.01500 2.49100 27.25600
C  9.50800 1.19000 30.16700
C  6.11200 4.58100 29.31100
C  6.02300 3.53400 24.70100
C  9.40900 0.15100 25.34000
N  7.93800 2.91300 29.48600
C  8.62400 2.23700 30.48400
C  8.38200 2.90600 31.91000
C  7.13800 3.88700 31.60400
C  7.03700 3.75500 30.01600
C  5.79000 3.56100 32.26900
C  9.65200 3.57600 32.62000
C  9.43700 3.99700 33.99400
H  10.22900 3.52100 35.16000
N  6.40300 3.87000 27.00500
C  5.82400 4.69700 27.95900
C  4.85800 5.65000 27.32300
C  4.91800 5.35500 25.94100
C  5.84700 4.21800 25.81700
C  4.13200 6.67500 28.14100
C  4.09300 5.99900 24.85700
O  4.27700 5.62700 23.66000
C  3.04800 7.13000 25.15600
N  7.77800 2.00200 25.20300
C  6.88100 2.50800 24.36300
C  7.03900 1.79400 22.92200
C  8.22100 0.81200 23.16900
C  8.52200 0.97500 24.60200
C  5.80400 0.89800 22.58500
C  9.44500 1.02500 22.32100
C  10.07000 -0.20300 21.59300
N  9.25400 1.08700 27.58400
C  9.78900 0.21900 26.73500
C  10.81000 -0.58800 27.44300
C  10.65800 -0.34000 28.83600
C  9.78500 0.73800 28.84100
C  11.62500 -1.71400 26.82800
C  10.93700 -0.78300 30.17900
O  11.74000 -1.65400 30.63900
C  10.37800 0.33800 31.12900
C  9.69300 -0.27600 32.26500
O  8.73000 -1.08100 32.21000
O  10.53400 -0.09700 33.41000
C  10.07200 -0.69800 34.70100
H  5.51300 5.28500 29.89200
H  5.41100 3.75400 23.82300
H  9.94000 -0.52900 24.67000
H  8.21300 2.01400 32.51300
H  7.46500 4.86800 31.95000
H  5.02000 3.51500 31.49800
H  5.70000 4.45900 32.88000
H  5.75800 2.62200 32.82200
H  10.08600 4.33900 31.97400
H  10.49600 2.88600 32.62900
H  8.38100 3.97300 34.26300
H  9.58200 5.07600 33.94500
H  3.05600 6.57400 28.00200
H  4.58900 7.65200 27.98400
H  4.17300 6.53900 29.22100
H  2.08700 6.66500 25.37900
H  2.89700 7.82300 24.32900
H  3.35800 7.73400 26.00900
H  7.24700 2.57600 22.19100
H  7.93100 -0.23700 23.21500
H  5.01900 1.01100 23.33200
H  6.02800 -0.12800 22.29300
H  5.43400 1.13400 21.58700
H  10.19800 1.43000 22.99700
H  9.26900 1.73600 21.51400
H  10.17800 0.05700 20.54000
H  9.42500 -1.07700 21.49900
H  10.96200 -0.56100 22.10700
H  12.16000 -1.44400 25.91800
H  10.94000 -2.51100 26.53800
H  12.26000 -2.18700 27.57700
H  11.21500 0.89700 31.54900
H  9.38900 -1.53200 34.53700
H  9.58300 0.02200 35.35700
H  10.86700 -1.03000 35.36900
Mg 36.49100 50.08200 24.97200
C  36.12000 48.52100 28.19800
C  35.83900 53.05900 26.37000
C  36.46400 51.19600 21.97700
C  37.12100 46.72900 23.68000
N  35.95800 50.59200 27.11000
C  35.93700 49.89000 28.29900
C  35.73100 50.79300 29.50000
C  35.42000 52.19000 28.83700
C  35.81300 51.93900 27.34700
C  33.89200 52.63100 29.00900
C  36.92500 50.79100 30.48200
C  36.68000 50.47700 32.01900
H  35.51400 51.10400 32.80900
N  36.16400 51.91400 24.26300
C  36.04900 53.03200 25.00700
C  36.01500 54.17100 24.08300
C  36.15200 53.64500 22.78200
C  36.23300 52.24700 22.94400
C  35.86600 55.58700 24.57200
C  36.18500 54.40200 21.47000
O  36.19100 53.79700 20.39400
C  36.17300 55.87400 21.42400
N  36.66800 49.04900 23.04700
C  36.57800 49.79200 22.00900
C  36.92600 48.99800 20.70800
C  37.26600 47.58400 21.21400
C  37.02800 47.80300 22.71900
C  35.72900 48.94800 19.65400
C  38.75700 47.17200 21.12800
C  39.39600 47.05600 19.68300
N  36.56500 48.08700 25.66600
C  36.86600 46.87500 25.03800
C  36.88600 45.76400 26.02300
C  36.58800 46.38700 27.22600
C  36.36500 47.75800 26.99400
C  37.21100 44.31400 25.85800
C  36.53000 46.10200 28.67300
O  36.66400 45.05200 29.22200
C  36.24400 47.50600 29.26000
C  35.05100 47.26500 30.00300
O  33.90500 47.18900 29.56900
O  35.33500 47.04400 31.31800
C  34.34300 46.44800 32.22300
H  35.71100 54.05400 26.80200
H  36.80400 51.56900 21.00800
H  37.39300 45.78100 23.21300
H  34.82700 50.40100 29.96700
H  36.10000 52.93400 29.25100
H  33.35900 51.83400 29.52900
H  33.47600 52.69800 28.00400
H  33.92900 53.60400 29.49900
H  37.43400 51.74700 30.36100
H  37.68500 50.05100 30.23300
H  37.62200 50.73800 32.50000
H  36.54200 49.40900 32.18900
H  35.02800 56.14700 24.15700
H  36.83800 56.02800 24.34900
H  35.83600 55.67900 25.65800
H  35.19700 56.20600 21.77800
H  36.34400 56.28700 20.43100
H  36.89400 56.33300 22.10000
H  37.81200 49.41900 20.23400
H  36.70300 46.77000 20.75600
H  34.77300 48.93600 20.17800
H  35.79300 48.08000 18.99900
H  35.84600 49.89700 19.13000
H  38.86700 46.22700 21.65900
H  39.35600 47.84100 21.74600
H  39.84700 47.96900 19.29400
H  38.62400 46.65500 19.02700
H  40.13900 46.27000 19.54800
H  37.29800 43.77400 26.80100
H  38.03900 44.22200 25.15500
H  36.31400 43.91600 25.38400
H  37.05500 47.70900 29.95800
H  34.15000 47.21300 32.97500
H  34.86400 45.54200 32.53100
H  33.44300 46.09100 31.72000

