158

Mg 0.89100 7.51200 25.47100
C  1.54800 9.73200 28.08400
C  0.97200 4.92600 27.75800
C  -0.08900 5.34600 23.04800
C  1.10000 10.08100 23.15800
N  1.04200 7.32400 27.64800
C  1.31400 8.41000 28.54400
C  1.32300 7.91200 30.01700
C  1.51800 6.41400 29.79800
C  1.13900 6.18200 28.36900
C  2.94600 5.73000 30.13600
C  0.01200 8.35200 30.78700
C  0.26400 8.40400 32.34500
H  1.29300 7.45700 33.03000
N  0.47800 5.43300 25.42500
C  0.51600 4.55100 26.47400
C  0.29500 3.19300 26.01900
C  -0.04500 3.27200 24.65800
C  0.15900 4.73200 24.32200
C  0.29500 1.93200 26.95700
C  -0.42500 2.18800 23.66700
O  -0.60700 2.40200 22.46900
C  -0.61400 0.77400 24.13200
N  0.65400 7.63400 23.30200
C  0.08500 6.67200 22.60500
C  -0.17400 7.12900 21.09200
C  0.14800 8.64000 21.17600
C  0.69000 8.78200 22.60700
C  0.65900 6.31700 20.03800
C  -1.10700 9.58600 20.93900
C  -0.72700 11.02400 20.57100
N  1.22000 9.50000 25.56400
C  1.39000 10.40500 24.53200
C  1.68300 11.73200 25.06300
C  1.74700 11.54400 26.48000
C  1.46400 10.18600 26.74400
C  1.82100 13.03900 24.27100
C  1.94900 12.18600 27.78100
O  2.12400 13.36000 28.09400
C  1.68800 11.03900 28.84000
C  2.79300 10.97100 29.80000
O  3.89500 10.50900 29.57600
O  2.44200 11.58000 30.97400
C  3.35200 11.51200 32.10700
H  1.23400 4.11900 28.44600
H  -0.47200 4.57200 22.38000
H  1.12700 10.82600 22.36100
H  2.10300 8.53000 30.46100
H  0.75100 5.82700 30.30300
H  3.40100 6.22000 30.99700
H  3.54700 5.73100 29.22700
H  2.66300 4.71900 30.42800
H  -0.83800 7.69000 30.62100
H  -0.36600 9.32000 30.45900
H  -0.71600 8.19200 32.77200
H  0.59000 9.41300 32.59700
H  0.33100 0.96700 26.45200
H  -0.62700 1.83300 27.53000
H  1.12700 1.99900 27.65800
H  0.28500 0.29900 24.52400
H  -0.84300 0.13100 23.28300
H  -1.47000 0.64400 24.79500
H  -1.19300 6.94400 20.75000
H  0.93700 8.86800 20.45800
H  -0.16100 6.13200 19.34300
H  1.00500 5.31600 20.29900
H  1.42300 6.92900 19.55800
H  -1.65300 9.72700 21.87200
H  -1.79500 9.17800 20.19900
H  -0.93300 11.75500 21.35300
H  -1.43200 11.19800 19.75800
H  0.25400 11.19000 20.12700
H  0.97900 13.25700 23.61300
H  2.73200 12.99700 23.67300
H  2.16500 13.90300 24.83900
H  0.77000 11.25200 29.38800
H  2.75900 11.52000 33.02100
H  3.93800 12.42900 32.04500
H  3.85400 10.54800 32.19300
Mg 48.77200 44.55100 43.00600
C  45.24200 44.58000 42.86400
C  48.77000 41.16200 42.75300
C  52.14500 44.66800 43.00300
C  48.68000 48.07600 42.60300
N  47.14500 43.07400 42.72300
C  45.80900 43.27600 42.75300
C  45.00500 41.97200 42.76000
C  46.20600 40.90300 42.82600
C  47.48500 41.73700 42.86800
C  46.07000 40.00900 44.08400
C  43.96500 41.62700 41.64400
C  43.99500 42.39000 40.36200
H  44.47100 41.70300 39.12100
N  50.22800 43.11400 42.85800
C  50.01800 41.75600 42.85100
C  51.27800 41.07200 42.69300
C  52.28200 42.04200 42.78400
C  51.60800 43.36100 42.88000
C  51.49200 39.60000 42.46000
C  53.77500 41.65100 42.70700
O  54.24700 40.53700 42.57300
C  54.68400 42.73800 42.77600
N  50.16500 46.13400 42.82100
C  51.50200 45.89600 43.01700
C  52.25500 47.27000 43.30100
C  51.25800 48.26500 42.85900
C  49.92700 47.52900 42.74000
C  52.71400 47.44800 44.82400
C  51.63200 48.90500 41.53100
C  52.12100 50.32400 41.50700
N  47.27400 46.10600 42.75200
C  47.41500 47.47400 42.66500
C  46.04000 48.09000 42.74300
C  45.15500 47.00500 42.88500
C  45.95400 45.82000 42.83500
C  45.69000 49.58600 42.84100
C  43.77900 46.63500 43.08400
O  42.73900 47.23300 43.34600
C  43.77200 45.01600 42.99600
C  43.12500 44.49900 44.21300
O  42.09700 43.82700 44.20900
O  43.83500 44.89000 45.32900
C  43.60800 44.06200 46.46300
H  48.71100 40.08900 42.56200
H  53.22600 44.80500 43.08500
H  48.65400 49.16700 42.57300
H  44.56300 41.99400 43.75600
H  46.22100 40.26200 41.94400
H  46.35600 38.98100 43.86000
H  45.03100 39.83100 44.36400
H  46.68000 40.35500 44.91800
H  42.99900 41.79300 42.12100
H  43.89200 40.56300 41.41700
H  44.43800 43.38300 40.44100
H  42.91700 42.50200 40.24400
H  52.05500 39.08700 43.24000
H  51.88500 39.36300 41.47200
H  50.48000 39.21900 42.32700
H  54.54500 43.35300 41.88700
H  55.70000 42.37800 42.61300
H  54.53700 43.19700 43.75400
H  53.19700 47.24800 42.75300
H  51.02900 49.09000 43.53400
H  52.55400 48.45100 45.22000
H  53.75800 47.13800 44.77600
H  52.28300 46.72100 45.51300
H  50.85500 48.78700 40.77500
H  52.46800 48.32300 41.14300
H  51.31700 51.03700 41.32600
H  52.86400 50.55600 40.74400
H  52.54100 50.62900 42.46600
H  44.65700 49.78900 43.12600
H  45.82700 49.90600 41.80800
H  46.44100 50.00000 43.51300
H  43.11000 44.86100 42.14400
H  44.61100 43.88600 46.85000
H  43.01700 43.16000 46.30000
H  42.94100 44.62900 47.11300

