158

Mg 54.10100 24.08000 44.90600
C  51.43400 26.18800 43.85700
C  52.66200 21.59600 42.81000
C  57.04800 22.46500 44.77600
C  55.60800 26.72400 46.54000
N  52.30800 23.93400 43.42100
C  51.34500 24.89300 43.20500
C  50.05500 24.34400 42.59500
C  50.36300 22.82700 42.58400
C  51.87600 22.74000 42.94500
C  49.44700 21.86600 43.43400
C  49.70300 24.84300 41.18800
C  50.96300 25.07000 40.24400
H  50.68500 25.81200 38.95200
N  54.73200 22.21000 44.02700
C  53.98900 21.33500 43.19300
C  54.82600 20.20400 42.80400
C  56.07100 20.47100 43.36800
C  56.01900 21.72200 44.15400
C  54.28100 19.05300 41.96500
C  57.31700 19.59400 43.05600
O  57.25700 18.68700 42.28400
C  58.58400 19.66200 43.85500
N  56.10400 24.45200 45.61400
C  57.11100 23.65200 45.43500
C  58.37100 24.21300 46.18100
C  57.94700 25.68100 46.47300
C  56.45200 25.66300 46.17200
C  58.95400 23.28700 47.30300
C  58.64400 26.92300 45.74200
C  58.86900 28.17200 46.61700
N  53.60000 25.91900 45.28400
C  54.26600 26.87300 45.98000
C  53.42600 28.10700 46.11300
C  52.34500 27.87100 45.27300
C  52.46900 26.55300 44.74200
C  53.60800 29.35100 46.93900
C  51.07900 28.42100 44.76300
O  50.56700 29.50800 44.97500
C  50.36400 27.34300 43.93500
C  49.94900 27.84000 42.61600
O  50.65500 28.14100 41.69700
O  48.59600 28.01400 42.61600
C  47.96100 28.55100 41.38200
H  52.17200 20.83000 42.20600
H  58.03400 22.00900 44.67100
H  56.08700 27.56000 47.05400
H  49.41000 24.56800 43.44400
H  50.27800 22.39900 41.58500
H  48.84000 22.41400 44.15400
H  50.01600 21.18900 44.07100
H  48.81400 21.22200 42.82300
H  49.14600 25.77700 41.11300
H  49.12000 23.99700 40.82200
H  51.39500 24.08400 40.07200
H  51.67200 25.69700 40.78500
H  53.22800 18.85400 42.16600
H  54.76200 18.10600 42.21100
H  54.53500 19.26800 40.92700
H  59.16700 18.74400 43.77400
H  58.28000 19.83600 44.88700
H  59.13300 20.53200 43.49300
H  59.23400 24.06300 45.53200
H  57.97000 25.98300 47.52000
H  59.98200 23.00600 47.07100
H  58.37600 22.36300 47.31500
H  59.03300 23.77200 48.27500
H  58.00600 27.19100 44.90000
H  59.64800 26.70500 45.37700
H  59.88500 28.55800 46.53400
H  58.59200 27.99200 47.65500
H  58.25000 28.95200 46.17300
H  54.50900 29.26500 47.54700
H  52.74600 29.49400 47.59100
H  53.61200 30.24800 46.32100
H  49.51900 27.08700 44.57400
H  48.19600 27.90900 40.53200
H  48.17900 29.60100 41.18700
H  46.90300 28.45400 41.62600
Mg 42.76600 42.04500 26.74100
C  42.10400 44.45600 29.15900
C  43.57700 39.84200 29.28800
C  44.01800 39.97100 24.34100
C  42.57500 44.63800 24.29500
N  42.89600 42.14600 28.93900
C  42.50700 43.24500 29.72100
C  42.24000 42.83000 31.17000
C  43.03300 41.49500 31.29900
C  43.14100 41.11700 29.78100
C  44.40500 41.62300 31.99600
C  40.76100 42.68600 31.53600
C  40.41400 43.22900 32.92500
H  41.50700 43.21500 34.04800
N  43.75600 40.22200 26.81200
C  43.98300 39.48100 27.95300
C  44.58200 38.22600 27.50000
C  44.41700 38.11700 26.07800
C  44.06800 39.46000 25.66600
C  45.00200 37.24500 28.51500
C  44.65500 36.92300 25.17100
O  44.58500 36.92400 23.94100
C  44.88700 35.57100 25.76300
N  43.34400 42.35700 24.66500
C  43.78900 41.30000 23.89300
C  43.84100 41.66100 22.42900
C  43.23300 43.11200 22.39300
C  42.97100 43.38300 23.92700
C  45.15700 41.56800 21.72700
C  41.96600 43.15600 21.47500
C  40.82900 42.10100 21.97700
N  42.30700 44.11600 26.62600
C  42.24200 45.07600 25.63800
C  41.71000 46.38100 26.17700
C  41.65600 46.15100 27.52700
C  42.11800 44.82700 27.77600
C  41.21600 47.47800 25.27800
C  41.32900 46.75700 28.84700
O  40.80200 47.82600 29.10600
C  41.56100 45.66200 29.92900
C  42.53700 46.20300 30.96300
O  43.71300 46.06100 30.76600
O  41.94100 46.91200 31.96600
C  42.79700 47.09300 33.14400
H  43.69600 39.01700 29.99400
H  43.98600 39.25500 23.51700
H  42.42400 45.45500 23.58700
H  42.75600 43.55200 31.80300
H  42.34500 40.77500 31.74200
H  45.15600 41.09300 31.41000
H  44.23300 41.14600 32.96100
H  44.78200 42.62200 32.21600
H  40.37900 41.66600 31.55600
H  40.14100 43.17000 30.78200
H  39.57900 42.62200 33.27200
H  40.03000 44.21700 32.66800
H  44.21600 36.53900 28.78200
H  45.35500 37.66500 29.45700
H  45.82800 36.59800 28.22000
H  45.84300 35.58900 26.28600
H  44.88900 34.74400 25.05300
H  44.04600 35.27500 26.39100
H  43.27400 40.96100 21.81600
H  43.92700 43.86500 22.01900
H  45.71800 41.20400 22.58700
H  45.50900 42.49500 21.27400
H  45.07500 40.84400 20.91700
H  42.14400 42.87600 20.43600
H  41.68700 44.20600 21.56300
H  40.62200 41.30800 21.25800
H  39.96600 42.61400 22.40200
H  41.07700 41.63100 22.92900
H  40.92600 47.17700 24.27200
H  41.93500 48.27400 25.08400
H  40.37700 47.97000 25.76900
H  40.58800 45.46900 30.37900
H  43.37400 48.01300 33.23900
H  43.43300 46.23000 33.34200
H  42.10700 47.19000 33.98300

