158

Mg 23.69600 -7.14600 45.21600
C  26.05700 -4.78800 44.32200
C  21.52600 -5.77600 42.78000
C  21.53900 -9.79700 45.57000
C  26.29600 -9.14900 46.65200
N  23.81500 -5.43000 43.86200
C  24.91300 -4.71500 43.59000
C  24.69600 -3.78300 42.28400
C  23.18200 -3.86100 42.18200
C  22.75100 -5.11300 43.02600
C  22.40900 -2.46700 42.53400
C  25.54100 -4.23500 41.09900
C  26.08600 -3.12900 40.14700
H  25.77100 -3.34800 38.70800
N  21.61900 -7.61100 44.46100
C  20.99500 -6.91900 43.47300
C  19.69900 -7.60500 43.21600
C  19.67900 -8.67900 44.13900
C  20.97900 -8.74800 44.78100
C  18.58900 -7.22900 42.16600
C  18.38200 -9.56500 44.39000
O  17.30200 -9.24600 43.96900
C  18.42200 -10.80700 45.25900
N  23.83700 -9.05600 46.21700
C  22.80300 -9.94200 46.13800
C  23.21600 -11.28200 46.71700
C  24.74000 -11.11300 47.13400
C  24.98800 -9.65800 46.65900
C  22.18600 -11.93900 47.66800
C  25.66600 -12.17000 46.54000
C  26.76800 -12.74600 47.48300
N  25.71800 -6.98200 45.46400
C  26.59400 -7.88200 46.16100
C  27.84800 -7.18400 46.24300
C  27.74300 -5.92900 45.59200
C  26.47800 -5.89400 45.08400
C  29.08700 -7.81200 46.83100
C  28.39000 -4.69300 45.20000
O  29.48000 -4.18200 45.52500
C  27.37400 -3.99100 44.23700
C  27.17100 -2.52800 44.55800
O  26.21100 -1.99300 45.09400
O  28.22900 -1.76600 44.07200
C  28.18500 -0.27400 44.23500
H  20.88800 -5.50900 41.93400
H  20.93300 -10.70600 45.55400
H  27.06100 -9.78600 47.10200
H  24.97500 -2.77000 42.57500
H  22.92500 -4.14600 41.16200
H  22.29100 -1.99300 41.56000
H  23.02400 -1.85900 43.19700
H  21.40900 -2.68100 42.91000
H  24.87000 -4.86900 40.52000
H  26.35100 -4.85900 41.47600
H  27.17600 -3.15700 40.12500
H  25.78100 -2.11300 40.40000
H  18.17400 -8.17900 41.82900
H  18.99300 -6.72600 41.28800
H  17.75300 -6.65000 42.55900
H  18.58300 -10.57000 46.31100
H  19.18700 -11.44000 44.80900
H  17.51300 -11.40700 45.22000
H  23.18100 -11.81700 45.76900
H  24.84800 -11.04600 48.21600
H  21.47400 -12.57200 47.13900
H  21.88700 -11.14700 48.35500
H  22.65300 -12.73900 48.24200
H  26.07900 -11.68500 45.65600
H  25.16300 -13.05500 46.14900
H  26.85000 -12.07200 48.33600
H  27.73000 -12.68700 46.97500
H  26.52500 -13.73600 47.86800
H  28.94800 -8.21400 47.83500
H  29.86800 -7.05300 46.87100
H  29.30900 -8.59600 46.10700
H  27.65700 -4.00900 43.18500
H  28.68700 -0.13800 45.19300
H  27.17400 0.13100 44.18000
H  28.84300 0.11900 43.46000
Mg 48.20900 14.37100 28.12100
C  45.77300 14.39300 30.69900
C  50.27100 16.43300 29.94400
C  50.12200 14.86700 25.25300
C  46.12300 12.29400 26.29300
N  47.93700 15.48300 30.07800
C  46.96600 15.18400 31.03500
C  47.47500 15.57400 32.42900
C  48.72800 16.45700 32.13600
C  49.06200 16.10500 30.62500
C  48.60200 17.96200 32.25300
C  47.76900 14.40200 33.46300
C  47.14700 14.62600 34.87400
H  48.16700 14.99000 35.93600
N  49.94100 15.53700 27.62700
C  50.67500 16.26100 28.56400
C  51.76300 16.92600 27.88200
C  51.74200 16.51200 26.49800
C  50.54500 15.61100 26.38900
C  52.68900 17.97000 28.53100
C  52.65500 16.84100 25.39500
O  52.56300 16.32000 24.27200
C  53.78100 17.77400 25.54700
N  48.12200 13.62500 26.08700
C  48.94000 13.98700 25.10200
C  48.70200 13.17300 23.81200
C  47.41000 12.30200 24.14400
C  47.21600 12.77000 25.60100
C  48.61100 14.11000 22.54900
C  47.65500 10.71500 24.00600
C  48.06700 9.92800 25.23200
N  46.29600 13.57400 28.37800
C  45.56900 12.72900 27.51000
C  44.36500 12.31100 28.04600
C  44.40700 13.01800 29.29000
C  45.55300 13.74100 29.46500
C  43.27600 11.54500 27.42300
C  43.61500 13.26500 30.47000
O  42.49200 12.95400 30.79100
C  44.58500 13.92100 31.53400
C  43.87800 14.94600 32.34300
O  43.52800 16.01700 32.03400
O  43.66100 14.48000 33.61200
C  42.89700 15.38900 34.46400
H  50.87000 17.18200 30.46500
H  50.74900 15.03500 24.37500
H  45.43400 11.64200 25.75200
H  46.70000 16.21800 32.84300
H  49.57400 16.11000 32.72800
H  49.04300 18.33400 33.17700
H  47.57200 18.27800 32.08900
H  48.98700 18.42600 31.34500
H  48.83000 14.38600 33.71200
H  47.33500 13.46100 33.12400
H  46.71700 13.66800 35.16700
H  46.28400 15.27200 34.71000
H  52.61100 17.79800 29.60400
H  52.47100 19.01600 28.31700
H  53.65400 17.54400 28.25500
H  53.40200 18.75900 25.82100
H  54.20700 17.91200 24.55300
H  54.59700 17.47300 26.20500
H  49.61900 12.60200 23.67200
H  46.52100 12.49800 23.54400
H  47.85700 13.78300 21.83300
H  49.44900 13.91000 21.88200
H  48.60400 15.17700 22.77100
H  48.46300 10.60900 23.28200
H  46.71600 10.31400 23.62600
H  47.26700 9.29900 25.62000
H  48.26000 10.61100 26.05900
H  48.85800 9.24000 24.93400
H  43.03700 10.63500 27.97300
H  43.56200 11.33400 26.39200
H  42.40800 12.20400 27.43500
H  44.85300 13.14600 32.25300
H  41.95300 15.67500 33.99900
H  43.36400 16.32100 34.78400
H  42.68700 14.71500 35.29400

