158

Mg 35.59800 3.55800 30.48100
C  32.88400 4.42700 32.53900
C  37.74500 3.78900 33.04800
C  37.95800 3.14600 28.27700
C  33.24500 3.85100 27.79200
N  35.31000 4.10400 32.49900
C  34.13800 4.22300 33.18300
C  34.34000 4.22400 34.69800
C  35.86400 4.51400 34.75400
C  36.36400 4.04500 33.33700
C  36.28500 5.92100 35.18800
C  33.90200 2.95100 35.49500
C  33.68900 3.21200 37.02700
H  34.42300 4.40600 37.62100
N  37.66600 3.39600 30.69400
C  38.38900 3.38900 31.80500
C  39.77800 3.04400 31.54300
C  39.81100 2.78100 30.11700
C  38.41400 3.01500 29.64300
C  40.84700 2.68900 32.53800
C  40.91500 2.20600 29.23900
O  40.86200 2.15300 28.06500
C  42.25900 1.74100 29.88900
N  35.60300 3.53100 28.27500
C  36.75700 3.41500 27.66000
C  36.50400 3.28100 26.09200
C  34.93600 3.55900 25.89500
C  34.52300 3.61400 27.38900
C  37.39100 4.23600 25.19200
C  34.28700 2.36300 25.15900
C  32.99700 2.70800 24.32000
N  33.40200 4.16200 30.16900
C  32.60200 4.10000 29.05100
C  31.25400 4.40400 29.43500
C  31.32300 4.51300 30.85100
C  32.62300 4.32800 31.17000
C  30.09700 4.52900 28.55900
C  30.50700 4.73100 32.01100
O  29.32400 4.93500 32.16500
C  31.52200 4.54300 33.18200
C  31.39100 5.72800 34.11800
O  31.80700 6.84000 33.81600
O  30.79600 5.33200 35.30300
C  30.77500 6.27800 36.42100
H  38.45100 3.77100 33.88100
H  38.61100 2.78300 27.48100
H  32.54400 3.98100 26.96500
H  33.79100 5.04300 35.16400
H  36.38700 3.89500 35.48300
H  35.91900 6.26000 36.15700
H  35.96700 6.72400 34.52300
H  37.36400 6.05800 35.25200
H  34.57300 2.09300 35.43500
H  32.90300 2.66800 35.16500
H  33.83200 2.32200 37.64100
H  32.63700 3.48800 37.09800
H  41.82100 3.06300 32.22400
H  40.96000 1.60600 32.59700
H  40.55400 3.02100 33.53400
H  42.89600 1.29500 29.12500
H  42.18400 1.00800 30.69200
H  42.56000 2.70200 30.30700
H  36.79600 2.25500 25.86900
H  34.64700 4.48800 25.40300
H  38.05900 4.87600 25.76900
H  36.75100 4.93000 24.64800
H  38.01800 3.62800 24.53900
H  33.86400 1.67100 25.88700
H  34.92100 1.87900 24.41600
H  32.90200 2.18000 23.37100
H  33.01100 3.78000 24.12400
H  32.12800 2.50900 24.94600
H  29.21000 4.62300 29.18400
H  30.00600 3.63000 27.94900
H  30.27800 5.45000 28.00400
H  31.36000 3.62700 33.75000
H  30.78300 7.31500 36.08600
H  31.65600 6.06500 37.02800
H  29.92400 6.07900 37.07200
Mg -11.23800 17.48500 40.63800
C  -7.73800 16.80600 40.61100
C  -10.41600 20.81100 39.95700
C  -14.52200 18.09900 40.04800
C  -11.76200 14.13600 40.98500
N  -9.27300 18.65100 40.26100
C  -8.01700 18.13900 40.29200
C  -7.01800 19.17200 39.84900
C  -7.78500 20.54400 40.02200
C  -9.26700 19.96700 40.13200
C  -7.42100 21.30600 41.35200
C  -6.43200 19.02800 38.37300
C  -4.88600 18.81700 38.20200
H  -4.32900 17.72500 37.28100
N  -12.30600 19.17900 40.05100
C  -11.79700 20.43000 39.86000
C  -12.92600 21.38500 39.59500
C  -14.15000 20.65100 39.53600
C  -13.73400 19.24700 39.86300
C  -12.71600 22.84900 39.54300
C  -15.53100 21.12300 39.19200
O  -15.76700 22.28500 38.93900
C  -16.65300 20.14500 39.20000
N  -12.94400 16.23500 40.49000
C  -14.21500 16.74000 40.39500
C  -15.23000 15.60000 40.45200
C  -14.35300 14.31400 40.78000
C  -12.95000 14.89100 40.74000
C  -16.37800 15.89500 41.40600
C  -14.60800 13.07500 39.86000
C  -13.73900 12.98800 38.54600
N  -10.06500 15.74100 40.63400
C  -10.42500 14.43900 40.93500
C  -9.24000 13.57800 40.91700
C  -8.16100 14.47900 40.79100
C  -8.67800 15.80000 40.73100
C  -9.13500 12.08900 40.96300
C  -6.73600 14.54400 40.80300
O  -5.88100 13.61100 40.92800
C  -6.40900 16.05800 40.61100
C  -5.38700 16.50500 41.61300
O  -4.37600 17.12300 41.35100
O  -5.91100 16.37000 42.85600
C  -5.15700 16.93700 43.97300
H  -10.10200 21.85500 39.89400
H  -15.60600 18.22900 40.02700
H  -11.86800 13.05500 41.10200
H  -6.10300 19.05800 40.43100
H  -7.82600 21.23300 39.17800
H  -6.76700 20.72300 42.00100
H  -8.30300 21.49000 41.96600
H  -6.95300 22.25300 41.08500
H  -6.64200 19.90200 37.75600
H  -6.95800 18.28300 37.77700
H  -4.43900 18.77000 39.19500
H  -4.56200 19.81700 37.91200
H  -12.32200 23.20600 38.59200
H  -12.00100 23.14900 40.30900
H  -13.66000 23.34900 39.76200
H  -17.55000 20.62700 38.81000
H  -17.02500 19.73300 40.13800
H  -16.56300 19.28200 38.54100
H  -15.58300 15.51900 39.42300
H  -14.49900 13.98500 41.80900
H  -17.12500 16.13900 40.65000
H  -16.32400 16.76300 42.06300
H  -16.70100 14.99000 41.91900
H  -15.66000 13.04900 39.57400
H  -14.37500 12.23500 40.51500
H  -12.90000 12.32700 38.76200
H  -13.37700 13.98400 38.28900
H  -14.34700 12.45600 37.81400
H  -8.21900 11.69000 41.39800
H  -9.28200 11.77600 39.92900
H  -10.01100 11.76500 41.52500
H  -6.05000 16.06900 39.58200
H  -5.44500 17.97900 44.10700
H  -4.09700 16.86600 43.73000
H  -5.29800 16.39600 44.90900

