158

Mg 8.05100 3.42000 27.81200
C  9.53000 2.06900 30.60500
C  5.93000 5.33900 29.97800
C  6.26200 4.57800 25.05600
C  9.57000 1.12100 25.82100
N  7.78400 3.67600 30.07600
C  8.64000 3.07900 30.97100
C  8.44200 3.73100 32.34100
C  7.26300 4.73100 32.07100
C  6.93800 4.57300 30.62100
C  5.94000 4.47700 32.92300
C  9.73100 4.35200 32.89400
C  9.49800 5.18300 34.14700
H  10.36500 4.92600 35.35100
N  6.34500 4.73600 27.56000
C  5.69300 5.46200 28.58500
C  4.64400 6.20900 27.96600
C  4.68300 5.93400 26.56300
C  5.78100 5.04600 26.32600
C  3.71400 7.02900 28.74300
C  3.86500 6.52800 25.42400
O  3.87100 6.16400 24.25500
C  2.89400 7.66400 25.74200
N  7.96300 2.90900 25.72700
C  7.20300 3.58100 24.77200
C  7.58400 3.20000 23.34400
C  8.57600 2.04800 23.61800
C  8.77300 2.05500 25.12000
C  6.27000 2.82700 22.47600
C  9.80500 1.85800 22.80700
C  9.91300 0.57000 21.93900
N  9.21900 1.95800 28.03400
C  9.81400 1.10000 27.20400
C  10.65900 0.17700 27.86000
C  10.63500 0.58000 29.18000
C  9.70300 1.61600 29.26300
C  11.30600 -0.99800 27.15400
C  11.21200 0.33000 30.55300
O  12.00000 -0.52000 30.94400
C  10.59300 1.43300 31.51700
C  9.88400 0.83300 32.71100
O  8.86100 0.19500 32.75300
O  10.48400 1.24000 33.83900
C  9.84400 0.89800 35.09800
H  5.38900 5.94400 30.70900
H  5.78200 5.03200 24.18600
H  10.16200 0.48600 25.15900
H  8.12900 2.93900 33.02200
H  7.64000 5.75100 32.00700
H  5.58900 5.39600 33.39200
H  6.23100 3.80100 33.72700
H  5.17500 3.95000 32.35300
H  10.19100 5.03800 32.18200
H  10.53100 3.64500 33.11200
H  8.46400 5.04800 34.46300
H  9.57300 6.24300 33.90500
H  3.95700 8.07300 28.54600
H  3.83300 7.03400 29.82600
H  2.66100 6.85800 28.52200
H  2.06100 7.20200 26.27200
H  2.66700 8.19900 24.82000
H  3.43300 8.32800 26.41700
H  8.19000 3.95900 22.85000
H  7.95200 1.18600 23.38500
H  6.32600 1.90400 21.90000
H  6.12300 3.62800 21.75200
H  5.44800 2.90800 23.18800
H  10.68100 1.93300 23.45100
H  10.02200 2.68400 22.13000
H  10.77100 0.03600 22.34700
H  10.09600 0.89300 20.91400
H  9.01300 -0.04200 21.89800
H  12.06900 -0.53400 26.52900
H  10.54600 -1.56100 26.61200
H  11.80600 -1.58500 27.92500
H  11.43400 2.09600 31.72000
H  10.44200 1.42800 35.83900
H  9.96300 -0.18500 35.06000
H  8.80100 1.21000 35.04800
Mg 6.66400 53.53800 39.59800
C  6.46100 49.81600 39.50600
C  10.00900 53.12500 38.85300
C  6.67300 56.71300 39.33100
C  3.22000 53.42500 40.09100
N  8.07600 51.70100 39.21000
C  7.78700 50.32900 39.35800
C  9.08400 49.48700 39.14000
C  10.21800 50.52400 39.32500
C  9.42400 51.86700 39.12300
C  10.94400 50.51900 40.69700
C  9.16800 48.80500 37.72700
C  8.92500 49.75600 36.52300
H  7.65300 49.69200 35.73500
N  8.11600 54.81900 39.03900
C  9.44500 54.44800 38.70200
C  10.08800 55.60700 38.38900
C  9.16800 56.75900 38.59500
C  7.94900 56.17700 39.06900
C  11.52400 55.66400 37.82200
C  9.53400 58.22500 38.34000
O  10.64700 58.50800 37.91300
C  8.59400 59.39200 38.61200
N  5.15500 54.86200 39.51300
C  5.44800 56.15400 39.61600
C  4.16600 57.04600 39.86800
C  3.11400 55.91500 40.19900
C  3.88400 54.63900 39.96800
C  4.30600 58.12600 41.00700
C  1.72900 56.01800 39.56700
C  0.57200 55.96500 40.54500
N  5.06200 51.93300 39.57600
C  3.73700 52.14800 39.90100
C  3.04500 50.85800 40.07300
C  4.11300 49.93100 39.95100
C  5.28300 50.62800 39.63700
C  1.57400 50.65200 40.44400
C  4.39200 48.58000 40.02700
O  3.64600 47.60100 40.13200
C  5.86900 48.42300 39.72400
C  6.00900 47.60900 38.57200
O  5.77500 47.93000 37.41800
O  6.46700 46.30800 38.91000
C  6.17100 45.13900 37.97600
H  11.08700 52.98700 38.74500
H  6.70600 57.80200 39.24600
H  2.16900 53.38000 40.38500
H  9.14200 48.65900 39.84600
H  10.98600 50.53300 38.55200
H  11.98900 50.39900 40.41000
H  10.83300 49.68300 41.38800
H  10.91400 51.40200 41.33500
H  8.35400 48.08100 37.71900
H  10.11800 48.27100 37.70300
H  9.78300 49.65900 35.85700
H  9.06100 50.76700 36.90600
H  12.24100 55.79100 38.63300
H  11.55500 56.48500 37.10600
H  11.89700 54.78600 37.29400
H  9.08200 60.35900 38.73200
H  8.25300 59.07000 39.59600
H  7.72000 59.35200 37.96200
H  4.05000 57.54400 38.90500
H  3.03700 55.89700 41.28600
H  4.40500 59.16400 40.68900
H  5.21900 57.76200 41.47800
H  3.51000 57.94900 41.73000
H  1.61400 55.18800 38.87000
H  1.69700 56.98200 39.05800
H  -0.38300 55.87600 40.02600
H  0.52100 56.91100 41.08500
H  0.56600 54.96100 40.97000
H  1.51000 49.59300 40.69000
H  0.82600 51.00800 39.73600
H  1.46300 51.25900 41.34300
H  6.24100 47.88200 40.59400
H  7.11000 44.76800 37.56500
H  5.34700 45.41200 37.31800
H  5.70600 44.34900 38.56600

