158

Mg 16.20800 -1.45100 28.92700
C  15.08100 0.80800 31.52000
C  18.04100 -3.08500 31.12600
C  17.43200 -3.28500 26.29000
C  14.32300 0.43200 26.75100
N  16.23300 -1.28200 31.06500
C  15.85300 -0.27400 31.93300
C  16.24900 -0.60400 33.37600
C  17.19100 -1.86900 33.23500
C  17.11000 -2.15400 31.71400
C  18.64600 -1.66500 33.67000
C  15.03200 -0.95700 34.19100
C  15.14700 -0.52600 35.58700
H  16.52100 -0.24500 36.24700
N  17.50200 -2.99300 28.73400
C  18.15700 -3.48600 29.79200
C  18.99500 -4.57400 29.32300
C  18.86500 -4.60400 27.90900
C  17.92300 -3.53700 27.58700
C  19.75400 -5.52300 30.21700
C  19.62600 -5.55700 26.93200
O  19.42700 -5.41000 25.74200
C  20.59000 -6.60300 27.46100
N  16.06200 -1.22600 26.76600
C  16.64800 -2.18300 25.95200
C  16.26000 -1.83900 24.45900
C  15.14500 -0.77700 24.62000
C  15.14000 -0.53200 26.11700
C  17.51100 -1.40000 23.61900
C  13.75100 -1.23000 24.14200
C  12.97100 -0.15300 23.38200
N  14.95700 0.31600 29.07100
C  14.21600 0.82400 28.09100
C  13.39700 1.91700 28.58900
C  13.75300 1.99800 29.95100
C  14.65900 1.01200 30.20400
C  12.49600 2.71300 27.76400
C  13.50100 2.63400 31.25800
O  12.67100 3.53900 31.53400
C  14.38200 1.84000 32.32500
C  15.30900 2.86600 32.80700
O  16.20500 3.34800 32.13700
O  15.02200 3.04300 34.15200
C  15.48100 4.38900 34.56400
H  18.57700 -3.67700 31.87000
H  17.63900 -4.01800 25.50800
H  13.70700 1.06600 26.10900
H  16.74700 0.28200 33.77000
H  16.69000 -2.64900 33.80800
H  19.43700 -1.92300 32.96500
H  18.61800 -2.26800 34.57700
H  18.73900 -0.60700 33.91400
H  14.75900 -2.01000 34.26200
H  14.16100 -0.48700 33.73500
H  14.50100 -1.22000 36.12400
H  14.65600 0.44200 35.68600
H  20.79300 -5.37700 29.92200
H  19.37600 -6.52000 29.98900
H  19.70100 -5.33400 31.28900
H  21.02500 -7.24100 26.69100
H  20.24200 -7.29600 28.22700
H  21.37700 -5.99600 27.91000
H  15.91900 -2.77700 24.02100
H  15.56500 0.10800 24.14000
H  17.70100 -0.32800 23.67800
H  17.26400 -1.60300 22.57700
H  18.43200 -1.91400 23.89100
H  13.11800 -1.40600 25.01200
H  13.87300 -2.19200 23.64300
H  12.07500 -0.59800 22.94900
H  13.53900 0.45100 22.67400
H  12.57700 0.56100 24.10500
H  11.87900 2.05800 27.14900
H  13.10600 3.22600 27.02000
H  11.98200 3.44700 28.38400
H  13.72400 1.40700 33.07800
H  15.24600 5.22400 33.90400
H  16.54700 4.32500 34.78400
H  14.88200 4.64200 35.43900
Mg -11.80700 16.27500 42.33500
C  -8.97700 14.32600 42.19900
C  -9.92800 18.93100 40.89700
C  -14.65100 17.71500 41.51300
C  -13.57700 13.46500 43.70400
N  -9.75700 16.46600 41.46300
C  -8.80800 15.54300 41.57400
C  -7.54100 16.06700 41.05000
C  -7.68800 17.63900 40.87700
C  -9.21300 17.75000 41.11400
C  -6.92600 18.43800 41.88500
C  -7.17000 15.42600 39.72200
C  -5.71600 15.73800 39.21800
H  -5.49800 16.54900 37.93600
N  -12.26600 18.12800 41.43500
C  -11.36200 19.12200 40.99500
C  -12.06300 20.29700 40.50500
C  -13.41100 19.99500 40.79100
C  -13.53800 18.58500 41.25200
C  -11.42300 21.55500 39.92800
C  -14.60700 20.92800 40.66200
O  -14.41700 22.03100 40.33600
C  -16.09100 20.65100 40.98100
N  -13.81800 15.61100 42.43500
C  -14.78700 16.47300 42.17400
C  -16.12600 15.83100 42.25400
C  -15.79300 14.48700 42.98100
C  -14.27900 14.49800 43.11000
C  -17.29400 16.57400 43.01500
C  -16.27200 13.12300 42.39300
C  -16.69600 12.04200 43.42000
N  -11.36400 14.34600 42.97200
C  -12.19300 13.32100 43.54100
C  -11.28500 12.17600 43.85900
C  -9.95600 12.61500 43.42700
C  -10.11600 13.87100 42.78000
C  -11.64200 10.78600 44.33100
C  -8.63300 12.13300 43.28600
O  -8.21000 11.08100 43.67000
C  -7.90800 13.23100 42.47500
C  -6.66800 13.75700 43.15600
O  -6.66200 14.22000 44.26200
O  -5.60900 13.76200 42.30700
C  -4.22700 14.02200 42.88600
H  -9.41700 19.82900 40.54100
H  -15.62800 18.08300 41.19400
H  -14.12200 12.62900 44.14800
H  -6.65800 15.97000 41.68100
H  -7.47200 17.88800 39.83800
H  -6.54600 19.26300 41.28400
H  -6.09100 17.90800 42.34400
H  -7.49600 18.77100 42.75200
H  -7.90100 15.72100 38.97000
H  -7.32200 14.35400 39.84300
H  -5.08900 14.84700 39.17500
H  -5.19800 16.33100 39.97100
H  -11.20200 22.21800 40.76400
H  -12.03300 21.93900 39.11000
H  -10.52600 21.23200 39.40000
H  -16.12600 20.12700 41.93600
H  -16.41300 20.03100 40.14400
H  -16.61600 21.60600 41.00100
H  -16.38900 15.66600 41.21000
H  -16.21400 14.53800 43.98500
H  -16.90800 17.29000 43.74000
H  -17.95800 15.80200 43.40400
H  -17.85900 17.09400 42.24100
H  -15.49600 12.69000 41.76200
H  -17.07000 13.40700 41.70800
H  -16.05600 11.16500 43.32800
H  -17.68100 11.60100 43.26900
H  -16.63000 12.46900 44.42100
H  -10.72600 10.48600 44.83900
H  -11.86000 10.19700 43.44000
H  -12.48400 10.69300 45.01800
H  -7.66600 12.62200 41.60400
H  -3.43400 13.99500 42.13900
H  -4.04800 13.26100 43.64600
H  -4.18600 14.98700 43.39000

