158

Mg 35.28100 48.59800 26.24000
C  35.49900 46.73000 29.25900
C  34.24600 51.20100 28.14900
C  34.84600 50.36500 23.35600
C  36.33500 45.82300 24.44300
N  35.05600 48.88400 28.51500
C  35.17300 48.05400 29.53000
C  35.24700 48.79500 30.88500
C  34.53000 50.16300 30.50900
C  34.65800 50.10900 28.96400
C  32.98100 50.28300 30.84200
C  36.73300 49.01200 31.37900
C  37.19100 48.36300 32.73600
H  37.33800 49.40300 33.84200
N  34.53900 50.40500 25.77200
C  34.10000 51.27900 26.72600
C  33.58600 52.43700 26.02800
C  33.59000 52.23700 24.59800
C  34.37400 50.99700 24.53300
C  32.84500 53.57500 26.70900
C  33.12700 53.07600 23.36000
O  33.28000 52.78800 22.16700
C  32.45500 54.43200 23.57300
N  35.60100 48.24900 24.21300
C  35.44100 49.10800 23.11500
C  35.58600 48.44900 21.76200
C  36.18600 47.06300 22.27200
C  36.14200 47.07200 23.74900
C  34.33500 48.38700 20.84800
C  37.68600 46.70000 21.85600
C  37.79700 45.39900 21.10100
N  35.78100 46.70300 26.70600
C  36.19100 45.70500 25.86100
C  36.35700 44.47200 26.64300
C  36.17000 44.81900 27.95500
C  35.72100 46.19600 27.97800
C  36.81000 43.12500 26.17400
C  36.22300 44.34000 29.31500
O  36.50600 43.26800 29.76800
C  35.66900 45.56100 30.20500
C  34.39300 45.18800 30.88900
O  33.37600 44.79000 30.37000
O  34.57600 45.30300 32.20700
C  33.41200 44.96300 33.00000
H  33.88900 52.00600 28.79400
H  34.72900 50.97100 22.45500
H  36.59600 44.90800 23.90600
H  34.61400 48.37200 31.66500
H  35.11400 50.99600 30.90000
H  32.69100 50.84900 31.72800
H  32.72600 49.24600 31.05900
H  32.30800 50.64800 30.06600
H  36.94300 50.08100 31.40200
H  37.36400 48.48400 30.66500
H  38.16200 47.88000 32.62800
H  36.45100 47.64900 33.10000
H  31.79900 53.68100 26.42100
H  33.31600 54.51200 26.41000
H  32.77800 53.50700 27.79500
H  32.15000 54.81900 22.60100
H  33.12600 55.17700 24.00000
H  31.55600 54.34100 24.18300
H  36.36100 49.01200 21.24100
H  35.52200 46.24100 22.00400
H  34.03900 47.35300 20.66900
H  34.55700 48.83900 19.88100
H  33.54900 49.03100 21.24300
H  38.28700 46.56400 22.75400
H  38.03300 47.44400 21.13900
H  38.58700 44.75200 21.48400
H  38.11600 45.68800 20.10000
H  36.81400 44.93800 21.00500
H  36.11100 42.40800 26.60400
H  37.79400 42.97400 26.61800
H  36.84300 43.06200 25.08600
H  36.43500 45.91100 30.89700
H  32.42700 45.08600 32.55000
H  33.49600 45.38400 34.00200
H  33.43900 43.88300 33.14700
Mg -10.47700 17.22800 42.08900
C  -6.95400 16.81300 42.32300
C  -9.75200 20.61800 41.24600
C  -13.59500 17.55100 41.00100
C  -10.70400 13.73300 41.78500
N  -8.56200 18.54800 41.74600
C  -7.30400 18.07900 41.84700
C  -6.31400 19.20100 41.35900
C  -7.18400 20.47300 41.57800
C  -8.59300 19.87300 41.52500
C  -6.95600 21.11800 42.96700
C  -5.93400 18.85400 39.82800
C  -4.48200 18.35400 39.53300
H  -4.26700 17.03700 38.80100
N  -11.53100 18.93800 41.46400
C  -11.05900 20.20800 41.15600
C  -12.24600 21.03300 40.86300
C  -13.35800 20.17400 40.81700
C  -12.91100 18.79800 41.11800
C  -12.17300 22.58300 40.68200
C  -14.73700 20.58000 40.35800
O  -14.80100 21.66700 39.80900
C  -15.96400 19.69800 40.48800
N  -11.93400 15.85900 41.46800
C  -13.16900 16.21300 41.19400
C  -14.11700 15.00000 41.08800
C  -13.06300 13.81200 40.94500
C  -11.81700 14.48600 41.54500
C  -15.28700 14.82100 42.14200
C  -12.81100 13.13700 39.50400
C  -13.75600 11.89000 39.28400
N  -9.17400 15.58000 42.30800
C  -9.38600 14.20100 42.20300
C  -8.14400 13.47600 42.45700
C  -7.14000 14.43300 42.49000
C  -7.78600 15.69200 42.36200
C  -7.92900 12.03800 42.61100
C  -5.73900 14.73800 42.68400
O  -4.83000 14.00200 42.92400
C  -5.53000 16.32000 42.46900
C  -4.85600 16.99900 43.64000
O  -5.15200 16.89400 44.81200
O  -3.77100 17.69100 43.26400
C  -2.98000 18.50200 44.24800
H  -9.73200 21.70900 41.21100
H  -14.57200 17.61600 40.51800
H  -10.73500 12.67300 41.52500
H  -5.36100 19.26500 41.88500
H  -6.86300 21.18700 40.82000
H  -7.78900 21.15500 43.66800
H  -6.60700 22.13800 42.80300
H  -6.20100 20.59000 43.55000
H  -6.07300 19.74400 39.21400
H  -6.61000 18.14500 39.35000
H  -3.89000 18.35800 40.44900
H  -3.99200 19.10700 38.91600
H  -12.53200 22.88900 39.69900
H  -11.19700 23.06800 40.68600
H  -12.81100 22.95800 41.48300
H  -16.74100 20.46300 40.46400
H  -15.74700 19.28700 41.47400
H  -16.11500 19.06700 39.61200
H  -14.47500 15.19600 40.07700
H  -13.48300 13.05200 41.60400
H  -14.96700 15.41300 43.00000
H  -15.59400 13.79500 42.34400
H  -16.16900 15.37500 41.82100
H  -11.77100 12.81600 39.44500
H  -12.89300 13.97400 38.81100
H  -14.30200 11.53300 40.15700
H  -13.20900 11.11000 38.75400
H  -14.61100 12.00400 38.61700
H  -7.06600 11.73600 42.01700
H  -8.78800 11.36700 42.62100
H  -7.55100 11.86300 43.61800
H  -4.90000 16.56700 41.61500
H  -1.97500 18.11400 44.41600
H  -3.40700 18.62800 45.24300
H  -2.84700 19.49500 43.81800

