158

Mg -1.88100 17.40200 26.74500
C  -2.18200 14.97100 29.27600
C  -2.70000 19.96700 29.07700
C  -2.06000 19.63200 24.23900
C  -2.09200 14.62100 24.36400
N  -2.26300 17.39300 28.94000
C  -2.32700 16.30200 29.82800
C  -2.58900 16.74800 31.29000
C  -2.77900 18.34900 31.09100
C  -2.59400 18.63300 29.61700
C  -4.06700 18.94400 31.63900
C  -1.46000 16.39600 32.22900
C  -1.45300 17.14800 33.53500
H  -0.76700 16.48900 34.72200
N  -2.01300 19.51200 26.63900
C  -2.31000 20.38200 27.69500
C  -2.07000 21.76600 27.20900
C  -1.77700 21.64100 25.82600
C  -1.86200 20.25600 25.47600
C  -2.09700 22.98100 28.04900
C  -1.45400 22.76200 24.79500
O  -1.14200 22.51500 23.58400
C  -1.66500 24.18400 25.12500
N  -1.98200 17.12500 24.67200
C  -2.10000 18.25000 23.83300
C  -2.34300 17.80300 22.38600
C  -2.02000 16.24500 22.43100
C  -2.01700 15.93400 23.90000
C  -3.77500 18.14100 21.85300
C  -0.69700 15.79500 21.75900
C  0.68600 16.41400 22.25800
N  -2.13700 15.24800 26.75700
C  -2.09300 14.29800 25.75700
C  -2.01400 13.00000 26.36000
C  -2.03800 13.22500 27.74200
C  -2.17700 14.57500 27.93900
C  -2.06900 11.73200 25.62400
C  -2.03100 12.53900 29.11200
O  -1.91500 11.34100 29.36800
C  -2.26700 13.67800 30.13300
C  -1.11400 13.49200 31.04900
O  0.02800 13.90700 30.99100
O  -1.61500 12.75200 32.07000
C  -0.83000 12.64600 33.33900
H  -2.92100 20.78500 29.76600
H  -2.26400 20.36600 23.45700
H  -2.13900 13.80300 23.64200
H  -3.54100 16.30800 31.58600
H  -1.99800 18.87900 31.63500
H  -4.77100 19.29400 30.88300
H  -3.77200 19.79700 32.25000
H  -4.56400 18.20300 32.26500
H  -0.46400 16.44300 31.78900
H  -1.65700 15.39300 32.60900
H  -2.47800 17.36800 33.83500
H  -0.97900 18.12600 33.45600
H  -2.94300 23.65500 27.91600
H  -1.23300 23.64500 28.01200
H  -2.13800 22.70100 29.10200
H  -0.89300 24.46900 25.84000
H  -2.66300 24.22000 25.56100
H  -1.72900 24.81700 24.24000
H  -1.58500 18.30200 21.78200
H  -2.74800 15.65200 21.87700
H  -4.18300 18.95500 22.45300
H  -4.36800 17.23500 21.72600
H  -3.74600 18.61000 20.87000
H  -0.83600 16.14100 20.73500
H  -0.70500 14.70700 21.81200
H  1.37000 15.57100 22.35800
H  0.58800 17.08500 23.11200
H  0.99200 17.08900 21.45900
H  -1.56800 10.94900 26.19300
H  -1.39800 11.94100 24.79000
H  -3.02000 11.48000 25.15600
H  -3.17500 13.53400 30.72000
H  -0.13700 11.80700 33.27700
H  -1.42100 12.35100 34.20700
H  -0.24900 13.55200 33.51000
Mg 53.71200 25.14500 44.63400
C  51.01400 27.58400 43.90700
C  51.69500 22.86100 43.27400
C  56.51800 23.23400 44.28200
C  55.68700 27.91500 45.52500
N  51.70500 25.27900 43.56400
C  50.76700 26.31300 43.39200
C  49.44900 25.83500 42.73400
C  49.63000 24.23400 42.76900
C  51.11700 24.11100 43.26200
C  48.71800 23.42800 43.66200
C  49.07800 26.39700 41.32500
C  50.18500 26.41900 40.25400
H  49.88700 25.69500 38.98200
N  54.01000 23.28300 44.06500
C  53.00200 22.49100 43.61900
C  53.53100 21.11200 43.64400
C  54.95400 21.22700 43.75000
C  55.23800 22.61100 44.08200
C  52.78400 19.89800 43.18200
C  55.97200 20.08800 43.63500
O  55.60700 18.95100 43.28700
C  57.36500 20.28400 43.96100
N  55.77500 25.49100 44.87000
C  56.72600 24.56400 44.61700
C  58.11400 25.19300 44.87100
C  57.90200 26.72000 45.07500
C  56.35200 26.71500 45.15600
C  59.15100 24.60800 45.85400
C  58.32800 27.63400 43.90000
C  59.17000 28.90400 44.17400
N  53.41800 27.23000 44.91500
C  54.29800 28.20500 45.36700
C  53.59800 29.40600 45.62900
C  52.31600 29.16600 45.07800
C  52.26300 27.90100 44.52200
C  54.13900 30.72100 46.23500
C  51.10100 29.85100 44.73000
O  50.80800 31.01700 44.99600
C  50.19900 28.88600 43.91800
C  49.97900 29.51300 42.65400
O  50.90000 29.84300 41.96200
O  48.65400 29.68300 42.37700
C  48.28100 30.16000 41.03600
H  51.08800 22.00500 42.97100
H  57.45600 22.76900 43.97100
H  56.29300 28.81100 45.67700
H  48.59700 26.22600 43.29100
H  49.56700 23.79900 41.77200
H  47.70800 23.81600 43.52800
H  48.86400 23.44000 44.74200
H  48.72000 22.36300 43.42900
H  48.73500 27.42200 41.46800
H  48.14500 25.95200 40.98200
H  51.10400 25.90700 40.54000
H  50.45100 27.47400 40.19200
H  53.05500 18.99800 43.73300
H  52.90700 19.60800 42.13800
H  51.73000 19.91800 43.46000
H  57.98400 19.39400 43.85000
H  57.53800 20.63500 44.97800
H  57.77400 20.93900 43.19100
H  58.58300 25.01100 43.90400
H  58.25100 27.08100 46.04200
H  60.08900 25.05300 45.52200
H  59.14100 23.52500 45.72700
H  58.89100 24.89600 46.87200
H  57.51500 28.14700 43.38400
H  58.89800 27.10800 43.13400
H  58.65900 29.86200 44.08400
H  60.09000 28.91800 43.59000
H  59.53800 28.75200 45.18900
H  53.94400 30.60200 47.30100
H  53.55200 31.53100 45.80100
H  55.20200 30.82600 46.01600
H  49.21800 28.61500 44.30900
H  47.73900 31.10500 41.07000
H  47.58000 29.46300 40.57700
H  49.23200 30.29500 40.52000

