158

Mg 16.03600 -1.62800 27.92200
C  15.13000 0.38600 30.57500
C  18.06400 -3.36000 30.02300
C  17.32300 -3.25400 25.28500
C  13.97700 0.15200 25.82500
N  16.56400 -1.45500 30.03000
C  16.11300 -0.55000 30.98500
C  16.64700 -0.79600 32.36200
C  17.70700 -1.96400 32.12300
C  17.31900 -2.44800 30.66000
C  19.17500 -1.54700 32.50100
C  15.50700 -1.09600 33.41300
C  15.28900 0.04800 34.49000
H  16.44800 0.92600 35.01900
N  17.36700 -3.24800 27.75300
C  18.13400 -3.81300 28.71700
C  18.91900 -4.90800 28.26900
C  18.67700 -5.02500 26.86400
C  17.76500 -3.80300 26.54700
C  19.77000 -5.63700 29.27600
C  19.23700 -6.03100 25.83200
O  18.89300 -5.94400 24.62800
C  20.13000 -7.18300 26.21800
N  15.69700 -1.45600 25.88800
C  16.52100 -2.12500 24.97500
C  16.23900 -1.73100 23.50400
C  14.94600 -0.89200 23.70200
C  14.74200 -0.77700 25.19900
C  17.43600 -1.06200 22.75700
C  13.68300 -1.21600 22.88100
C  13.70600 -1.19100 21.34400
N  14.84700 0.05700 28.08500
C  14.00100 0.63400 27.13100
C  13.22600 1.65500 27.71500
C  13.58400 1.51300 29.09400
C  14.63400 0.59700 29.23900
C  12.31100 2.69300 27.00500
C  13.32600 2.07000 30.39900
O  12.44900 2.87600 30.68500
C  14.31400 1.42400 31.38500
C  15.15500 2.55900 31.99600
O  16.34500 2.79400 31.76000
O  14.45800 3.37800 32.87400
C  15.25900 4.47100 33.49500
H  18.63600 -3.85300 30.81200
H  17.75100 -3.67600 24.37300
H  13.32900 0.74100 25.17200
H  17.09100 0.18200 32.54900
H  17.43200 -2.79000 32.78000
H  19.75500 -1.39400 31.59200
H  19.57800 -2.38100 33.07600
H  19.26900 -0.76000 33.25000
H  15.59300 -2.09900 33.83000
H  14.49800 -1.13400 33.00100
H  14.84500 -0.45200 35.35000
H  14.52600 0.75600 34.16600
H  20.73500 -5.13100 29.31500
H  19.81600 -6.69000 29.00000
H  19.29200 -5.58800 30.25400
H  20.90600 -6.71900 26.82600
H  20.46100 -7.71800 25.32800
H  19.39600 -7.78300 26.75700
H  15.92500 -2.59200 22.91300
H  15.20400 0.11300 23.36800
H  17.67200 -1.68800 21.89700
H  18.26500 -0.76200 23.39900
H  17.00600 -0.21300 22.22500
H  12.96100 -0.50600 23.28600
H  13.26000 -2.19200 23.11700
H  13.08900 -0.34700 21.03600
H  13.43900 -2.21300 21.07500
H  14.66300 -0.91700 20.89900
H  11.75000 3.24000 27.76300
H  11.60300 2.29700 26.27700
H  12.97700 3.33700 26.43000
H  13.66900 0.93800 32.11700
H  14.91000 5.45500 33.18100
H  16.34600 4.55200 33.48500
H  14.94800 4.42200 34.53900
Mg -1.91000 33.27100 27.59000
C  -3.87000 31.57900 29.99200
C  -0.81300 35.33300 30.13000
C  -0.30300 35.05300 25.22600
C  -3.31400 31.23200 25.11200
N  -2.32400 33.46400 29.82500
C  -3.11900 32.64100 30.59000
C  -3.06000 33.00100 32.03500
C  -2.29600 34.36600 31.99700
C  -1.73600 34.41200 30.53200
C  -3.07200 35.65000 32.41300
C  -2.26500 31.93600 32.87800
C  -3.09200 31.31000 33.95000
H  -2.42600 31.24400 35.35700
N  -0.59600 34.89700 27.68500
C  -0.24400 35.57700 28.83900
C  0.57200 36.68400 28.46200
C  0.83900 36.56400 27.03700
C  -0.03600 35.45100 26.58300
C  1.13700 37.57300 29.54500
C  1.78300 37.38300 26.22700
O  1.96100 37.17200 25.03300
C  2.56000 38.47700 26.91600
N  -1.76500 33.14800 25.51500
C  -1.14200 34.03000 24.75800
C  -1.49900 33.83700 23.30900
C  -2.11900 32.40600 23.25500
C  -2.42200 32.20500 24.74700
C  -2.49000 34.76600 22.75500
C  -1.22300 31.31300 22.62400
C  -0.31500 30.29900 23.38600
N  -3.33800 31.75100 27.52000
C  -3.79600 31.03400 26.42900
C  -4.65700 30.02200 26.89700
C  -4.82900 30.21300 28.29800
C  -3.87200 31.22100 28.60100
C  -5.35100 29.00700 26.14400
C  -5.44500 29.70400 29.47100
O  -6.10800 28.73300 29.65000
C  -4.79800 30.54700 30.71700
C  -5.89800 31.23500 31.51300
O  -6.51000 32.23300 31.20200
O  -6.26000 30.48000 32.64800
C  -7.35600 31.05900 33.45000
H  -0.47800 35.92500 30.98400
H  0.08200 35.82500 24.55600
H  -3.77800 30.67100 24.29800
H  -3.99900 33.29400 32.50500
H  -1.39900 34.30000 32.61300
H  -2.61500 35.93500 33.36100
H  -4.16100 35.64800 32.43300
H  -2.89000 36.48800 31.73900
H  -1.41000 32.44900 33.31800
H  -1.91900 31.14600 32.21200
H  -3.30800 30.31700 33.55600
H  -4.03500 31.84700 34.04300
H  0.72900 38.56900 29.37300
H  2.21300 37.57000 29.37100
H  0.93400 37.26600 30.57200
H  1.90400 39.06400 27.55800
H  2.70400 39.16400 26.08200
H  3.44700 38.04600 27.38000
H  -0.62600 33.91900 22.66200
H  -3.03700 32.44800 22.66800
H  -1.89400 35.49100 22.20100
H  -3.01400 35.32600 23.52900
H  -3.14600 34.30900 22.01400
H  -0.64300 31.86900 21.88700
H  -1.97600 30.73700 22.08600
H  -0.58300 29.29300 23.06400
H  -0.30400 30.35400 24.47400
H  0.64900 30.32700 22.87700
H  -6.30800 29.34000 25.74200
H  -5.57500 28.14100 26.76700
H  -4.77200 28.68700 25.27700
H  -4.34400 29.82600 31.39600
H  -6.89000 31.70600 34.19300
H  -7.82000 30.23500 33.99100
H  -8.13800 31.53900 32.86100

