158

Mg 47.11300 17.40900 28.02100
C  45.34200 16.93200 30.91700
C  49.38600 19.21600 29.85000
C  48.68700 18.17300 25.22200
C  44.69000 15.66000 26.28300
N  47.20800 18.06400 30.13900
C  46.49900 17.68300 31.18000
C  47.03800 18.21600 32.50200
C  48.17500 19.16800 32.00300
C  48.30500 18.75700 30.55400
C  47.83500 20.65300 32.26200
C  47.46800 17.19800 33.62800
C  46.57000 17.16700 34.90000
H  46.16400 18.52800 35.51200
N  48.85800 18.44400 27.60800
C  49.63900 19.11200 28.47800
C  50.87600 19.54500 27.82900
C  50.73100 19.11600 26.46900
C  49.37200 18.66400 26.36200
C  51.98400 20.21500 28.61100
C  51.67900 19.20300 25.30100
O  51.44800 18.90100 24.15100
C  52.89100 19.93800 25.53400
N  46.76000 16.84400 26.10700
C  47.50000 17.48300 25.06100
C  47.00700 17.08400 23.70300
C  45.99700 15.97400 24.09400
C  45.81600 16.08600 25.62100
C  46.41900 18.21500 22.67500
C  46.25500 14.53600 23.52500
C  45.25500 14.00200 22.49300
N  45.39200 16.32500 28.44800
C  44.39300 15.77000 27.66000
C  43.27000 15.38100 28.47600
C  43.66300 15.73500 29.77200
C  44.86700 16.37500 29.64500
C  41.99900 14.79400 28.02700
C  43.18600 15.70300 31.10600
O  42.12600 15.29300 31.52600
C  44.31500 16.46100 31.96800
C  43.65500 17.58500 32.70800
O  43.47400 18.71100 32.30800
O  43.01500 17.04200 33.84400
C  42.07200 17.94400 34.49000
H  49.99900 19.89700 30.44400
H  49.06900 18.60900 24.29700
H  43.93300 15.17000 25.66700
H  46.18600 18.79400 32.85800
H  49.07600 18.91600 32.56200
H  46.93300 20.84200 32.84300
H  47.66000 21.17100 31.31900
H  48.62300 21.15100 32.82700
H  48.52100 17.32500 33.88000
H  47.54200 16.18300 33.23800
H  47.04600 16.49200 35.61100
H  45.70900 16.59700 34.55200
H  52.31000 21.03200 27.96700
H  52.83200 19.56700 28.83700
H  51.68000 20.76600 29.50000
H  52.63500 20.88100 26.01600
H  53.14600 20.26900 24.52700
H  53.73000 19.38000 25.94900
H  47.80900 16.54600 23.19800
H  45.02500 16.25800 23.69100
H  46.99600 18.31500 21.75500
H  46.34700 19.21400 23.10400
H  45.44700 17.89200 22.30300
H  46.37400 13.84300 24.35800
H  47.21500 14.44900 23.01500
H  44.43000 14.71400 22.47600
H  44.77200 13.12200 22.91700
H  45.72700 13.76300 21.54000
H  42.14000 13.93300 27.37300
H  41.43900 15.55400 27.48100
H  41.29800 14.53300 28.82000
H  44.72600 15.75400 32.68900
H  42.51800 18.77400 35.03700
H  41.44000 17.31200 35.11400
H  41.37800 18.33500 33.74600
Mg 31.08400 58.51600 39.60000
C  28.54500 56.24700 38.35100
C  33.35200 56.00400 39.01300
C  33.27100 60.79600 39.78100
C  28.42200 60.89100 39.98200
N  30.88700 56.41000 38.79500
C  29.83400 55.72200 38.26600
C  30.21300 54.43800 37.66700
C  31.56800 54.19800 38.38100
C  31.94500 55.57500 38.80000
C  31.59000 53.23400 39.62300
C  30.12800 54.47300 36.05300
C  29.03900 53.52900 35.41800
H  28.05500 54.02500 34.38800
N  33.02100 58.47900 39.46700
C  33.77800 57.34300 39.24200
C  35.20500 57.78400 39.21100
C  35.18700 59.15500 39.41900
C  33.81600 59.54500 39.56000
C  36.40400 56.76700 38.89800
C  36.47300 60.00700 39.62200
O  37.60800 59.55200 39.46800
C  36.41600 61.46200 39.79500
N  30.83600 60.55400 39.83600
C  32.00500 61.30400 40.02600
C  31.67500 62.76400 40.23700
C  30.10700 62.73700 40.45300
C  29.77500 61.32900 40.02300
C  32.48100 63.32200 41.44300
C  29.44500 64.00900 39.79000
C  29.62800 65.31500 40.53700
N  28.89800 58.63700 39.38200
C  28.00900 59.65300 39.52000
C  26.66000 59.19500 39.18700
C  26.92200 57.87900 38.69500
C  28.26200 57.59700 38.92800
C  25.35200 59.92500 39.30800
C  26.17100 56.74900 38.27500
O  24.95800 56.56100 38.26000
C  27.22100 55.59500 38.12700
C  26.92800 54.65400 39.23700
O  27.28900 54.74400 40.40900
O  26.07900 53.68900 38.79600
C  25.72700 52.76500 39.86100
H  34.13100 55.26900 38.80300
H  34.05200 61.55700 39.72300
H  27.59000 61.57700 40.15500
H  29.48800 53.70700 38.02500
H  32.30100 53.84400 37.65600
H  32.24400 53.60500 40.41200
H  31.96100 52.32000 39.15800
H  30.62600 53.01100 40.08000
H  31.13100 54.19400 35.73300
H  29.83200 55.50400 35.85500
H  28.43700 52.95200 36.12000
H  29.60700 52.77500 34.87400
H  37.04600 57.10800 38.08600
H  36.04000 55.76000 38.69400
H  36.99100 56.66800 39.81100
H  35.86100 61.82300 40.66100
H  36.11500 61.94300 38.86400
H  37.42200 61.80200 40.03900
H  32.05400 63.18100 39.30400
H  29.98100 62.83700 41.53100
H  33.37000 62.74500 41.69400
H  31.97900 63.53400 42.38800
H  32.84100 64.26300 41.02700
H  28.37500 63.87400 39.63600
H  29.91000 64.13200 38.81200
H  30.37600 65.84100 39.94500
H  29.96700 65.06600 41.54300
H  28.73100 65.92600 40.63300
H  25.15200 60.66100 40.08700
H  24.50900 59.23800 39.24100
H  25.46100 60.60000 38.45900
H  27.07300 55.04700 37.19600
H  26.54300 52.04800 39.95600
H  24.86800 52.28200 39.39600
H  25.44500 53.19100 40.82400

