158

Mg 35.97000 2.34500 30.40100
C  33.55200 3.42700 32.68300
C  38.32100 2.46700 32.94900
C  38.41300 1.83200 28.02400
C  33.75300 2.85500 27.82300
N  35.89500 2.80200 32.56700
C  34.79500 3.15400 33.30300
C  35.12700 3.17000 34.79200
C  36.78900 3.05800 34.73400
C  36.99200 2.70800 33.32400
C  37.48100 4.40000 35.11200
C  34.40700 2.03100 35.49600
C  34.19900 2.13800 36.99000
H  34.87800 3.24000 37.81400
N  38.05300 2.10600 30.46500
C  38.80800 2.16800 31.61300
C  40.13500 1.63200 31.33200
C  40.21800 1.49600 29.89700
C  38.85400 1.80900 29.37700
C  41.28500 1.45300 32.34900
C  41.46200 1.14300 29.03500
O  41.37200 1.00300 27.82300
C  42.86900 1.03900 29.63300
N  36.04800 2.30400 28.24800
C  37.17000 2.15500 27.52300
C  36.86500 2.11400 26.03300
C  35.35000 2.18400 25.95800
C  35.04600 2.41000 27.48600
C  37.61900 3.19800 25.19300
C  34.56000 0.86200 25.47500
C  33.35800 1.05000 24.53300
N  33.97400 2.88300 30.23600
C  33.21700 3.06000 29.09400
C  31.95600 3.53600 29.52800
C  31.99800 3.56600 30.92900
C  33.24200 3.28500 31.29300
C  30.73600 3.61200 28.66600
C  31.26400 3.87300 32.13100
O  30.12800 4.29100 32.31100
C  32.29100 3.77600 33.36600
C  32.24600 5.00800 34.11400
O  32.37900 6.11500 33.64100
O  32.17300 4.77600 35.41900
C  31.96400 6.08900 36.14200
H  39.13900 2.21900 33.62900
H  39.19700 1.70400 27.27600
H  32.97200 2.93500 27.06400
H  34.74300 4.10100 35.20900
H  37.24800 2.20500 35.23300
H  36.72200 5.18300 35.11900
H  38.10900 4.72700 34.28400
H  38.07200 4.24600 36.01600
H  35.00100 1.11700 35.45000
H  33.50600 1.74500 34.95400
H  34.63900 1.30800 37.54300
H  33.13200 2.24700 37.18500
H  41.80400 0.49800 32.26100
H  40.97300 1.73900 33.35300
H  41.99700 2.20600 32.01200
H  42.84600 0.24900 30.38300
H  43.28700 1.94300 30.07600
H  43.58700 0.77900 28.85500
H  37.32300 1.17200 25.73200
H  34.88600 3.07000 25.52500
H  36.91100 3.87300 24.71300
H  38.21200 2.67900 24.44000
H  38.17100 3.90600 25.81100
H  34.08700 0.42500 26.35500
H  35.29900 0.23300 24.97800
H  33.54800 0.93700 23.46600
H  32.99800 2.07600 24.61000
H  32.51600 0.44000 24.86100
H  30.54700 2.66900 28.15200
H  30.86100 4.39900 27.92200
H  29.85500 3.81700 29.27400
H  31.85800 2.91100 33.86800
H  31.01100 6.59300 35.98400
H  32.85500 6.68600 35.94900
H  32.00700 5.90900 37.21600
Mg -4.43000 25.47500 26.24000
C  -3.32700 27.11700 29.09600
C  -6.22300 23.41800 28.19600
C  -4.78900 23.41900 23.59800
C  -2.07800 27.41700 24.43800
N  -4.60400 25.22100 28.38000
C  -4.15500 26.03900 29.37100
C  -4.65100 25.63000 30.76100
C  -5.32300 24.25700 30.44200
C  -5.39900 24.26700 28.90000
C  -4.62200 22.93700 31.06100
C  -5.54900 26.68500 31.42900
C  -6.73800 26.22300 32.24600
H  -6.43700 25.16100 33.26800
N  -5.49800 23.73900 25.87300
C  -6.20700 23.07100 26.83300
C  -6.99100 22.02000 26.17800
C  -6.66300 22.14000 24.82400
C  -5.57600 23.08900 24.69900
C  -8.11200 21.28700 26.86100
C  -7.23100 21.37200 23.68500
O  -6.70200 21.42000 22.56700
C  -8.38700 20.35400 23.79200
N  -3.31000 25.33400 24.39000
C  -3.82000 24.47700 23.45800
C  -3.02400 24.70200 22.13400
C  -2.19600 25.98100 22.33100
C  -2.62900 26.28900 23.79500
C  -2.20100 23.48700 21.65600
C  -2.41200 27.24800 21.33200
C  -1.10300 27.84100 20.83300
N  -3.16600 27.05200 26.62000
C  -2.30400 27.78500 25.79900
C  -1.59500 28.78300 26.54800
C  -2.04400 28.61900 27.86600
C  -2.95100 27.54500 27.82600
C  -0.66300 29.77400 26.10400
C  -2.02800 29.12800 29.22700
O  -1.58400 30.18300 29.69900
C  -2.82300 28.09600 30.11700
C  -1.81500 27.56800 31.06600
O  -0.73400 26.99600 30.79400
O  -2.30000 27.77500 32.32000
C  -1.64600 27.10200 33.39400
H  -6.83800 22.71500 28.76200
H  -5.01900 22.94800 22.64000
H  -1.34100 28.05200 23.94100
H  -3.79200 25.54600 31.42700
H  -6.37700 24.32100 30.71400
H  -4.13000 22.51800 30.18300
H  -5.33400 22.26000 31.53200
H  -3.87900 23.26700 31.78700
H  -5.79200 27.44300 30.68400
H  -4.86800 27.19900 32.10800
H  -7.58500 25.96300 31.61200
H  -7.08900 27.16200 32.67400
H  -7.97800 20.22400 26.66300
H  -9.05500 21.47300 26.34600
H  -8.36900 21.48900 27.90100
H  -9.32600 20.83300 24.07100
H  -8.10200 19.63100 24.55600
H  -8.56400 19.74700 22.90400
H  -3.87100 24.95600 21.49700
H  -1.13400 25.82000 22.51800
H  -2.79900 22.78900 21.07000
H  -1.87900 22.97100 22.56000
H  -1.31000 23.75600 21.08900
H  -2.82100 28.09900 21.87500
H  -3.07900 26.98300 20.51200
H  -0.98600 28.83200 21.27300
H  -1.12700 27.97500 19.75200
H  -0.27400 27.22000 21.17200
H  -1.17400 30.70400 25.85400
H  -0.14000 29.39400 25.22600
H  0.01100 29.94400 26.94300
H  -3.50900 28.77400 30.62400
H  -0.70600 26.63200 33.10600
H  -2.29100 26.27900 33.70000
H  -1.45300 27.78900 34.21800

