158

Mg 46.70600 24.74500 29.03900
C  47.11300 26.80400 31.70900
C  45.49200 22.32200 31.17500
C  46.59000 22.57700 26.48600
C  47.70800 27.22500 26.76600
N  46.37000 24.59000 31.21500
C  46.55100 25.59200 32.06100
C  46.18700 25.17800 33.45600
C  45.64700 23.71000 33.32700
C  45.87400 23.49300 31.86300
C  46.43200 22.62100 34.14500
C  45.15700 26.10500 34.19600
C  45.66100 26.60300 35.58300
H  44.69700 26.71500 36.86000
N  46.18900 22.70700 28.88800
C  45.74100 21.88900 29.88000
C  45.40000 20.60900 29.40100
C  45.86100 20.57500 28.04400
C  46.21100 21.97600 27.67500
C  44.82400 19.57300 30.20700
C  45.99600 19.44700 27.08400
O  46.28400 19.53500 25.88900
C  45.78100 18.07700 27.66700
N  47.14500 24.86900 27.06200
C  47.07100 23.78400 26.17200
C  47.64900 24.12300 24.77200
C  47.42300 25.67200 24.80300
C  47.39900 25.92600 26.32800
C  49.15800 23.65200 24.61500
C  46.15300 26.11300 24.10800
C  44.77600 26.11500 24.86800
N  47.29700 26.66000 29.11000
C  47.66500 27.52800 28.12200
C  47.98000 28.85900 28.77100
C  47.79900 28.56600 30.17300
C  47.37200 27.26000 30.35300
C  48.51200 30.13300 28.21300
C  48.05600 29.04200 31.45300
O  48.43400 30.11300 31.81100
C  47.64800 27.98800 32.50000
C  48.88500 27.68400 33.18700
O  49.80000 26.99400 32.72000
O  48.74700 28.15400 34.46400
C  49.95000 27.87600 35.31000
H  44.97100 21.74900 31.94500
H  46.66000 21.86200 25.66300
H  47.93000 27.97400 26.00300
H  47.15000 25.08000 33.95700
H  44.57600 23.53800 33.42900
H  47.17900 23.08000 34.79200
H  46.89800 21.89900 33.47500
H  45.69500 22.11700 34.76900
H  44.27100 25.50200 34.39800
H  44.88800 27.00400 33.64000
H  46.04900 27.62100 35.58300
H  46.50800 25.96800 35.84300
H  45.42400 18.66300 30.23000
H  43.88000 19.25900 29.76000
H  44.39800 19.82100 31.17900
H  44.79600 17.99900 28.12700
H  46.53900 17.83400 28.41100
H  45.98200 17.26500 26.96800
H  47.00400 23.72600 23.98900
H  48.19800 26.30200 24.36700
H  49.43000 23.38900 25.63700
H  49.83300 24.46000 24.33400
H  49.31600 22.84700 23.89600
H  46.08600 25.61800 23.13900
H  46.17200 27.14600 23.76000
H  44.57400 27.16200 25.09400
H  44.79200 25.54200 25.79500
H  44.08500 25.72300 24.12200
H  47.90900 30.37500 27.33800
H  49.53400 29.98900 27.86100
H  48.50100 30.97300 28.90700
H  46.84800 28.32900 33.15700
H  50.93300 28.18600 34.95400
H  50.02500 26.83800 35.63200
H  49.73400 28.55400 36.13600
Mg 15.63800 51.45900 25.91300
C  17.22900 50.35300 28.67600
C  13.06700 52.66500 27.87900
C  13.96800 52.12100 23.06200
C  17.99600 49.85700 23.88100
N  15.24100 51.58900 28.06900
C  16.08700 51.13600 29.03000
C  15.69500 51.56300 30.39500
C  14.22500 52.09000 30.18700
C  14.12800 52.16900 28.64900
C  13.13600 51.08400 30.74800
C  16.62100 52.65900 30.95200
C  17.02100 52.70600 32.43200
H  16.08800 51.83900 33.23900
N  13.84500 52.35200 25.52400
C  12.93100 52.75800 26.46900
C  11.71700 53.12100 25.78400
C  11.95500 53.03900 24.36500
C  13.30700 52.49300 24.23800
C  10.49700 53.46100 26.46000
C  11.02900 53.30900 23.33200
O  11.31700 52.99500 22.15700
C  9.66000 53.99100 23.56100
N  16.06700 51.20600 23.81700
C  15.22200 51.53800 22.84600
C  15.80600 51.45900 21.37400
C  17.10100 50.70200 21.67800
C  17.02200 50.52600 23.24200
C  14.89500 50.60200 20.37500
C  18.35400 51.41200 21.12100
C  19.26000 50.69100 20.05500
N  17.40500 50.42900 26.21600
C  18.22200 49.84300 25.30300
C  19.16400 49.07100 26.08700
C  18.80300 49.25400 27.37400
C  17.73600 50.10000 27.42500
C  20.19600 48.16500 25.61300
C  19.16600 48.88900 28.70500
O  19.95200 48.02000 29.05500
C  18.22600 49.66900 29.60400
C  17.67100 48.77300 30.53400
O  16.60600 48.19900 30.55000
O  18.54600 48.75300 31.62800
C  18.02300 48.08800 32.82000
H  12.24900 52.94500 28.54500
H  13.52200 52.45700 22.12300
H  18.70600 49.31800 23.25100
H  15.76000 50.67500 31.02200
H  14.09900 53.11600 30.53200
H  12.47200 51.60000 31.44100
H  13.60300 50.18500 31.15100
H  12.50600 50.72000 29.93600
H  16.28100 53.68300 30.79400
H  17.56000 52.60800 30.40000
H  17.11600 53.76100 32.68700
H  17.95300 52.16200 32.58100
H  9.73500 52.70400 26.27900
H  10.13200 54.39800 26.03800
H  10.47800 53.63900 27.53500
H  9.05300 53.43500 24.27600
H  9.22500 54.13800 22.57200
H  9.99100 54.97900 23.87900
H  16.02500 52.44500 20.96200
H  17.19700 49.71000 21.23700
H  14.08700 50.09000 20.89800
H  15.45400 49.89400 19.76400
H  14.53300 51.32200 19.64000
H  19.04900 51.63700 21.93100
H  18.17100 52.37400 20.64200
H  19.30900 49.61400 20.21600
H  20.28800 50.98400 20.26700
H  19.00200 51.02000 19.04900
H  20.31700 47.26700 26.21800
H  21.17500 48.60700 25.42900
H  19.81200 47.94600 24.61600
H  18.84300 50.38600 30.14400
H  17.16200 47.45000 32.62300
H  17.81800 48.81100 33.61000
H  18.79000 47.43300 33.23200

