158

Mg 40.63300 8.57100 29.47500
C  42.26100 10.37200 31.91500
C  38.52200 7.28800 31.85900
C  38.87000 7.31000 27.04800
C  43.00400 9.72200 27.15300
N  40.44900 8.90700 31.73400
C  41.13400 9.72100 32.50200
C  40.71400 9.63700 34.00300
C  39.44700 8.64100 33.84600
C  39.50200 8.23400 32.41100
C  39.37600 7.34900 34.74800
C  40.32200 11.01700 34.66800
C  39.38900 10.95600 35.78200
H  39.66900 11.77100 36.99800
N  38.95100 7.47600 29.40100
C  38.19200 6.97200 30.47100
C  37.16100 6.13900 30.06100
C  37.14400 6.21500 28.62200
C  38.35000 7.04900 28.28800
C  36.37900 5.25600 30.96500
C  36.09300 5.78100 27.53600
O  36.09400 6.05200 26.35200
C  34.84600 5.13600 28.12800
N  41.11400 8.31400 27.42000
C  40.06800 7.86900 26.63500
C  40.36500 8.14100 25.12000
C  41.85200 8.67200 25.17000
C  42.06600 8.92300 26.67400
C  40.11500 7.03500 24.03000
C  42.10900 9.81500 24.17200
C  41.47700 11.18400 24.46100
N  42.35100 9.61800 29.53600
C  43.17200 10.06700 28.51100
C  44.22700 10.86900 29.03100
C  43.88500 11.11400 30.33600
C  42.69500 10.36800 30.56200
C  45.33300 11.31700 28.22300
C  44.24400 11.75200 31.60800
O  45.22600 12.43200 31.83900
C  43.21600 11.35400 32.61800
C  43.95400 10.73000 33.79200
O  44.21200 9.54200 33.95800
O  43.94800 11.67400 34.79400
C  44.33100 11.18300 36.19500
H  37.81100 6.98200 32.62900
H  38.31400 7.04700 26.14600
H  43.58300 10.29500 26.42600
H  41.47800 9.02900 34.48600
H  38.47700 9.09000 34.06000
H  38.36500 7.21500 35.13400
H  40.09800 7.32900 35.56500
H  39.72200 6.47200 34.20200
H  39.98500 11.77200 33.95800
H  41.28300 11.37200 35.04000
H  39.34000 9.91300 36.09300
H  38.36400 11.08500 35.43300
H  36.63500 4.22900 30.70300
H  35.30300 5.28500 30.79900
H  36.48100 5.43200 32.03600
H  34.06800 4.92600 27.39400
H  34.44800 5.90400 28.79200
H  35.12400 4.20200 28.61500
H  39.68000 8.95700 24.89100
H  42.49500 7.82300 24.93400
H  39.97200 6.08000 24.53500
H  40.92100 7.06100 23.29500
H  39.21500 7.32700 23.48900
H  41.66900 9.52100 23.22000
H  43.18700 9.91300 24.03700
H  41.00000 11.39200 25.41900
H  40.74400 11.23500 23.65600
H  42.30000 11.85300 24.21100
H  45.78900 12.20900 28.65200
H  44.94700 11.56500 27.23400
H  46.08800 10.53300 28.16500
H  42.66200 12.21200 33.00000
H  43.64700 11.46200 36.99700
H  45.21200 11.77300 36.44600
H  44.58400 10.13100 36.32600
Mg 46.72000 25.06300 28.27600
C  47.42100 27.26400 30.83400
C  45.77900 22.68000 30.73500
C  46.14000 22.87100 25.87600
C  48.30400 27.23000 26.00200
N  46.81800 24.89000 30.49800
C  46.98000 26.06500 31.32800
C  46.63000 25.71000 32.78300
C  46.35500 24.14100 32.77200
C  46.31900 23.85000 31.21500
C  47.37000 23.20200 33.48400
C  45.59800 26.64500 33.35700
C  45.96300 27.40100 34.61200
H  46.62300 26.61300 35.76500
N  46.03700 22.97200 28.27900
C  45.72400 22.21100 29.36900
C  45.37900 20.90000 28.92400
C  45.34300 20.93000 27.48900
C  45.78900 22.28200 27.10700
C  44.97500 19.83800 29.86300
C  44.96200 19.95600 26.49900
O  44.92300 20.19000 25.29100
C  44.57300 18.59600 27.00400
N  47.12300 25.02100 26.20300
C  46.71500 24.03400 25.43200
C  47.22100 24.16700 23.99300
C  47.76400 25.60300 23.95400
C  47.83300 25.96800 25.49800
C  48.25300 23.08100 23.52800
C  46.86700 26.68900 23.26500
C  47.47400 27.93900 22.59900
N  47.65600 26.87200 28.30100
C  48.23600 27.66600 27.31700
C  48.62700 28.96100 27.86700
C  48.27500 28.85900 29.25200
C  47.69900 27.56200 29.47200
C  49.30100 30.07300 27.10500
C  48.31200 29.62000 30.48100
O  48.84500 30.65700 30.83200
C  47.88000 28.57700 31.54300
C  48.95800 28.31400 32.52800
O  49.90800 27.56600 32.28500
O  48.79800 29.15500 33.58400
C  49.85000 28.97400 34.57700
H  45.54700 22.01300 31.56800
H  46.09600 22.15800 25.05000
H  48.89300 27.86400 25.33600
H  47.54700 25.88400 33.34600
H  45.38300 24.06100 33.25900
H  46.74400 22.55100 34.09600
H  48.00300 23.77600 34.16000
H  47.91500 22.54000 32.81100
H  44.65800 26.13800 33.57400
H  45.35700 27.44600 32.65900
H  44.95800 27.61000 34.97900
H  46.49700 28.33800 34.45500
H  45.02500 19.91400 30.94900
H  45.55500 18.93100 29.69300
H  43.92800 19.68300 29.59900
H  43.57600 18.48200 27.43000
H  45.35900 18.28700 27.69300
H  44.60400 17.91700 26.15200
H  46.37200 24.05500 23.31800
H  48.73400 25.69300 23.46400
H  48.52300 22.46700 24.38700
H  49.20100 23.44800 23.13400
H  47.75900 22.52200 22.73300
H  46.10800 26.92800 24.01000
H  46.27600 26.21400 22.48300
H  47.10500 27.84300 21.57800
H  48.56100 27.87100 22.65900
H  47.15600 28.82900 23.14200
H  50.34600 29.98900 27.40100
H  48.91900 31.07800 27.28800
H  49.23100 29.89700 26.03200
H  47.00800 29.04900 31.99600
H  50.83800 28.77000 34.16400
H  49.55400 28.08500 35.13400
H  49.78700 29.68600 35.40000

