158

Mg 35.84000 1.84100 29.97600
C  33.73700 3.38000 32.37500
C  38.25900 1.72800 32.28100
C  37.84600 0.98600 27.47700
C  33.21200 2.83700 27.44200
N  35.91700 2.58800 32.08300
C  34.94200 3.07500 32.87300
C  35.27300 2.96700 34.34100
C  36.91900 2.97900 34.22000
C  37.08300 2.40500 32.81200
C  37.65100 4.32300 34.49400
C  34.64500 1.73500 35.05900
C  34.50400 1.86100 36.55000
H  35.00400 3.09700 37.32100
N  37.72800 1.26700 29.94300
C  38.58600 1.30400 31.03200
C  39.93300 0.77100 30.57800
C  39.80200 0.53200 29.14400
C  38.40900 0.84900 28.78500
C  41.21100 0.63900 31.35500
C  40.90400 0.21500 28.12700
O  40.60700 0.08200 26.95400
C  42.32000 -0.12500 28.35500
N  35.49000 1.84800 27.80600
C  36.55800 1.46300 27.09400
C  36.15300 1.47000 25.57700
C  34.61700 1.88900 25.50700
C  34.42600 2.21200 26.99000
C  37.00900 2.32500 24.59900
C  33.45400 0.91500 24.99500
C  33.09100 1.17700 23.48000
N  33.88900 2.87800 29.86600
C  32.90500 3.11300 28.82200
C  31.69700 3.63800 29.35300
C  31.99600 3.78200 30.73900
C  33.34700 3.32400 30.99900
C  30.44700 4.02100 28.66700
C  31.42700 4.17700 32.01600
O  30.31300 4.65300 32.21700
C  32.53200 3.93800 33.11000
C  32.65600 5.10000 34.00500
O  33.54400 5.96300 33.91400
O  31.65800 5.02600 35.01300
C  31.72800 6.14200 35.98900
H  39.00800 1.69500 33.07500
H  38.49800 0.83900 26.61300
H  32.48000 3.14600 26.69400
H  34.91700 3.88700 34.80500
H  37.35200 2.28800 34.94400
H  37.99600 4.88100 33.62400
H  38.48400 4.29200 35.19600
H  36.88200 4.97700 34.90600
H  35.30300 0.89200 34.85200
H  33.65500 1.55700 34.63900
H  34.90700 0.92800 36.94300
H  33.48600 1.74000 36.92000
H  41.90700 1.36900 30.94000
H  41.56800 -0.33900 31.03400
H  40.97200 0.77100 32.41000
H  42.43000 -1.04100 28.93500
H  42.81900 0.64200 28.94600
H  42.76100 -0.22800 27.36300
H  36.19900 0.47700 25.13100
H  34.63300 2.84900 24.99000
H  37.52600 3.06300 25.21100
H  36.36000 2.82600 23.88000
H  37.74000 1.77400 24.00700
H  32.53600 0.91000 25.58200
H  33.88200 -0.07100 24.81600
H  33.60300 2.04300 23.06200
H  32.06100 1.53200 23.45000
H  33.06900 0.23700 22.92900
H  30.24600 3.43900 27.76800
H  30.34800 5.10500 28.60200
H  29.71300 3.75300 29.42700
H  32.36500 3.05000 33.72000
H  31.45700 7.11600 35.58000
H  32.73400 6.18600 36.40600
H  31.10400 5.89100 36.84600
Mg 16.86500 52.04700 26.77800
C  18.78600 50.46300 29.23200
C  14.58500 52.95600 29.09300
C  15.16600 53.34800 24.22100
C  18.90100 50.32700 24.34400
N  16.67500 51.59500 28.88100
C  17.62700 51.08700 29.75600
C  17.22400 51.35900 31.26800
C  15.78200 51.92200 31.12200
C  15.62700 52.18400 29.63300
C  14.74100 50.95900 31.74900
C  18.26300 52.40500 31.77300
C  18.49000 52.36800 33.25800
H  17.56000 51.51500 34.12800
N  15.31000 53.24800 26.68900
C  14.47200 53.53100 27.78600
C  13.38800 54.43100 27.32100
C  13.61000 54.66100 25.88600
C  14.72800 53.74300 25.51000
C  12.41700 55.05300 28.18600
C  12.73900 55.46600 24.94300
O  12.68100 55.31000 23.71400
C  11.68700 56.43700 25.50500
N  17.09900 52.01600 24.63800
C  16.16100 52.59300 23.82500
C  16.45600 52.20800 22.31500
C  17.74100 51.29700 22.34900
C  17.98100 51.26300 23.86200
C  15.28900 51.51500 21.48200
C  18.94200 51.76800 21.45500
C  19.61000 53.08000 21.72700
N  18.48300 50.67100 26.77600
C  19.12200 50.04900 25.72600
C  20.24900 49.29300 26.27500
C  20.11800 49.41300 27.65000
C  19.05300 50.26400 27.90600
C  21.19100 48.54500 25.51100
C  20.79500 49.10900 28.93500
O  21.83100 48.58100 29.22200
C  19.91600 49.85000 29.98200
C  19.49500 48.81400 30.96200
O  18.76000 47.82400 30.73800
O  20.03300 49.07500 32.20900
C  19.70100 48.07900 33.18900
H  13.81800 53.26100 29.80700
H  14.74700 53.73500 23.29000
H  19.50700 49.90800 23.53800
H  17.36000 50.41700 31.80000
H  15.58500 52.88700 31.58800
H  15.03700 50.34900 32.60200
H  14.27000 50.27700 31.04100
H  13.92300 51.56300 32.14200
H  17.79100 53.34200 31.47800
H  19.11900 52.41600 31.09700
H  18.41700 53.36900 33.68200
H  19.53600 52.09100 33.39200
H  12.66800 54.92200 29.23800
H  11.48200 54.56400 27.91500
H  12.34100 56.12400 27.99300
H  10.88300 55.96300 26.06800
H  11.42900 57.02700 24.62600
H  12.27200 57.17500 26.05400
H  16.74700 53.11300 21.78100
H  17.47100 50.29600 22.01200
H  15.71900 51.16800 20.54200
H  14.47600 52.16900 21.16800
H  14.96000 50.60800 21.98900
H  18.72900 51.61200 20.39700
H  19.77800 51.08400 21.60000
H  20.66800 52.93700 21.94600
H  19.21200 53.52600 22.63900
H  19.61600 53.77800 20.89000
H  20.51000 47.89500 24.96100
H  21.84600 47.90800 26.10600
H  21.65500 49.28800 24.86200
H  20.50300 50.63600 30.45800
H  20.30400 47.17200 33.13800
H  18.67100 47.74400 33.06100
H  19.72800 48.55700 34.16800

