158

Mg 44.71900 4.83100 46.82000
C  43.26400 8.02900 46.68500
C  41.53700 3.45000 45.96600
C  46.23100 1.83000 46.42700
C  47.87500 6.28600 46.97200
N  42.69100 5.67900 46.25200
C  42.35900 7.03000 46.32400
C  40.80100 7.13900 46.18200
C  40.36700 5.69300 45.90900
C  41.56700 4.84900 46.06700
C  39.20500 5.26800 46.89000
C  40.33500 8.09600 45.05900
C  40.99500 7.94500 43.67700
H  40.05900 7.93100 42.46200
N  43.97200 2.83900 46.43100
C  42.67800 2.51000 46.05800
C  42.60000 1.06700 45.80000
C  43.90800 0.59700 46.02800
C  44.77800 1.79100 46.30400
C  41.36700 0.28800 45.51900
C  44.31200 -0.83500 45.90000
O  43.53500 -1.71100 45.58800
C  45.77300 -1.41100 46.20400
N  46.80500 4.17900 46.38800
C  47.09700 2.91500 46.43600
C  48.63100 2.70300 46.62500
C  49.15700 4.12800 46.74800
C  47.88500 4.95200 46.68600
C  48.93600 1.74900 47.77300
C  50.24300 4.47400 45.63500
C  51.61200 4.87100 46.24000
N  45.47000 6.72600 46.86100
C  46.79500 7.16200 46.95000
C  46.80200 8.56400 47.04300
C  45.49800 8.91900 46.90700
C  44.68800 7.82400 46.84100
C  48.00700 9.52100 47.15000
C  44.63900 10.05700 46.70700
O  44.98500 11.17900 46.38700
C  43.16800 9.55900 46.70300
C  42.32600 10.02500 47.86900
O  41.54700 9.44000 48.62500
O  42.44600 11.42800 47.81900
C  41.63600 12.13100 48.74900
H  40.56800 2.97300 45.80300
H  46.65700 0.83000 46.53400
H  48.89300 6.67200 47.05000
H  40.47400 7.57300 47.12600
H  39.97800 5.66400 44.89100
H  38.96600 6.07000 47.58800
H  39.58700 4.47000 47.52600
H  38.34900 4.80600 46.39800
H  40.39300 9.13600 45.38200
H  39.26300 7.96800 44.91000
H  41.73700 7.14900 43.61500
H  41.47900 8.90700 43.50600
H  41.18000 -0.43000 46.31700
H  41.34000 -0.16000 44.52600
H  40.47200 0.91000 45.48500
H  46.51500 -1.10700 45.46600
H  45.79600 -2.49800 46.27400
H  46.13800 -0.97200 47.13300
H  48.99500 2.24500 45.70600
H  49.48900 4.17800 47.78500
H  48.08100 1.15700 48.10000
H  49.29700 2.29500 48.64400
H  49.66300 0.94500 47.65700
H  50.00200 5.39300 45.10000
H  50.41400 3.59500 45.01400
H  51.98100 5.83600 45.89200
H  52.37300 4.15500 45.92900
H  51.51000 4.94000 47.32300
H  48.65800 9.51800 46.27600
H  48.60500 9.37200 48.05000
H  47.68800 10.56300 47.16600
H  42.68900 10.10800 45.89100
H  41.53800 13.19400 48.52800
H  42.15700 12.03700 49.70200
H  40.68000 11.63200 48.91100
Mg -1.55800 34.42400 27.53400
C  -3.58400 32.81000 30.10000
C  -0.30500 36.47100 30.06200
C  -0.06300 36.22000 25.08400
C  -3.32500 32.53200 25.19500
N  -1.89000 34.51400 29.84200
C  -2.71000 33.74300 30.63600
C  -2.65900 34.07500 32.15700
C  -1.61600 35.36800 32.10900
C  -1.22500 35.52800 30.56400
C  -2.14100 36.63200 32.78100
C  -2.17800 32.81400 33.01900
C  -2.94200 32.51500 34.31300
H  -2.07500 32.12800 35.48400
N  -0.19900 36.06600 27.55300
C  0.22500 36.69100 28.73500
C  1.15000 37.74500 28.41400
C  1.16700 37.79900 26.97400
C  0.27700 36.65200 26.43700
C  1.93800 38.56900 29.44700
C  1.91000 38.82700 26.08600
O  1.79900 38.84300 24.87700
C  2.88800 39.85300 26.67300
N  -1.72800 34.37100 25.45800
C  -0.90600 35.13900 24.64900
C  -1.28800 34.90700 23.15600
C  -1.93700 33.45300 23.21900
C  -2.40700 33.44800 24.68100
C  -2.24800 36.03200 22.67900
C  -0.96800 32.25200 23.02000
C  -0.85000 31.56400 21.63400
N  -3.09600 32.97600 27.60300
C  -3.67100 32.26600 26.48100
C  -4.53800 31.30600 26.98700
C  -4.56300 31.49900 28.37800
C  -3.63000 32.47000 28.70500
C  -5.41200 30.46500 26.06500
C  -5.14000 31.00600 29.68700
O  -5.99000 30.20700 29.90200
C  -4.51300 31.85300 30.80200
C  -5.59000 32.51800 31.60600
O  -6.11600 33.58500 31.28300
O  -5.84000 31.69200 32.71700
C  -6.71400 32.35700 33.79800
H  0.04900 37.12800 30.85900
H  0.48800 36.69700 24.27000
H  -3.52400 31.83300 24.37900
H  -3.64800 34.42000 32.46000
H  -0.69400 35.04400 32.59000
H  -1.53300 36.74200 33.67900
H  -3.20500 36.47100 32.95100
H  -1.99200 37.50500 32.14500
H  -1.13000 33.00700 33.24800
H  -2.24100 31.92600 32.39100
H  -3.48100 31.59700 34.07800
H  -3.53800 33.40900 34.49600
H  2.96500 38.54000 29.08400
H  1.94600 38.09000 30.42600
H  1.45400 39.54400 29.49300
H  2.42400 40.63100 27.28000
H  3.34200 40.33500 25.80700
H  3.75000 39.34800 27.10800
H  -0.41500 35.08300 22.52700
H  -2.87200 33.38000 22.66500
H  -2.02900 36.43600 21.69100
H  -2.18600 36.84300 23.40500
H  -3.21800 35.53700 22.64200
H  -1.02700 31.43200 23.73500
H  -0.03200 32.78200 23.19400
H  0.03900 31.95400 21.13900
H  -1.73500 31.74600 21.02500
H  -0.88100 30.47500 21.67700
H  -5.06700 29.43200 26.04400
H  -5.34900 30.87300 25.05600
H  -6.44100 30.54200 26.41700
H  -4.04400 31.07600 31.40500
H  -5.97800 32.52900 34.58300
H  -7.32000 31.51200 34.12400
H  -7.30300 33.26400 33.65400

