158

Mg 25.00000 0.72600 29.05600
C  27.30800 0.90500 31.88400
C  22.47200 1.12800 31.17400
C  23.09100 1.15200 26.29700
C  27.84500 0.25300 27.04200
N  25.02300 0.87300 31.32300
C  26.00000 1.01400 32.26400
C  25.42900 1.18300 33.68100
C  23.84700 1.10400 33.40100
C  23.74800 0.96000 31.83900
C  23.26000 -0.18800 34.01500
C  25.84700 2.53600 34.31800
C  25.07100 3.00000 35.62100
H  25.91800 3.40600 36.88300
N  23.07600 0.99600 28.78700
C  22.19900 1.01300 29.80000
C  20.79700 1.14500 29.21600
C  20.98000 1.08000 27.79300
C  22.39800 1.06700 27.54100
C  19.54600 1.25000 29.93600
C  19.87400 1.23400 26.74800
O  20.12800 1.26000 25.55700
C  18.44900 1.44400 27.10100
N  25.39800 0.68400 27.09500
C  24.41000 0.96400 26.05900
C  24.87400 0.72500 24.65400
C  26.47100 0.64400 24.91900
C  26.60400 0.41400 26.45900
C  24.17700 -0.44200 23.83600
C  27.15800 1.88400 24.38500
C  27.01900 3.19700 25.15600
N  27.12500 0.54000 29.32900
C  28.12800 0.39700 28.42300
C  29.35300 0.51400 29.07100
C  29.10800 0.66500 30.45300
C  27.72200 0.64400 30.57400
C  30.63700 0.62800 28.31100
C  29.76500 0.80800 31.74500
O  30.95500 0.89900 32.10300
C  28.55100 1.00100 32.77300
C  28.68600 0.04300 33.87300
O  28.25400 -1.10400 33.86900
O  29.39100 0.64200 34.91500
C  29.19800 0.12500 36.25500
H  21.60000 1.24700 31.82100
H  22.43600 1.25600 25.43000
H  28.66300 0.02800 26.35600
H  25.80800 0.31600 34.22200
H  23.32600 2.00600 33.72100
H  23.43800 -1.00500 33.31600
H  22.19000 -0.08100 34.19400
H  23.77400 -0.51200 34.92000
H  26.03300 3.39900 33.67800
H  26.82100 2.35300 34.77100
H  24.40400 2.17900 35.88300
H  24.47000 3.84900 35.29600
H  19.12700 2.23000 29.70900
H  19.68200 1.18400 31.01500
H  18.91900 0.43700 29.57200
H  18.36100 2.32400 27.73800
H  18.10900 0.52400 27.57700
H  17.88000 1.67000 26.20000
H  24.69000 1.61800 24.05700
H  26.78800 -0.18300 24.28500
H  24.89800 -1.14600 23.42000
H  23.63500 -0.03700 22.98100
H  23.47900 -1.03700 24.42500
H  26.81800 2.05500 23.36300
H  28.22000 1.64400 24.32800
H  27.92700 3.51900 25.66600
H  26.20100 3.15700 25.87500
H  26.69300 3.95700 24.44600
H  30.85600 -0.31900 27.81800
H  31.49800 0.76900 28.96500
H  30.67100 1.37400 27.51800
H  28.70100 2.00800 33.16200
H  30.17900 -0.03300 36.70300
H  28.56900 -0.76000 36.35300
H  28.76600 0.94500 36.82900
Mg -5.19800 25.14200 26.66300
C  -3.99300 26.43700 29.63100
C  -6.91400 22.77500 28.55300
C  -6.05800 23.72500 23.73300
C  -2.92000 27.25000 24.85700
N  -5.34000 24.65000 28.82900
C  -4.82800 25.35300 29.82500
C  -5.27100 24.84300 31.23300
C  -6.01300 23.46400 30.85000
C  -6.13700 23.64000 29.29900
C  -5.19800 22.18600 31.26500
C  -6.16500 26.02400 31.87400
C  -5.98500 26.19100 33.41500
H  -5.39400 24.98000 34.19500
N  -6.19200 23.51300 26.21600
C  -6.99900 22.74200 27.12900
C  -7.81500 21.80900 26.38600
C  -7.63100 22.13400 25.02300
C  -6.58400 23.17800 24.93500
C  -8.66300 20.75300 27.08200
C  -8.33500 21.44600 23.92400
O  -8.08200 21.77600 22.77200
C  -9.38900 20.33000 24.12800
N  -4.57400 25.45200 24.53900
C  -5.07000 24.71700 23.56900
C  -4.43000 25.07700 22.20600
C  -3.45900 26.21100 22.59400
C  -3.59900 26.32400 24.12300
C  -3.77900 23.89800 21.47600
C  -3.62500 27.51800 21.78200
C  -2.43000 28.00300 20.92400
N  -3.93100 26.63000 27.10000
C  -3.06000 27.40000 26.26200
C  -2.23600 28.22900 27.02900
C  -2.54700 28.02300 28.33500
C  -3.52400 26.91100 28.39800
C  -1.31600 29.26900 26.45600
C  -2.35100 28.41800 29.75300
O  -1.71300 29.36300 30.31900
C  -3.25800 27.33200 30.56400
C  -2.38800 26.50600 31.53300
O  -1.80700 25.47500 31.20600
O  -2.20600 27.03100 32.82200
C  -1.17400 26.27100 33.56300
H  -7.49900 22.05400 29.12800
H  -6.23900 23.20100 22.79100
H  -2.15500 27.77500 24.28000
H  -4.37300 24.63700 31.81500
H  -6.95500 23.48800 31.39900
H  -4.27500 22.53300 31.72900
H  -4.87900 21.60800 30.39700
H  -5.74800 21.56600 31.97400
H  -7.19700 25.73200 31.68100
H  -6.00300 26.95800 31.33700
H  -7.02400 26.33800 33.71200
H  -5.45700 27.12700 33.59800
H  -9.74000 20.86000 26.95500
H  -8.27400 20.56600 28.08300
H  -8.43500 19.83200 26.54600
H  -9.76500 19.99900 23.16000
H  -10.14700 20.75000 24.78800
H  -9.00400 19.44000 24.62600
H  -5.32500 25.30700 21.62800
H  -2.46100 25.79800 22.44400
H  -3.00500 24.24000 20.78900
H  -4.58300 23.39900 20.93600
H  -3.25700 23.23900 22.17000
H  -3.94700 28.35200 22.40500
H  -4.56800 27.40700 21.24700
H  -2.05900 28.91900 21.38500
H  -2.84100 28.12200 19.92100
H  -1.72100 27.17900 21.00600
H  -1.95500 30.11400 26.20200
H  -0.77100 28.94700 25.56900
H  -0.58100 29.54600 27.21200
H  -4.02000 27.89600 31.10200
H  -0.72100 26.96800 34.26800
H  -0.32700 26.02200 32.92400
H  -1.52900 25.37800 34.07800

