158

Mg 48.51500 16.53700 28.87600
C  46.28300 16.27800 31.74800
C  50.81200 18.12300 30.89100
C  50.24900 17.01400 26.10300
C  45.71500 15.53400 26.95800
N  48.42200 17.23700 31.01600
C  47.52900 16.89500 32.04600
C  48.08800 17.36400 33.44800
C  49.34300 18.25700 32.96300
C  49.58700 17.77100 31.54500
C  49.22400 19.73600 33.22700
C  48.31500 16.19200 34.47400
C  47.48700 16.45800 35.84200
H  47.41400 17.92500 36.34200
N  50.31400 17.33500 28.54500
C  51.13600 17.84800 29.48600
C  52.38300 18.24000 28.77500
C  52.24800 17.91800 27.40200
C  50.86600 17.40000 27.30400
C  53.54800 19.00800 29.47000
C  53.27900 18.04200 26.23800
O  53.19300 17.59500 25.10400
C  54.60600 18.63900 26.63900
N  48.02800 16.33500 26.87600
C  49.02200 16.41300 25.94400
C  48.42400 16.10700 24.53100
C  47.00100 15.53900 24.87200
C  46.92300 15.75500 26.34100
C  48.37900 17.44000 23.74200
C  46.81000 14.11600 24.42600
C  46.20500 13.80600 23.05800
N  46.47200 15.84000 29.24000
C  45.45300 15.53300 28.29900
C  44.25600 15.16400 29.03300
C  44.52800 15.42700 30.39700
C  45.85600 15.97400 30.42500
C  43.01100 14.70200 28.54300
C  43.98500 15.38900 31.70100
O  42.89500 14.89600 32.09800
C  45.13800 15.89700 32.63300
C  44.59300 17.07900 33.40800
O  44.32900 18.22000 32.98700
O  44.14400 16.52100 34.59500
C  43.42100 17.38300 35.50000
H  51.54600 18.58800 31.55300
H  50.94700 17.10200 25.26800
H  44.93500 15.31500 26.22600
H  47.36500 18.11700 33.76500
H  50.15700 17.98200 33.63300
H  50.18000 20.13600 33.56700
H  48.49900 19.97900 34.00300
H  48.85800 20.34200 32.39800
H  49.38900 16.06000 34.60300
H  47.94000 15.30800 33.95900
H  48.02700 15.83900 36.55800
H  46.49000 16.10800 35.57300
H  53.74100 19.96700 28.98900
H  54.39800 18.32500 29.47000
H  53.23900 19.14900 30.50600
H  54.79100 19.70700 26.75500
H  55.30900 18.42900 25.83200
H  55.09900 18.17900 27.49500
H  49.10600 15.41900 24.03300
H  46.28500 16.14200 24.31400
H  48.55800 17.10600 22.72000
H  49.10900 18.22900 23.91800
H  47.43400 17.98300 23.76000
H  46.08700 13.67100 25.11000
H  47.79400 13.65000 24.46600
H  46.96800 13.55600 22.32100
H  45.70200 14.73000 22.77600
H  45.51100 12.97300 23.17000
H  42.44200 15.42800 27.96100
H  42.38700 14.52700 29.41900
H  43.13600 13.76400 28.00200
H  45.34500 15.11400 33.36200
H  42.44800 17.68900 35.11500
H  44.01300 18.28600 35.65000
H  43.28500 16.85300 36.44200
Mg 16.66700 52.10800 26.21300
C  18.57200 50.57400 28.70300
C  14.25400 52.70400 28.48200
C  14.93800 53.42800 23.66600
C  18.96600 50.71000 23.87600
N  16.49300 51.74500 28.36300
C  17.45600 51.22700 29.19300
C  17.02200 51.47100 30.66600
C  15.52500 51.78100 30.44800
C  15.36100 52.05200 28.98800
C  14.59900 50.60200 30.96400
C  17.91900 52.55100 31.35300
C  18.18200 52.40700 32.95100
H  17.10400 52.02100 33.93800
N  14.88200 53.06000 26.14100
C  14.03800 53.23900 27.19400
C  12.89600 53.97200 26.70900
C  13.01300 54.06700 25.25000
C  14.34500 53.54900 24.96000
C  11.75600 54.32900 27.62900
C  12.02200 54.57400 24.22900
O  12.26600 54.53700 23.06000
C  10.76800 55.27200 24.60900
N  16.82700 51.97500 23.93100
C  16.03800 52.68300 23.14500
C  16.48700 52.61400 21.67000
C  17.86400 51.72800 21.75900
C  17.96000 51.42700 23.27000
C  15.35100 51.91400 20.84500
C  19.15200 52.42200 21.20700
C  19.40600 53.84500 21.67500
N  18.35400 50.86100 26.18900
C  19.16700 50.38000 25.20900
C  20.26800 49.62400 25.75000
C  20.15900 49.76400 27.10400
C  18.97200 50.49700 27.32900
C  21.39400 48.96000 25.00200
C  20.69800 49.35700 28.39700
O  21.76500 48.67300 28.54500
C  19.74800 49.95900 29.47900
C  19.22000 48.99000 30.52500
O  18.30700 48.21800 30.41100
O  19.93600 49.23600 31.67900
C  19.54800 48.38900 32.82800
H  13.52900 52.90800 29.27300
H  14.60900 54.05900 22.83800
H  19.75900 50.37900 23.20300
H  17.13600 50.55500 31.24600
H  15.29200 52.71700 30.95500
H  15.11300 49.65300 31.11900
H  13.85400 50.36000 30.20600
H  13.94100 50.89000 31.78400
H  17.62400 53.59500 31.25300
H  18.87300 52.41700 30.84400
H  18.70400 53.23700 33.42700
H  18.82100 51.54100 33.12200
H  11.43300 55.36800 27.55500
H  12.20200 54.37400 28.62300
H  10.94700 53.62100 27.44900
H  10.31400 54.68400 25.40600
H  10.01500 55.34400 23.82400
H  11.19500 56.20500 24.97700
H  16.61700 53.62300 21.28100
H  17.85100 50.79300 21.19900
H  15.79300 51.28700 20.07000
H  14.67800 52.55900 20.28000
H  14.90400 51.19600 21.53400
H  19.21300 52.37500 20.11900
H  19.92200 51.81700 21.68500
H  20.47200 53.94200 21.88100
H  18.87100 54.02100 22.60800
H  19.15900 54.50600 20.84400
H  21.05300 48.71400 23.99700
H  21.52800 47.99100 25.48200
H  22.26600 49.61500 24.98900
H  20.09500 50.85500 29.99400
H  20.26100 48.54100 33.63900
H  19.53300 47.30400 32.72600
H  18.55100 48.70000 33.13900

