158

Mg 0.55900 7.66800 26.17700
C  1.24900 9.92700 28.79700
C  1.17300 5.11200 28.31500
C  0.17200 5.59200 23.61400
C  0.66400 10.39100 24.02300
N  1.01900 7.57900 28.34700
C  1.15300 8.62500 29.23900
C  1.37300 8.06100 30.59300
C  1.58800 6.54300 30.40100
C  1.32500 6.36700 28.89100
C  2.97500 6.00000 30.80300
C  0.20200 8.48400 31.60800
C  0.29500 7.71700 32.93200
H  1.65600 7.48300 33.63500
N  0.58900 5.63000 25.96800
C  0.64200 4.73300 27.02100
C  0.19700 3.43900 26.56700
C  -0.15600 3.61300 25.19500
C  0.18400 4.98200 24.85100
C  0.08400 2.18100 27.46500
C  -0.72000 2.67100 24.15600
O  -0.83800 2.94300 22.95300
C  -0.87600 1.24800 24.48400
N  0.43300 7.99500 24.16800
C  0.35900 6.91500 23.28100
C  0.46800 7.41600 21.81500
C  0.13600 8.94100 22.02200
C  0.36700 9.13100 23.49700
C  1.74600 7.11000 21.04400
C  -1.25900 9.42400 21.58300
C  -1.16500 10.66600 20.66900
N  0.88900 9.75700 26.33500
C  0.84000 10.74700 25.38100
C  1.10500 12.07500 25.93900
C  1.22600 11.74500 27.30200
C  1.06600 10.36100 27.49700
C  1.17900 13.36700 25.26000
C  1.57600 12.35900 28.54700
O  1.92200 13.48800 28.82400
C  1.48600 11.17500 29.58300
C  2.73600 11.01600 30.43600
O  3.78800 10.43000 30.13300
O  2.59200 11.64100 31.62500
C  3.77200 11.65200 32.52400
H  1.38400 4.31500 29.03200
H  -0.10100 5.02200 22.72300
H  0.50100 11.21400 23.32400
H  2.27400 8.58700 30.91000
H  0.95500 5.88800 30.99900
H  3.70500 6.77900 31.02500
H  3.41300 5.47000 29.95700
H  2.87400 5.24500 31.58200
H  -0.72100 8.22400 31.09000
H  0.25400 9.56200 31.75900
H  -0.24500 6.79000 32.73800
H  -0.31300 8.28900 33.63300
H  0.61300 1.30100 27.09800
H  -0.94000 2.07200 27.82100
H  0.73000 2.38900 28.31800
H  0.06500 0.72800 24.66300
H  -1.35000 0.58300 23.76200
H  -1.44800 1.16100 25.40800
H  -0.33800 7.05800 21.17500
H  0.92500 9.48100 21.49800
H  1.52800 6.41500 20.23400
H  2.37400 6.51000 21.70300
H  2.36100 7.96800 20.77200
H  -1.88800 9.76000 22.40800
H  -1.82800 8.63900 21.08500
H  -1.66700 10.36700 19.74900
H  -0.11300 10.85100 20.45100
H  -1.66100 11.58400 20.98500
H  0.18100 13.80500 25.24400
H  1.57900 13.17900 24.26300
H  1.88200 13.91400 25.88900
H  0.61100 11.34600 30.21000
H  4.53500 12.31300 32.11100
H  4.07200 10.61600 32.68100
H  3.43900 12.16000 33.42900
Mg 25.32500 -0.03900 28.90000
C  27.49100 -0.50600 31.73800
C  22.74600 0.36700 31.07700
C  23.57300 0.14600 26.18700
C  28.21600 -1.01900 27.00600
N  25.24700 0.00000 31.12800
C  26.25500 -0.10400 32.05800
C  25.70800 0.16100 33.50300
C  24.12200 0.18300 33.30900
C  23.99700 0.17200 31.75200
C  23.31400 -0.93500 33.96200
C  26.35100 1.37500 34.28700
C  27.26800 0.98000 35.44200
H  26.95200 1.54800 36.77600
N  23.45500 0.27400 28.64200
C  22.52200 0.36900 29.65000
C  21.27900 0.74200 28.98000
C  21.47000 0.72000 27.52700
C  22.85400 0.37600 27.37100
C  19.96800 1.02500 29.78000
C  20.48700 0.97500 26.38600
O  20.85100 0.96900 25.21500
C  19.14600 1.42900 26.63500
N  25.79100 -0.52000 26.94100
C  24.89900 -0.27400 25.97800
C  25.54700 -0.38400 24.58500
C  27.06700 -0.60500 24.85400
C  27.02400 -0.62400 26.39300
C  24.89700 -1.34900 23.58600
C  28.00900 0.42800 24.20200
C  27.63900 1.93100 24.33500
N  27.37900 -0.64500 29.22700
C  28.38700 -1.05500 28.34800
C  29.61200 -1.40000 29.04800
C  29.30800 -1.18000 30.37000
C  27.97800 -0.80500 30.46100
C  30.94100 -1.74800 28.47600
C  29.81600 -1.18200 31.70600
O  30.91200 -1.44100 32.20100
C  28.67200 -0.69100 32.63600
C  28.49700 -1.97200 33.51900
O  27.75600 -2.93600 33.30500
O  29.23200 -1.75500 34.63500
C  28.96900 -2.79800 35.68400
H  21.92400 0.61100 31.75400
H  22.97700 0.25500 25.27800
H  29.03800 -1.22800 26.31800
H  26.03500 -0.73000 34.03900
H  23.65100 1.12900 33.57600
H  23.32500 -0.86800 35.05000
H  23.63600 -1.95900 33.77400
H  22.27600 -0.86300 33.63500
H  25.69600 2.21500 34.52000
H  27.01300 1.83400 33.55300
H  28.24400 1.44100 35.28700
H  27.42900 -0.09200 35.55500
H  19.20000 0.68500 29.08500
H  19.88200 2.09800 29.95500
H  19.95000 0.52400 30.74700
H  19.16800 2.23400 27.37000
H  18.63200 0.52200 26.95200
H  18.84900 1.73900 25.63400
H  25.25000 0.55400 24.11700
H  27.32000 -1.60300 24.49500
H  25.65600 -1.69200 22.88200
H  24.08400 -0.88300 23.03000
H  24.41900 -2.20200 24.06800
H  28.21900 0.23400 23.15000
H  28.91800 0.42300 24.80200
H  28.33500 2.49300 24.95600
H  26.61200 2.04800 24.68300
H  27.81000 2.47900 23.40800
H  31.71800 -2.12400 29.14100
H  31.40100 -0.86600 28.03100
H  30.73600 -2.44100 27.66000
H  28.97900 0.20800 33.17100
H  29.84500 -2.87400 36.32700
H  28.88000 -3.83300 35.35400
H  28.07200 -2.60100 36.27200

