158

Mg -2.51800 17.06000 26.80500
C  -2.60500 15.04300 29.53800
C  -3.28000 19.77300 28.84200
C  -2.59800 19.02600 24.03600
C  -2.35800 14.23500 24.73600
N  -3.02900 17.46300 28.92200
C  -2.78500 16.45600 29.89200
C  -3.00200 17.08400 31.28100
C  -3.28200 18.53900 30.96300
C  -3.30000 18.61800 29.51900
C  -4.48200 19.27100 31.73200
C  -1.85700 16.88000 32.31100
C  -2.32400 16.29800 33.63900
H  -1.20000 16.20700 34.66000
N  -2.75900 19.04600 26.53000
C  -3.10500 19.93400 27.46500
C  -3.28500 21.24400 26.82000
C  -3.07900 21.15200 25.47800
C  -2.75800 19.68700 25.28400
C  -3.58300 22.45900 27.55000
C  -3.24100 22.20400 24.40000
O  -3.10800 21.98800 23.20100
C  -3.40400 23.67000 24.79400
N  -2.51200 16.70800 24.75000
C  -2.48200 17.68300 23.74700
C  -2.62200 17.14500 22.36900
C  -2.29900 15.56100 22.54300
C  -2.36200 15.47500 24.09500
C  -4.02700 17.39100 21.64500
C  -0.86300 15.07100 22.24900
C  0.39500 15.90200 22.58400
N  -2.53800 15.02700 27.03400
C  -2.53700 14.02100 26.11200
C  -2.45800 12.74100 26.80300
C  -2.47100 13.03400 28.14200
C  -2.56000 14.43800 28.23900
C  -2.33600 11.36100 26.15500
C  -2.33100 12.51300 29.49100
O  -2.32800 11.35400 29.89700
C  -2.38700 13.73100 30.38300
C  -1.04300 13.77500 31.13600
O  -0.01800 14.16900 30.67400
O  -1.19600 13.24200 32.39600
C  0.13000 13.18600 33.15800
H  -3.39000 20.64700 29.48700
H  -2.60000 19.60600 23.11100
H  -2.19700 13.36000 24.10300
H  -3.90500 16.64300 31.70500
H  -2.40800 19.07900 31.32900
H  -4.17100 20.06700 32.40900
H  -5.03000 18.51100 32.28900
H  -5.20300 19.72600 31.05300
H  -1.22700 17.74800 32.50700
H  -1.17000 16.11600 31.94700
H  -2.41100 15.25900 33.32200
H  -3.31100 16.66400 33.92100
H  -4.56300 22.86600 27.30500
H  -2.72600 23.13200 27.49900
H  -3.65200 22.39500 28.63600
H  -3.43200 24.30000 23.90400
H  -2.55700 23.99800 25.39600
H  -4.33200 23.82400 25.34500
H  -1.79700 17.43500 21.71800
H  -3.10700 14.92100 22.18600
H  -4.63000 16.48400 21.62400
H  -4.01600 17.84200 20.65200
H  -4.51200 18.16200 22.24400
H  -0.89000 15.04700 21.16000
H  -0.62200 14.06600 22.59700
H  0.50900 16.35200 21.59800
H  1.32900 15.34300 22.64500
H  0.28500 16.71900 23.29800
H  -3.33900 11.26700 25.74000
H  -2.15500 10.58100 26.89600
H  -1.59800 11.30600 25.35500
H  -3.22200 13.66400 31.08000
H  -0.17500 12.98100 34.18400
H  0.77500 14.06300 33.10800
H  0.75800 12.32800 32.91900
Mg 35.84300 48.01500 25.90300
C  36.03000 46.12200 28.81900
C  34.17600 50.42600 27.60800
C  35.36500 49.59500 22.85800
C  37.38000 45.41900 24.19700
N  35.08700 48.18600 27.91000
C  35.42500 47.36800 28.99400
C  34.98900 48.01800 30.34000
C  34.29600 49.29100 29.96000
C  34.53000 49.28900 28.41100
C  32.76600 49.47400 30.47100
C  36.18300 48.13200 31.31900
C  35.89800 47.87400 32.72800
H  35.92800 49.14600 33.66500
N  34.88500 49.73500 25.29800
C  34.38200 50.69700 26.20500
C  34.09600 51.93100 25.44600
C  34.49600 51.70200 24.09700
C  34.95800 50.28900 23.97900
C  33.49800 53.13300 26.14900
C  34.62300 52.72200 23.00000
O  35.00900 52.47200 21.90400
C  34.37900 54.19000 23.33600
N  36.12300 47.48600 23.77500
C  35.90100 48.29000 22.76400
C  36.50700 47.69500 21.44300
C  37.20600 46.41700 21.87500
C  36.96800 46.48100 23.42400
C  35.57700 47.31200 20.30400
C  38.72800 46.36300 21.48900
C  39.02700 45.79200 20.11000
N  36.59700 46.13200 26.39000
C  37.13200 45.15300 25.57300
C  37.42900 43.94600 26.30300
C  36.99500 44.24900 27.68400
C  36.48100 45.60800 27.61900
C  38.07200 42.67600 25.82800
C  36.94200 43.75200 29.02600
O  37.27500 42.68200 29.50300
C  36.35300 45.01300 29.85400
C  35.19100 44.51000 30.64600
O  34.24800 43.87800 30.11700
O  35.31500 44.75500 32.02300
C  34.16600 44.42100 32.87600
H  33.88700 51.30200 28.19300
H  35.31200 50.09400 21.88800
H  37.95300 44.64600 23.68100
H  34.22500 47.37600 30.77900
H  34.90700 50.08800 30.38200
H  32.78100 50.24200 31.24400
H  32.39100 48.57000 30.95100
H  32.11600 49.83400 29.67300
H  36.63300 49.11500 31.18000
H  37.01200 47.50400 30.99200
H  36.72100 47.23100 33.03800
H  34.93200 47.38500 32.85800
H  33.92100 54.07400 25.79700
H  33.77800 53.25500 27.19500
H  32.41600 53.14500 26.01900
H  33.32900 54.46100 23.44800
H  34.64400 54.74400 22.43600
H  35.08000 54.59200 24.06700
H  37.12300 48.48700 21.01700
H  36.74100 45.48800 21.54400
H  35.50100 48.05400 19.50900
H  34.61200 46.95500 20.66500
H  36.00700 46.50800 19.70600
H  39.34200 45.75000 22.15000
H  39.09100 47.37800 21.65500
H  38.08600 45.49500 19.64800
H  39.75400 44.98100 20.14100
H  39.53700 46.54100 19.50400
H  39.08800 42.62200 26.22000
H  38.13800 42.60500 24.74200
H  37.46900 41.83200 26.16600
H  37.07600 45.35800 30.59300
H  33.95000 45.22300 33.58100
H  34.38000 43.53700 33.47700
H  33.22600 44.32900 32.33200

