158

Mg 25.21500 1.56400 29.80600
C  27.31000 1.49600 32.59500
C  22.52200 1.82800 31.86300
C  23.17600 1.35300 27.07900
C  28.08100 0.88100 27.71200
N  25.02300 1.63200 31.93500
C  26.01100 1.77800 32.92000
C  25.41500 2.12400 34.28000
C  23.84400 1.79000 33.98000
C  23.75200 1.77100 32.44500
C  23.28400 0.43500 34.54400
C  25.75700 3.55800 34.75400
C  26.80600 3.66400 35.93500
H  26.54900 4.53000 37.18200
N  23.11100 1.67000 29.49300
C  22.22700 1.90800 30.48700
C  20.90300 1.92100 29.89200
C  21.03300 1.76500 28.52400
C  22.47800 1.58900 28.29200
C  19.68100 2.04300 30.69200
C  19.99200 1.80700 27.48300
O  20.20400 1.65000 26.26900
C  18.53400 2.06400 27.90400
N  25.53500 0.97600 27.73600
C  24.49200 1.11700 26.78900
C  25.00600 0.93900 25.33200
C  26.59200 1.05300 25.59800
C  26.79200 1.05500 27.10400
C  24.51000 -0.37200 24.62600
C  27.21300 2.15600 24.71300
C  27.23300 3.49300 25.41700
N  27.23700 1.11100 30.04200
C  28.24500 0.87800 29.13000
C  29.49000 0.97400 29.80500
C  29.18500 1.09200 31.15500
C  27.79500 1.21200 31.26900
C  30.82600 0.81900 29.19900
C  29.69100 1.24900 32.50200
O  30.85800 1.18100 32.79500
C  28.55700 1.52500 33.45000
C  28.64000 0.48900 34.52400
O  28.43900 -0.71600 34.32800
O  28.97000 1.12200 35.68900
C  28.97700 0.19000 36.76600
H  21.65600 1.98400 32.50900
H  22.57300 1.35400 26.16900
H  28.96300 1.06100 27.09400
H  25.73000 1.45300 35.07900
H  23.17100 2.50700 34.45100
H  22.90400 -0.18100 33.72900
H  22.46500 0.58200 35.24900
H  24.06500 -0.09900 35.08600
H  24.87700 4.19000 34.87400
H  26.26600 3.92900 33.86500
H  27.69500 4.00800 35.40600
H  27.06200 2.65200 36.25000
H  19.13100 2.97100 30.53700
H  19.81000 2.03400 31.77500
H  19.02700 1.18000 30.57100
H  18.04300 1.28300 28.48500
H  17.92000 2.12000 27.00400
H  18.50400 3.04700 28.37300
H  24.70900 1.83600 24.78800
H  27.03600 0.11900 25.25500
H  23.72200 -0.84000 25.21700
H  25.34700 -1.05600 24.49300
H  24.13000 -0.04300 23.65900
H  26.62900 2.38700 23.82300
H  28.12600 1.77300 24.25800
H  27.21000 3.36400 26.50000
H  26.39700 4.11300 25.09400
H  28.18600 3.98500 25.22900
H  30.88200 1.42000 28.29100
H  30.86700 -0.18800 28.78500
H  31.55900 1.03900 29.97500
H  28.70900 2.53400 33.83600
H  27.98300 0.06900 37.19600
H  29.62500 0.66500 37.50200
H  29.42100 -0.79100 36.59700
Mg 44.25300 5.06400 48.88400
C  42.41900 8.05700 48.09600
C  41.52500 3.19000 47.83900
C  46.19600 2.42500 48.68500
C  47.15300 7.13200 49.04200
N  42.29200 5.56400 47.94600
C  41.70800 6.83200 47.76900
C  40.27900 6.65300 47.32700
C  39.99500 5.11800 47.47900
C  41.37700 4.57900 47.71700
C  39.04900 4.90400 48.68900
C  40.02700 7.07200 45.82500
C  38.56500 7.37600 45.47900
H  38.14300 7.09100 44.03200
N  43.86900 3.04500 48.59000
C  42.67800 2.41800 48.19000
C  42.85100 0.99400 48.23700
C  44.23400 0.73900 48.43600
C  44.84200 2.07900 48.67500
C  41.79900 0.06800 47.67900
C  44.95200 -0.62000 48.48000
O  44.42000 -1.73000 48.31600
C  46.38000 -0.65600 48.83500
N  46.37300 4.81900 48.88200
C  46.90000 3.60200 48.87300
C  48.41100 3.63400 48.92700
C  48.72500 5.16200 49.08400
C  47.31600 5.75500 49.03900
C  48.91900 2.62500 50.05600
C  49.77700 5.63100 48.06500
C  51.32400 5.28900 48.35800
N  44.72300 7.14800 48.83600
C  45.94400 7.83000 48.91700
C  45.69500 9.29100 48.94400
C  44.29400 9.38400 48.66200
C  43.79500 8.06800 48.51900
C  46.69500 10.38500 49.03600
C  43.20900 10.35400 48.32300
O  43.33300 11.54800 48.38500
C  42.01300 9.51800 47.82200
C  40.81900 9.76000 48.67800
O  40.76700 9.62600 49.88700
O  39.77100 10.15700 47.79300
C  38.47900 10.39100 48.44000
H  40.56000 2.73000 47.61000
H  46.94300 1.65500 48.48300
H  48.05200 7.69300 49.30400
H  39.67300 7.31500 47.94600
H  39.49900 4.70100 46.60200
H  38.31400 5.70400 48.78300
H  39.62200 4.94600 49.61500
H  38.68600 3.87700 48.69900
H  40.38000 6.31100 45.12800
H  40.62000 7.97600 45.69400
H  38.34700 8.41200 45.73800
H  37.99400 6.74600 46.16200
H  41.72900 -0.72700 48.42200
H  42.04500 -0.46000 46.75800
H  40.87600 0.59400 47.43700
H  46.65800 -1.68000 49.08600
H  46.55000 -0.10900 49.76300
H  47.00800 -0.24900 48.04300
H  48.68000 3.20900 47.96000
H  49.05900 5.19500 50.12100
H  49.64800 3.18400 50.64300
H  49.33900 1.78200 49.50800
H  48.13400 2.28100 50.73000
H  49.71800 6.71400 47.95700
H  49.50300 5.27900 47.07000
H  51.76800 5.02100 47.39900
H  51.47200 4.62300 49.20800
H  51.73100 6.26600 48.61900
H  47.31000 10.21600 48.15200
H  47.37800 10.27100 49.87800
H  46.31100 11.40500 49.00300
H  41.85500 9.55800 46.74400
H  37.89300 11.04100 47.79000
H  38.48900 10.78900 49.45400
H  37.98200 9.42500 48.53100

