158

Mg 42.18800 40.96800 26.79700
C  41.45000 43.48000 29.13400
C  43.13300 38.97500 29.41600
C  43.03800 38.58300 24.46900
C  41.38700 43.21500 24.23400
N  42.35100 41.27500 29.04800
C  41.87500 42.35000 29.78300
C  42.02200 42.07400 31.26400
C  42.76200 40.73200 31.28100
C  42.73000 40.28400 29.84300
C  44.19500 40.81900 31.93000
C  40.59700 41.96100 31.91200
C  40.48900 42.70300 33.21300
H  39.85000 41.91800 34.41900
N  42.74600 38.96900 26.93900
C  43.19600 38.38000 28.14200
C  43.53400 37.00100 27.81000
C  43.48700 36.81500 26.39600
C  43.00600 38.10800 25.81100
C  43.86900 35.92000 28.87200
C  43.85600 35.57500 25.57800
O  43.55800 35.51100 24.38100
C  44.42700 34.37100 26.21500
N  42.36900 40.95700 24.62600
C  42.63800 39.82200 23.87500
C  42.44100 40.17400 22.33800
C  41.68400 41.53400 22.32300
C  41.82300 41.92500 23.85700
C  43.87100 40.28400 21.74000
C  40.13600 41.40800 21.96400
C  39.38400 40.20100 22.57700
N  41.74300 42.99800 26.61700
C  41.31800 43.71300 25.53100
C  40.93900 45.03400 25.98900
C  40.94200 45.03800 27.41700
C  41.37500 43.72600 27.74500
C  40.53100 46.19400 25.21100
C  40.76400 45.84000 28.66000
O  40.46900 46.99600 28.81800
C  40.88500 44.73500 29.73200
C  41.73600 45.35000 30.81600
O  42.90800 45.49400 30.81100
O  40.88900 45.89200 31.74100
C  41.59800 46.34000 33.02600
H  43.38700 38.31700 30.25000
H  43.09700 37.89900 23.62000
H  41.21700 43.95000 23.44600
H  42.59200 42.87000 31.74300
H  42.09400 40.06900 31.83000
H  44.33800 40.08500 32.72300
H  44.54300 41.82600 32.15900
H  44.93900 40.48100 31.20800
H  40.33300 40.92700 32.13200
H  39.89400 42.41300 31.21200
H  39.91100 43.60500 33.01000
H  41.48900 43.03100 33.49700
H  44.93100 35.73900 28.70500
H  43.34300 34.96600 28.86400
H  43.75900 36.36000 29.86300
H  43.94300 34.05800 27.14000
H  45.49600 34.51600 26.36900
H  44.42600 33.50800 25.54900
H  41.97400 39.38000 21.75400
H  42.11200 42.32700 21.70800
H  43.94600 39.46400 21.02600
H  44.65700 40.30800 22.49400
H  44.05300 41.18200 21.15100
H  40.16000 41.44800 20.87500
H  39.61400 42.35300 22.11300
H  38.86800 39.66000 21.78400
H  38.54700 40.55700 23.17900
H  39.96300 39.69100 23.34600
H  39.79600 46.69100 25.84400
H  40.03600 45.88300 24.29100
H  41.39600 46.83000 25.02300
H  39.90800 44.52500 30.16700
H  41.91600 45.61900 33.77900
H  40.97200 46.98400 33.64400
H  42.43800 46.97900 32.75300
Mg 0.08000 43.63700 25.60800
C  2.00900 43.92600 28.33500
C  -2.78500 43.43000 27.54000
C  -1.66200 42.78000 22.83400
C  3.03100 43.98100 23.65600
N  -0.38700 43.79800 27.68800
C  0.58800 43.88300 28.65800
C  0.01800 43.94700 30.07800
C  -1.48800 43.62000 29.79700
C  -1.59200 43.66400 28.23700
C  -2.12000 42.39200 30.44200
C  0.28400 45.34500 30.76300
C  0.84000 45.31400 32.20300
H  0.44000 44.15600 33.17600
N  -1.94400 43.18600 25.21100
C  -2.99900 43.14100 26.16400
C  -4.23100 42.64900 25.52100
C  -3.88600 42.48900 24.14100
C  -2.44100 42.70300 24.01600
C  -5.49100 42.46600 26.35100
C  -4.83300 42.02500 22.96100
O  -4.43600 41.88700 21.76400
C  -6.21000 41.84200 23.15700
N  0.62100 43.43300 23.52800
C  -0.29900 43.18200 22.58500
C  0.41500 43.11000 21.20000
C  1.68900 44.00200 21.40300
C  1.80500 43.83000 22.92600
C  0.56500 41.67900 20.71600
C  1.60400 45.47600 20.80300
C  1.47000 46.77700 21.69700
N  2.11300 43.93800 25.88000
C  3.15300 44.01000 25.01800
C  4.43300 44.12600 25.77300
C  4.03600 44.08500 27.13200
C  2.63800 44.03500 27.07800
C  5.87700 44.18200 25.28400
C  4.46900 44.04000 28.51800
O  5.55600 43.99300 29.07200
C  3.11100 43.93600 29.40700
C  3.11000 42.65300 30.29300
O  3.12900 41.45100 29.96500
O  3.50500 43.11400 31.52400
C  3.83800 42.12800 32.50600
H  -3.70200 43.37700 28.13100
H  -2.16500 42.52900 21.89800
H  3.95300 44.16100 23.09800
H  0.42100 43.09300 30.62400
H  -2.02600 44.48700 30.18100
H  -2.19900 41.67700 29.62300
H  -3.10500 42.76300 30.72400
H  -1.56700 41.90500 31.24400
H  -0.59000 45.98700 30.66000
H  0.90500 45.96600 30.11800
H  0.60200 46.26500 32.68000
H  1.90900 45.17400 32.04300
H  -5.36200 41.54500 26.92100
H  -6.39000 42.41800 25.73600
H  -5.70300 43.14800 27.17400
H  -6.68300 41.56900 22.21300
H  -6.65800 42.78600 23.46700
H  -6.29800 41.00300 23.84700
H  -0.20100 43.56700 20.42500
H  2.55200 43.48100 20.98800
H  0.26700 40.93500 21.45500
H  1.54700 41.41300 20.32500
H  -0.19700 41.47400 19.96400
H  0.80200 45.49600 20.06600
H  2.54300 45.55500 20.25500
H  1.80900 46.55700 22.70900
H  0.42500 47.08300 21.74600
H  2.16300 47.49000 21.25200
H  6.06500 43.27300 24.71300
H  6.60300 44.34200 26.08100
H  6.11000 45.01400 24.61900
H  3.04100 44.82300 30.03600
H  3.44000 41.12400 32.35600
H  3.54100 42.57000 33.45700
H  4.92400 42.17400 32.57600

