158

Mg 24.02400 -5.04800 45.77500
C  25.98500 -2.50100 44.34600
C  21.46200 -4.04900 43.73100
C  22.55200 -8.03300 46.12600
C  26.95700 -6.31000 47.14500
N  23.74900 -3.39800 44.24200
C  24.67700 -2.41800 43.91100
C  24.06500 -1.45200 42.96000
C  22.51800 -1.74200 43.17500
C  22.56800 -3.13800 43.78100
C  21.78000 -0.79900 44.14700
C  24.59900 -1.62900 41.49200
C  24.80100 -0.27700 40.68600
H  24.75400 -0.21500 39.14800
N  22.18400 -5.86200 45.17900
C  21.32400 -5.30100 44.28600
C  20.19000 -6.14500 44.07700
C  20.39600 -7.27000 44.93200
C  21.81600 -7.11400 45.42200
C  18.98600 -5.88100 43.10500
C  19.33400 -8.34300 45.22800
O  18.20300 -8.31300 44.73900
C  19.64200 -9.50500 46.17300
N  24.67000 -6.88100 46.51200
C  23.82600 -7.94500 46.66800
C  24.51700 -9.16100 47.34700
C  25.92500 -8.64600 47.71500
C  25.87500 -7.15900 47.09100
C  23.78200 -9.67400 48.66900
C  26.98100 -9.57600 47.03000
C  28.27700 -9.83900 47.73000
N  26.03100 -4.47200 45.86800
C  27.11000 -5.05800 46.51800
C  28.24500 -4.25700 46.44900
C  27.86200 -3.30000 45.48100
C  26.51100 -3.47100 45.24600
C  29.66900 -4.54400 47.01600
C  28.35800 -2.08200 44.83800
O  29.42500 -1.59700 44.92300
C  27.18100 -1.55800 43.99600
C  26.93900 -0.05500 44.08500
O  26.56900 0.49900 45.07000
O  27.28700 0.57000 42.92400
C  27.12300 1.99300 43.01700
H  20.61400 -3.69600 43.14000
H  22.15000 -9.04100 46.24400
H  27.83500 -6.69200 47.67100
H  24.31400 -0.47800 43.38200
H  22.00400 -1.85600 42.22100
H  22.32000 0.08700 44.48000
H  21.31100 -1.39600 44.92900
H  20.98500 -0.29400 43.59900
H  23.82300 -2.20000 40.98200
H  25.53700 -2.17400 41.59700
H  25.72400 0.18500 41.03500
H  23.95400 0.32500 41.01300
H  18.86300 -6.63300 42.32600
H  19.24800 -4.96700 42.57200
H  18.05700 -5.70700 43.64900
H  20.06300 -9.31400 47.15900
H  20.13700 -10.21500 45.51000
H  18.70800 -9.97500 46.48200
H  24.52700 -9.91800 46.56200
H  26.27800 -8.52000 48.73900
H  23.28900 -10.64300 48.59500
H  23.02100 -8.93000 48.90600
H  24.45200 -9.71600 49.52800
H  27.20600 -9.21700 46.02600
H  26.52500 -10.56300 46.95700
H  28.53400 -9.15800 48.54100
H  29.09400 -9.63200 47.03900
H  28.29700 -10.84700 48.14500
H  29.95800 -5.57500 46.81400
H  29.65600 -4.47200 48.10400
H  30.36300 -3.84500 46.55000
H  27.50400 -1.87200 43.00400
H  27.68000 2.33900 42.14600
H  27.66600 2.33800 43.89700
H  26.11200 2.39900 43.02500
Mg 25.51400 1.66800 29.73000
C  27.53600 1.74100 32.53000
C  22.74800 2.04700 31.80000
C  23.54500 1.83900 26.97100
C  28.25000 1.00300 27.72600
N  25.24100 1.82700 32.01700
C  26.20600 1.89700 32.94400
C  25.64700 2.02500 34.33100
C  24.05700 1.98600 34.10300
C  23.96600 1.91500 32.56300
C  23.42500 0.73500 34.82700
C  26.17500 3.38000 35.02200
C  26.89900 3.19000 36.40500
H  26.29800 4.10400 37.59800
N  23.46200 1.95800 29.39700
C  22.47500 2.08100 30.42300
C  21.17500 2.13100 29.76500
C  21.39600 2.00200 28.36800
C  22.87000 1.88300 28.17900
C  19.88700 2.30600 30.46500
C  20.33200 1.78900 27.32100
O  20.58800 1.54700 26.18300
C  18.89500 1.82000 27.65300
N  25.78300 1.39700 27.62800
C  24.87400 1.65700 26.65000
C  25.47300 1.69300 25.26500
C  26.98100 1.67100 25.55400
C  27.08700 1.27700 27.05200
C  24.94300 0.62100 24.28400
C  27.75100 2.92200 25.25100
C  27.46300 4.17100 26.09300
N  27.51500 1.37800 30.02500
C  28.47900 1.03400 29.11300
C  29.72400 0.85700 29.76900
C  29.45700 1.13300 31.14500
C  28.00900 1.41300 31.25400
C  31.14200 0.49400 29.14300
C  30.01900 1.27000 32.54600
O  31.18300 1.18400 32.91300
C  28.75800 1.57200 33.42500
C  28.70200 0.36400 34.27600
O  28.04100 -0.60300 34.11800
O  29.36400 0.70300 35.37400
C  29.46900 -0.31900 36.42700
H  21.85500 2.28800 32.38200
H  22.90600 1.94600 26.09200
H  29.05000 0.75400 27.02500
H  26.06700 1.17600 34.87000
H  23.55300 2.84600 34.54300
H  24.00600 -0.16800 35.01700
H  22.72900 0.38300 34.06500
H  22.66600 0.97200 35.57300
H  25.28300 3.97400 35.21900
H  26.82100 4.03000 34.43200
H  27.98100 3.28300 36.30900
H  26.59400 2.20700 36.76300
H  19.37900 3.23500 30.20400
H  20.12200 2.29500 31.53000
H  19.14100 1.51800 30.36300
H  18.61200 2.81800 27.98700
H  18.44600 0.98900 28.19700
H  18.37300 1.62400 26.71700
H  25.24100 2.68600 24.87900
H  27.45600 0.88900 24.96300
H  25.71200 -0.11100 24.03900
H  24.75700 1.13600 23.34200
H  23.97900 0.17000 24.51900
H  27.56700 3.10200 24.19200
H  28.79000 2.59100 25.25800
H  27.95800 3.98600 27.04600
H  26.37700 4.26300 26.09800
H  27.79600 5.07700 25.58500
H  31.93400 0.55600 29.89000
H  31.49600 1.11000 28.31700
H  31.07000 -0.54900 28.83300
H  28.83400 2.48600 34.01300
H  28.57400 -0.06100 36.99200
H  30.38700 -0.24300 37.00900
H  29.42000 -1.34800 36.07100

