158

Mg 1.47700 -1.89400 42.58600
C  5.02000 -1.75000 42.10100
C  1.30500 1.20700 40.93800
C  -1.71400 -2.57600 41.91200
C  1.89100 -5.17200 43.83400
N  2.99000 -0.45900 41.60600
C  4.37800 -0.64300 41.61200
C  5.07900 0.58100 40.83500
C  3.85700 1.59600 40.60400
C  2.65100 0.78500 41.10200
C  4.09000 2.90800 41.42400
C  5.78300 0.16500 39.45200
C  6.55800 1.31300 38.78200
H  6.25500 1.65600 37.29800
N  -0.01500 -0.82300 41.71200
C  0.11100 0.44200 41.11700
C  -1.23600 0.90600 40.80000
C  -2.07900 -0.24100 40.95900
C  -1.28200 -1.30600 41.50800
C  -1.59900 2.27100 40.30200
C  -3.59400 -0.29900 40.62700
O  -4.08200 0.76200 40.30300
C  -4.53500 -1.49800 40.74100
N  0.32300 -3.66600 42.75800
C  -0.98800 -3.63800 42.49300
C  -1.59900 -5.01300 42.84700
C  -0.51200 -5.86400 43.57400
C  0.67400 -4.86200 43.33700
C  -2.94000 -5.07200 43.62000
C  -0.39400 -7.35000 43.05800
C  -0.91800 -8.50700 43.94700
N  3.13700 -3.09000 43.14400
C  3.12400 -4.42200 43.56100
C  4.50900 -4.82300 43.68000
C  5.26000 -3.72800 43.22600
C  4.38400 -2.80200 42.80100
C  4.99300 -6.17700 44.14200
C  6.65700 -3.27800 42.98400
O  7.73600 -3.76700 43.27000
C  6.52300 -2.03700 42.13400
C  7.30900 -0.93100 42.61000
O  8.05300 -0.31800 41.85200
O  7.06000 -0.57100 43.89600
C  7.67000 0.67700 44.35500
H  1.22200 2.20600 40.50600
H  -2.76000 -2.84000 41.74100
H  1.97900 -6.14500 44.32300
H  5.81900 1.03900 41.49200
H  3.78600 1.67500 39.51900
H  3.14200 3.42500 41.57600
H  4.66900 3.66200 40.89200
H  4.59200 2.58600 42.33600
H  5.05200 -0.25500 38.76100
H  6.45300 -0.65200 39.71600
H  7.63700 1.21700 38.90400
H  6.23500 2.15400 39.39600
H  -1.00900 3.05000 40.78500
H  -2.60500 2.65800 40.46000
H  -1.47000 2.27300 39.22000
H  -5.50600 -1.19500 40.35000
H  -4.67700 -1.87200 41.75400
H  -4.20300 -2.27000 40.04600
H  -1.89600 -5.55800 41.95100
H  -0.79700 -5.79200 44.62400
H  -3.32500 -4.07400 43.83400
H  -2.85400 -5.68800 44.51600
H  -3.59600 -5.63300 42.95600
H  0.65500 -7.45600 42.78400
H  -0.99000 -7.47000 42.15400
H  -1.51300 -8.01400 44.71500
H  -0.04900 -8.96700 44.41800
H  -1.44800 -9.22600 43.32200
H  5.26100 -6.77000 43.26800
H  4.12000 -6.64000 44.60300
H  5.80000 -6.01300 44.85500
H  7.04700 -2.28400 41.21100
H  7.22200 1.58000 43.93700
H  8.74600 0.65400 44.18500
H  7.52100 0.70700 45.43400
Mg -4.52300 26.00600 25.92700
C  -2.96000 27.18300 28.90500
C  -6.45800 24.07400 27.82700
C  -5.46300 24.30400 23.16900
C  -2.12200 27.73600 24.09600
N  -4.60300 25.67300 28.10800
C  -4.02600 26.36200 29.16100
C  -4.69700 25.92700 30.51300
C  -5.59400 24.70300 30.14300
C  -5.58000 24.82900 28.60300
C  -5.01700 23.37600 30.70500
C  -5.52200 27.16200 31.06200
C  -5.34800 27.34900 32.60300
H  -4.81600 26.24800 33.50800
N  -5.93200 24.48200 25.49000
C  -6.61000 23.84900 26.44500
C  -7.55900 22.97300 25.79500
C  -7.15000 22.91600 24.40800
C  -6.16900 23.90100 24.24600
C  -8.52100 22.09500 26.59600
C  -7.71800 22.07800 23.27500
O  -7.20400 22.04100 22.11000
C  -8.81800 21.11800 23.47700
N  -3.84300 25.97100 23.91000
C  -4.37300 25.18300 22.92400
C  -3.52100 25.29400 21.66900
C  -2.63900 26.55900 21.88500
C  -2.86600 26.84600 23.38000
C  -2.89800 23.96000 21.23500
C  -3.11600 27.76100 20.98200
C  -2.08300 28.59500 20.10800
N  -2.96500 27.40200 26.34100
C  -2.12900 28.08500 25.47900
C  -1.29400 28.97200 26.24700
C  -1.54000 28.54500 27.59300
C  -2.61600 27.60800 27.58700
C  -0.41800 30.10700 25.67900
C  -1.17200 28.86100 28.94200
O  -0.33400 29.68900 29.34000
C  -2.08500 27.95900 29.86500
C  -1.22600 27.17700 30.77200
O  -0.36700 26.32400 30.50500
O  -1.52700 27.53400 32.01800
C  -0.76400 26.97300 33.12400
H  -7.14100 23.45200 28.41000
H  -5.69100 23.64300 22.33000
H  -1.38300 28.15300 23.40900
H  -3.91000 25.78600 31.25500
H  -6.60300 24.85700 30.52600
H  -3.97000 23.46500 30.99500
H  -5.06300 22.63500 29.90600
H  -5.66100 23.03300 31.51500
H  -6.52000 27.00100 30.65400
H  -5.09100 28.04300 30.58700
H  -6.26200 27.67400 33.10000
H  -4.63200 28.16300 32.71300
H  -8.05100 21.14100 26.83700
H  -9.38300 21.77100 26.01300
H  -8.81100 22.58000 27.52800
H  -9.09200 20.48600 22.63200
H  -9.65600 21.72100 23.82600
H  -8.52900 20.45400 24.29100
H  -4.20000 25.52400 20.84800
H  -1.62600 26.33500 21.55200
H  -1.82200 23.98800 21.40200
H  -3.15800 23.66200 20.21900
H  -3.20400 23.20100 21.95500
H  -3.64300 28.36900 21.71800
H  -3.84400 27.32900 20.29400
H  -1.25800 27.96700 19.76900
H  -1.83000 29.52600 20.61500
H  -2.49700 28.88000 19.14100
H  -0.33100 30.68300 26.60000
H  -1.01400 30.58600 24.90100
H  0.57200 29.76200 25.38000
H  -2.72400 28.67100 30.38800
H  -0.97800 25.91300 33.26200
H  -1.00400 27.47600 34.06100
H  0.28100 27.07600 32.83200

