158

Mg 42.20700 41.19100 26.33700
C  41.60000 43.73300 28.76900
C  43.15500 39.08300 28.62200
C  43.20100 39.11200 23.86500
C  42.06000 43.84600 23.83500
N  42.59300 41.54200 28.42400
C  42.04500 42.49700 29.29000
C  42.05700 42.07200 30.79600
C  42.86200 40.67000 30.63900
C  42.88300 40.40200 29.12900
C  44.26500 40.65200 31.26900
C  40.47500 41.82200 31.21200
C  39.93500 42.67400 32.36700
H  39.32100 42.01500 33.61300
N  42.95400 39.32500 26.27800
C  43.26000 38.55400 27.33600
C  43.73300 37.23400 26.92800
C  43.89000 37.31300 25.51400
C  43.38600 38.60300 25.14100
C  44.14200 36.18800 27.88900
C  44.36900 36.25300 24.53600
O  44.69000 36.38100 23.34900
C  44.66100 34.86400 24.98600
N  42.60000 41.47600 24.08000
C  42.92700 40.39300 23.29800
C  42.84000 40.77100 21.85800
C  42.45600 42.34600 21.87400
C  42.29700 42.55400 23.35000
C  44.16800 40.36200 21.04400
C  41.22500 42.66100 20.99700
C  39.87800 42.64900 21.69400
N  41.80100 43.35000 26.23100
C  41.80300 44.23500 25.14400
C  41.39300 45.50200 25.67400
C  41.25100 45.32800 27.09100
C  41.48800 43.99800 27.36300
C  41.21600 46.79800 24.82800
C  41.02300 46.03100 28.35900
O  40.66500 47.21700 28.56200
C  41.04500 44.96700 29.51200
C  42.04300 45.42400 30.49200
O  43.21900 45.74700 30.34800
O  41.48900 45.71800 31.69700
C  42.12700 46.38500 32.84800
H  43.28000 38.29800 29.37100
H  43.44000 38.38000 23.09000
H  41.93000 44.61700 23.07200
H  42.58400 42.80200 31.40900
H  42.37200 39.85200 31.16700
H  44.98000 40.29700 30.52700
H  44.27100 40.17200 32.24800
H  44.45700 41.71100 31.44000
H  40.50500 40.77700 31.52200
H  39.87300 41.89900 30.30600
H  39.18100 43.33300 31.93600
H  40.72500 43.33500 32.72500
H  43.63200 35.26700 27.60600
H  43.98000 36.42400 28.94000
H  45.20900 36.13600 27.67000
H  45.57200 34.89100 25.58500
H  45.00400 34.22800 24.17000
H  43.87700 34.25000 25.42800
H  41.98500 40.19100 21.50900
H  43.29600 42.93100 21.50000
H  44.46200 41.15300 20.35400
H  44.02700 39.41100 20.53000
H  44.96700 40.22800 21.77400
H  41.10100 41.98300 20.15300
H  41.35400 43.68100 20.63400
H  39.89300 42.24400 22.70600
H  39.24200 42.04000 21.05100
H  39.47300 43.66000 21.64400
H  42.21200 47.21700 24.68300
H  40.57100 47.43800 25.43000
H  40.76300 46.66700 23.84600
H  40.08800 44.79000 30.00400
H  43.21600 46.44100 32.82200
H  41.71800 45.85400 33.70800
H  41.69700 47.37600 32.70800
Mg 27.12200 50.06900 26.83100
C  24.86900 51.15100 29.32900
C  29.29600 49.12000 29.13500
C  29.15000 49.55700 24.29300
C  24.68100 51.44200 24.52200
N  27.17400 50.19400 28.99700
C  26.07900 50.54400 29.79500
C  26.38900 50.20900 31.34200
C  27.88000 49.82000 31.24500
C  28.13900 49.59800 29.70800
C  28.82400 50.95400 31.77700
C  25.40200 49.05100 31.89700
C  24.68500 49.34300 33.27200
H  25.40200 50.36800 34.25300
N  29.01400 49.47200 26.67600
C  29.75200 49.08300 27.75900
C  31.03900 48.60200 27.23900
C  31.01800 48.82300 25.88600
C  29.71400 49.30300 25.56100
C  32.23300 48.20600 28.15500
C  32.18200 48.57100 24.78200
O  32.03100 48.82900 23.59600
C  33.48600 48.10500 25.23600
N  26.90200 50.49100 24.69700
C  27.90700 50.05200 23.90600
C  27.49300 50.19700 22.44700
C  26.15200 50.95400 22.53100
C  25.87000 50.87900 24.01600
C  28.45200 50.82800 21.45500
C  24.93600 50.48900 21.57600
C  24.92200 51.19600 20.20100
N  25.24800 51.24100 26.85500
C  24.40600 51.64200 25.84300
C  23.28800 52.30800 26.37700
C  23.38800 52.07800 27.77900
C  24.62800 51.42000 27.94600
C  22.11500 52.91500 25.61000
C  22.73900 52.30600 29.16000
O  21.75300 52.85000 29.45400
C  23.63700 51.52400 30.14000
C  23.92300 52.51800 31.26400
O  24.88100 53.24300 31.36300
O  22.86500 52.53500 32.19300
C  22.96500 53.56700 33.22300
H  30.09200 48.79000 29.80600
H  29.77500 49.34900 23.42200
H  24.12000 52.11900 23.87500
H  26.30500 51.11900 31.93700
H  28.10300 48.93000 31.83400
H  29.56800 51.30100 31.06000
H  29.32900 50.55500 32.65700
H  28.24400 51.80100 32.14200
H  25.98300 48.13000 31.94600
H  24.56300 48.95700 31.20700
H  24.54700 48.45200 33.88600
H  23.73700 49.73500 32.90500
H  32.24200 48.40600 29.22600
H  33.06300 48.86200 27.89400
H  32.51500 47.16600 27.98800
H  34.05700 47.78400 24.36500
H  33.53200 47.22600 25.88000
H  33.97000 48.93800 25.74700
H  27.29900 49.18800 22.08300
H  26.29700 52.00600 22.28600
H  29.50000 50.83000 21.75500
H  28.12800 51.84600 21.23600
H  28.52000 50.29200 20.50800
H  23.97600 50.76900 22.00800
H  24.92700 49.41100 21.41600
H  25.71900 51.92700 20.07100
H  23.92300 51.59700 20.03000
H  25.04300 50.51900 19.35600
H  21.55900 52.34400 24.86700
H  22.52000 53.73900 25.02300
H  21.31600 53.11600 26.32300
H  23.10700 50.63700 30.48900
H  21.99200 53.62100 33.71100
H  23.13600 54.58400 32.87100
H  23.65600 53.35200 34.03800

