158

Mg 17.12800 -2.19300 28.11700
C  15.88200 -0.03100 30.44800
C  19.06800 -3.60400 30.58300
C  18.81900 -3.93500 25.90800
C  15.64200 -0.37800 25.67400
N  17.57100 -1.73100 30.20400
C  16.75300 -0.97200 30.96700
C  17.04800 -1.14800 32.42100
C  18.33400 -1.96700 32.43200
C  18.39200 -2.46300 31.01400
C  19.61200 -1.15500 32.77700
C  15.87700 -1.68800 33.33600
C  15.78200 -1.48000 34.88900
H  17.00700 -0.80300 35.67800
N  18.46000 -3.77700 28.26400
C  19.14300 -4.20900 29.33700
C  19.83200 -5.38700 29.06500
C  19.80400 -5.56200 27.62600
C  18.97200 -4.40600 27.22700
C  20.48200 -6.20700 30.13600
C  20.45600 -6.55500 26.66400
O  20.44300 -6.53000 25.44300
C  21.23500 -7.65700 27.22600
N  17.24000 -2.15300 26.15200
C  17.96200 -3.01000 25.40100
C  17.75600 -2.74900 23.85400
C  16.67700 -1.60000 23.88000
C  16.47800 -1.39900 25.31600
C  19.15700 -2.49100 23.07500
C  15.46700 -1.80400 22.84100
C  15.23700 -0.57100 21.90600
N  15.93200 -0.58100 27.99500
C  15.31900 0.03800 26.95800
C  14.43600 1.11200 27.40700
C  14.70600 1.12200 28.79600
C  15.56500 0.06600 29.09100
C  13.62600 1.98900 26.55100
C  14.35300 1.83000 30.03900
O  13.74400 2.91900 30.17100
C  15.08900 1.00600 31.19900
C  16.04400 1.98200 31.70400
O  17.01100 2.39800 31.12700
O  15.56900 2.52400 32.87600
C  16.47000 3.40300 33.56400
H  19.60600 -4.05000 31.42200
H  19.34700 -4.59300 25.21500
H  15.04700 0.24600 25.00400
H  17.29900 -0.17800 32.85100
H  18.18500 -2.71600 33.21000
H  20.36000 -1.56900 32.10000
H  20.08900 -1.35400 33.73600
H  19.47300 -0.07700 32.70700
H  15.81400 -2.77000 33.22000
H  14.87200 -1.32200 33.12800
H  15.52700 -2.42800 35.36200
H  14.92400 -0.82500 35.04300
H  20.47600 -5.83500 31.16100
H  21.50300 -6.46400 29.85500
H  19.98400 -7.17600 30.14100
H  22.10500 -7.27100 27.75800
H  21.61400 -8.19500 26.35800
H  20.52900 -8.27500 27.78200
H  17.26200 -3.65600 23.50700
H  17.28500 -0.73600 23.61100
H  19.37400 -1.42400 23.03500
H  18.98900 -2.91800 22.08600
H  19.98600 -2.97100 23.59600
H  14.56900 -1.82900 23.45800
H  15.59000 -2.75000 22.31400
H  14.38200 -0.00200 22.26900
H  15.10500 -0.92300 20.88300
H  16.10600 0.08600 21.94700
H  14.22600 2.84400 26.24000
H  12.77500 2.29300 27.16000
H  13.23700 1.37400 25.73900
H  14.52300 0.70900 32.08200
H  16.98500 2.77800 34.29300
H  15.76800 4.10600 34.01100
H  17.22100 3.94300 32.98700
Mg -4.93300 24.93900 25.46700
C  -3.35800 26.41000 28.21500
C  -6.40000 22.74600 27.60800
C  -6.37100 23.49100 22.73000
C  -2.93200 26.89300 23.23700
N  -4.59400 24.39000 27.67400
C  -4.14600 25.29100 28.58300
C  -4.73800 24.93700 30.05000
C  -5.33400 23.47800 29.87200
C  -5.48100 23.50600 28.29500
C  -4.48700 22.33400 30.44100
C  -5.64100 26.07000 30.59300
C  -5.40400 26.63300 32.04600
H  -5.10300 25.51200 33.09300
N  -6.20000 23.37300 25.18600
C  -6.76100 22.59700 26.20200
C  -7.87900 21.82000 25.69300
C  -7.81500 21.98800 24.34500
C  -6.68400 22.95200 24.03100
C  -8.83300 20.96900 26.52200
C  -8.78200 21.41600 23.23900
O  -8.59800 21.63800 22.07000
C  -9.93600 20.52200 23.61000
N  -4.65600 25.11700 23.30900
C  -5.39700 24.45000 22.39700
C  -5.18300 24.96400 20.92600
C  -4.01900 25.98900 21.07100
C  -3.82900 26.04600 22.62200
C  -4.98000 23.72100 20.07800
C  -4.11000 27.38100 20.30600
C  -5.37700 28.19000 20.74600
N  -3.43000 26.21600 25.62000
C  -2.76000 27.02200 24.66200
C  -1.89000 28.00700 25.31300
C  -2.03400 27.73900 26.72600
C  -3.02200 26.71500 26.85400
C  -1.07700 29.11700 24.73300
C  -1.64200 28.19100 28.07600
O  -0.87000 29.03600 28.44200
C  -2.52500 27.36700 29.08100
C  -1.62000 26.55600 29.98100
O  -1.27900 25.39700 29.83200
O  -1.21200 27.31100 31.06900
C  -0.57800 26.65600 32.17200
H  -6.93100 22.05000 28.25900
H  -6.99000 23.26400 21.85900
H  -2.24400 27.47700 22.62100
H  -3.88000 24.94900 30.72200
H  -6.31400 23.45100 30.34800
H  -3.50500 22.66900 30.77500
H  -4.49300 21.58800 29.64700
H  -5.06600 21.96500 31.28700
H  -6.70300 25.82300 30.61100
H  -5.44100 26.90800 29.92600
H  -6.32900 27.10900 32.37200
H  -4.52000 27.27100 32.03700
H  -9.81800 21.39500 26.71100
H  -8.38400 20.77200 27.49600
H  -8.98000 19.99300 26.05900
H  -10.61500 20.96300 24.34000
H  -9.61300 19.57600 24.04600
H  -10.41400 20.20000 22.68500
H  -6.07500 25.41800 20.49300
H  -3.06700 25.57700 20.73800
H  -4.42400 22.97500 20.64500
H  -4.31100 24.02200 19.27100
H  -5.91200 23.30900 19.69100
H  -4.14500 27.07000 19.26200
H  -3.14600 27.84300 20.51900
H  -6.11400 28.22600 19.94500
H  -5.26100 29.25200 20.96100
H  -5.79800 27.64800 21.59400
H  -1.23000 30.04300 25.28600
H  -1.38100 29.37900 23.72000
H  -0.02200 28.85900 24.83100
H  -3.10300 28.06700 29.68400
H  -0.15300 25.70100 31.86300
H  -1.31000 26.65400 32.97900
H  0.24400 27.32700 32.42300

