158

Mg 0.26700 7.93200 26.81100
C  1.20800 9.92900 29.56600
C  -0.26600 5.44100 29.06300
C  -0.46300 6.00600 24.15700
C  0.77900 10.60800 24.67200
N  0.44900 7.74500 29.06700
C  0.75000 8.70100 29.98900
C  0.71500 8.08700 31.42600
C  0.57100 6.52400 31.15900
C  0.12600 6.57500 29.67500
C  1.83500 5.68900 31.40200
C  -0.39600 8.70100 32.40800
C  0.08500 8.59400 33.88200
H  -0.59000 7.46100 34.76800
N  -0.26800 6.02100 26.66300
C  -0.38000 5.11700 27.66900
C  -0.75100 3.84000 27.09800
C  -0.73400 3.94300 25.66500
C  -0.41700 5.38300 25.42300
C  -1.15300 2.74200 27.99200
C  -1.05200 2.93400 24.61700
O  -0.97400 3.21400 23.41900
C  -1.49000 1.53200 24.92800
N  0.33600 8.28300 24.69000
C  -0.17100 7.30700 23.82800
C  -0.34100 7.85600 22.36500
C  -0.13000 9.37000 22.65100
C  0.43900 9.43300 24.09300
C  0.68900 7.30400 21.43600
C  -1.40400 10.18500 22.37600
C  -1.52500 10.66100 20.90100
N  1.03800 9.82000 27.00700
C  1.19600 10.83400 26.03100
C  1.68800 12.02200 26.68700
C  1.84800 11.72600 28.08800
C  1.31300 10.41700 28.21200
C  1.90700 13.46300 26.02800
C  2.12600 12.23200 29.38800
O  2.56500 13.34900 29.70600
C  1.67100 11.17600 30.41700
C  2.75900 10.89400 31.37900
O  3.75200 10.27800 31.15500
O  2.43700 11.40700 32.57900
C  3.25100 11.13700 33.70800
H  -0.49200 4.54800 29.65000
H  -0.72500 5.51000 23.22000
H  0.77500 11.46300 23.99200
H  1.68900 8.34100 31.84500
H  -0.24500 6.11000 31.75100
H  1.51400 4.84200 32.00900
H  2.63100 6.17900 31.96400
H  2.24500 5.31800 30.46300
H  -1.30100 8.10800 32.27500
H  -0.66200 9.72600 32.15100
H  0.01600 9.61600 34.25600
H  1.15600 8.45800 34.03000
H  -2.19500 2.93300 28.25200
H  -0.52900 2.71500 28.88600
H  -1.24700 1.72000 27.62700
H  -1.70600 1.03100 23.98400
H  -2.41800 1.65100 25.48700
H  -0.69100 1.11100 25.53900
H  -1.31300 7.72600 21.88900
H  0.71600 9.65700 22.02600
H  0.94700 8.09700 20.73400
H  0.31000 6.51000 20.79200
H  1.56300 7.04800 22.03500
H  -1.43400 10.98900 23.11200
H  -2.27100 9.53300 22.48800
H  -2.37800 10.12500 20.48400
H  -0.59200 10.52200 20.35500
H  -1.81900 11.70700 20.81900
H  1.01100 14.06700 25.88500
H  2.33100 13.34400 25.03000
H  2.59300 14.06200 26.62600
H  0.82400 11.46700 31.03700
H  3.93400 10.29700 33.57700
H  2.54600 10.80000 34.46800
H  3.79000 12.05200 33.95600
Mg 2.14600 42.15800 25.08900
C  3.14800 42.24200 28.49000
C  -0.66000 40.36500 26.06300
C  1.65100 41.20700 21.98300
C  5.35400 43.37500 24.37000
N  1.32100 41.51000 27.08500
C  1.85700 41.67400 28.32400
C  0.82800 41.38000 29.45100
C  -0.27800 40.59000 28.63300
C  0.08700 40.86600 27.13900
C  -0.39100 39.08600 28.94200
C  0.33700 42.70500 30.11000
C  -0.05900 42.66400 31.63200
H  -0.24000 41.34000 32.36000
N  0.56100 41.14800 24.12600
C  -0.50600 40.44400 24.71100
C  -1.36400 39.91300 23.69600
C  -0.66700 40.13500 22.52200
C  0.57700 40.84900 22.84900
C  -2.79000 39.35700 23.98600
C  -1.11900 39.77300 21.10800
O  -0.53700 40.05600 20.07400
C  -2.43100 39.02200 20.94100
N  3.27700 42.43400 23.37200
C  2.83500 41.93600 22.19900
C  3.86600 42.26000 21.04700
C  4.88400 43.11400 21.85300
C  4.50900 43.03300 23.31000
C  4.44000 41.08800 20.20200
C  4.96500 44.54400 21.24400
C  3.75100 45.43200 21.55500
N  3.85500 42.82800 26.17800
C  5.09700 43.29800 25.72600
C  6.02000 43.56400 26.75500
C  5.27200 43.15000 27.88600
C  4.00300 42.70400 27.51600
C  7.42300 44.08200 26.58600
C  5.38000 42.91500 29.29000
O  6.40500 42.88200 30.01800
C  3.90100 42.43200 29.79100
C  4.08200 41.28000 30.67000
O  4.30400 40.14900 30.36900
O  3.98600 41.69300 31.99800
C  4.10400 40.62100 32.97200
H  -1.56200 39.88100 26.44300
H  1.66100 40.88700 20.93900
H  6.29500 43.78200 23.99400
H  1.37700 40.81700 30.20600
H  -1.28200 40.99900 28.74500
H  -0.02500 38.97200 29.96200
H  0.19900 38.46700 28.26600
H  -1.42700 38.74800 28.90900
H  -0.62100 43.04100 29.71100
H  1.13600 43.43900 30.00300
H  -0.91200 43.30700 31.84700
H  0.72500 43.08000 32.26500
H  -2.96800 38.42600 23.44900
H  -3.52300 40.02800 23.53800
H  -3.14500 39.26900 25.01200
H  -2.38400 38.06200 21.45500
H  -2.59200 38.81700 19.88200
H  -3.18300 39.68000 21.37500
H  3.38800 42.94700 20.34900
H  5.87700 42.69600 21.68700
H  4.12600 40.15200 20.66400
H  5.49900 41.10400 19.94400
H  4.08400 41.06900 19.17200
H  5.03300 44.43400 20.16200
H  5.78900 45.10400 21.68600
H  4.01700 46.16400 22.31800
H  3.05500 44.79300 22.09700
H  3.29100 45.97700 20.73100
H  8.09900 43.23100 26.50000
H  7.67000 44.61800 27.50200
H  7.47700 44.61400 25.63600
H  3.44300 43.21100 30.40000
H  5.14700 40.44800 33.24100
H  3.67600 39.64900 32.72500
H  3.65200 40.83400 33.94000

