158

Mg 25.73800 1.74700 29.55400
C  27.75300 1.15500 32.49100
C  23.14300 2.12800 31.53400
C  23.89100 1.66100 26.76300
C  28.58600 0.57300 27.63800
N  25.55900 1.65400 31.77300
C  26.42100 1.53500 32.82000
C  25.75300 1.70700 34.21200
C  24.31800 1.72300 33.79800
C  24.29900 1.86900 32.23800
C  23.36300 0.56900 34.40100
C  26.22500 3.00400 35.07400
C  26.65500 2.72700 36.41500
H  26.57600 3.73000 37.54000
N  23.74800 2.18000 29.18200
C  22.83200 2.32100 30.12900
C  21.53500 2.55200 29.49000
C  21.71500 2.35100 28.07800
C  23.15500 1.96900 27.99300
C  20.32500 2.96500 30.27100
C  20.74500 2.45900 26.91600
O  21.12300 2.27700 25.76500
C  19.32500 2.76000 27.14200
N  26.14300 1.02300 27.58200
C  25.21800 1.27200 26.56800
C  25.87100 1.23900 25.14500
C  27.40300 1.09600 25.47300
C  27.40900 0.79700 26.97000
C  25.23700 0.19600 24.10400
C  28.28900 2.29800 24.95500
C  28.82700 2.23000 23.58600
N  27.73000 0.98700 29.96600
C  28.75000 0.61300 29.07500
C  29.99800 0.47100 29.84400
C  29.61300 0.61800 31.14500
C  28.25400 0.87200 31.22500
C  31.33900 0.04700 29.23400
C  30.13100 0.50000 32.52200
O  31.24600 0.24900 32.99700
C  28.92300 0.96900 33.39800
C  28.72000 -0.05600 34.46800
O  27.90500 -0.92900 34.55200
O  29.64700 0.20100 35.45800
C  29.51200 -0.58700 36.66100
H  22.26600 1.86200 32.12800
H  23.31900 1.79600 25.84200
H  29.40900 0.36400 26.95100
H  25.94300 0.83800 34.84200
H  23.87700 2.63300 34.20400
H  23.96800 -0.30400 34.64900
H  22.56200 0.28800 33.71700
H  23.01900 0.96600 35.35600
H  25.47500 3.79500 35.06400
H  27.11500 3.19500 34.47400
H  27.72900 2.68000 36.23500
H  26.39100 1.72300 36.74800
H  19.98300 3.95600 29.97200
H  20.62800 2.90200 31.31600
H  19.42400 2.36800 30.12900
H  18.77800 2.52900 26.22800
H  19.06300 3.77700 27.43100
H  18.92500 2.01200 27.82800
H  25.61600 2.17900 24.65700
H  27.74000 0.23100 24.90300
H  24.22400 -0.07000 24.40600
H  25.87300 -0.68000 23.98200
H  25.13200 0.69100 23.13800
H  29.00800 2.69100 25.67400
H  27.50200 3.02900 24.76800
H  28.60300 1.28200 23.09700
H  29.89200 2.44100 23.68200
H  28.50000 3.14200 23.08600
H  31.35400 -0.74100 28.48100
H  31.87700 -0.39900 30.07100
H  31.99600 0.86900 28.95000
H  29.04000 1.89200 33.96600
H  28.45800 -0.62900 36.93400
H  30.19100 -0.14700 37.39200
H  29.87000 -1.58500 36.40900
Mg 26.92100 50.18500 26.89600
C  25.08800 51.52600 29.40100
C  29.31400 49.49600 29.12500
C  28.97300 49.37700 24.25500
C  24.41800 51.19400 24.44300
N  27.11900 50.49500 29.00100
C  26.17000 50.92500 29.83000
C  26.46700 50.47100 31.26500
C  27.94800 50.08000 31.23400
C  28.17400 49.98100 29.73100
C  28.88900 51.09400 31.95100
C  25.46300 49.37000 31.88100
C  24.84800 49.81100 33.23200
H  25.28200 49.13200 34.47200
N  28.85600 49.58400 26.75000
C  29.67900 49.33400 27.77000
C  30.89100 48.71800 27.31700
C  30.90000 48.76400 25.86300
C  29.56200 49.26000 25.55400
C  31.98900 48.19700 28.27500
C  31.92400 48.45500 24.85100
O  31.78300 48.60800 23.67700
C  33.29600 48.04800 25.37300
N  26.69300 50.28200 24.66800
C  27.75300 49.83600 23.87100
C  27.35600 49.82500 22.39400
C  25.89900 50.38900 22.41300
C  25.62200 50.62900 23.91300
C  28.24200 50.71300 21.51200
C  24.78400 49.46800 21.84900
C  24.79400 49.42800 20.36600
N  25.11500 51.24700 26.85600
C  24.18100 51.47100 25.82200
C  23.10000 52.19200 26.44100
C  23.37400 52.12100 27.82900
C  24.63100 51.58900 28.02700
C  21.91300 52.76800 25.73300
C  22.77800 52.47500 29.15100
O  21.64700 52.86500 29.53100
C  23.91000 52.11000 30.31300
C  24.43100 53.29900 30.86200
O  25.08100 54.10100 30.26700
O  23.99700 53.52300 32.14000
C  24.36500 54.76900 32.83400
H  29.96300 49.04500 29.87900
H  29.70000 49.02000 23.52300
H  23.66500 51.45900 23.69800
H  26.30800 51.39000 31.83000
H  28.01600 49.01000 31.42900
H  29.73400 51.38400 31.32700
H  29.07300 50.54500 32.87400
H  28.43100 52.05400 32.18900
H  25.99000 48.42400 32.00300
H  24.68600 49.15600 31.14600
H  23.76700 49.78800 33.09900
H  24.96900 50.87800 33.42300
H  32.95000 48.67100 28.07600
H  32.08700 47.15700 27.96500
H  31.94400 48.26600 29.36200
H  33.98400 47.88000 24.54400
H  33.30200 47.19800 26.05500
H  33.71500 48.90400 25.90100
H  27.42900 48.80500 22.01800
H  25.89900 51.33600 21.87300
H  29.13200 51.06200 22.03600
H  27.78500 51.51200 20.92900
H  28.62200 49.97000 20.81200
H  23.79200 49.63600 22.26800
H  25.12100 48.48800 22.18700
H  24.92600 48.38800 20.06800
H  25.64500 49.86400 19.84100
H  23.93400 49.93300 19.92600
H  21.50200 52.10000 24.97700
H  22.10400 53.71500 25.22700
H  21.15500 52.92200 26.50100
H  23.46300 51.54600 31.13100
H  24.82500 55.57600 32.26400
H  25.11300 54.52500 33.58800
H  23.58100 55.34400 33.32600

