158

Mg 8.41200 3.15900 27.03600
C  9.86300 1.85300 29.83600
C  6.64300 5.35800 28.98400
C  6.92900 4.23800 24.19000
C  10.11700 0.70500 25.09800
N  8.14000 3.44800 29.20600
C  8.88000 2.85600 30.17700
C  8.66800 3.51600 31.49300
C  7.64700 4.60200 31.18400
C  7.44600 4.48500 29.71100
C  6.42300 4.50100 32.09500
C  10.06800 4.05800 32.10000
C  10.33800 3.78500 33.63300
H  10.26100 4.82400 34.70500
N  6.85800 4.49700 26.63200
C  6.23100 5.28000 27.58900
C  5.34900 6.18400 26.90500
C  5.41600 5.98800 25.49600
C  6.41200 4.81600 25.36700
C  4.54800 7.28200 27.67800
C  4.74400 6.59400 24.29200
O  5.05900 6.29000 23.18000
C  3.54500 7.45900 24.43800
N  8.59100 2.56300 25.01600
C  7.95800 3.23300 23.99200
C  8.29200 2.81400 22.51400
C  9.23100 1.58700 22.81100
C  9.37300 1.66600 24.40700
C  7.07300 2.42100 21.57200
C  10.52600 1.54500 21.98000
C  10.56300 0.71800 20.65000
N  9.74700 1.53200 27.36300
C  10.36300 0.66800 26.47400
C  11.12300 -0.26800 27.29400
C  11.01700 0.19300 28.60800
C  10.16200 1.32400 28.58800
C  11.99300 -1.37900 26.71600
C  11.43800 -0.03100 29.95800
O  12.19600 -0.91500 30.40000
C  10.66300 0.99500 30.82800
C  9.90100 0.20500 31.90100
O  8.83900 -0.32300 31.76200
O  10.56700 0.26300 33.07300
C  9.89300 -0.33300 34.24500
H  6.24200 6.05300 29.72400
H  6.72700 4.72800 23.23500
H  10.50600 -0.14100 24.52800
H  8.20000 2.79700 32.16500
H  8.08700 5.59800 31.22800
H  5.46800 4.60300 31.58000
H  6.49300 5.40000 32.70800
H  6.42600 3.60100 32.70900
H  10.06100 5.14000 31.97000
H  10.89300 3.84900 31.41900
H  11.32300 3.31900 33.59100
H  9.61500 3.03900 33.96300
H  4.85000 7.45000 28.71200
H  3.51300 6.94100 27.67100
H  4.67800 8.29100 27.28500
H  2.79600 6.93800 25.03400
H  3.20300 7.74800 23.44500
H  3.90600 8.36600 24.92400
H  8.84800 3.71400 22.25300
H  8.61400 0.71100 22.61200
H  6.14000 2.31400 22.12500
H  7.17900 1.50000 20.99800
H  6.94600 3.21800 20.83900
H  11.27400 1.08400 22.62600
H  10.87200 2.56600 21.81800
H  11.26700 1.10100 19.91100
H  9.59700 0.45800 20.21500
H  10.93300 -0.26700 20.93300
H  12.99100 -1.41200 27.15300
H  12.13200 -1.32500 25.63700
H  11.48500 -2.32500 26.90300
H  11.43200 1.57600 31.33700
H  8.98400 -0.89400 34.02600
H  9.72400 0.42400 35.01200
H  10.51800 -1.13200 34.64400
Mg 30.18700 58.15900 39.55700
C  27.29100 56.38900 38.44500
C  32.07300 55.64100 38.25400
C  33.02800 60.17300 39.35100
C  28.23400 60.90600 40.13200
N  29.63700 56.22600 38.48200
C  28.45100 55.66500 38.22200
C  28.53700 54.24700 37.72500
C  30.09000 54.00700 37.88900
C  30.66600 55.41900 38.19900
C  30.57900 52.96300 38.96300
C  28.02900 54.15900 36.22700
C  28.32900 55.35800 35.24300
H  28.12900 55.16100 33.75200
N  32.25700 57.89300 39.03600
C  32.81400 56.77300 38.53800
C  34.24100 56.85400 38.52100
C  34.52000 58.23400 38.88400
C  33.21300 58.84900 39.09200
C  35.21200 55.72600 38.14400
C  35.90500 58.80900 38.94400
O  36.89000 58.09400 38.67200
C  36.23600 60.22400 39.21500
N  30.55600 60.26700 39.44200
C  31.77900 60.90400 39.50800
C  31.71500 62.38000 39.78600
C  30.20100 62.49500 40.32500
C  29.63800 61.13000 39.95900
C  32.79800 63.05700 40.80700
C  29.38300 63.66800 39.70600
C  28.71500 64.68600 40.50000
N  28.19400 58.62500 39.41400
C  27.49600 59.74900 39.69300
C  26.06900 59.54500 39.63400
C  25.90100 58.23300 39.10100
C  27.26100 57.73100 38.90300
C  25.04800 60.50500 40.11300
C  24.97000 57.24000 38.73100
O  23.73400 57.37100 38.78500
C  25.86800 55.96500 38.24800
C  25.51500 54.79300 39.08400
O  25.59700 54.78200 40.28900
O  24.90000 53.83600 38.26300
C  24.27800 52.76600 39.09800
H  32.57900 54.72500 37.94300
H  33.85600 60.85000 39.57200
H  27.56600 61.69600 40.48200
H  27.94200 53.61100 38.38000
H  30.47400 53.70400 36.91500
H  30.98800 52.06200 38.50500
H  29.64700 52.60800 39.40300
H  31.26600 53.43900 39.66200
H  26.97400 53.94000 36.06000
H  28.62900 53.30900 35.90100
H  29.40200 55.27400 35.41800
H  27.95500 56.25800 35.73000
H  35.93300 55.94100 37.35600
H  34.75500 54.80200 37.79000
H  35.70700 55.44500 39.07300
H  37.31200 60.32100 39.07600
H  35.91700 60.50900 40.21800
H  35.87300 60.97800 38.51700
H  31.74200 62.93500 38.84800
H  30.26200 62.69000 41.39500
H  32.30600 63.52600 41.65900
H  33.44800 63.77000 40.30000
H  33.38500 62.27700 41.29100
H  28.50500 63.29800 39.17600
H  30.00700 64.30100 39.07500
H  29.25200 65.63100 40.58900
H  28.64100 64.24000 41.49200
H  27.70500 64.79500 40.10600
H  24.18900 59.86700 40.32300
H  24.73900 61.35100 39.50000
H  25.57300 60.95100 40.95900
H  25.87200 55.80800 37.16900
H  24.98900 52.33000 39.79900
H  23.96400 51.96700 38.42700
H  23.50600 53.10400 39.78900

