158

Mg 1.71500 -1.43900 43.52000
C  4.98700 -0.68900 42.89900
C  0.77300 1.29300 41.37900
C  -1.50000 -2.58400 43.22400
C  2.65400 -4.53300 44.99300
N  2.77200 0.16000 42.30700
C  4.13300 0.24900 42.21100
C  4.56200 1.37100 41.29500
C  3.21200 2.19700 41.03900
C  2.18400 1.19200 41.62900
C  3.03500 3.52700 41.57800
C  5.33700 0.87800 40.05300
C  6.59700 1.72100 39.58500
H  6.53700 2.37100 38.26000
N  -0.12200 -0.65700 42.62500
C  -0.29400 0.49600 41.85500
C  -1.68900 0.60200 41.61800
C  -2.42300 -0.53600 42.02000
C  -1.31800 -1.29600 42.64300
C  -2.30800 1.84000 40.92600
C  -3.93300 -0.69800 41.98100
O  -4.64700 0.15700 41.41900
C  -4.61600 -1.76700 42.74000
N  0.65200 -3.29000 44.12600
C  -0.65800 -3.50200 43.86600
C  -1.00600 -4.92900 44.33300
C  0.25700 -5.42900 45.07200
C  1.28100 -4.35900 44.71700
C  -2.33800 -5.08200 45.11400
C  0.71700 -6.89400 44.93600
C  0.84500 -7.77000 46.21400
N  3.40000 -2.41200 44.00600
C  3.66900 -3.60100 44.58600
C  5.13000 -3.75000 44.73900
C  5.68700 -2.59200 44.19400
C  4.59600 -1.83700 43.68600
C  5.79300 -5.00100 45.34500
C  6.91500 -1.97400 43.78900
O  8.07300 -2.29200 43.90100
C  6.52300 -0.68800 43.03700
C  7.15500 0.41600 43.81400
O  7.18000 0.64400 45.01200
O  7.70300 1.26600 42.87800
C  8.42400 2.41700 43.42200
H  0.51000 2.03800 40.62500
H  -2.53000 -2.92000 43.36000
H  3.10000 -5.43300 45.42200
H  5.19800 2.02100 41.89600
H  3.13100 2.30900 39.95800
H  3.85400 3.63000 42.28900
H  2.08300 3.65900 42.09300
H  3.07800 4.33700 40.85000
H  4.71000 0.80700 39.16500
H  5.73700 -0.08800 40.36000
H  7.43500 1.03000 39.49300
H  6.74400 2.56400 40.26000
H  -2.90100 1.55700 40.05600
H  -1.53400 2.50700 40.54500
H  -2.99200 2.27600 41.65400
H  -5.70200 -1.69300 42.79800
H  -4.22100 -1.58300 43.73900
H  -4.32400 -2.73900 42.34300
H  -1.10800 -5.48200 43.40000
H  -0.02400 -5.42500 46.12500
H  -3.10300 -5.46100 44.43600
H  -2.70200 -4.11900 45.47200
H  -2.34000 -5.88900 45.84600
H  1.70000 -6.80000 44.47300
H  0.13700 -7.40300 44.16700
H  1.88700 -7.76300 46.53500
H  0.62600 -8.77600 45.85700
H  0.26000 -7.34600 47.03000
H  5.38100 -5.89900 44.88400
H  5.46300 -5.04700 46.38300
H  6.84200 -5.09700 45.06700
H  7.03000 -0.61000 42.07600
H  7.77300 3.08600 43.98300
H  8.80200 2.96600 42.55900
H  9.21000 1.98300 44.04100
Mg 26.06300 -0.70200 29.10000
C  27.65100 -0.60700 32.32400
C  23.06400 -0.33600 30.74600
C  24.67700 -0.47600 26.12700
C  29.32900 -1.35500 27.74600
N  25.38100 -0.59700 31.33000
C  26.29300 -0.44300 32.44800
C  25.50100 -0.09400 33.70600
C  23.99800 -0.09900 33.16300
C  24.11300 -0.35700 31.68100
C  22.98900 -1.14700 33.92900
C  25.91400 1.31200 34.23900
C  25.36300 1.61200 35.61900
H  26.37800 2.01400 36.75800
N  24.09900 -0.61600 28.57600
C  23.02200 -0.43400 29.37600
C  21.85400 -0.36600 28.55200
C  22.29200 -0.28600 27.23300
C  23.75400 -0.46100 27.22100
C  20.43000 -0.22200 29.11600
C  21.38600 -0.07500 25.93500
O  21.84800 -0.09700 24.79800
C  19.95500 0.43600 26.18500
N  26.95200 -0.74700 27.23400
C  26.12600 -0.69100 26.14000
C  26.99300 -0.82800 24.84400
C  28.44000 -1.05000 25.43200
C  28.24100 -1.01300 26.89000
C  26.51800 -1.95100 23.89100
C  29.57700 -0.05200 24.91100
C  29.47600 0.59000 23.54500
N  28.01700 -1.01400 29.83300
C  29.20900 -1.34400 29.10800
C  30.23200 -1.45500 30.03200
C  29.66800 -1.10300 31.30200
C  28.36800 -0.90500 31.13100
C  31.60000 -1.81600 29.72400
C  30.01400 -0.84700 32.69600
O  31.06400 -0.71000 33.23300
C  28.65600 -0.42200 33.41900
C  28.44400 -1.34600 34.61300
O  28.23800 -2.51400 34.51900
O  28.75500 -0.62800 35.70600
C  28.66300 -1.32600 37.03000
H  22.12300 -0.09800 31.24700
H  24.30700 -0.32300 25.11100
H  30.30200 -1.51200 27.27500
H  25.67400 -0.89200 34.42700
H  23.61700 0.86200 33.50900
H  22.03900 -0.79300 34.32900
H  23.55800 -1.43300 34.81300
H  22.79800 -2.07700 33.39400
H  25.54300 2.05100 33.52800
H  26.98300 1.49000 34.34800
H  24.77700 0.74700 35.92900
H  24.68600 2.43800 35.40200
H  19.91200 0.68700 28.81000
H  20.20800 -0.18900 30.18200
H  19.87900 -1.12000 28.83800
H  19.58700 0.77600 25.21800
H  20.04100 1.28400 26.86400
H  19.34900 -0.40800 26.51500
H  26.80600 0.14600 24.39200
H  28.71600 -2.07400 25.17800
H  26.22700 -2.81500 24.49000
H  27.22600 -2.26900 23.12600
H  25.73600 -1.58200 23.22700
H  30.50600 -0.61100 25.02200
H  29.54800 0.79700 25.59400
H  30.41900 0.46900 23.01100
H  29.43100 1.67400 23.65200
H  28.69900 0.21200 22.88000
H  32.26600 -0.99700 29.99600
H  31.70900 -1.98500 28.65200
H  31.93400 -2.71900 30.23400
H  28.76900 0.55000 33.89800
H  27.86500 -0.72600 37.46800
H  29.57000 -1.47800 37.61400
H  28.26400 -2.33200 36.90600

