158

Mg 5.57200 54.12200 40.98300
C  4.61800 50.71500 40.32100
C  8.60300 53.46600 39.60500
C  6.13400 57.48600 41.16300
C  2.31900 54.51100 42.35700
N  6.30900 52.41600 39.81100
C  5.83700 51.14600 39.75600
C  6.78200 50.30400 38.93200
C  8.17900 51.01000 39.21200
C  7.67200 52.37500 39.60600
C  9.12000 50.42800 40.27600
C  6.33700 50.28800 37.42800
C  7.24600 49.39100 36.47300
H  6.30900 48.56600 35.50500
N  7.17900 55.34900 40.36400
C  8.34800 54.84300 39.94400
C  9.29400 55.97400 39.85100
C  8.51800 57.16500 40.09800
C  7.19800 56.72400 40.52900
C  10.65300 55.77900 39.39600
C  9.04100 58.50800 40.06500
O  10.18900 58.74700 39.63100
C  8.25500 59.73700 40.42200
N  4.34000 55.70100 41.48200
C  4.88200 56.95800 41.60000
C  3.93800 57.97100 42.31300
C  2.75600 57.02000 42.79900
C  3.16100 55.63200 42.21100
C  4.61600 58.86000 43.47800
C  1.30100 57.53300 42.33200
C  0.54100 58.30800 43.34500
N  3.72500 52.83300 41.25900
C  2.57800 53.18100 41.98300
C  1.77700 51.94200 42.12200
C  2.60400 50.99700 41.53400
C  3.68600 51.54900 40.96700
C  0.42900 51.81000 42.79600
C  2.51300 49.63100 41.27700
O  1.71500 48.78800 41.64700
C  3.93000 49.37000 40.43500
C  3.50500 48.62200 39.15600
O  2.45300 48.59200 38.50400
O  4.63200 47.87600 38.83200
C  4.70600 46.64000 38.10200
H  9.62200 53.25600 39.27300
H  6.33900 58.54200 41.35200
H  1.40500 54.73000 42.91400
H  6.95700 49.31500 39.35600
H  8.63600 51.11000 38.22800
H  10.12800 50.24600 39.90300
H  8.75000 49.47900 40.66400
H  9.15900 51.10100 41.13300
H  6.44400 51.29200 37.01700
H  5.29400 50.02300 37.25800
H  7.95400 48.62700 36.79100
H  7.82000 50.10900 35.88800
H  11.33000 56.24000 40.11600
H  10.66000 55.98100 38.32500
H  10.87600 54.72700 39.57100
H  8.91200 60.54600 40.10200
H  8.05600 59.74900 41.49400
H  7.37200 59.75300 39.78400
H  3.50700 58.60800 41.54100
H  2.63500 56.83400 43.86600
H  4.19100 58.71000 44.47000
H  4.26100 59.88200 43.34500
H  5.69700 58.73200 43.52600
H  0.72600 56.67400 41.98600
H  1.45000 58.15500 41.45000
H  -0.15200 58.98600 42.84700
H  1.23700 58.88700 43.95200
H  -0.02200 57.56600 43.91100
H  0.01100 50.88200 42.40600
H  -0.19900 52.66200 42.53800
H  0.64000 51.73700 43.86300
H  4.39000 48.65000 41.11100
H  4.15400 45.86000 38.62500
H  5.73800 46.35200 37.90300
H  4.32000 46.90400 37.11700
Mg 1.78300 41.83700 24.51600
C  2.94400 42.06800 27.99600
C  -1.04100 40.66900 25.74500
C  1.13900 41.13200 21.39900
C  4.93600 42.95800 23.70700
N  1.08400 41.46100 26.64200
C  1.63900 41.65500 27.86300
C  0.69900 41.32200 28.98800
C  -0.51600 40.70700 28.31500
C  -0.15100 40.90800 26.76100
C  -0.82000 39.25600 28.72900
C  0.46700 42.50800 29.93000
C  0.30700 42.31000 31.44700
H  -0.28000 41.05200 31.90600
N  0.26700 41.04200 23.67000
C  -0.85900 40.64000 24.28000
C  -1.87900 40.32800 23.34100
C  -1.21900 40.23900 22.09700
C  0.11100 40.87700 22.32400
C  -3.24900 39.86600 23.63400
C  -1.82600 39.76200 20.82400
O  -1.19500 39.73500 19.71300
C  -3.21000 39.27700 20.80200
N  2.89900 41.85100 22.80700
C  2.44600 41.51600 21.63300
C  3.43200 41.69800 20.52400
C  4.59600 42.45800 21.27000
C  4.11500 42.42300 22.68600
C  3.75800 40.39700 19.80600
C  4.83200 43.90800 20.73300
C  3.72600 45.01100 20.90200
N  3.57400 42.41500 25.62200
C  4.75200 42.98100 25.08700
C  5.68000 43.22000 26.09200
C  5.06000 42.76800 27.26600
C  3.75700 42.42200 26.91300
C  7.03100 43.83800 25.99700
C  5.26500 42.55500 28.70900
O  6.20000 42.64200 29.47000
C  3.84200 42.17700 29.21500
C  4.00900 40.82900 29.89100
O  4.77200 39.89400 29.52000
O  3.30200 40.84500 31.07200
C  3.52600 39.68800 31.92100
H  -1.97100 40.28100 26.16700
H  0.80700 41.01300 20.36500
H  5.89100 43.20000 23.23700
H  1.19200 40.53800 29.56200
H  -1.48700 41.17500 28.47700
H  -0.15400 38.92200 29.52400
H  -0.53100 38.68500 27.84700
H  -1.86600 39.25000 29.03800
H  -0.47400 42.96400 29.62300
H  1.14700 43.35600 29.84800
H  -0.31900 43.12400 31.81300
H  1.26100 42.45800 31.95200
H  -3.57500 40.12800 24.64000
H  -3.29000 38.77900 23.55100
H  -4.00000 40.42400 23.07600
H  -3.48500 38.64900 19.95400
H  -3.94800 40.06500 20.65300
H  -3.25600 38.50700 21.57300
H  2.97600 42.32400 19.75700
H  5.50100 41.89700 21.03900
H  3.39300 39.50200 20.30900
H  4.76100 39.99100 19.68000
H  3.58000 40.50500 18.73600
H  5.10200 43.71400 19.69500
H  5.74200 44.26900 21.21400
H  2.73400 44.75200 21.27200
H  3.60200 45.37600 19.88200
H  4.26600 45.69400 21.55700
H  7.61800 43.00000 25.62200
H  7.34200 44.08500 27.01200
H  7.10300 44.66400 25.29000
H  3.58200 42.90200 29.98600
H  3.15600 39.82100 32.93800
H  4.59200 39.50200 32.05400
H  3.10100 38.76800 31.51900

