158

Mg 53.66400 23.83400 44.41900
C  50.87600 25.86000 43.86400
C  51.54000 21.11300 44.52200
C  56.28500 21.78300 44.00400
C  55.72000 26.59000 43.71600
N  51.52100 23.55900 44.07900
C  50.53800 24.45900 43.94400
C  49.16500 23.85600 43.92200
C  49.36900 22.43600 44.29900
C  50.90600 22.37100 44.35200
C  48.71000 22.01400 45.68700
C  48.47800 23.98500 42.57500
C  49.32200 23.71200 41.35100
H  49.13400 24.61200 40.12900
N  53.85000 21.71500 44.24800
C  52.87800 20.80100 44.43100
C  53.43400 19.46400 44.44600
C  54.81400 19.67900 44.35800
C  55.04700 21.12500 44.18800
C  52.71300 18.19000 44.81700
C  55.86000 18.52400 44.54700
O  55.44800 17.37100 44.65100
C  57.34300 18.77900 44.59100
N  55.71100 24.22900 43.72100
C  56.61200 23.17100 43.82600
C  57.98900 23.71400 43.55400
C  57.83800 25.25300 43.43700
C  56.32800 25.35500 43.58800
C  59.12500 23.29200 44.55800
C  58.45500 25.96100 42.14100
C  59.40700 27.18600 42.24000
N  53.40900 25.88400 44.05200
C  54.31900 26.85800 43.79300
C  53.62700 28.15500 43.89100
C  52.30100 27.79000 43.95700
C  52.20500 26.39000 43.95000
C  54.28700 29.54100 43.84800
C  50.98700 28.31100 43.92900
O  50.57200 29.49500 44.00600
C  49.99500 27.13600 43.87100
C  49.25000 27.41800 42.67400
O  49.79500 27.51900 41.58600
O  47.90500 27.64500 42.91900
C  47.13200 28.24700 41.83400
H  50.85200 20.30200 44.77000
H  57.24000 21.26800 43.87300
H  56.37000 27.44700 43.52500
H  48.53200 24.39000 44.63000
H  49.02800 21.72700 43.54400
H  48.52700 22.88300 46.31800
H  49.39600 21.43500 46.30500
H  47.70700 21.61500 45.53800
H  48.14100 25.02100 42.53500
H  47.57900 23.36900 42.54600
H  49.07800 22.69100 41.06000
H  50.38700 23.65700 41.57600
H  53.05400 17.51100 44.03600
H  51.65200 18.42200 44.73200
H  52.95200 17.83100 45.81800
H  57.78600 17.91300 45.08200
H  57.56700 19.66700 45.18300
H  57.76700 18.81500 43.58700
H  58.15200 23.26600 42.57400
H  58.38400 25.63500 44.30000
H  59.42900 24.04300 45.28700
H  60.03600 22.89200 44.11200
H  58.67800 22.45800 45.09800
H  57.65500 26.39900 41.54500
H  58.96400 25.37100 41.37800
H  60.38600 26.82600 41.92400
H  59.59500 27.44100 43.28300
H  59.09400 28.05000 41.65300
H  53.94200 30.12800 42.99700
H  55.37200 29.57400 43.74300
H  53.96300 30.01000 44.77700
H  49.31700 27.10300 44.72400
H  46.98800 27.49800 41.05600
H  47.76600 28.97700 41.33000
H  46.15100 28.63900 42.10000
Mg 47.43700 24.61400 28.94900
C  48.10200 26.79700 31.52900
C  46.38700 22.25600 31.14500
C  47.90300 22.19300 26.59100
C  49.18200 26.87700 26.85200
N  47.11600 24.60000 31.01000
C  47.57000 25.57200 31.91700
C  47.47200 25.13800 33.40400
C  47.06300 23.64600 33.25500
C  46.73700 23.47400 31.67800
C  48.17600 22.50400 33.75900
C  46.47500 26.03800 34.20800
C  46.72300 25.91000 35.75200
H  45.58800 26.46500 36.65800
N  46.82200 22.52900 28.82100
C  46.36300 21.79700 29.83200
C  45.96700 20.50900 29.28300
C  46.37800 20.49800 27.96600
C  47.07500 21.74300 27.70900
C  45.16600 19.42400 30.04600
C  46.32500 19.37800 26.92300
O  46.75600 19.64700 25.82300
C  45.76800 18.03100 27.26900
N  48.53100 24.57400 27.12700
C  48.47300 23.45100 26.31800
C  49.39900 23.62300 25.15300
C  49.43900 25.21300 25.02200
C  48.97200 25.63700 26.35400
C  50.77700 22.93600 25.22600
C  48.67100 25.92400 23.89200
C  47.18200 26.35700 24.19600
N  48.21800 26.54400 29.10000
C  48.79300 27.32000 28.13300
C  49.02100 28.66300 28.63700
C  48.82100 28.44600 30.03600
C  48.41800 27.17800 30.24400
C  49.40800 29.87000 27.75300
C  49.02600 29.04800 31.38300
O  49.34300 30.17500 31.71600
C  48.57900 27.97700 32.38400
C  49.71200 27.65800 33.32000
O  50.60500 26.83300 33.08000
O  49.55500 28.39700 34.47500
C  50.57500 28.03700 35.48600
H  46.07700 21.46800 31.83500
H  48.07800 21.47800 25.78400
H  49.61700 27.56400 26.12300
H  48.46600 25.01600 33.83500
H  46.24400 23.46400 33.95100
H  47.79300 21.69400 34.38000
H  49.06700 22.99500 34.15100
H  48.52200 22.12000 32.80000
H  45.50200 25.59200 33.99900
H  46.46200 27.06500 33.84300
H  47.65800 26.38400 36.05000
H  46.76800 24.85300 36.01500
H  44.91700 19.75700 31.05300
H  45.77300 18.51900 30.00300
H  44.27300 19.20800 29.46000
H  44.70700 18.17900 27.47300
H  46.36300 17.71500 28.12600
H  45.94000 17.39800 26.39900
H  48.86900 23.22400 24.28800
H  50.43400 25.64300 24.90300
H  51.59600 23.58500 25.53500
H  51.01200 22.41100 24.30000
H  50.78800 22.18300 26.01400
H  48.76000 25.36000 22.96300
H  49.13300 26.90800 23.82300
H  46.63300 26.16800 23.27300
H  47.02000 27.39500 24.48700
H  46.65500 25.79700 24.96800
H  48.94800 29.66900 26.78500
H  50.49100 29.83900 27.63200
H  49.06800 30.86000 28.05700
H  47.84200 28.57500 32.91900
H  50.67000 28.89700 36.14900
H  51.51400 27.63400 35.10600
H  50.13300 27.26900 36.12100

