158

Mg 41.01300 9.22600 29.13000
C  42.95800 10.60100 31.69100
C  38.90200 7.91900 31.38300
C  39.42100 7.88000 26.61100
C  43.72300 10.02900 26.92800
N  40.95800 9.30700 31.32900
C  41.77600 10.01300 32.12400
C  41.33400 9.92900 33.58300
C  40.05500 9.01200 33.53300
C  39.96500 8.62300 31.99500
C  40.04800 7.73500 34.42100
C  41.32900 11.24100 34.39000
C  40.33700 11.34500 35.51400
H  41.03300 11.67100 36.85000
N  39.40300 8.05300 29.04500
C  38.57900 7.63600 30.03700
C  37.41800 7.02700 29.50800
C  37.49600 7.19300 28.11500
C  38.82100 7.68300 27.86500
C  36.35200 6.45000 30.39000
C  36.49300 6.99400 27.10700
O  36.77200 7.33800 25.99300
C  35.10500 6.51100 27.32100
N  41.65600 8.66200 27.09100
C  40.69400 8.26000 26.23200
C  41.21700 8.11500 24.80400
C  42.32900 9.22900 24.85300
C  42.60000 9.34200 26.34100
C  41.79400 6.70900 24.42100
C  41.93200 10.65600 24.28900
C  40.44200 11.07100 24.36000
N  42.95600 10.11200 29.22100
C  43.92200 10.35400 28.28400
C  45.05800 11.06500 28.87700
C  44.74500 11.14800 30.24300
C  43.45000 10.54700 30.37300
C  46.27200 11.45100 28.16400
C  45.10300 11.72400 31.47400
O  46.06000 12.42400 31.81000
C  43.96300 11.33000 32.55600
C  44.56500 10.36500 33.42300
O  45.07100 9.32700 33.02800
O  44.58800 10.85400 34.70000
C  45.34400 10.02100 35.65500
H  38.10700 7.85600 32.12900
H  38.88900 7.49400 25.73900
H  44.48300 10.37300 26.22300
H  42.17400 9.45700 34.09300
H  39.21600 9.66900 33.75900
H  39.00900 7.40900 34.46000
H  40.63700 7.90200 35.32300
H  40.59200 6.94200 33.90700
H  41.05100 11.89500 33.56300
H  42.29200 11.62200 34.72900
H  39.85800 10.43000 35.86100
H  39.64000 12.13800 35.24200
H  35.45400 6.31500 29.78700
H  36.13800 7.01300 31.29900
H  36.68600 5.45200 30.67400
H  34.59400 6.65400 26.36900
H  34.49300 7.11600 27.99000
H  34.96600 5.43800 27.45400
H  40.42100 8.21100 24.06500
H  43.13300 8.80400 24.25300
H  41.11000 6.14000 23.79100
H  41.64100 6.15600 25.34700
H  42.81100 6.59500 24.04500
H  42.31500 10.70900 23.27000
H  42.37800 11.53700 24.75000
H  40.28700 11.64000 25.27700
H  39.78900 10.19800 24.34600
H  40.13300 11.77800 23.59100
H  47.15700 11.23500 28.76300
H  46.14500 12.52900 28.05700
H  46.34900 10.98000 27.18400
H  43.66400 12.23300 33.08900
H  45.20400 10.53000 36.60900
H  46.37200 10.06100 35.29500
H  44.91600 9.01900 35.68700
Mg 17.40800 51.01000 26.20700
C  19.03500 49.61000 28.89600
C  14.99800 52.14100 28.26800
C  15.60300 52.04900 23.43100
C  19.71400 49.51100 24.07900
N  17.00100 50.75500 28.34600
C  17.87800 50.28400 29.26800
C  17.38300 50.71800 30.62900
C  15.99000 51.27900 30.34900
C  15.99500 51.42200 28.92900
C  14.81300 50.53600 30.99400
C  18.46500 51.73300 31.27100
C  18.18900 52.28100 32.69800
H  17.28800 51.39300 33.60000
N  15.68000 52.09000 25.93000
C  14.82900 52.38900 26.92700
C  13.71000 53.21700 26.38100
C  13.86800 53.15200 24.96600
C  15.11400 52.41900 24.72700
C  12.58800 53.79800 27.20900
C  12.79600 53.68000 23.87500
O  12.96900 53.63300 22.64200
C  11.55100 54.28100 24.33800
N  17.58200 50.89100 24.05400
C  16.73100 51.33100 23.16500
C  17.17600 51.10800 21.74100
C  18.57300 50.34900 21.96200
C  18.64800 50.25700 23.49900
C  16.25600 50.25300 20.87700
C  19.83700 51.07100 21.33200
C  20.70200 52.03700 22.15600
N  19.07700 49.82700 26.40200
C  19.93100 49.28300 25.44800
C  20.94100 48.49300 26.05900
C  20.66300 48.57900 27.45800
C  19.50800 49.40400 27.58100
C  21.89900 47.63400 25.31600
C  21.01600 48.16300 28.79300
O  21.82000 47.37100 29.22200
C  20.08500 48.95200 29.75700
C  19.52200 48.12600 30.77800
O  18.62300 47.28000 30.70800
O  20.03400 48.44500 31.94700
C  19.58500 47.71700 33.09600
H  14.25900 52.51000 28.98200
H  14.95400 52.24000 22.57400
H  20.51500 49.09000 23.46800
H  17.26500 49.79500 31.19700
H  16.01900 52.33800 30.60700
H  14.97900 50.47200 32.06900
H  14.65700 49.52500 30.61900
H  13.87600 51.09300 30.97300
H  18.44700 52.58500 30.59100
H  19.46700 51.33900 31.10400
H  17.90700 53.31600 32.50400
H  19.16900 52.31500 33.17300
H  12.66200 53.66300 28.28800
H  11.58600 53.44700 26.96500
H  12.65600 54.84500 26.91400
H  11.85700 55.06200 25.03300
H  11.02200 53.54800 24.94600
H  10.95200 54.59500 23.48300
H  17.33400 52.08200 21.27700
H  18.48700 49.30700 21.65400
H  16.78400 49.60100 20.18100
H  15.51500 50.90400 20.41300
H  15.92200 49.56500 21.65300
H  19.38700 51.54000 20.45600
H  20.57300 50.36800 20.94200
H  20.99500 52.87900 21.53000
H  21.51000 51.51500 22.66900
H  20.11500 52.55100 22.91800
H  21.48700 47.04300 24.49700
H  22.44000 46.88100 25.89000
H  22.51600 48.43800 24.91500
H  20.58900 49.74300 30.31100
H  19.79500 46.65800 32.94500
H  18.52000 47.78300 33.31600
H  20.11700 48.07100 33.97900

