158

Mg 0.79400 8.26600 26.86700
C  1.42900 10.04100 29.91400
C  0.67900 5.28800 28.72000
C  0.73200 6.65000 24.05200
C  1.40200 11.22200 25.21100
N  0.97800 7.77500 29.03800
C  1.25400 8.68400 30.11700
C  1.10000 7.96300 31.44200
C  1.22700 6.45000 31.07400
C  0.91000 6.47800 29.56100
C  2.50800 5.68600 31.47500
C  -0.13900 8.29900 32.22800
C  0.10600 8.73100 33.70400
H  1.19500 7.90300 34.56200
N  0.57900 6.25900 26.43500
C  0.46100 5.18500 27.28700
C  0.11000 3.96800 26.53500
C  0.01700 4.39800 25.19400
C  0.50600 5.85900 25.14000
C  0.03500 2.61500 27.12200
C  -0.41100 3.54000 24.09000
O  -0.51800 3.97700 22.95000
C  -0.97600 2.05600 24.24300
N  1.30900 8.82200 24.89100
C  1.09400 7.96800 23.86600
C  1.29100 8.64000 22.48500
C  1.16100 10.12500 22.92800
C  1.33100 10.05100 24.44000
C  2.52700 8.19200 21.74300
C  -0.12400 10.76800 22.50900
C  -1.47800 10.32700 23.09600
N  1.27400 10.28900 27.44000
C  1.45000 11.37900 26.61400
C  1.74300 12.59400 27.33800
C  1.78200 12.13600 28.70100
C  1.54000 10.70100 28.69100
C  1.84700 14.00400 26.81200
C  1.89100 12.49200 30.06800
O  2.19200 13.61800 30.51400
C  1.65100 11.22400 30.92400
C  2.72300 11.07900 31.93500
O  3.84500 10.64900 31.72400
O  2.20200 11.42900 33.14100
C  3.22000 11.37000 34.14000
H  0.96500 4.38700 29.26800
H  0.61300 6.06900 23.13600
H  1.56800 12.14700 24.65500
H  1.98500 8.33600 31.95800
H  0.45300 5.96800 31.67100
H  2.24000 4.66600 31.74900
H  3.03300 6.21800 32.26800
H  3.10200 5.66600 30.56100
H  -0.72400 7.38400 32.32300
H  -0.68600 9.05200 31.66000
H  -0.81900 8.58400 34.26200
H  0.32900 9.79800 33.68400
H  0.66200 1.80400 26.75100
H  -0.99100 2.26700 27.00800
H  0.22200 2.67500 28.19400
H  -0.27800 1.24900 24.46500
H  -1.54100 1.85600 23.33200
H  -1.74900 2.11200 25.00900
H  0.42000 8.38100 21.88200
H  2.01700 10.66500 22.52300
H  2.22500 7.23800 21.31200
H  3.29700 8.00700 22.49300
H  2.77500 8.91000 20.96100
H  -0.18700 10.49900 21.45500
H  -0.14800 11.85600 22.55900
H  -2.04100 11.18900 23.45500
H  -1.39300 9.50200 23.80400
H  -2.04200 9.84700 22.29600
H  2.21000 14.13000 25.79200
H  2.53400 14.58700 27.42600
H  0.85000 14.44400 26.78800
H  0.75500 11.31200 31.53900
H  3.60200 10.34900 34.14600
H  2.80100 11.62500 35.11300
H  4.00900 12.06400 33.85200
Mg 8.35400 3.99900 28.18400
C  9.73700 2.37300 31.09400
C  6.58600 6.01000 30.34700
C  6.79900 5.13200 25.53700
C  9.90500 1.43400 26.25000
N  8.15200 4.05900 30.49100
C  8.77100 3.34800 31.44600
C  8.62100 4.02100 32.80600
C  7.48800 5.06800 32.52400
C  7.36500 4.97900 31.00100
C  6.12000 4.94900 33.30800
C  9.94400 4.56200 33.33600
C  10.58100 3.97600 34.65100
H  10.66300 4.87600 35.90200
N  6.92000 5.47300 27.96200
C  6.33200 6.28100 28.95700
C  5.49700 7.26500 28.31500
C  5.63800 7.08900 26.90600
C  6.38700 5.83400 26.71200
C  4.72500 8.39000 29.06200
C  5.12100 7.92100 25.84800
O  4.99000 7.42600 24.67500
C  4.72600 9.38200 26.01800
N  8.13100 3.23900 26.26100
C  7.62600 4.01000 25.28000
C  8.05100 3.63000 23.86100
C  9.15400 2.61400 24.04500
C  9.06100 2.37600 25.59900
C  6.94300 3.24800 22.82500
C  10.57300 3.00200 23.51700
C  11.44700 3.88800 24.45400
N  9.58400 2.17800 28.51000
C  10.10800 1.25300 27.62500
C  11.03000 0.42500 28.30500
C  10.86200 0.84100 29.65400
C  9.92700 1.81200 29.73600
C  11.92400 -0.55900 27.69200
C  11.30300 0.56200 30.95900
O  12.08500 -0.25900 31.31000
C  10.62400 1.48300 31.94400
C  9.92300 0.76700 32.93500
O  8.79600 0.28300 32.78500
O  10.61900 0.70500 34.14300
C  9.69700 0.32000 35.22200
H  6.26900 6.76300 31.07100
H  6.46000 5.50800 24.56900
H  10.30700 0.69900 25.54900
H  8.20400 3.28700 33.49500
H  7.75800 6.10700 32.71400
H  5.57000 5.88800 33.37200
H  6.47900 4.62700 34.28500
H  5.58100 4.06400 32.97100
H  9.71200 5.61200 33.51300
H  10.68700 4.57800 32.53800
H  11.60200 3.68100 34.40800
H  9.98300 3.12100 34.96700
H  5.05000 9.39200 28.78400
H  4.95800 8.21000 30.11100
H  3.64200 8.31500 28.95800
H  3.83100 9.32200 26.63800
H  4.48500 9.77700 25.03100
H  5.51600 9.95100 26.50900
H  8.56800 4.49200 23.44000
H  8.81900 1.68200 23.59200
H  5.98300 3.07500 23.31100
H  7.21300 2.37500 22.23100
H  6.82800 4.07700 22.12700
H  10.47700 3.57300 22.59300
H  11.07900 2.05100 23.35300
H  10.96100 4.28800 25.34300
H  11.76500 4.72600 23.83200
H  12.34100 3.34100 24.75500
H  12.10300 -0.23400 26.66700
H  11.63900 -1.61000 27.73600
H  12.85400 -0.41900 28.24300
H  11.31500 2.05700 32.56300
H  9.37100 -0.71800 35.16000
H  8.89200 1.05300 35.16300
H  10.17900 0.38900 36.19700

