158

Mg 24.03900 -4.62300 46.08400
C  26.18400 -2.22300 44.52300
C  21.54100 -3.29400 44.10100
C  22.22000 -7.25400 46.76400
C  26.83900 -5.95500 47.69600
N  23.88300 -3.00400 44.37700
C  24.92700 -2.17000 44.04000
C  24.38900 -1.01700 43.12100
C  22.82400 -1.26900 43.21100
C  22.70800 -2.60600 43.95700
C  22.01300 -0.09100 43.72300
C  25.00800 -1.24800 41.64800
C  25.02000 -0.04400 40.77200
H  24.39700 -0.30000 39.37000
N  22.17600 -5.20400 45.56400
C  21.26100 -4.51600 44.70000
C  20.02100 -5.30400 44.62300
C  20.17500 -6.46100 45.47800
C  21.51000 -6.29200 46.06600
C  18.91500 -4.79100 43.77100
C  19.09700 -7.55400 45.71100
O  18.07900 -7.45800 45.03900
C  19.21400 -8.55200 46.79100
N  24.43100 -6.27800 47.12300
C  23.52300 -7.30000 47.26500
C  24.10400 -8.56100 47.85900
C  25.41700 -7.96100 48.44300
C  25.58100 -6.62800 47.76000
C  23.26100 -9.34900 48.89600
C  26.59000 -8.98100 48.33700
C  27.65800 -8.92200 49.45100
N  26.15500 -4.20400 46.20700
C  27.13100 -4.79600 46.92100
C  28.42900 -4.17800 46.66200
C  28.07100 -3.10900 45.73000
C  26.68900 -3.14200 45.51200
C  29.69600 -4.72000 46.97900
C  28.62000 -1.98400 44.92200
O  29.76600 -1.63600 44.75100
C  27.46400 -1.36900 44.08600
C  27.24300 0.11400 44.40300
O  26.79400 0.55800 45.44700
O  27.54500 0.85500 43.35600
C  27.45800 2.32000 43.53300
H  20.67100 -2.76100 43.71300
H  21.67100 -8.18500 46.91900
H  27.66100 -6.44500 48.22000
H  24.66200 -0.06400 43.57300
H  22.44200 -1.53900 42.22700
H  22.72000 0.73800 43.75000
H  21.66600 -0.35400 44.72200
H  21.23200 0.05800 42.97800
H  24.43000 -1.97800 41.08200
H  26.02600 -1.63400 41.70800
H  25.99700 0.40500 40.59600
H  24.41500 0.68600 41.31000
H  19.08900 -5.24000 42.79200
H  18.87400 -3.70900 43.64500
H  17.92100 -5.18800 43.97800
H  18.34000 -9.20200 46.83200
H  19.33100 -8.17600 47.80700
H  20.01100 -9.26000 46.56300
H  24.40200 -9.24500 47.06400
H  25.13700 -7.74500 49.47400
H  22.60400 -10.18900 48.67400
H  22.70100 -8.55500 49.39000
H  23.95600 -9.68600 49.66500
H  27.12000 -8.74200 47.41500
H  26.26500 -10.01600 48.22500
H  27.95400 -9.91100 49.80100
H  27.28300 -8.36200 50.30700
H  28.41800 -8.34200 48.92700
H  30.49100 -4.05900 46.63400
H  29.76700 -5.76300 46.66900
H  29.74600 -4.62700 48.06400
H  27.67400 -1.68100 43.06300
H  27.93500 2.62700 44.46300
H  26.41000 2.59700 43.64800
H  28.02500 2.81100 42.74200
Mg 24.50100 2.72600 29.78400
C  26.80300 2.15700 32.42700
C  21.89700 2.61800 32.30500
C  22.30500 2.90500 27.32000
C  26.99400 1.93700 27.56500
N  24.40000 2.53300 32.11900
C  25.52200 2.41800 32.94500
C  25.12000 2.60600 34.37800
C  23.53800 2.57100 34.23400
C  23.24300 2.53700 32.76900
C  22.87300 1.35900 34.94600
C  25.76900 3.84800 35.03900
C  26.62900 3.73500 36.33900
H  26.16200 4.70900 37.47700
N  22.37900 2.65800 29.75000
C  21.55100 2.69300 30.86000
C  20.23000 2.88300 30.33600
C  20.25400 2.83600 28.91800
C  21.68400 2.79300 28.55100
C  18.99000 3.05100 31.12500
C  19.18700 2.95900 27.89700
O  19.36000 3.31600 26.70500
C  17.77100 2.62000 28.28200
N  24.66300 2.73300 27.76800
C  23.63900 2.87900 26.95700
C  24.10700 2.87500 25.42500
C  25.61700 2.58200 25.53900
C  25.77700 2.41400 27.06600
C  23.34200 2.09100 24.27600
C  26.51400 3.59900 24.68600
C  26.85200 4.93600 25.40200
N  26.51300 2.23800 29.91800
C  27.36800 1.85800 28.97800
C  28.68900 1.40800 29.54300
C  28.48500 1.53400 30.87500
C  27.17700 2.02700 31.08200
C  29.98600 0.98800 28.85000
C  29.15800 1.30300 32.13600
O  30.34300 1.03400 32.37900
C  28.10000 1.85800 33.27300
C  27.96600 0.89200 34.40400
O  27.31400 -0.12200 34.31100
O  28.71300 1.38000 35.50200
C  28.62400 0.66000 36.81600
H  21.11800 2.80000 33.04800
H  21.59500 2.98600 26.49400
H  27.71000 1.53700 26.84400
H  25.30200 1.64300 34.85600
H  23.19100 3.54700 34.57300
H  22.60600 0.59800 34.21300
H  21.92700 1.80700 35.25100
H  23.38400 0.88500 35.78500
H  25.01500 4.55800 35.37800
H  26.47000 4.35800 34.37800
H  27.61600 4.10600 36.06200
H  26.65600 2.69500 36.66300
H  18.38400 2.15700 30.97500
H  18.44500 3.95000 30.83700
H  19.32000 3.10700 32.16300
H  17.36600 3.46700 28.83600
H  17.86600 1.76300 28.94800
H  17.15900 2.32000 27.43100
H  23.98700 3.90800 25.09900
H  25.81600 1.56800 25.19200
H  22.48000 1.66100 24.78600
H  23.93400 1.23700 23.94900
H  23.08600 2.71300 23.41900
H  25.92800 3.89600 23.81600
H  27.43700 3.16500 24.30200
H  26.66800 4.87100 26.47400
H  26.15600 5.72800 25.12700
H  27.86000 5.19300 25.07800
H  30.43800 1.78600 28.26100
H  29.77400 0.23700 28.08900
H  30.69300 0.41800 29.45400
H  28.53500 2.80500 33.59200
H  29.63100 0.30500 37.03400
H  27.96800 -0.21000 36.82100
H  28.26800 1.34000 37.59000

