158

Mg 47.20200 16.98200 28.62400
C  44.95100 16.48600 31.43800
C  48.96200 19.19800 30.50100
C  48.66900 17.89900 25.74600
C  44.87400 15.19000 26.74700
N  46.95900 17.73900 30.78700
C  46.10600 17.30000 31.77400
C  46.45500 17.84800 33.16900
C  47.62600 18.75100 32.73300
C  47.91000 18.58400 31.26200
C  47.35600 20.28700 32.92500
C  46.75100 16.65000 34.05600
C  46.11200 16.61900 35.46500
H  45.81700 18.00400 36.13900
N  48.55900 18.40200 28.22100
C  49.17600 19.21400 29.10800
C  50.09800 20.03300 28.32200
C  50.07600 19.60200 27.00300
C  49.02300 18.64900 26.94000
C  51.09400 20.92300 29.00000
C  50.95300 19.97300 25.78800
O  50.87300 19.43100 24.69700
C  52.00500 20.95100 25.86500
N  46.73800 16.61900 26.62200
C  47.58600 17.04800 25.64700
C  47.38200 16.39400 24.33500
C  46.13200 15.46800 24.56300
C  45.86500 15.78600 26.03300
C  47.30500 17.30500 23.03500
C  46.41500 14.02900 24.11700
C  45.41300 13.36400 23.11300
N  45.30800 15.94000 28.96000
C  44.50900 15.24400 28.09900
C  43.39300 14.69500 28.83100
C  43.50900 15.15000 30.16500
C  44.72700 15.91600 30.18000
C  42.20100 13.99000 28.29500
C  42.84800 15.22800 31.43300
O  41.83100 14.70200 31.92800
C  43.78700 16.00200 32.41100
C  42.98700 17.14800 32.94400
O  42.39700 17.99200 32.28400
O  42.84300 17.00400 34.30900
C  42.12000 18.14700 34.88300
H  49.62000 19.78900 31.14100
H  49.31700 17.89700 24.86700
H  44.33900 14.56500 26.02900
H  45.60100 18.43400 33.50900
H  48.50800 18.49000 33.31800
H  46.43400 20.52500 33.45600
H  47.25800 20.70900 31.92500
H  48.18100 20.71000 33.49900
H  47.81800 16.54100 34.24800
H  46.37100 15.75100 33.57000
H  46.77900 16.04100 36.10400
H  45.11000 16.19400 35.39700
H  51.06600 21.13600 30.06900
H  51.06100 21.87100 28.46300
H  52.03700 20.43000 28.76600
H  51.56800 21.88400 26.21900
H  52.40800 21.15400 24.87300
H  52.84600 20.60800 26.46800
H  48.21300 15.74000 24.07000
H  45.36100 16.02100 24.02800
H  46.36800 17.26400 22.47900
H  48.16300 17.00200 22.43500
H  47.44800 18.37400 23.19100
H  46.70600 13.35300 24.92100
H  47.38100 14.04400 23.61200
H  44.46200 13.86200 23.30200
H  45.29900 12.29400 23.28800
H  45.75100 13.61300 22.10700
H  42.39200 13.65300 27.27600
H  41.29300 14.59200 28.27300
H  42.01000 13.04900 28.81200
H  44.10600 15.34000 33.21600
H  42.70700 19.03000 34.63300
H  42.03300 18.08000 35.96800
H  41.12700 18.23700 34.44400
Mg -11.12000 38.82500 42.53600
C  -9.22500 36.32800 41.19500
C  -9.17100 41.21600 40.85100
C  -13.25900 41.27700 43.45300
C  -13.42200 36.49600 43.54100
N  -9.52300 38.78600 41.07800
C  -8.82000 37.63600 40.72800
C  -7.72300 37.93200 39.71100
C  -7.58700 39.46900 39.81600
C  -8.83800 39.85200 40.58100
C  -6.27500 39.87200 40.52600
C  -7.80200 37.34000 38.31200
C  -6.52200 36.60400 37.74400
H  -5.75800 37.42000 36.64700
N  -11.14600 40.99300 42.32000
C  -10.28800 41.77100 41.52800
C  -10.70900 43.08700 41.61400
C  -11.78400 43.22600 42.48600
C  -12.06300 41.81800 42.83000
C  -10.04800 44.13700 40.71800
C  -12.56600 44.49700 42.80900
O  -12.13100 45.53000 42.33300
C  -13.81800 44.57600 43.58000
N  -13.08200 38.90000 43.55700
C  -13.73100 40.00900 43.77200
C  -15.18800 39.68700 44.09500
C  -15.28000 38.21900 44.10000
C  -13.82000 37.84700 43.72200
C  -15.77600 40.25200 45.44700
C  -16.30200 37.57700 43.11400
C  -17.30200 36.61700 43.76300
N  -11.27000 36.79200 42.37200
C  -12.19100 36.01300 43.03400
C  -11.78800 34.64200 42.98000
C  -10.66200 34.66500 42.15400
C  -10.35900 36.01000 41.90500
C  -12.51100 33.37600 43.59900
C  -9.68100 33.90200 41.43800
O  -9.64100 32.69100 41.27700
C  -8.67000 34.89500 40.84100
C  -7.26400 34.66300 41.31700
O  -6.61600 35.29900 42.06500
O  -6.75600 33.55900 40.63600
C  -5.28900 33.42600 40.76400
H  -8.61900 41.90500 40.20900
H  -13.99500 42.01800 43.77100
H  -14.06700 35.63500 43.73100
H  -6.81600 37.48800 40.12400
H  -7.44600 39.88700 38.82000
H  -5.48300 39.17700 40.24500
H  -6.41800 39.89100 41.60600
H  -5.90000 40.86700 40.28500
H  -7.94500 38.13300 37.57800
H  -8.65900 36.66700 38.35600
H  -6.95900 35.70500 37.30900
H  -5.84700 36.27600 38.53500
H  -10.74400 44.86000 40.29200
H  -9.48600 43.76700 39.86000
H  -9.35800 44.73100 41.31700
H  -14.50000 44.11500 42.86600
H  -13.98800 45.63600 43.76500
H  -13.79800 44.05700 44.53900
H  -15.75600 40.22700 43.33700
H  -15.45000 37.89300 45.12600
H  -15.98400 41.31700 45.34800
H  -14.95700 40.17600 46.16300
H  -16.66300 39.72500 45.79800
H  -15.83800 37.03600 42.29000
H  -16.90600 38.35300 42.64500
H  -18.33700 36.95400 43.70800
H  -17.15000 36.33100 44.80400
H  -17.11200 35.65400 43.28900
H  -11.98100 32.42600 43.53200
H  -13.52500 33.38700 43.20000
H  -12.48400 33.84600 44.58200
H  -8.56100 34.74300 39.76800
H  -4.85100 34.41600 40.63500
H  -5.04100 32.79100 39.91400
H  -4.90700 33.01100 41.69600

