158

Mg 44.00900 5.18300 47.03000
C  42.07300 7.92900 46.47500
C  41.20200 3.27100 46.06400
C  45.93900 2.38000 46.67300
C  46.83500 7.08300 46.94400
N  41.82800 5.53100 46.24600
C  41.27800 6.80000 46.18000
C  39.72500 6.77700 45.96100
C  39.42800 5.23900 46.13900
C  40.88200 4.58800 46.15900
C  38.70900 4.95300 47.46600
C  39.11800 7.34700 44.59300
C  40.12500 7.66200 43.43900
H  39.56300 7.86100 42.04800
N  43.63600 3.11100 46.50900
C  42.38300 2.55400 46.12600
C  42.56200 1.14100 45.79700
C  43.96700 0.87700 45.84200
C  44.58700 2.15400 46.33500
C  41.46200 0.28300 45.21600
C  44.58100 -0.46800 45.43700
O  43.89800 -1.39900 45.09900
C  46.08800 -0.55500 45.34800
N  46.09400 4.74700 46.85100
C  46.69600 3.57400 46.85400
C  48.24900 3.61700 46.85200
C  48.44300 5.18800 46.98700
C  47.01300 5.72900 46.92100
C  49.02700 2.75200 47.91800
C  49.33900 5.83700 45.91400
C  50.33900 6.85900 46.46700
N  44.33000 7.09100 46.88900
C  45.57300 7.77800 46.89800
C  45.34700 9.16900 46.73600
C  43.97900 9.27500 46.65800
C  43.40700 7.97400 46.71200
C  46.36700 10.16600 46.66700
C  42.90300 10.21100 46.50100
O  42.91500 11.43900 46.51300
C  41.55200 9.37100 46.40300
C  40.65200 9.65600 47.56100
O  40.86200 9.20500 48.67400
O  39.53100 10.36300 47.17500
C  38.39000 10.46600 48.22600
H  40.31100 2.70100 45.79500
H  46.64700 1.55000 46.70000
H  47.75300 7.67500 46.92900
H  39.25100 7.34800 46.76000
H  38.91900 4.88000 45.24500
H  37.81500 5.56000 47.60600
H  39.47300 5.03900 48.23900
H  38.44100 3.89600 47.47800
H  38.77000 8.32400 44.92600
H  38.37000 6.65600 44.20500
H  40.88300 6.88000 43.37400
H  40.51900 8.62500 43.76300
H  41.80800 -0.01400 44.22600
H  40.55100 0.86500 45.07700
H  41.21100 -0.66400 45.69200
H  46.31500 -1.51400 44.88200
H  46.42000 -0.55200 46.38600
H  46.51600 0.29400 44.81500
H  48.59800 3.33000 45.86000
H  48.75800 5.44200 47.99900
H  49.68800 2.03500 47.43100
H  48.25100 2.21100 48.45900
H  49.71600 3.37600 48.48600
H  48.84300 6.27800 45.04900
H  49.88900 5.04000 45.41400
H  51.32700 6.43200 46.29600
H  50.21800 6.98900 47.54200
H  50.02800 7.84200 46.11300
H  47.20500 9.78300 47.25000
H  45.93200 11.07600 47.07900
H  46.53600 10.31800 45.60100
H  41.01600 9.69500 45.51200
H  37.74500 9.59700 48.09600
H  37.75700 11.30900 47.94900
H  38.82800 10.63100 49.21000
Mg 54.83700 25.16800 44.56900
C  51.85700 27.00500 43.79200
C  53.28700 22.39600 43.70000
C  57.75400 23.77200 44.65800
C  56.27500 28.29400 45.54000
N  52.94300 24.82200 43.46500
C  51.84000 25.65400 43.47200
C  50.54900 24.90600 42.97300
C  50.97900 23.41800 43.33000
C  52.54000 23.51700 43.49600
C  50.26800 22.64300 44.43900
C  50.41800 25.03400 41.46600
C  48.92500 24.92600 41.06000
H  48.55300 24.58500 39.63300
N  55.49000 23.35200 44.04000
C  54.67300 22.28400 43.75800
C  55.53600 21.12900 43.61100
C  56.90800 21.52300 43.76200
C  56.76100 22.94300 44.21600
C  54.93900 19.75400 43.20700
C  58.13900 20.62800 43.51800
O  58.03900 19.40400 43.40800
C  59.51100 21.26500 43.43100
N  56.71700 25.94300 45.08800
C  57.76000 25.09900 45.03100
C  59.03500 25.83200 45.16800
C  58.67800 27.36400 45.44800
C  57.16700 27.21700 45.31300
C  60.08800 25.39000 46.23900
C  59.16500 28.32000 44.39300
C  59.35100 29.75600 44.90900
N  54.23300 27.27300 44.75800
C  54.89300 28.35800 45.27300
C  53.90100 29.37500 45.55800
C  52.74600 28.98900 44.80000
C  52.97000 27.66700 44.41000
C  54.13000 30.51200 46.33600
C  51.37100 29.36000 44.26100
O  50.85600 30.45600 44.35700
C  50.84200 28.15000 43.57700
C  50.61000 28.53200 42.18200
O  51.40700 29.01000 41.43600
O  49.29400 28.31100 41.91500
C  48.85200 28.48600 40.52200
H  52.77700 21.43500 43.60600
H  58.76100 23.35400 44.71700
H  56.74500 29.27000 45.67600
H  49.68800 25.22400 43.56100
H  50.77400 22.97900 42.35400
H  49.65700 23.39400 44.93900
H  50.94600 22.10600 45.10200
H  49.50500 21.94400 44.09600
H  51.03200 24.34300 40.88900
H  50.83600 25.97700 41.11300
H  48.41000 25.88000 41.17900
H  48.39500 24.20000 41.67500
H  54.02400 19.61900 43.78300
H  55.47900 19.00400 43.78500
H  54.95400 19.58300 42.13000
H  59.49800 22.33400 43.21300
H  60.02200 20.75300 42.61500
H  60.01900 21.10800 44.38200
H  59.57300 25.92000 44.22400
H  58.86400 27.74300 46.45300
H  61.06300 25.13800 45.82300
H  59.68400 24.58000 46.84700
H  60.35200 26.15900 46.96500
H  58.60600 28.30100 43.45700
H  60.18500 28.07700 44.09500
H  59.07700 30.50400 44.16600
H  60.39700 29.88800 45.18400
H  58.67100 29.92500 45.74400
H  54.80600 31.22100 45.86000
H  54.59600 30.13300 47.24600
H  53.22300 31.05700 46.59800
H  49.89700 27.92600 44.07400
H  48.55600 29.52800 40.40500
H  48.03400 27.78500 40.35600
H  49.60200 28.14800 39.80700

