158

Mg -2.03000 17.02800 25.82800
C  -2.15000 14.75200 28.47100
C  -2.12700 19.63200 28.13500
C  -2.33200 19.11500 23.32100
C  -2.12200 14.28200 23.64100
N  -2.27700 17.16000 28.00000
C  -2.30300 16.07100 28.88200
C  -2.61300 16.53000 30.29800
C  -2.55300 18.12400 30.15000
C  -2.33500 18.37700 28.69400
C  -3.82400 18.94400 30.65000
C  -1.54200 16.09300 31.29700
C  -1.51100 16.83300 32.65800
H  -1.22400 16.06200 33.97100
N  -2.24800 19.16600 25.74700
C  -2.08800 20.01900 26.77300
C  -2.22900 21.39400 26.25500
C  -2.25600 21.31900 24.84500
C  -2.28000 19.86200 24.55000
C  -2.45200 22.62100 27.07900
C  -2.30900 22.35500 23.79000
O  -2.47000 22.12800 22.62300
C  -2.10100 23.73400 24.17300
N  -2.20500 16.76300 23.83600
C  -2.28000 17.82300 22.92000
C  -2.24700 17.27600 21.49200
C  -2.01300 15.72300 21.64200
C  -2.17000 15.54700 23.12100
C  -3.54700 17.59300 20.73600
C  -0.59300 15.23000 21.09000
C  -0.57700 14.23500 19.92800
N  -2.07100 14.94500 25.97500
C  -2.00900 14.03900 25.00700
C  -1.95800 12.74900 25.56400
C  -2.03300 12.99500 26.91200
C  -2.02300 14.36200 27.15100
C  -1.77100 11.44800 24.86800
C  -1.89600 12.38300 28.16000
O  -1.76600 11.22400 28.44700
C  -1.99100 13.45200 29.26500
C  -0.86000 13.29900 30.24100
O  0.23600 13.82900 30.11000
O  -1.26400 12.51600 31.29400
C  -0.25100 12.21900 32.26500
H  -1.85300 20.43800 28.81900
H  -2.44100 19.75900 22.44500
H  -2.18200 13.43300 22.95600
H  -3.58700 16.23900 30.69200
H  -1.69600 18.57800 30.64800
H  -4.21400 19.46900 29.77900
H  -3.57600 19.66700 31.42800
H  -4.66200 18.28300 30.87200
H  -0.58600 16.24100 30.79500
H  -1.71700 15.07300 31.64200
H  -2.43800 17.39900 32.74700
H  -0.61900 17.44000 32.50800
H  -3.44400 22.97500 26.79500
H  -1.67600 23.38600 27.04100
H  -2.49800 22.33300 28.12900
H  -1.16200 23.91700 24.69400
H  -2.91600 24.06900 24.81600
H  -2.02200 24.40300 23.31700
H  -1.44400 17.74200 20.92100
H  -2.73100 15.10300 21.10500
H  -4.35000 18.21100 21.14000
H  -4.05000 16.64500 20.54600
H  -3.19900 17.97700 19.77700
H  -0.06000 14.86900 21.97000
H  -0.10400 16.18400 20.89800
H  0.17600 13.45600 20.05000
H  -0.35500 14.69700 18.96600
H  -1.52800 13.72500 19.78100
H  -1.36900 10.70600 25.55600
H  -1.09800 11.60900 24.02500
H  -2.79900 11.17100 24.63200
H  -2.94100 13.27400 29.76800
H  -0.65900 12.05100 33.26100
H  0.54900 12.95900 32.29500
H  0.36400 11.35300 32.01900
Mg 16.23400 51.79400 26.66600
C  18.25900 50.50200 29.31800
C  13.96700 52.74100 29.09400
C  14.67700 53.52300 24.33800
C  18.39700 50.41300 24.36600
N  16.27700 51.86300 29.02300
C  17.14300 51.24400 29.83700
C  16.69900 51.25200 31.28500
C  15.17000 51.70900 31.15000
C  15.07000 52.11100 29.64800
C  14.11100 50.68300 31.67300
C  17.59300 52.21500 32.13000
C  17.79800 51.79900 33.58400
H  17.24800 52.60500 34.72600
N  14.51700 52.86300 26.68800
C  13.71500 53.15500 27.76600
C  12.60400 53.91000 27.27100
C  12.89000 54.31200 25.92800
C  14.08900 53.54600 25.55500
C  11.41700 54.26000 28.10400
C  12.19700 55.29100 25.04600
O  12.57900 55.63200 23.92300
C  10.97300 56.05600 25.56300
N  16.42900 51.90200 24.57100
C  15.67500 52.73000 23.80800
C  16.23300 52.82600 22.32900
C  17.33400 51.66900 22.36500
C  17.41200 51.28200 23.86600
C  15.05800 52.82000 21.26200
C  18.78100 52.05200 21.78000
C  19.66900 53.15700 22.45700
N  17.90400 50.55500 26.77700
C  18.66200 50.06900 25.72700
C  19.83800 49.37400 26.29100
C  19.65100 49.42400 27.65600
C  18.54400 50.26300 27.92400
C  20.95500 48.71100 25.48000
C  20.19500 49.01900 28.89600
O  21.16000 48.26500 29.04400
C  19.40100 49.68600 30.06000
C  18.78000 48.49200 30.81600
O  18.32500 47.46100 30.32500
O  18.97000 48.73600 32.21200
C  18.41600 47.67200 32.94800
H  13.27300 52.96900 29.90600
H  14.23500 54.17200 23.58000
H  19.03200 49.98700 23.58600
H  16.74100 50.20900 31.60000
H  14.98600 52.68800 31.59400
H  13.65200 51.07100 32.58300
H  14.60800 49.80200 32.08000
H  13.40900 50.47400 30.86500
H  17.15700 53.21100 32.05200
H  18.53900 52.34100 31.60500
H  18.87900 51.85000 33.71800
H  17.48600 50.77600 33.79500
H  11.70800 55.00300 28.84700
H  11.13900 53.36600 28.66300
H  10.52400 54.51500 27.53500
H  10.04300 55.50300 25.69800
H  10.75500 56.87400 24.87600
H  11.26900 56.60500 26.45600
H  16.75900 53.75600 22.11200
H  16.92000 50.81500 21.82900
H  15.34300 52.14500 20.45500
H  14.90700 53.81500 20.84300
H  14.10700 52.47000 21.66400
H  18.71000 52.28900 20.71800
H  19.39600 51.16100 21.65200
H  19.51000 54.13400 22.00200
H  20.68800 52.78400 22.34500
H  19.46000 53.19700 23.52600
H  21.57200 49.47700 25.01000
H  20.51300 48.02200 24.76100
H  21.59700 48.00200 26.00400
H  19.98100 50.31400 30.73700
H  18.61900 46.71700 32.46300
H  17.36400 47.82800 33.18700
H  19.04800 47.54800 33.82700

