158

Mg 24.65100 -6.11600 45.24000
C  26.91200 -3.60400 43.97600
C  22.18700 -4.62200 43.52400
C  22.97600 -8.96700 45.54800
C  27.44400 -7.58100 46.81900
N  24.59800 -4.35500 43.80700
C  25.60400 -3.51500 43.51700
C  25.04700 -2.38900 42.67600
C  23.46200 -2.50300 42.77600
C  23.39700 -3.95200 43.43300
C  22.80300 -1.46500 43.66700
C  25.60400 -2.47300 41.22600
C  25.87300 -1.07800 40.50200
H  25.22400 -0.85800 39.15200
N  22.84800 -6.59500 44.74500
C  21.94700 -5.87000 44.06400
C  20.73200 -6.52800 43.90400
C  20.89900 -7.80800 44.50200
C  22.29800 -7.80400 44.96400
C  19.59200 -6.07100 43.00000
C  19.87400 -8.97700 44.55800
O  18.81300 -8.83800 43.97800
C  20.19900 -10.39600 45.13600
N  25.18400 -8.10400 46.06600
C  24.33200 -9.11300 46.01700
C  24.80800 -10.36400 46.84000
C  26.08400 -9.75300 47.54500
C  26.29700 -8.46600 46.68000
C  23.83400 -11.03500 47.89600
C  27.35100 -10.79400 47.50800
C  28.04900 -11.05500 48.79700
N  26.73600 -5.68100 45.49700
C  27.72200 -6.30600 46.23700
C  28.95900 -5.52100 46.21900
C  28.70400 -4.49700 45.33600
C  27.32500 -4.59200 44.97500
C  30.26500 -5.84100 46.77300
C  29.28000 -3.32100 44.64000
O  30.41000 -2.88100 44.55200
C  28.11600 -2.75900 43.74600
C  27.91200 -1.33200 44.17000
O  27.33100 -0.90100 45.15800
O  28.54200 -0.50300 43.35400
C  28.53400 0.91000 43.69300
H  21.33900 -4.03900 43.15800
H  22.31500 -9.79900 45.80000
H  28.36100 -7.83800 47.35400
H  25.44800 -1.50800 43.17800
H  23.10700 -2.40600 41.75000
H  23.46200 -0.62700 43.89500
H  22.56900 -1.99000 44.59400
H  21.87600 -1.04200 43.28000
H  24.86000 -2.94100 40.58200
H  26.48400 -3.07200 40.98600
H  26.94200 -0.89500 40.39500
H  25.52400 -0.30100 41.18200
H  18.66300 -5.95100 43.55900
H  19.44300 -6.85400 42.25600
H  19.74800 -5.15900 42.42400
H  19.27100 -10.96100 45.05400
H  20.47000 -10.34400 46.19100
H  21.02700 -10.80400 44.55600
H  25.04800 -11.10400 46.07700
H  25.81900 -9.37200 48.53100
H  23.03700 -10.33600 48.15100
H  24.41200 -11.52800 48.67800
H  23.42800 -11.86100 47.31200
H  28.16300 -10.39200 46.90100
H  26.91900 -11.70800 47.10100
H  27.67200 -12.05100 49.03100
H  27.74700 -10.36700 49.58600
H  29.12400 -11.16100 48.65000
H  30.62900 -6.78300 46.36200
H  30.24700 -5.91700 47.86100
H  30.99500 -5.10100 46.44500
H  28.50300 -2.81600 42.72900
H  27.54300 1.35900 43.63000
H  29.23700 1.29400 42.95300
H  28.99300 1.17700 44.64600
Mg 42.00600 7.89500 29.93300
C  43.79600 9.45100 32.39300
C  39.88300 6.57000 32.25500
C  40.30100 6.49600 27.45500
C  44.84600 8.34100 27.68900
N  42.05500 7.90900 32.08900
C  42.66200 8.83000 32.83900
C  42.08800 8.82000 34.31200
C  40.81200 7.82400 34.21900
C  40.98900 7.33800 32.81400
C  40.80900 6.62800 35.28000
C  41.73400 10.23300 34.88400
C  42.44900 10.68700 36.21200
H  41.55600 11.36700 37.30300
N  40.31000 6.80800 29.87700
C  39.55100 6.33100 30.92500
C  38.39900 5.60300 30.43000
C  38.38200 5.74500 29.02200
C  39.72600 6.32500 28.74800
C  37.43900 4.89800 31.38100
C  37.24400 5.33200 28.02200
O  37.49800 5.31200 26.82300
C  35.90700 5.19500 28.56500
N  42.64400 7.22300 27.89200
C  41.64200 6.88200 27.12500
C  42.15800 6.79200 25.63900
C  43.67600 7.29100 25.74100
C  43.80200 7.58500 27.21700
C  42.03800 5.32800 25.03500
C  43.96100 8.36000 24.76500
C  43.28900 9.73200 25.14100
N  43.95700 8.73300 29.98300
C  44.96800 8.81600 29.04900
C  45.97700 9.69300 29.58800
C  45.65300 9.93700 30.95500
C  44.40200 9.35500 31.15000
C  47.09200 10.31100 28.77200
C  46.04800 10.64600 32.16300
O  46.97200 11.40900 32.40100
C  44.83900 10.26200 33.22500
C  45.38300 9.45000 34.37300
O  45.45500 8.21300 34.59600
O  45.91400 10.40300 35.21900
C  46.32400 9.97700 36.57700
H  39.06000 6.35900 32.94000
H  39.75500 6.16400 26.57000
H  45.58900 8.58600 26.92800
H  42.89400 8.32000 34.84900
H  39.86100 8.33000 34.05000
H  39.75500 6.55000 35.54600
H  41.49600 6.97600 36.05100
H  41.29600 5.79700 34.77000
H  40.65200 10.35800 34.92700
H  42.01300 10.99500 34.15700
H  43.27100 11.36400 35.98200
H  42.93500 9.82400 36.66700
H  36.92400 4.09700 30.85000
H  36.72400 5.54700 31.88600
H  38.03200 4.31600 32.08600
H  35.76100 6.10700 29.14400
H  35.89300 4.31300 29.20600
H  35.10300 4.97700 27.86300
H  41.47400 7.38700 25.03300
H  44.39400 6.53000 25.43800
H  41.74900 4.75800 25.91800
H  42.98200 4.95300 24.63900
H  41.27900 5.15700 24.27200
H  43.53500 7.98900 23.83300
H  45.03500 8.53200 24.69100
H  42.71300 9.71000 26.06600
H  42.67300 10.04700 24.29900
H  44.08700 10.47400 25.18200
H  46.83300 11.16800 28.15000
H  47.59900 9.61100 28.10900
H  47.77700 10.69900 29.52600
H  44.34200 11.15200 33.61000
H  46.89500 9.04900 36.60600
H  45.49400 9.75100 37.24500
H  46.99900 10.77400 36.89000

