158

Mg 41.17900 8.64700 29.65700
C  43.04500 9.49300 32.40300
C  38.85700 7.31000 31.71100
C  39.60200 7.47500 26.98800
C  44.03900 9.08900 27.56300
N  41.02300 8.26900 31.86300
C  41.81800 8.92600 32.78700
C  41.16400 8.81400 34.21500
C  40.07200 7.70000 33.99300
C  39.98400 7.75500 32.41500
C  40.54700 6.29000 34.58200
C  40.63900 10.22600 34.69700
C  40.43700 10.47200 36.23300
H  41.48000 11.22000 37.04200
N  39.32800 7.64400 29.33300
C  38.50100 7.21400 30.34600
C  37.20500 6.84100 29.74000
C  37.37200 6.93600 28.30500
C  38.76500 7.35400 28.10400
C  35.98500 6.46600 30.56100
C  36.43300 6.61900 27.03100
O  36.87400 6.57200 25.87400
C  35.05600 6.42600 27.25800
N  41.91100 8.00700 27.72000
C  40.93400 7.69400 26.80700
C  41.47600 7.52000 25.35900
C  42.86900 8.18500 25.49600
C  42.94800 8.44400 27.00200
C  41.44200 6.03000 24.85000
C  43.03900 9.54200 24.67500
C  41.91100 10.59300 24.72100
N  43.24700 9.16500 29.84500
C  44.30100 9.33800 28.93700
C  45.36200 9.94000 29.76500
C  44.92100 10.09400 31.06200
C  43.64500 9.53800 31.06800
C  46.61300 10.50200 29.21200
C  45.26300 10.60200 32.37800
O  46.17600 11.29100 32.77700
C  44.10200 10.14700 33.30900
C  44.62500 9.22100 34.33000
O  44.50300 8.01000 34.30200
O  45.42100 9.96400 35.19600
C  46.29300 9.14700 36.15700
H  38.12400 7.05400 32.48000
H  39.08500 7.35900 26.03300
H  44.88900 9.37100 26.93700
H  41.96500 8.43900 34.85300
H  39.09200 7.95200 34.39900
H  41.61300 6.37800 34.78900
H  40.33700 5.53400 33.82500
H  39.87600 5.88500 35.34000
H  39.73100 10.40300 34.12100
H  41.43600 10.86700 34.32000
H  40.22900 9.51700 36.71700
H  39.51000 11.03500 36.33700
H  35.95300 5.37800 30.62100
H  35.03000 6.76000 30.12400
H  36.01300 6.81300 31.59400
H  34.64100 6.09300 26.30700
H  34.58100 7.33900 27.61900
H  34.85600 5.56700 27.89800
H  40.89700 8.07700 24.62200
H  43.67400 7.47700 25.29600
H  40.43400 5.67700 24.63500
H  41.93500 5.33800 25.53400
H  42.06800 6.01000 23.95800
H  43.34000 9.13200 23.71100
H  43.90800 10.06300 25.07700
H  41.63200 10.84700 23.69900
H  42.37300 11.48200 25.15000
H  41.03700 10.29300 25.29900
H  46.42100 11.23800 28.43100
H  47.05400 9.61900 28.75000
H  47.04800 11.04100 30.05300
H  43.71200 11.05000 33.77900
H  46.78600 8.38800 35.55000
H  45.65000 8.67100 36.89700
H  46.92600 9.83500 36.71800
Mg -0.13300 44.30200 27.29800
C  2.27200 44.29000 29.96600
C  -2.61400 43.63500 29.60400
C  -2.14500 43.63500 24.69200
C  2.62600 44.56500 25.03300
N  -0.15200 43.85500 29.53600
C  0.89900 44.10500 30.38400
C  0.40900 44.05000 31.86000
C  -1.04800 43.41900 31.66200
C  -1.33400 43.68600 30.16700
C  -1.34700 41.89800 32.06500
C  0.52500 45.44000 32.57700
C  0.82700 45.33600 34.07500
H  0.68200 43.97500 34.81700
N  -2.15100 43.83300 27.21900
C  -2.98700 43.68600 28.27800
C  -4.33700 43.62100 27.71100
C  -4.20400 43.56700 26.33000
C  -2.81000 43.73000 25.98300
C  -5.58400 43.56800 28.61200
C  -5.36400 43.45700 25.19600
O  -5.11900 43.42900 24.00800
C  -6.77300 43.44300 25.57300
N  0.19300 44.05600 25.12300
C  -0.80300 43.83800 24.27800
C  -0.34000 43.87500 22.82800
C  1.04700 44.53800 22.96300
C  1.33700 44.29100 24.47200
C  -0.17900 42.49700 22.10900
C  1.10900 46.01600 22.57700
C  1.05900 47.04100 23.71000
N  2.07800 44.44400 27.44100
C  3.01100 44.61600 26.43400
C  4.30800 44.71700 26.96500
C  4.04900 44.64000 28.36500
C  2.66700 44.43500 28.61600
C  5.58400 44.90600 26.20300
C  4.66700 44.66200 29.72900
O  5.84300 44.69100 30.12900
C  3.54100 44.58200 30.78600
C  3.84200 43.49000 31.75600
O  3.64200 42.26300 31.50800
O  4.18400 43.96100 32.94500
C  4.77200 42.84800 33.80000
H  -3.44200 43.42500 30.28300
H  -2.85300 43.63300 23.86200
H  3.50200 44.69400 24.39300
H  1.05500 43.33200 32.36600
H  -1.69400 44.07600 32.24500
H  -1.76000 41.39900 31.18800
H  -2.13800 41.81800 32.81000
H  -0.39800 41.40100 32.26600
H  -0.42800 45.96900 32.56900
H  1.27300 46.08700 32.11900
H  0.19400 46.02700 34.63100
H  1.89500 45.55500 34.09400
H  -5.34300 43.33900 29.65000
H  -6.13800 42.72400 28.20200
H  -6.23200 44.41800 28.39800
H  -6.81000 44.13000 26.41900
H  -7.15800 42.47200 25.88500
H  -7.35500 43.97100 24.81800
H  -1.02900 44.46900 22.22900
H  1.85100 44.03700 22.42300
H  -0.40100 41.67800 22.79400
H  0.74800 42.33600 21.55900
H  -0.91500 42.45100 21.30600
H  0.22100 46.28500 22.00500
H  1.99600 46.23000 21.98200
H  1.11600 46.81600 24.77500
H  0.31500 47.82800 23.59300
H  2.03000 47.51900 23.58200
H  5.62900 44.40500 25.23600
H  6.22200 44.49600 26.98600
H  5.95700 45.91900 26.04700
H  3.56100 45.57800 31.22800
H  4.11600 42.03100 34.09800
H  5.32600 43.15900 34.68500
H  5.55700 42.45400 33.15400

