158

Mg 2.25300 -1.64900 44.06500
C  5.71900 -1.16400 43.63700
C  1.70000 1.22100 42.35500
C  -1.05400 -2.46600 43.85700
C  2.89800 -4.82900 45.33400
N  3.57200 -0.19500 43.05000
C  4.95300 -0.14000 43.09500
C  5.40900 1.16800 42.44200
C  4.09900 1.95100 42.09500
C  3.02300 0.96500 42.53600
C  4.05500 3.40300 42.59600
C  6.31800 0.76600 41.15800
C  7.62000 1.57500 40.91400
H  7.65900 2.38900 39.60500
N  0.55100 -0.75800 43.20100
C  0.56500 0.44900 42.59000
C  -0.80100 0.96600 42.38500
C  -1.65300 -0.09600 42.83900
C  -0.72200 -1.15600 43.36000
C  -1.12400 2.33800 41.80100
C  -3.23700 -0.13700 42.72500
O  -3.94600 0.87200 42.51100
C  -4.05100 -1.44100 42.86300
N  1.12500 -3.39700 44.45700
C  -0.21600 -3.50100 44.26800
C  -0.80000 -4.90300 44.63400
C  0.48700 -5.60700 45.06600
C  1.59700 -4.54600 44.94800
C  -1.98100 -4.91200 45.68500
C  0.87300 -6.94900 44.30000
C  0.81800 -8.28900 45.08700
N  3.95400 -2.77800 44.59700
C  4.07400 -4.02100 45.16500
C  5.48500 -4.28600 45.36400
C  6.17700 -3.15400 44.85800
C  5.21000 -2.29900 44.31900
C  6.09500 -5.53500 46.00300
C  7.51800 -2.57400 44.67900
O  8.61700 -2.94700 44.97900
C  7.18900 -1.24500 43.77800
C  7.77600 0.01200 44.45400
O  7.56600 0.34300 45.57800
O  8.68800 0.60400 43.64600
C  9.34400 1.88800 44.01600
H  1.39200 2.18200 41.93600
H  -2.11200 -2.73000 43.79300
H  3.04700 -5.85700 45.66800
H  6.06500 1.58900 43.20400
H  4.08400 2.08700 41.01400
H  3.35800 3.59300 43.41200
H  3.63800 3.98800 41.77700
H  5.02800 3.79300 42.89700
H  5.83000 0.87500 40.18900
H  6.39600 -0.32200 41.15900
H  8.34000 0.75700 40.89200
H  7.87400 2.16400 41.79600
H  -0.57400 2.31400 40.86000
H  -0.64700 3.10200 42.41400
H  -2.16000 2.67100 41.73300
H  -3.99700 -1.78200 43.89700
H  -3.61300 -2.24100 42.26600
H  -5.08000 -1.18500 42.61100
H  -1.24200 -5.36800 43.75200
H  0.38800 -5.91100 46.10800
H  -2.08500 -3.87800 46.01500
H  -1.90500 -5.56100 46.55800
H  -2.91400 -5.10100 45.15500
H  1.89500 -6.97900 43.92100
H  0.27800 -6.91100 43.38800
H  0.11000 -8.94900 44.58400
H  0.34200 -8.13800 46.05600
H  1.74500 -8.85300 45.18900
H  5.95200 -6.32200 45.26200
H  5.48000 -5.85700 46.84300
H  7.12000 -5.42700 46.35800
H  7.64500 -1.46200 42.81300
H  10.24900 1.61400 44.55800
H  8.71200 2.52200 44.63800
H  9.71400 2.45000 43.15900
Mg -12.44900 37.25900 42.03700
C  -10.08300 34.92500 41.04000
C  -10.52300 39.77100 40.60800
C  -15.08300 39.27400 42.30700
C  -14.54300 34.54900 42.97400
N  -10.72800 37.29900 40.65400
C  -9.81400 36.24800 40.61600
C  -8.56000 36.69400 39.75900
C  -8.60400 38.23400 39.91000
C  -10.06700 38.45200 40.47900
C  -7.50100 38.76300 40.82200
C  -8.63500 36.17300 38.22700
C  -7.34800 35.58900 37.67900
H  -6.58500 36.47300 36.65200
N  -12.78500 39.31400 41.52600
C  -11.84700 40.21200 41.01600
C  -12.43000 41.51100 40.95100
C  -13.73900 41.38200 41.47600
C  -13.95900 39.96100 41.80700
C  -11.67600 42.69400 40.39100
C  -14.82700 42.51900 41.48200
O  -14.55400 43.65100 41.09500
C  -16.16400 42.24500 42.04900
N  -14.57200 36.92500 42.46600
C  -15.42600 37.95900 42.56200
C  -16.79800 37.51500 43.11400
C  -16.65800 36.01200 43.35400
C  -15.13800 35.81600 43.00300
C  -17.25200 38.34100 44.31500
C  -17.63700 35.09000 42.46900
C  -18.44000 34.10000 43.34900
N  -12.32200 35.14900 42.12300
C  -13.19900 34.18800 42.62100
C  -12.52100 32.92100 42.72900
C  -11.30900 33.11600 42.07100
C  -11.24500 34.47000 41.65200
C  -13.03600 31.65900 43.31100
C  -10.10400 32.55600 41.48400
O  -9.71300 31.39700 41.65300
C  -9.29400 33.66400 40.78800
C  -7.99700 33.64000 41.47300
O  -7.67400 34.46000 42.31400
O  -7.27000 32.60300 40.99900
C  -5.96100 32.58300 41.60500
H  -9.82400 40.54200 40.27800
H  -15.99500 39.87000 42.37300
H  -15.28000 33.84900 43.37400
H  -7.66700 36.32200 40.26100
H  -8.53300 38.72400 38.94000
H  -7.12900 37.86200 41.31000
H  -7.84500 39.41800 41.62300
H  -6.71600 39.29100 40.28100
H  -8.99000 36.97100 37.57500
H  -9.39300 35.39000 38.20800
H  -7.54700 34.66300 37.14000
H  -6.72000 35.31700 38.52800
H  -11.88600 42.75100 39.32300
H  -10.60200 42.73000 40.57500
H  -11.98000 43.54700 40.99800
H  -16.62500 41.49100 41.41000
H  -16.72700 43.17800 42.07600
H  -15.92500 41.94100 43.06800
H  -17.45300 37.75300 42.27600
H  -16.73600 35.64400 44.37700
H  -17.69900 37.66000 45.04000
H  -18.01500 39.08700 44.09200
H  -16.34400 38.82000 44.68100
H  -17.03200 34.62500 41.69000
H  -18.41200 35.69100 41.99300
H  -18.28000 34.24100 44.41700
H  -17.96200 33.15500 43.09000
H  -19.42500 34.05600 42.88400
H  -14.07400 31.49300 43.02200
H  -13.02800 31.56700 44.39700
H  -12.44500 30.91100 42.78200
H  -9.17800 33.52000 39.71400
H  -6.01800 32.06300 42.56100
H  -5.41000 33.52000 41.68800
H  -5.40900 31.92600 40.93300

