158

Mg 2.35400 -0.64200 43.94200
C  5.74400 0.12000 43.24900
C  1.43900 2.22900 42.46100
C  -0.60700 -1.80500 44.10600
C  3.67200 -3.78100 45.34300
N  3.48600 0.94500 43.00300
C  4.84400 1.12300 42.88100
C  5.20500 2.49100 42.30600
C  3.81500 3.26400 42.28600
C  2.85700 2.08600 42.56900
C  3.62600 4.47100 43.27900
C  5.82900 2.42500 40.94000
C  6.91300 3.50100 40.55100
H  6.71600 4.04600 39.14300
N  0.57000 0.12400 43.46100
C  0.37000 1.32700 42.81200
C  -1.05600 1.51000 42.57300
C  -1.68400 0.37900 43.13100
C  -0.60700 -0.48600 43.60900
C  -1.66100 2.80000 41.97600
C  -3.14700 0.18000 43.27600
O  -3.99600 1.01800 43.03000
C  -3.79600 -1.08700 43.80800
N  1.68500 -2.54400 44.63500
C  0.35500 -2.74800 44.46900
C  0.04000 -4.24400 44.91000
C  1.36200 -4.86800 45.36500
C  2.33300 -3.67600 45.09200
C  -1.20600 -4.37000 45.88700
C  1.70600 -6.19000 44.72300
C  2.17100 -7.25500 45.73800
N  4.28900 -1.70000 44.25000
C  4.62200 -2.84700 44.90800
C  6.09500 -2.94000 44.98500
C  6.54800 -1.81300 44.32700
C  5.41300 -1.07100 43.89000
C  6.94200 -4.05400 45.58200
C  7.79300 -1.13700 43.90300
O  8.93200 -1.48400 43.99800
C  7.30500 0.14000 43.18300
C  7.74300 1.17600 44.10600
O  7.31900 1.36400 45.22000
O  8.64500 1.97400 43.53800
C  9.15000 3.02300 44.37600
H  1.25200 3.26900 42.18300
H  -1.58900 -2.25600 43.95200
H  4.05300 -4.69900 45.79400
H  5.91100 2.98600 42.97300
H  3.55900 3.67500 41.30900
H  4.36900 4.53400 44.07400
H  2.68600 4.45700 43.83200
H  3.68200 5.32200 42.60100
H  5.04900 2.32600 40.18500
H  6.26000 1.44900 40.71600
H  7.84200 2.94300 40.67100
H  6.75300 4.27500 41.30100
H  -0.97100 3.30900 41.30400
H  -1.76700 3.52800 42.78000
H  -2.47500 2.58500 41.28300
H  -4.85000 -0.83200 43.91800
H  -3.37400 -1.20100 44.80700
H  -3.61900 -2.01800 43.26900
H  -0.30200 -4.72700 43.99400
H  1.37500 -4.99600 46.44800
H  -0.84800 -4.68600 46.86600
H  -1.95900 -5.03000 45.45600
H  -1.71100 -3.42700 46.09700
H  2.61500 -6.03300 44.14300
H  1.01800 -6.54900 43.95700
H  2.18700 -8.26400 45.32700
H  1.53000 -7.26000 46.62000
H  3.21500 -7.01900 45.94700
H  6.87300 -4.91200 44.91300
H  6.58700 -4.38400 46.55900
H  7.94600 -3.68200 45.78400
H  7.75700 0.27700 42.20100
H  9.93200 3.41000 43.72300
H  9.71000 2.77800 45.27800
H  8.39200 3.77300 44.60000
Mg 48.92900 34.19100 27.02800
C  46.43800 33.00900 29.27900
C  49.42900 36.88200 28.98000
C  50.80200 35.47300 24.61100
C  47.96800 31.50500 24.92900
N  48.01900 34.83500 28.89100
C  47.14400 34.15900 29.71500
C  47.07400 34.81800 31.04400
C  47.76200 36.21900 30.73400
C  48.46200 35.98300 29.43400
C  46.85800 37.50300 30.63400
C  47.81500 33.91700 32.05400
C  47.48900 33.99300 33.54200
H  46.50900 34.94400 34.15600
N  50.11500 35.98200 26.82900
C  50.22200 36.92600 27.79900
C  51.19400 37.93900 27.42600
C  51.65000 37.53900 26.09000
C  50.82400 36.28700 25.74200
C  51.59500 39.11200 28.28100
C  52.80100 38.19000 25.17400
O  53.14100 37.65400 24.10700
C  53.58800 39.37800 25.72600
N  49.07400 33.65100 24.95000
C  50.13200 34.30800 24.28700
C  50.43000 33.63900 22.97600
C  49.68400 32.20100 23.15400
C  48.86800 32.42800 24.45600
C  49.72600 34.32700 21.69000
C  50.64600 30.94500 23.31100
C  52.14400 31.10400 22.99500
N  47.49500 32.55200 27.04200
C  47.18200 31.59100 26.12500
C  46.14900 30.67900 26.62800
C  45.79100 31.26400 27.80500
C  46.61000 32.35800 28.04300
C  45.53300 29.50500 25.86000
C  44.88200 31.13000 28.84900
O  44.01300 30.30900 29.06200
C  45.18300 32.30100 29.88400
C  45.48700 31.65200 31.14000
O  46.28600 30.74000 31.35100
O  44.60600 32.15100 31.99100
C  44.58200 31.53400 33.31000
H  49.62400 37.71300 29.66200
H  51.28700 35.92700 23.74400
H  47.75400 30.63200 24.30800
H  46.02700 34.77400 31.34500
H  48.48700 36.49400 31.50000
H  47.14700 38.20700 31.41500
H  45.87300 37.08700 30.84500
H  46.78700 37.98300 29.65800
H  48.87200 34.16700 31.95900
H  47.63300 32.86100 31.85400
H  48.40900 34.15400 34.10300
H  47.11000 33.00200 33.79200
H  50.87400 39.28500 29.08000
H  51.64200 40.08400 27.78900
H  52.56000 39.02700 28.78000
H  52.95000 40.25400 25.85000
H  54.24600 39.82200 24.97900
H  54.18800 39.22300 26.62300
H  51.50400 33.72900 22.81800
H  48.96400 32.01300 22.35700
H  49.96300 33.74400 20.80000
H  50.21200 35.29900 21.61300
H  48.65000 34.39100 21.85600
H  50.17600 30.06600 22.87000
H  50.68900 30.71400 24.37600
H  52.74900 31.65100 23.71900
H  52.16400 31.46400 21.96700
H  52.48400 30.07300 23.09600
H  44.88400 28.92800 26.51900
H  46.39700 28.92000 25.54600
H  44.95000 29.88700 25.02200
H  44.42200 33.08100 29.91000
H  45.58000 31.59000 33.74300
H  44.33600 30.47400 33.24300
H  43.92600 32.07800 33.98900

