158

Mg 55.39900 25.74300 44.62100
C  52.35600 27.35300 43.76900
C  53.98700 22.86300 43.66300
C  58.38700 24.48800 44.59300
C  56.62200 28.96900 45.72900
N  53.41500 25.20700 43.38000
C  52.28600 25.98300 43.43100
C  51.12000 25.14200 42.96700
C  51.60300 23.72600 43.50500
C  53.14400 23.93600 43.46300
C  51.15000 23.40200 45.00300
C  50.57700 25.17000 41.51700
C  49.11100 24.73600 41.39400
H  48.72000 23.73300 40.25600
N  56.12700 23.83300 44.16900
C  55.33700 22.82000 43.77800
C  56.17100 21.66800 43.78100
C  57.48500 22.08100 44.12200
C  57.43500 23.53900 44.31300
C  55.61200 20.26400 43.46300
C  58.62000 21.12700 44.07000
O  58.43000 19.90800 43.73400
C  60.05700 21.65500 44.22900
N  57.14900 26.59600 45.11300
C  58.28100 25.80700 45.03500
C  59.58400 26.72400 45.33500
C  58.97400 28.05200 45.85800
C  57.49700 27.85200 45.52600
C  60.58400 26.12800 46.38600
C  59.69600 29.35000 45.32000
C  59.09800 30.06200 44.08100
N  54.69100 27.75800 44.80300
C  55.23500 28.87200 45.42600
C  54.19600 29.90700 45.49100
C  53.09000 29.38200 44.84700
C  53.40000 28.00600 44.47400
C  54.30300 31.24700 46.04400
C  51.77600 29.67800 44.37000
O  51.21200 30.70600 44.51000
C  51.24500 28.42300 43.63100
C  51.06800 28.75500 42.19900
O  51.94600 29.17900 41.47100
O  49.79400 28.50900 41.86100
C  49.47500 29.09500 40.55600
H  53.56700 21.85700 43.60600
H  59.38600 24.04700 44.59700
H  57.07300 29.90200 46.07200
H  50.25800 25.46200 43.55200
H  51.24100 22.91000 42.87900
H  52.03200 23.29700 45.63400
H  50.67400 22.43500 44.84200
H  50.39100 24.12100 45.31200
H  51.15300 24.47900 40.90100
H  50.71500 26.20900 41.21900
H  48.59300 25.66600 41.15800
H  48.71700 24.34100 42.33000
H  55.63100 20.13600 42.38100
H  54.55800 20.20200 43.73500
H  56.09000 19.43500 43.98500
H  60.37300 22.38500 43.48400
H  60.80300 20.86000 44.21500
H  60.16100 22.15400 45.19200
H  59.98100 26.83200 44.32500
H  59.09300 27.99500 46.94000
H  60.86200 26.76900 47.22200
H  61.46500 25.70700 45.90200
H  60.01800 25.34400 46.88700
H  60.73000 29.05400 45.14600
H  59.69200 30.10200 46.11000
H  59.99600 30.22100 43.48300
H  58.55700 30.94800 44.41100
H  58.35200 29.42300 43.61000
H  53.68000 31.29700 46.93700
H  53.96600 31.99200 45.32400
H  55.32000 31.50200 46.34100
H  50.39800 28.03500 44.19600
H  50.15400 29.84600 40.15200
H  48.42400 29.38200 40.61200
H  49.45300 28.33600 39.77400
Mg -0.30000 42.89000 26.54800
C  1.92600 43.12600 29.26100
C  -2.80900 42.66600 28.76200
C  -2.28500 42.19900 23.95100
C  2.47600 43.19300 24.30200
N  -0.40800 42.62900 28.81100
C  0.61700 42.90900 29.65200
C  0.04900 42.87500 31.12900
C  -1.48100 42.47900 30.90700
C  -1.59600 42.56900 29.41100
C  -1.86700 41.02700 31.47800
C  0.36000 44.23100 31.90100
C  1.00700 44.39700 33.33400
H  0.71400 43.24300 34.36200
N  -2.30500 42.59200 26.33700
C  -3.12700 42.61800 27.36700
C  -4.47800 42.51400 26.85400
C  -4.39500 42.16500 25.46000
C  -2.94000 42.33900 25.15100
C  -5.77100 42.83800 27.72900
C  -5.46800 41.73700 24.40700
O  -5.15600 41.46100 23.25200
C  -6.86700 41.73000 24.86800
N  0.06800 42.78900 24.35300
C  -0.93700 42.38900 23.56200
C  -0.37700 42.42400 22.06800
C  1.10400 42.88000 22.16600
C  1.22300 42.98000 23.68600
C  -0.49100 40.94600 21.58200
C  1.28900 44.19700 21.41500
C  1.97000 44.12900 20.00100
N  1.74100 43.04300 26.67500
C  2.75400 43.21200 25.74200
C  4.01500 43.41200 26.46000
C  3.73100 43.26700 27.81500
C  2.37400 43.12700 27.90500
C  5.26400 43.83700 25.72900
C  4.26800 43.43400 29.13300
O  5.44200 43.61100 29.45600
C  3.10000 43.36200 30.15300
C  3.44200 42.17900 30.97000
O  3.68600 41.02400 30.54100
O  3.71200 42.62700 32.25000
C  4.28500 41.50300 33.11100
H  -3.69500 42.57700 29.39400
H  -2.88900 42.04400 23.05400
H  3.29900 43.41100 23.61700
H  0.58900 42.04700 31.58800
H  -2.16500 43.27600 31.19700
H  -0.94900 40.53000 31.79100
H  -2.38900 40.41800 30.73900
H  -2.54300 41.05000 32.33300
H  -0.56600 44.80600 31.91500
H  1.04400 44.84900 31.32000
H  0.60300 45.31100 33.77000
H  2.08100 44.56600 33.25600
H  -6.40800 43.46900 27.10900
H  -5.68500 43.43600 28.63600
H  -6.30500 41.92400 27.98700
H  -6.85500 41.55800 25.94400
H  -7.52900 41.03800 24.34700
H  -7.36600 42.68800 24.73000
H  -1.04900 42.99900 21.43100
H  1.83200 42.12300 21.87300
H  0.23200 40.44100 22.22300
H  -0.23300 40.74100 20.54300
H  -1.41700 40.38900 21.72000
H  1.96200 44.82800 21.99500
H  0.36900 44.75300 21.23600
H  1.16900 44.39000 19.31000
H  2.35100 43.14000 19.74700
H  2.75800 44.86600 19.84500
H  5.63000 42.96200 25.19200
H  6.02300 44.27300 26.37900
H  4.84000 44.55400 25.02500
H  2.96700 44.36700 30.55300
H  4.58400 40.55100 32.67200
H  3.50200 41.23800 33.82100
H  5.08600 41.96300 33.69000

