158

Mg 0.09200 7.60400 25.20700
C  0.85700 9.69100 27.79800
C  0.47100 4.89500 27.28900
C  -0.41800 5.61700 22.61600
C  0.28300 10.31800 23.05200
N  0.70800 7.28800 27.28500
C  0.85600 8.34900 28.18900
C  1.19400 7.81000 29.59500
C  1.14500 6.30400 29.36300
C  0.77700 6.10300 27.92800
C  2.45400 5.55500 29.70000
C  0.22100 8.28600 30.65200
C  0.94800 8.67900 32.00600
H  1.52700 7.50700 32.84000
N  -0.20700 5.57400 25.05800
C  -0.07700 4.63200 25.99100
C  -0.25800 3.27000 25.33900
C  -0.51100 3.40700 23.99300
C  -0.45200 4.97400 23.84300
C  -0.07500 2.01700 26.15800
C  -0.77700 2.29800 22.94900
O  -1.17900 2.54700 21.83900
C  -0.50700 0.77700 23.37200
N  0.09100 7.90300 23.15800
C  -0.24900 6.96500 22.25900
C  -0.56900 7.46400 20.88300
C  -0.37300 8.99900 21.05300
C  0.07400 9.09800 22.51100
C  0.19900 6.86700 19.72800
C  -1.54100 9.95400 20.64500
C  -2.85700 9.85200 21.30400
N  0.59200 9.56700 25.33700
C  0.62900 10.53900 24.37700
C  0.78600 11.86000 24.95100
C  1.01400 11.53500 26.29500
C  0.78100 10.14700 26.50100
C  0.84100 13.18500 24.39100
C  1.30200 12.13300 27.55900
O  1.62000 13.27400 27.90100
C  1.20800 10.97200 28.67900
C  2.43000 10.96900 29.54300
O  3.44900 10.38200 29.30800
O  2.17800 11.57800 30.71800
C  3.32900 11.68900 31.69900
H  0.48300 4.09100 28.02800
H  -0.86800 4.96600 21.86300
H  0.14600 11.24100 22.48600
H  2.22800 8.10500 29.77300
H  0.45800 5.87300 30.09100
H  2.68600 4.86100 28.89100
H  2.33400 4.95100 30.59900
H  3.26900 6.25900 29.86800
H  -0.53200 7.52600 30.86200
H  -0.27600 9.16900 30.25000
H  0.23800 9.31300 32.53700
H  1.85000 9.20000 31.68200
H  -1.04700 1.54200 26.03400
H  0.01000 2.36000 27.19000
H  0.85000 1.47600 25.96100
H  -1.34200 0.43100 23.98300
H  0.46200 0.82200 23.86800
H  -0.39000 0.10900 22.51900
H  -1.62800 7.32300 20.66800
H  0.54400 9.30500 20.54900
H  -0.38700 6.60100 18.84800
H  0.69300 5.94200 20.02300
H  0.88200 7.62600 19.34600
H  -1.69900 9.76900 19.58300
H  -1.13100 10.96400 20.61200
H  -2.78400 9.13200 22.11900
H  -3.58400 9.54800 20.55100
H  -3.19200 10.77700 21.77400
H  0.00400 13.71000 24.85200
H  0.68300 13.21900 23.31300
H  1.77900 13.63100 24.72200
H  0.46200 11.37500 29.36400
H  3.75500 10.71400 31.93700
H  3.03700 12.10100 32.66500
H  4.15300 12.24500 31.25200
Mg 7.84600 2.95200 26.81400
C  8.90200 1.54700 29.75300
C  6.16700 5.38500 28.68500
C  6.56700 4.39800 23.93300
C  9.05200 0.24300 24.98500
N  7.57200 3.41900 28.98600
C  8.13600 2.69900 29.97300
C  7.90700 3.38200 31.32700
C  6.80900 4.48000 30.94500
C  6.86700 4.47900 29.44900
C  5.38300 4.13500 31.47800
C  9.21800 3.94300 31.92700
C  9.78300 3.50100 33.26700
H  9.89900 4.67100 34.28200
N  6.49500 4.61300 26.32900
C  5.98700 5.48100 27.27800
C  5.25300 6.55000 26.62000
C  5.36800 6.25000 25.17600
C  6.18000 5.09200 25.07500
C  4.50700 7.61900 27.33200
C  4.71300 7.00600 24.03400
O  4.90600 6.62500 22.85000
C  3.77000 8.11800 24.31900
N  7.87500 2.39900 24.79900
C  7.29300 3.20300 23.79100
C  7.27000 2.41700 22.46600
C  8.25800 1.19700 22.75500
C  8.39300 1.23600 24.29800
C  5.75400 1.92000 22.07600
C  9.67600 1.33700 22.12300
C  10.08000 0.21000 21.19600
N  8.68300 1.17000 27.23800
C  9.21900 0.22000 26.39100
C  9.93400 -0.71900 27.15100
C  9.76200 -0.24500 28.47300
C  9.03800 0.91600 28.47200
C  10.79300 -1.85700 26.69100
C  10.17900 -0.48600 29.85400
O  10.85900 -1.34100 30.36900
C  9.64600 0.74300 30.70700
C  8.89000 0.15700 31.90900
O  7.83500 -0.42400 31.89700
O  9.64700 0.29700 33.03600
C  9.24800 -0.25700 34.36900
H  5.67200 6.16200 29.27200
H  6.24000 4.64000 22.92000
H  9.44800 -0.58400 24.39300
H  7.52900 2.72100 32.10700
H  7.01700 5.44900 31.39700
H  5.32300 3.33300 32.21400
H  4.73800 3.84100 30.65000
H  4.84300 4.97900 31.90700
H  9.05900 5.01400 32.05500
H  10.06000 3.71000 31.27600
H  10.66000 2.92400 32.97300
H  9.10300 2.77500 33.71100
H  3.48700 7.23500 27.31200
H  4.51100 8.65400 26.99000
H  4.77300 7.70800 28.38500
H  2.93800 7.65900 24.85200
H  3.34300 8.37400 23.34900
H  4.16900 9.02300 24.77700
H  7.78800 3.07100 21.76400
H  7.73900 0.27400 22.49800
H  5.09600 2.13900 22.91700
H  5.78400 0.86800 21.79000
H  5.43100 2.47400 21.19600
H  10.41400 1.48800 22.91100
H  9.67900 2.29900 21.61100
H  10.12100 0.73100 20.23900
H  9.31400 -0.54300 21.01200
H  11.08600 -0.12400 21.44900
H  11.30300 -2.28800 27.55200
H  11.44800 -1.45700 25.91700
H  10.26700 -2.64000 26.14400
H  10.52700 1.34800 30.92000
H  10.05200 -0.91500 34.69600
H  8.30500 -0.80300 34.40200
H  9.12100 0.57600 35.06100

