158

Mg 16.80000 52.12600 26.04000
C  18.58400 50.75100 28.59500
C  14.26500 52.88600 28.22700
C  14.93700 53.44700 23.42500
C  19.05900 50.89600 23.73100
N  16.55100 51.91100 28.12500
C  17.47700 51.47400 28.98000
C  17.03200 51.83300 30.43000
C  15.48400 52.14800 30.29400
C  15.39900 52.31700 28.77500
C  14.42700 51.15300 30.89400
C  17.89800 52.94900 31.03900
C  18.44300 52.68200 32.49300
H  17.39700 52.06800 33.45000
N  14.97900 53.20500 25.82400
C  14.05500 53.34500 26.85900
C  12.93200 53.96100 26.39200
C  13.03800 54.11400 24.96700
C  14.34300 53.58400 24.67100
C  11.70300 54.20300 27.29800
C  11.98900 54.56200 23.96200
O  12.15800 54.55800 22.76200
C  10.67000 55.05500 24.44600
N  16.91200 52.11100 23.86700
C  16.04300 52.75000 23.05100
C  16.59300 52.84600 21.58900
C  17.91900 52.04900 21.74000
C  18.00200 51.70700 23.20000
C  15.58800 52.53400 20.42000
C  19.19200 52.83400 21.27400
C  19.86700 52.14300 20.03300
N  18.46900 51.07600 26.11200
C  19.30000 50.58800 25.15000
C  20.39300 49.85100 25.69300
C  20.18800 49.89900 27.06700
C  18.95700 50.59500 27.27100
C  21.50400 49.17600 24.89300
C  20.65700 49.46200 28.37300
O  21.44900 48.58300 28.64700
C  19.67900 50.12700 29.41800
C  19.17400 49.12000 30.35100
O  18.74600 48.01600 30.04800
O  19.44700 49.51100 31.64200
C  19.25300 48.47900 32.66500
H  13.38100 52.97000 28.86300
H  14.45000 53.91900 22.57000
H  19.78900 50.60500 22.97200
H  17.16600 50.93500 31.03400
H  15.38800 53.19500 30.58300
H  13.81500 50.66800 30.13300
H  13.69000 51.73700 31.44600
H  14.78300 50.38900 31.58500
H  17.53600 53.93400 30.74400
H  18.75300 52.94100 30.36300
H  18.91400 53.58300 32.88500
H  19.24000 51.95500 32.33700
H  10.95900 53.41300 27.19100
H  11.18000 55.13200 27.07000
H  11.94300 54.28100 28.35900
H  10.26000 55.28100 23.46100
H  10.72600 55.97600 25.02600
H  10.16600 54.19700 24.89100
H  16.74800 53.92400 21.53400
H  17.73100 51.09900 21.24100
H  16.05300 51.86600 19.69500
H  15.37600 53.38100 19.76900
H  14.65800 52.08500 20.76900
H  19.86400 52.98700 22.11800
H  18.80700 53.80800 20.97000
H  19.24800 52.40700 19.17600
H  20.04500 51.07700 20.17500
H  20.77700 52.62200 19.67000
H  21.89900 49.91400 24.19500
H  21.17200 48.25900 24.40400
H  22.33400 48.88300 25.53500
H  20.21100 50.88900 29.98700
H  18.20500 48.25600 32.46300
H  19.29900 48.76700 33.71500
H  19.83900 47.58700 32.44500
Mg -10.68700 39.63000 40.55600
C  -9.85500 36.45900 39.58200
C  -7.52300 40.73200 39.81500
C  -11.98500 42.85200 40.42600
C  -14.04800 38.49100 41.09200
N  -9.04700 38.75500 39.43000
C  -8.85800 37.39300 39.28200
C  -7.38100 37.07600 38.81200
C  -6.66800 38.36700 39.41900
C  -7.84800 39.37500 39.57700
C  -5.86600 38.18300 40.69900
C  -7.25800 37.18600 37.24700
C  -7.08500 35.88100 36.44700
H  -8.05500 35.60300 35.32200
N  -9.93400 41.45300 40.23000
C  -8.55200 41.73800 39.98900
C  -8.43100 43.13800 39.97600
C  -9.65100 43.76200 40.12200
C  -10.55300 42.65100 40.36000
C  -7.10300 43.77300 39.68900
C  -9.80800 45.26600 40.08900
O  -8.86300 45.93400 39.71600
C  -11.12700 45.96500 40.24100
N  -12.80900 40.59800 40.67400
C  -13.03300 41.93500 40.62800
C  -14.51500 42.27600 40.80200
C  -15.06700 40.86900 41.29700
C  -13.95400 39.89000 40.95200
C  -14.89600 43.40100 41.76200
C  -16.48700 40.57000 40.72800
C  -17.52500 40.02000 41.74000
N  -11.79100 37.79000 40.47200
C  -13.05000 37.52300 40.81000
C  -13.14600 36.08500 40.82700
C  -11.96600 35.53900 40.31000
C  -11.15800 36.68300 40.09500
C  -14.33600 35.25600 41.23600
C  -11.19900 34.37900 39.90600
O  -11.47900 33.20500 39.83100
C  -9.76000 34.96600 39.40100
C  -8.59400 34.30700 40.01900
O  -8.21600 34.40100 41.19000
O  -7.90800 33.68000 39.00100
C  -6.62800 32.88200 39.20200
H  -6.49000 41.07200 39.71400
H  -12.37600 43.83100 40.14200
H  -15.00100 38.11900 41.47400
H  -6.92700 36.20400 39.28300
H  -5.89900 38.73300 38.73800
H  -6.13700 38.85600 41.51300
H  -4.86200 38.57400 40.53400
H  -5.81900 37.16300 41.07800
H  -6.49900 37.91800 36.97300
H  -8.25500 37.57200 37.03300
H  -6.90300 35.01000 37.07700
H  -6.12900 36.13200 35.98600
H  -7.08000 44.20400 38.68800
H  -6.23200 43.15000 39.89200
H  -6.85000 44.67000 40.25400
H  -11.70500 45.91700 39.31900
H  -10.88400 46.97800 40.56300
H  -11.62300 45.56800 41.12700
H  -14.86000 42.49500 39.79100
H  -15.07500 40.89900 42.38700
H  -14.04900 44.02600 42.04800
H  -15.53500 43.03100 42.56300
H  -15.50900 44.06100 41.14800
H  -16.45400 39.76900 39.98900
H  -16.83900 41.41800 40.14000
H  -17.11500 40.03000 42.75000
H  -17.65600 38.93900 41.69400
H  -18.35100 40.72900 41.79900
H  -15.20900 35.74700 41.66700
H  -13.83600 34.50400 41.84700
H  -14.69900 34.69100 40.37700
H  -9.67100 34.82900 38.32300
H  -6.37600 32.73000 40.25100
H  -5.81800 33.18500 38.53900
H  -6.85400 31.81600 39.16100

