158

Mg 42.79000 42.06700 27.10100
C  41.67400 44.36000 29.48200
C  43.93700 40.07100 29.72500
C  44.14400 40.04900 24.79000
C  42.60800 44.56400 24.59900
N  42.73100 42.20400 29.36800
C  42.12400 43.20300 30.07400
C  42.08900 42.87600 31.53300
C  43.05200 41.61100 31.62400
C  43.34300 41.30100 30.15200
C  44.37400 41.81800 32.45400
C  40.64700 42.67100 32.06900
C  40.27200 43.43200 33.36200
H  41.20100 43.51700 34.57000
N  43.68500 40.21300 27.31600
C  44.09200 39.58200 28.39200
C  44.58700 38.24700 28.00000
C  44.42400 38.12500 26.60300
C  44.03500 39.48700 26.14200
C  45.10600 37.15200 28.94200
C  44.62500 36.95200 25.70800
O  44.36000 36.99900 24.52500
C  44.93300 35.56400 26.28100
N  43.60400 42.45300 25.11900
C  44.00900 41.37000 24.36700
C  44.16700 41.72000 22.83300
C  43.76000 43.20200 22.79000
C  43.35300 43.45400 24.25300
C  45.47300 41.40400 22.15100
C  42.58400 43.45900 21.81700
C  41.28300 42.66500 22.24700
N  42.15800 44.07800 26.97600
C  42.03500 44.92900 25.88300
C  41.28400 46.10600 26.30200
C  41.17400 45.96700 27.71300
C  41.78000 44.75600 28.11000
C  40.86200 47.26800 25.45400
C  40.59900 46.57800 28.91400
O  40.20500 47.68700 29.13000
C  40.89200 45.52100 30.08000
C  41.70400 46.34700 31.11000
O  42.90600 46.62300 31.02200
O  40.83900 46.79100 32.08700
C  41.45500 47.66500 33.06800
H  44.17600 39.27300 30.43100
H  44.37000 39.39900 23.94200
H  42.50500 45.30300 23.80100
H  42.63400 43.73500 31.92400
H  42.44600 40.86000 32.13200
H  45.15900 41.62600 31.72200
H  44.43300 41.08000 33.25400
H  44.41800 42.85100 32.79900
H  40.43000 41.60800 32.17400
H  39.91400 42.99200 31.32900
H  39.26400 43.13100 33.64900
H  40.12900 44.45700 33.02100
H  46.15100 37.02100 28.66300
H  44.57600 36.23700 28.67600
H  44.96900 37.38100 29.99900
H  44.14600 35.30100 26.98800
H  45.87500 35.59300 26.82700
H  45.07600 34.88500 25.44000
H  43.46200 41.07500 22.30900
H  44.61700 43.84400 22.58600
H  46.05800 40.80500 22.84900
H  46.05100 42.31200 21.97600
H  45.35300 40.81100 21.24400
H  42.83800 43.17900 20.79500
H  42.37500 44.52600 21.75300
H  40.51500 43.38100 22.53900
H  41.41000 41.94200 23.05200
H  40.80900 42.08000 21.45800
H  40.39400 46.79700 24.59100
H  41.79000 47.81500 25.28600
H  40.20100 47.93600 26.00700
H  39.90700 45.17400 30.39400
H  42.39400 48.06900 32.69000
H  41.54800 47.23200 34.06400
H  40.72700 48.45500 33.25500
Mg 9.60900 47.78200 25.36800
C  7.35500 48.22500 28.10300
C  12.01900 49.24300 27.30200
C  11.70800 47.60200 22.65300
C  6.83400 46.69700 23.34100
N  9.55500 48.75800 27.42000
C  8.66000 48.63200 28.40500
C  9.14800 49.18900 29.74600
C  10.59300 49.75700 29.33700
C  10.77000 49.19900 27.90100
C  10.82800 51.35100 29.32600
C  9.24500 48.18000 30.91600
C  9.74800 48.56200 32.31200
H  8.99500 48.07300 33.51500
N  11.57900 48.33100 25.03100
C  12.39500 48.85900 25.99100
C  13.78000 48.77500 25.50000
C  13.70800 48.19300 24.18400
C  12.29400 48.05500 23.91000
C  14.95500 49.15400 26.32400
C  14.85300 47.83100 23.26500
O  14.74800 47.49500 22.10700
C  16.24900 47.91800 23.79300
N  9.31400 47.38200 23.25700
C  10.39100 47.29100 22.37300
C  9.95200 46.66100 21.04300
C  8.49400 46.21300 21.30100
C  8.18000 46.73900 22.70300
C  10.12300 47.52100 19.77100
C  8.27600 44.72100 20.85600
C  8.30200 43.76900 22.04800
N  7.53900 47.60300 25.62800
C  6.51300 47.03600 24.68200
C  5.22300 47.07200 25.39800
C  5.60100 47.39100 26.77100
C  6.97100 47.73000 26.85300
C  3.91200 46.80500 24.83300
C  5.07700 47.37600 28.09500
O  4.01900 46.95500 28.54300
C  6.17700 47.83600 29.06200
C  6.45500 46.54800 29.79100
O  7.19800 45.71600 29.32200
O  5.84200 46.53500 31.00900
C  6.16700 45.46600 31.96600
H  12.74900 49.75700 27.93200
H  12.41900 47.32900 21.87100
H  6.02700 46.31700 22.71100
H  8.45900 49.99000 30.01300
H  11.33900 49.29800 29.98600
H  10.93400 51.72200 28.30700
H  11.75300 51.54500 29.87000
H  9.99900 51.90700 29.76300
H  9.81700 47.34500 30.51200
H  8.21100 47.84700 31.00000
H  9.70600 49.64700 32.21500
H  10.76700 48.33900 32.62700
H  14.71300 49.56700 27.30400
H  15.53700 49.90800 25.79300
H  15.52900 48.25400 26.54700
H  16.96000 47.57400 23.04200
H  16.35300 47.28100 24.67200
H  16.38700 48.92800 24.17900
H  10.62400 45.83700 20.80400
H  7.74600 46.73300 20.70200
H  9.24800 48.10000 19.47600
H  10.44900 46.85200 18.97400
H  10.98400 48.17200 19.92200
H  9.00600 44.34200 20.14200
H  7.28000 44.69000 20.41300
H  7.30200 43.39500 22.27100
H  8.53000 44.26300 22.99200
H  8.80900 42.83700 21.79800
H  3.53100 47.66300 24.27900
H  3.21100 46.51800 25.61600
H  3.91900 45.86500 24.28100
H  5.81100 48.63200 29.71100
H  5.74000 45.92400 32.85800
H  7.25300 45.41100 31.89400
H  5.70300 44.49800 31.77800

