158

Mg 43.35900 3.76300 47.91700
C  40.89900 6.12800 47.19700
C  40.99500 1.23000 47.53300
C  45.80500 1.26500 48.02600
C  45.76900 6.23400 47.95100
N  41.23800 3.74300 47.26500
C  40.35400 4.84500 47.24100
C  38.85100 4.39300 47.15400
C  39.00100 2.85500 47.50300
C  40.47500 2.57200 47.38900
C  38.24700 2.31900 48.71300
C  38.31100 4.77300 45.73100
C  36.96400 5.53900 45.62700
H  36.82900 6.51600 44.53600
N  43.39000 1.62400 47.82300
C  42.29900 0.80900 47.62800
C  42.64800 -0.54700 47.56000
C  44.04800 -0.58800 47.66600
C  44.51800 0.78900 47.86000
C  41.68100 -1.69000 47.24900
C  44.88200 -1.81200 47.58000
O  44.40100 -2.86500 47.24200
C  46.41900 -1.88200 47.84700
N  45.52000 3.73300 47.73900
C  46.25700 2.60300 47.98400
C  47.77800 2.92000 48.04800
C  47.69200 4.45600 48.33000
C  46.25300 4.85200 47.94900
C  48.68000 2.12900 49.14000
C  48.74300 5.37600 47.51300
C  49.97000 5.91200 48.28300
N  43.39100 5.73900 47.65700
C  44.46200 6.64900 47.71000
C  43.94500 7.96300 47.61100
C  42.60100 7.77800 47.32600
C  42.26300 6.39100 47.34400
C  44.61000 9.26500 47.58800
C  41.27900 8.52800 47.16500
O  41.00400 9.65500 47.32600
C  40.19600 7.45600 46.90300
C  39.04100 7.76900 47.89100
O  39.19700 7.61800 49.10500
O  37.97500 8.43000 47.22400
C  36.80700 8.61600 48.08600
H  40.14600 0.54500 47.48500
H  46.55200 0.46900 47.98400
H  46.55200 6.89800 48.32300
H  38.32800 4.97900 47.91000
H  38.48300 2.33800 46.69500
H  37.86800 3.14700 49.31200
H  38.84400 1.65500 49.33700
H  37.47500 1.59100 48.46300
H  38.38500 3.84400 45.16600
H  39.08000 5.38100 45.25400
H  36.77600 5.99300 46.60100
H  36.21800 4.75100 45.52900
H  40.62700 -1.43800 47.36400
H  41.93800 -2.50100 47.93100
H  41.81800 -2.15400 46.27300
H  46.90700 -1.37700 47.01200
H  46.69900 -2.93500 47.83000
H  46.58300 -1.55500 48.87400
H  48.14600 2.76800 47.03400
H  47.72600 4.63600 49.40500
H  48.18000 1.38700 49.76200
H  49.20500 2.76100 49.85600
H  49.39500 1.58100 48.52500
H  48.26100 6.28000 47.14000
H  49.11200 4.87500 46.61800
H  50.93900 5.41600 48.22000
H  49.78200 5.82600 49.35300
H  50.06900 6.92100 47.88300
H  45.05600 9.35300 48.57800
H  43.99600 10.13000 47.33800
H  45.39600 9.16000 46.83900
H  39.82400 7.55600 45.88300
H  35.97900 8.17900 47.52900
H  36.74200 9.68800 48.27100
H  36.87100 8.18000 49.08300
Mg 52.94400 23.53300 45.47400
C  50.47800 25.67400 44.10500
C  51.16900 20.89100 44.26100
C  55.81000 21.87100 45.45000
C  54.63000 26.47300 46.42500
N  51.04300 23.35000 44.41900
C  50.26100 24.31700 43.79600
C  48.98000 23.74600 43.15800
C  49.14700 22.22700 43.46100
C  50.57100 22.10400 44.06900
C  48.14400 21.68500 44.48000
C  48.93200 24.08300 41.67400
C  47.49500 24.15600 41.05200
H  47.22300 23.24400 39.81100
N  53.41300 21.53100 45.13100
C  52.56800 20.60500 44.71500
C  53.25000 19.36700 44.70000
C  54.59100 19.57800 45.04500
C  54.67900 21.05100 45.20200
C  52.55400 18.03100 44.37400
C  55.64600 18.55200 45.09400
O  55.41100 17.36100 44.93900
C  57.06600 18.95400 45.44700
N  55.04100 24.25200 45.76100
C  56.02200 23.31400 45.79700
C  57.34500 23.90900 46.21400
C  56.90100 25.40600 46.62000
C  55.47700 25.38600 46.16600
C  58.19600 23.02100 47.18300
C  57.82900 26.54600 45.93800
C  58.40600 27.47800 47.01900
N  52.54800 25.61700 45.50500
C  53.32300 26.67400 45.95500
C  52.52400 27.83400 45.96100
C  51.43400 27.52800 45.11600
C  51.50700 26.13600 44.90300
C  52.80800 29.28800 46.38900
C  50.34900 28.08800 44.40500
O  49.88200 29.22400 44.41200
C  49.72100 26.92300 43.59500
C  49.92400 27.27500 42.21500
O  50.99700 27.44000 41.64200
O  48.64900 27.40600 41.61500
C  48.66200 27.89300 40.19500
H  50.51800 20.09100 43.90100
H  56.77400 21.36300 45.39000
H  55.06400 27.41400 46.77000
H  48.06900 24.14400 43.60500
H  49.06300 21.75900 42.47900
H  48.17300 20.61100 44.66300
H  47.21100 21.91800 43.96700
H  48.12800 22.29000 45.38700
H  49.53600 23.41600 41.05800
H  49.30500 25.09900 41.54700
H  47.26800 25.19200 40.80200
H  46.77600 23.73900 41.75700
H  53.12700 17.30400 44.95000
H  52.64600 17.88200 43.29800
H  51.54400 18.11700 44.77600
H  57.54400 19.43200 44.59200
H  57.63500 18.03500 45.59100
H  57.19500 19.46100 46.40300
H  57.99500 24.03900 45.34900
H  56.92000 25.38200 47.71000
H  57.54500 22.18200 47.42900
H  58.45300 23.63400 48.04700
H  59.04900 22.65000 46.61500
H  57.25300 27.09100 45.19000
H  58.75100 26.12400 45.53800
H  59.48900 27.59900 47.00000
H  58.20000 27.21900 48.05700
H  57.97500 28.46300 46.83800
H  52.01500 30.02400 46.25700
H  53.60600 29.68600 45.76300
H  53.15700 29.28100 47.42200
H  48.67200 26.81900 43.87400
H  47.66100 27.75400 39.78600
H  49.47700 27.36500 39.70200
H  48.83900 28.96700 40.13100

