158

Mg 44.48600 5.49600 47.79300
C  42.59300 8.52400 47.60300
C  41.65100 3.89300 46.84800
C  46.27700 2.78500 47.50100
C  47.40500 7.46600 47.97900
N  42.32400 6.17900 47.34900
C  41.77600 7.40900 47.39600
C  40.28400 7.41100 47.07600
C  39.98200 5.89800 47.04800
C  41.38100 5.28200 47.06100
C  39.06100 5.38400 48.20900
C  39.76200 8.08300 45.77700
C  38.24800 7.90800 45.39000
H  37.96600 7.06700 44.17000
N  44.02700 3.55000 47.25100
C  42.83200 3.06900 46.92700
C  42.94300 1.61400 46.92500
C  44.30400 1.26500 47.02400
C  44.95900 2.53300 47.25900
C  41.70100 0.69100 46.77900
C  44.97900 -0.09900 46.94500
O  44.24400 -1.02800 46.65900
C  46.44500 -0.48200 47.22100
N  46.59500 5.22200 47.56900
C  46.99600 3.92600 47.62800
C  48.52000 3.85800 47.95700
C  48.92600 5.39900 48.08600
C  47.57200 6.12400 47.82500
C  48.82400 3.02800 49.27900
C  50.14000 5.85800 47.22200
C  51.19700 6.78100 47.96100
N  44.96600 7.54900 47.74800
C  46.17800 8.18900 47.88000
C  45.95600 9.54100 47.99500
C  44.60100 9.72400 47.86500
C  43.99700 8.45500 47.75500
C  47.01200 10.67300 48.31300
C  43.53900 10.69500 47.93800
O  43.69600 11.88900 48.07800
C  42.16700 9.95700 47.65000
C  41.11800 10.27100 48.64300
O  40.99000 9.63200 49.68000
O  40.26200 11.31300 48.35100
C  39.06700 11.44500 49.23800
H  40.74100 3.29500 46.76400
H  46.85200 1.86000 47.57900
H  48.31000 7.94800 48.35700
H  39.70000 7.77800 47.92000
H  39.45500 5.62600 46.13400
H  39.70200 4.88500 48.93500
H  38.39600 4.60300 47.84100
H  38.56100 6.18000 48.76100
H  40.43200 7.85200 44.94800
H  40.00800 9.14200 45.85200
H  37.77600 8.88100 45.25300
H  37.67100 7.52700 46.23300
H  40.80700 1.28100 46.57700
H  41.66200 0.07200 47.67500
H  41.82700 0.07500 45.88800
H  46.99500 -0.13000 46.34700
H  46.48000 -1.57100 47.18900
H  46.81500 -0.11500 48.17800
H  49.01100 3.28800 47.16800
H  49.21400 5.59800 49.11800
H  49.60100 2.26500 49.23900
H  47.90500 2.56500 49.64000
H  49.20000 3.70000 50.05000
H  49.70900 6.33000 46.33900
H  50.64800 4.96300 46.86200
H  51.39100 7.73200 47.46400
H  52.14200 6.25000 48.07500
H  50.81900 6.99100 48.96200
H  46.43300 11.57300 48.52000
H  47.68400 10.69200 47.45500
H  47.55200 10.44400 49.23100
H  41.77800 10.37400 46.72100
H  39.19200 11.97600 50.18200
H  38.78900 10.42500 49.50200
H  38.17300 11.82900 48.74500
Mg 49.65300 34.80300 26.97200
C  47.50800 33.88400 29.54800
C  50.04800 37.93200 28.45200
C  51.47200 35.81100 24.28200
C  48.91500 31.68200 25.31700
N  48.75900 35.88600 28.71600
C  48.10900 35.18900 29.76400
C  48.17100 36.02600 31.09900
C  48.59900 37.49900 30.56500
C  49.12200 37.12700 29.16300
C  47.37500 38.49000 30.47200
C  49.17300 35.35500 32.07400
C  48.64900 35.27000 33.51700
H  47.57900 36.21900 34.06900
N  50.75500 36.53800 26.44200
C  50.73700 37.73700 27.17900
C  51.61800 38.70200 26.53800
C  52.06900 38.07100 25.36700
C  51.40800 36.74900 25.29200
C  51.80600 40.12100 27.09100
C  53.10000 38.65200 24.42500
O  53.43500 38.02900 23.42900
C  53.67900 39.95000 24.60700
N  49.88300 33.99600 24.99000
C  50.78900 34.60700 24.11100
C  51.22100 33.65200 22.95000
C  50.44700 32.32200 23.31300
C  49.72700 32.61900 24.64100
C  50.86200 34.19400 21.57700
C  51.42800 31.05200 23.37400
C  51.34200 30.08700 22.21800
N  48.42700 33.10900 27.29000
C  48.29200 31.89000 26.57800
C  47.27900 31.08000 27.27300
C  47.00500 31.80700 28.47300
C  47.72500 33.00800 28.46300
C  46.83600 29.69500 26.87800
C  46.23500 31.74200 29.66500
O  45.36000 30.94500 29.91300
C  46.66100 32.95000 30.54200
C  47.49400 32.38600 31.59200
O  48.63000 31.97700 31.46800
O  46.72200 32.23200 32.69000
C  47.34600 31.63200 33.90800
H  50.08300 38.94900 28.84800
H  52.15000 36.11200 23.48100
H  48.75600 30.72100 24.82200
H  47.19000 35.99900 31.57400
H  49.45600 37.91900 31.09300
H  47.48900 39.23600 29.68500
H  47.35700 39.14400 31.34400
H  46.44000 37.95400 30.30900
H  50.11800 35.89000 32.17100
H  49.53300 34.37500 31.76200
H  49.55100 35.34400 34.12400
H  48.27600 34.25500 33.65600
H  51.21900 40.72800 26.40300
H  52.83800 40.47200 27.10400
H  51.45000 40.24500 28.11400
H  53.14000 40.89700 24.59300
H  54.41100 40.02700 23.80300
H  54.22400 39.97100 25.55100
H  52.28000 33.40400 23.01800
H  49.78600 32.21000 22.45300
H  51.71400 33.80500 21.02000
H  51.02000 35.27200 21.53400
H  49.90700 33.87100 21.16200
H  51.22600 30.50600 24.29500
H  52.44100 31.44100 23.47300
H  50.87400 29.15900 22.54500
H  52.27800 29.87400 21.70100
H  50.62000 30.49400 21.51100
H  45.85800 29.63000 27.35500
H  47.46600 28.94700 27.36000
H  46.83200 29.57300 25.79500
H  45.71800 33.33600 30.92900
H  47.04400 30.58600 33.85600
H  46.85200 32.13600 34.74000
H  48.41300 31.84000 33.98800

