158

Mg 17.28000 -1.53100 27.66800
C  16.36400 0.42600 30.40900
C  19.34100 -3.32400 29.85900
C  18.70800 -2.96200 24.98400
C  15.54700 0.76900 25.48700
N  17.77900 -1.43800 29.83700
C  17.16800 -0.60100 30.78300
C  17.62800 -0.89500 32.21100
C  18.89800 -1.83000 31.99900
C  18.65200 -2.26500 30.46900
C  20.32600 -1.23500 32.36200
C  16.57200 -1.51900 33.10700
C  16.42000 -1.07600 34.55300
H  17.13500 -2.13300 35.39800
N  18.65200 -3.14600 27.50200
C  19.42800 -3.71400 28.49500
C  20.24400 -4.72400 27.94500
C  19.99000 -4.69700 26.49700
C  19.11200 -3.53200 26.24500
C  20.83800 -5.79300 28.83800
C  20.53100 -5.58500 25.37600
O  20.08400 -5.50600 24.24100
C  21.59200 -6.69100 25.66700
N  17.00100 -1.18200 25.53700
C  17.68300 -1.95900 24.64100
C  17.50500 -1.49700 23.20400
C  16.25600 -0.44500 23.40200
C  16.26800 -0.25400 24.92000
C  18.74600 -0.87500 22.46800
C  14.89600 -0.86800 22.82800
C  13.75800 -1.26800 23.77200
N  16.13000 0.14600 27.86600
C  15.53800 1.00700 26.89300
C  14.85200 2.07200 27.55700
C  15.07900 1.83600 28.94000
C  15.90400 0.70100 29.08100
C  14.11200 3.12700 26.91100
C  14.70600 2.29900 30.32000
O  14.02000 3.22400 30.69600
C  15.60800 1.38800 31.23800
C  16.46400 2.30000 32.07300
O  17.37000 3.03200 31.69500
O  16.12800 2.19300 33.39000
C  16.92000 3.02600 34.32800
H  20.00200 -3.74600 30.61800
H  19.18100 -3.38800 24.09700
H  15.02100 1.48300 24.85000
H  17.89700 0.07700 32.62300
H  18.82800 -2.74600 32.58500
H  20.86100 -1.00600 31.44000
H  20.88200 -1.89800 33.02500
H  20.14800 -0.34100 32.95900
H  16.73400 -2.59700 33.07800
H  15.62700 -1.34000 32.59400
H  15.36400 -0.99300 34.81000
H  16.91000 -0.10300 34.55700
H  21.92800 -5.79000 28.81600
H  20.43500 -6.76400 28.55000
H  20.44200 -5.66800 29.84600
H  22.49500 -6.39600 26.20200
H  21.94600 -7.09700 24.71900
H  21.16400 -7.58000 26.13000
H  17.25100 -2.41500 22.67400
H  16.57800 0.41500 22.81600
H  19.36200 -1.54000 21.86300
H  19.35900 -0.40100 23.23500
H  18.35300 -0.04200 21.88500
H  15.05300 -1.73800 22.19100
H  14.40800 -0.11300 22.21100
H  13.50000 -0.34900 24.29700
H  14.22800 -1.95800 24.47300
H  12.96900 -1.75500 23.20000
H  14.82200 3.50100 26.17300
H  13.93600 4.01000 27.52400
H  13.15900 2.87300 26.44600
H  14.99700 0.77100 31.89700
H  17.80800 2.51100 34.69500
H  16.23300 3.25500 35.14300
H  17.32200 3.96100 33.93700
Mg 47.78000 34.66800 27.12800
C  46.02300 33.30700 29.71200
C  48.26000 37.51300 29.21000
C  48.80300 36.57300 24.53200
C  46.62800 32.33100 24.92700
N  47.07600 35.34800 29.05100
C  46.70400 34.45200 30.02600
C  46.92900 34.91700 31.47600
C  47.20100 36.45400 31.22500
C  47.51600 36.47100 29.76400
C  45.95900 37.43400 31.55000
C  48.22500 34.23400 32.06200
C  48.41400 34.28100 33.61100
H  47.75800 35.41500 34.45500
N  48.49800 36.70100 26.96300
C  48.69500 37.62000 27.89800
C  49.37900 38.77800 27.38200
C  49.72300 38.47200 26.03100
C  49.00200 37.21300 25.74500
C  49.57300 40.01800 28.24400
C  50.53700 39.27200 24.99100
O  50.67400 38.94200 23.77000
C  51.34300 40.45300 25.52500
N  47.42300 34.64700 24.96200
C  48.13900 35.43200 24.16400
C  48.33500 34.79400 22.68200
C  47.70400 33.40200 22.90900
C  47.20200 33.42200 24.38700
C  47.64400 35.65600 21.61900
C  48.71700 32.17200 22.70600
C  49.72800 31.72500 23.86000
N  46.63200 33.07400 27.24900
C  46.25500 32.21000 26.25200
C  45.51300 31.11600 26.91600
C  45.26000 31.59400 28.21800
C  45.99700 32.73700 28.41500
C  45.01700 29.84900 26.37300
C  44.60900 31.27400 29.43600
O  43.95700 30.32900 29.76900
C  44.94300 32.47600 30.41100
C  45.26500 31.92500 31.81300
O  46.03100 31.03300 32.10700
O  44.39900 32.44800 32.70900
C  44.39200 32.11700 34.13700
H  48.56500 38.27100 29.93500
H  49.22900 36.98600 23.61500
H  46.32600 31.43900 24.37300
H  46.02800 34.76200 32.07000
H  48.06600 36.83400 31.76900
H  45.22700 37.46700 30.74300
H  46.22900 38.48600 31.64700
H  45.33100 37.06600 32.36200
H  49.14500 34.65400 31.65600
H  48.14400 33.19400 31.74400
H  49.48400 34.27500 33.82000
H  47.97800 33.38500 34.05300
H  48.90700 40.03600 29.10700
H  49.57100 40.99000 27.75000
H  50.44800 39.93200 28.88800
H  52.06200 40.70600 24.74500
H  51.82300 40.18100 26.46500
H  50.62100 41.25900 25.65500
H  49.41000 34.71700 22.51400
H  46.86000 33.15000 22.26700
H  47.10800 36.52200 22.00800
H  46.95800 35.05100 21.02500
H  48.38500 36.12400 20.97200
H  49.42300 32.41500 21.91200
H  48.01300 31.37900 22.45400
H  49.66800 30.63700 23.84300
H  49.54000 32.14300 24.85000
H  50.77400 31.96100 23.66600
H  44.85200 28.99700 27.03300
H  45.70200 29.59000 25.56600
H  44.05500 30.06800 25.91200
H  44.03900 33.08500 30.45500
H  45.39900 32.35000 34.48400
H  44.03700 31.11200 34.36600
H  43.76200 32.87500 34.60200

