158

Mg 48.26200 16.60400 28.33200
C  46.10100 16.57300 31.19900
C  50.44300 18.62400 30.14300
C  50.11300 16.78100 25.52400
C  45.68700 15.09900 26.59000
N  48.24900 17.52900 30.42100
C  47.36400 17.21700 31.45400
C  47.89200 17.67300 32.81200
C  49.13200 18.58100 32.37600
C  49.31100 18.17400 30.88900
C  48.97700 20.15200 32.56400
C  48.46900 16.46700 33.62000
C  48.03000 16.36400 35.10800
H  47.57000 17.65200 35.80000
N  50.10800 17.58100 27.87500
C  50.86400 18.35700 28.78400
C  52.05700 18.73400 28.07700
C  51.99400 18.16500 26.75100
C  50.67900 17.53300 26.61400
C  53.09000 19.44100 28.76900
C  53.08100 18.14000 25.63700
O  52.87400 17.63400 24.53400
C  54.44700 18.61000 25.99600
N  47.91700 16.10700 26.34700
C  48.92000 16.10400 25.46400
C  48.52100 15.44400 24.14000
C  47.06000 15.03100 24.37300
C  46.85500 15.40800 25.87000
C  48.49700 16.55300 23.04400
C  46.68700 13.51700 23.92900
C  45.47000 13.43900 22.95500
N  46.36600 15.90000 28.77200
C  45.39300 15.29100 27.98900
C  44.20200 15.00700 28.68700
C  44.44300 15.44000 29.98800
C  45.73100 15.98900 29.99900
C  43.01400 14.30500 28.05200
C  43.95600 15.51300 31.32900
O  42.93300 15.05700 31.74900
C  45.04200 16.36100 32.23200
C  44.46400 17.61500 32.85700
O  44.43800 18.70000 32.28500
O  43.99400 17.27100 34.02800
C  42.71600 17.80700 34.50400
H  51.19000 19.13400 30.75400
H  50.77100 16.66400 24.66000
H  44.99600 14.48800 26.00600
H  47.11500 18.20600 33.36000
H  50.11600 18.41700 32.81500
H  49.68900 20.68200 33.19500
H  47.99400 20.37200 32.98000
H  48.99300 20.61700 31.57800
H  49.55600 16.51000 33.55700
H  48.01800 15.55100 33.23900
H  48.91100 16.10300 35.69400
H  47.28200 15.57100 35.08800
H  53.97400 18.82000 28.91300
H  52.85100 19.92500 29.71700
H  53.42600 20.14900 28.01200
H  54.45600 19.69900 26.04000
H  55.01200 18.45600 25.07700
H  54.92700 18.17800 26.87500
H  49.17000 14.58000 23.99200
H  46.32700 15.63600 23.83900
H  48.89300 17.54300 23.27000
H  47.53600 16.66200 22.54200
H  49.12400 16.08600 22.28500
H  46.43200 12.91200 24.79900
H  47.56700 13.05000 23.48700
H  45.80000 13.52500 21.92000
H  44.72100 14.19300 23.20000
H  45.02100 12.44700 22.99200
H  43.55100 13.40200 27.76200
H  42.74200 14.75000 27.09500
H  42.15400 14.17400 28.70800
H  45.38600 15.72200 33.04600
H  42.94200 18.49800 35.31500
H  42.03400 17.03400 34.85900
H  42.16100 18.29100 33.70100
Mg 49.60800 45.37100 42.35500
C  46.61500 45.93700 40.77100
C  49.40200 42.10500 41.04400
C  52.90200 44.98800 42.95600
C  49.85700 48.89800 42.75600
N  48.24000 44.19400 41.09400
C  47.08200 44.65100 40.49700
C  46.36000 43.68900 39.65700
C  47.22300 42.36300 39.88000
C  48.31300 42.85700 40.86200
C  46.30200 41.21500 40.44500
C  46.32500 44.21900 38.21400
C  44.99600 44.10900 37.47200
H  44.97000 43.32800 36.09400
N  50.89900 43.73400 42.11700
C  50.67600 42.50400 41.57400
C  51.95600 41.74600 41.57200
C  52.83700 42.48800 42.47500
C  52.26200 43.79400 42.54700
C  52.15100 40.36500 40.96800
C  54.09500 41.97200 42.98700
O  54.37600 40.77400 42.94600
C  55.10600 42.82900 43.67100
N  51.19500 46.71500 42.63500
C  52.42500 46.32400 42.96200
C  53.34100 47.51700 43.35600
C  52.31000 48.73100 43.45300
C  51.07300 48.14100 42.79700
C  54.12000 47.23400 44.65100
C  52.87200 50.05900 42.84500
C  52.61700 51.39500 43.62100
N  48.37300 47.00800 42.17900
C  48.60800 48.36400 42.45900
C  47.30400 49.11000 42.31700
C  46.45600 48.14200 41.65900
C  47.22000 46.94100 41.52300
C  47.18200 50.62300 42.66600
C  45.10700 47.92900 41.16600
O  44.10300 48.58400 41.24600
C  45.18900 46.50500 40.49200
C  44.03300 45.74000 40.98700
O  43.02300 45.55700 40.36200
O  44.15500 45.40200 42.26800
C  42.98200 44.70100 42.78700
H  49.30900 41.08500 40.66700
H  53.99200 44.94900 42.90500
H  49.86100 49.98900 42.79900
H  45.33900 43.43800 39.94500
H  47.75700 41.94000 39.02900
H  46.13100 40.49100 39.64900
H  45.32500 41.57100 40.77100
H  46.81400 40.80000 41.31400
H  47.04300 43.65500 37.61800
H  46.79000 45.20200 38.14000
H  44.52200 45.09100 37.44700
H  44.35200 43.41800 38.01600
H  53.16300 40.25200 40.57700
H  51.45800 40.36500 40.12700
H  51.93900 39.55700 41.66800
H  54.84600 43.34000 44.59800
H  55.58700 43.55100 43.01100
H  55.91800 42.13000 43.87300
H  54.09400 47.79800 42.61900
H  51.86500 48.79400 44.44600
H  53.84100 48.05800 45.30800
H  55.17500 47.18800 44.38100
H  53.81800 46.23600 44.96700
H  52.45500 50.13400 41.84100
H  53.93800 49.96800 42.63700
H  52.48000 52.21400 42.91400
H  53.50100 51.53800 44.24200
H  51.75600 51.30100 44.28300
H  47.61100 51.17100 41.82700
H  47.73600 50.92900 43.55400
H  46.19300 50.86800 43.05500
H  45.18700 46.67200 39.41500
H  42.14700 45.35700 43.03500
H  43.31900 44.00000 43.55100
H  42.58800 43.99400 42.05700

