158

Mg 0.93700 7.75300 25.86200
C  1.69100 9.45000 28.84100
C  0.75900 4.86500 27.65600
C  0.69000 6.24600 22.91900
C  1.61700 10.91200 24.12100
N  1.21600 7.22300 28.06300
C  1.42500 8.01400 29.06800
C  1.26000 7.28300 30.44600
C  1.31600 5.75600 29.97000
C  1.11200 5.93400 28.48300
C  2.58400 4.93100 30.21600
C  -0.05600 7.69100 31.12400
C  -0.08500 7.89200 32.63500
H  1.15000 7.70100 33.42200
N  0.75500 5.91900 25.38800
C  0.58000 4.83800 26.27100
C  0.31600 3.60500 25.52400
C  0.40000 3.95300 24.16300
C  0.61700 5.46500 24.11000
C  -0.06200 2.28200 26.08000
C  0.32800 3.06700 22.93300
O  0.38700 3.41700 21.76500
C  0.34400 1.57300 23.02000
N  1.20000 8.51200 23.81500
C  0.99600 7.60900 22.75600
C  1.04600 8.35200 21.41200
C  0.93700 9.85900 21.85800
C  1.33800 9.81100 23.34800
C  2.36600 8.13000 20.59600
C  -0.43500 10.62500 21.70100
C  -0.53000 11.41100 20.41000
N  1.51400 9.80200 26.34700
C  1.76400 10.91900 25.50900
C  1.96500 12.06200 26.46100
C  1.99500 11.53600 27.71900
C  1.76700 10.18200 27.64200
C  2.02600 13.51500 26.07200
C  2.21700 11.91200 29.11400
O  2.71600 12.92500 29.56900
C  1.88100 10.56000 29.91100
C  3.15200 10.47800 30.77100
O  4.17000 9.93400 30.45900
O  2.90300 11.17800 31.89500
C  4.02700 11.40700 32.83900
H  0.55000 3.93200 28.18300
H  0.61400 5.70700 21.97200
H  1.57700 11.88100 23.62100
H  2.20700 7.40700 30.97100
H  0.51300 5.15700 30.40000
H  3.18900 4.80300 29.31900
H  2.30000 3.97600 30.65800
H  3.22400 5.40000 30.96300
H  -0.72300 6.86400 30.87900
H  -0.42000 8.63600 30.72100
H  -0.98300 7.33100 32.89200
H  -0.46900 8.88100 32.88600
H  -1.03100 1.93000 25.72500
H  -0.29700 2.39900 27.13800
H  0.59800 1.42000 25.98600
H  1.04800 1.15300 23.73800
H  0.50200 1.14600 22.03000
H  -0.62300 1.16000 23.30700
H  0.27300 8.09400 20.68800
H  1.52500 10.67600 21.44000
H  3.04200 7.55100 21.22400
H  2.77900 9.11900 20.39800
H  2.02000 7.72200 19.64600
H  -0.70200 11.11300 22.63800
H  -1.27300 9.97900 21.43600
H  -1.14700 12.30300 20.51500
H  -0.98900 10.93700 19.54200
H  0.45800 11.77100 20.12400
H  0.97500 13.79600 26.14500
H  2.41900 13.71400 25.07500
H  2.63200 14.09200 26.77100
H  1.04400 10.78300 30.57200
H  4.84600 12.06500 32.54700
H  4.62900 10.51500 33.01300
H  3.53000 11.83400 33.71000
Mg 9.05700 3.61200 27.74500
C  10.36100 1.95600 30.66400
C  7.14700 5.49100 29.81900
C  7.50700 4.68600 24.97100
C  10.57500 1.02400 25.79500
N  8.79600 3.74000 30.08300
C  9.52600 3.00100 31.04600
C  9.19000 3.51700 32.41900
C  8.05900 4.62700 32.18400
C  7.99100 4.64400 30.59000
C  6.65700 4.37900 32.89700
C  10.42400 3.92900 33.27500
C  10.09000 4.97700 34.33500
H  10.59300 4.84700 35.74500
N  7.63400 5.01000 27.37900
C  6.98400 5.73700 28.37200
C  6.17500 6.73400 27.81500
C  6.40700 6.70500 26.36800
C  7.20100 5.41400 26.15100
C  5.28400 7.75600 28.45800
C  6.01700 7.66000 25.21600
O  6.18200 7.37200 24.01800
C  5.36500 8.99400 25.53900
N  8.86900 2.76200 25.70000
C  8.24700 3.51800 24.68200
C  8.66900 3.10200 23.31200
C  9.45700 1.78400 23.62400
C  9.67300 1.87700 25.11900
C  7.54600 2.94100 22.19800
C  10.80700 1.69800 22.83700
C  11.09200 0.27000 22.18100
N  10.20200 1.96400 28.02200
C  10.78400 1.02700 27.13000
C  11.61500 0.13400 27.84100
C  11.51300 0.52000 29.18300
C  10.63100 1.56600 29.27800
C  12.35900 -1.03800 27.22000
C  11.91500 0.11900 30.50500
O  12.71500 -0.72300 30.82000
C  11.28600 1.10300 31.47000
C  10.50800 0.29700 32.49100
O  9.60100 -0.48100 32.20100
O  11.03800 0.43800 33.71900
C  10.47900 -0.46000 34.70400
H  6.75000 6.27400 30.46900
H  7.12300 5.16700 24.06900
H  11.25300 0.40300 25.20600
H  8.83700 2.69400 33.03900
H  8.38600 5.65800 32.32200
H  5.80400 4.49300 32.22800
H  6.55300 5.23600 33.56200
H  6.70500 3.48200 33.51400
H  11.18200 4.23000 32.55200
H  10.79500 3.01400 33.73600
H  9.00200 5.00700 34.39800
H  10.52500 5.92600 34.02300
H  5.49500 8.81400 28.29800
H  5.29900 7.57100 29.53200
H  4.26200 7.56100 28.13200
H  6.09300 9.54500 26.13600
H  4.39300 8.80700 25.99500
H  5.08700 9.53400 24.63400
H  9.27800 3.94100 22.97500
H  8.81100 0.90800 23.57300
H  7.84400 3.60800 21.39000
H  6.53400 3.24300 22.46700
H  7.43100 1.90600 21.87500
H  11.69300 2.01600 23.38500
H  10.83200 2.40500 22.00800
H  11.30200 0.41000 21.12100
H  10.37700 -0.54600 22.28500
H  12.02400 0.01800 22.68700
H  12.89000 -0.64600 26.35300
H  11.58500 -1.77500 27.00700
H  13.00800 -1.34600 28.04000
H  12.10900 1.60700 31.97800
H  11.32900 -1.05500 35.03800
H  9.66300 -1.11500 34.39600
H  10.00400 0.15000 35.47200

