158

Mg 45.85000 44.76900 43.14000
C  42.43000 44.16500 43.38100
C  46.38900 41.41900 42.64000
C  49.06200 45.55800 42.15700
C  45.12500 48.21400 43.40300
N  44.57100 43.01000 43.02200
C  43.22200 43.00800 43.13000
C  42.60600 41.61100 42.90700
C  43.84400 40.76600 43.01400
C  45.04100 41.74500 42.79300
C  44.05400 39.99500 44.33300
C  41.83700 41.49400 41.55600
C  42.51200 42.09800 40.32600
H  41.89100 41.66200 38.97200
N  47.45100 43.66300 42.54200
C  47.50100 42.27600 42.52200
C  48.86700 41.79700 42.16600
C  49.70000 42.97700 42.18600
C  48.72600 44.15400 42.28200
C  49.30300 40.32100 41.95800
C  51.14500 42.85800 41.97800
O  51.69600 41.76400 41.85200
C  51.97900 44.12600 41.82800
N  46.86600 46.62400 42.72100
C  48.18700 46.64500 42.33500
C  48.64600 48.06300 42.36300
C  47.46000 48.87600 42.79600
C  46.38800 47.85800 43.01000
C  49.90300 48.27500 43.27800
C  47.09600 49.96300 41.74900
C  46.65100 51.30800 42.28900
N  44.15700 46.01600 43.44300
C  44.00300 47.41400 43.48200
C  42.64300 47.76500 43.73700
C  41.92900 46.53300 43.69900
C  42.95600 45.49700 43.50600
C  42.12000 49.18400 43.84000
C  40.65200 45.85800 43.76200
O  39.51400 46.32200 43.97100
C  40.93900 44.30400 43.63700
C  40.43700 43.60600 44.75700
O  39.92600 42.48000 44.75700
O  40.73200 44.24700 45.96500
C  40.50400 43.44400 47.13700
H  46.59300 40.35000 42.55200
H  50.11800 45.81600 42.06200
H  44.95800 49.28000 43.57400
H  41.83600 41.51900 43.67300
H  43.92600 40.07200 42.17800
H  44.99900 40.07000 44.87100
H  43.94500 38.95500 44.02400
H  43.29600 40.28100 45.06200
H  40.81200 41.81900 41.73500
H  41.73200 40.41600 41.43500
H  43.55700 41.80300 40.22200
H  42.51800 43.18800 40.32600
H  50.06300 40.30300 41.17800
H  48.42200 39.82100 41.55400
H  49.64600 39.87800 42.89300
H  51.75400 44.86000 42.60100
H  51.68800 44.48900 40.84200
H  53.01900 43.79800 41.81200
H  49.01200 48.16700 41.34200
H  47.73200 49.37300 43.72700
H  50.71100 48.29000 42.54700
H  50.03500 47.43100 43.95500
H  49.80500 49.18800 43.86500
H  46.25700 49.70500 41.10300
H  47.93500 50.22600 41.10500
H  47.19600 52.10700 41.78500
H  46.70200 51.54900 43.35100
H  45.61000 51.44200 41.99800
H  41.43200 49.35600 44.66900
H  41.63200 49.53100 42.92900
H  42.86100 49.93100 44.12500
H  40.35100 43.95100 42.79000
H  41.37200 42.83300 47.38500
H  39.58400 42.86100 47.09100
H  40.42500 44.16100 47.95400
Mg -0.15700 43.85300 24.71100
C  2.06400 43.70000 27.43000
C  -2.69600 42.78300 26.82900
C  -2.16900 44.06800 22.18800
C  2.72500 44.27700 22.66700
N  -0.30400 43.29300 26.93500
C  0.69500 43.43600 27.84000
C  0.24900 43.01900 29.26400
C  -1.23600 42.50400 28.95600
C  -1.47600 42.95400 27.46300
C  -1.51400 41.02100 29.24200
C  0.26000 44.15400 30.25100
C  0.14000 43.76900 31.75900
H  0.11800 42.32200 32.14800
N  -2.22400 43.59600 24.54300
C  -3.02300 43.11200 25.52800
C  -4.35000 43.13000 24.94100
C  -4.24200 43.46200 23.57300
C  -2.87300 43.78400 23.35200
C  -5.53300 42.67900 25.66400
C  -5.28700 43.51200 22.44300
O  -5.11400 43.98200 21.34500
C  -6.66700 42.88800 22.69900
N  0.29400 44.09700 22.74900
C  -0.79200 44.19000 21.91800
C  -0.24400 44.13700 20.42200
C  1.20300 44.46700 20.65300
C  1.49800 44.30900 22.08800
C  -0.55800 42.66700 19.74100
C  1.61000 45.90100 20.06800
C  1.44100 47.05300 21.05200
N  1.99200 43.86500 24.88000
C  3.02000 44.08100 24.02700
C  4.21600 44.18200 24.64300
C  3.94500 44.00800 26.02300
C  2.55500 43.80900 26.14000
C  5.59100 44.45000 23.98300
C  4.49000 44.00500 27.36300
O  5.60900 44.14400 27.68900
C  3.30500 43.79400 28.35900
C  3.58700 42.50400 29.16500
O  3.80900 41.37600 28.68300
O  3.85100 42.84300 30.43000
C  4.43200 41.77000 31.20200
H  -3.58900 42.38200 27.31300
H  -2.78700 44.18500 21.29500
H  3.58900 44.53800 22.05300
H  0.84900 42.15800 29.55800
H  -1.98800 43.02700 29.54700
H  -2.08200 40.58800 28.41900
H  -2.20200 41.00700 30.08700
H  -0.62500 40.51200 29.61500
H  -0.52800 44.84900 29.96400
H  1.16500 44.71500 30.01800
H  -0.66200 44.41000 32.12600
H  1.03500 44.13600 32.26200
H  -5.52400 42.87500 26.73600
H  -5.71400 41.63800 25.39800
H  -6.38000 43.19400 25.20900
H  -6.50700 41.98700 23.29100
H  -7.00800 42.70300 21.68000
H  -7.38800 43.47800 23.26400
H  -0.82600 44.79700 19.77800
H  1.69700 43.63200 20.15600
H  -1.19100 42.05600 20.38500
H  0.29500 41.99600 19.64300
H  -1.19200 42.77800 18.86200
H  0.98200 46.00300 19.18300
H  2.64400 45.95200 19.72600
H  1.10100 46.68000 22.01800
H  0.59700 47.60500 20.64000
H  2.37200 47.61700 20.99700
H  5.75900 43.63000 23.28400
H  6.40200 44.43900 24.71100
H  5.65400 45.42200 23.49400
H  3.16400 44.65500 29.01200
H  4.57000 42.20000 32.19300
H  5.43500 41.59600 30.81200
H  3.78200 40.89600 31.17100

