158

Mg 23.34900 -4.91800 45.61600
C  25.42800 -2.31700 44.24700
C  20.94000 -3.74600 43.51000
C  21.67100 -7.75100 46.26700
C  26.29900 -6.25800 47.01900
N  23.27000 -3.22800 43.96900
C  24.17300 -2.34300 43.65400
C  23.62300 -1.31400 42.63900
C  22.05000 -1.61700 42.77000
C  22.05400 -2.95300 43.47800
C  21.31600 -0.52000 43.58200
C  24.26800 -1.58000 41.20800
C  24.88800 -0.44100 40.38900
H  25.66800 -0.88700 39.18700
N  21.47000 -5.60200 45.06000
C  20.67900 -5.03300 44.15100
C  19.43900 -5.69400 44.16200
C  19.53600 -6.79500 45.05200
C  20.97400 -6.77800 45.47500
C  18.33400 -5.31600 43.17000
C  18.44100 -7.79500 45.22200
O  17.32500 -7.64000 44.72100
C  18.60500 -9.00400 46.03800
N  23.91900 -6.74800 46.48700
C  23.03900 -7.78100 46.65600
C  23.69300 -8.90600 47.40000
C  25.17800 -8.49400 47.61000
C  25.17000 -7.01500 47.05000
C  22.98800 -9.38000 48.71300
C  26.16300 -9.46400 46.89300
C  27.25600 -9.98300 47.81300
N  25.30300 -4.30600 45.83800
C  26.43400 -4.92400 46.51600
C  27.55600 -4.11100 46.39000
C  27.18300 -3.03900 45.58400
C  25.86600 -3.27100 45.12900
C  28.84200 -4.35600 47.02600
C  27.68300 -1.83000 45.00100
O  28.76300 -1.25200 45.12400
C  26.63300 -1.35800 44.03400
C  26.47100 0.15400 44.24700
O  25.86000 0.63000 45.18700
O  27.22900 0.91400 43.37400
C  27.32000 2.38300 43.68900
H  20.07500 -3.33500 42.98600
H  21.18400 -8.67600 46.58500
H  27.18700 -6.70600 47.46900
H  23.87000 -0.28900 42.91600
H  21.46200 -1.58300 41.85300
H  22.03700 -0.12300 44.29700
H  20.43000 -0.85800 44.11900
H  21.04100 0.23300 42.84300
H  23.54200 -2.06600 40.55700
H  25.05300 -2.32100 41.35900
H  25.46000 0.15800 41.09700
H  24.07200 0.08500 39.89300
H  18.59900 -4.54000 42.45100
H  17.54900 -4.98300 43.84900
H  17.97600 -6.22400 42.68500
H  19.05200 -8.81500 47.01400
H  19.29800 -9.62000 45.46400
H  17.71100 -9.62300 46.12100
H  23.64900 -9.83900 46.83800
H  25.36200 -8.49200 48.68500
H  22.14100 -8.74500 48.97200
H  23.53100 -9.03800 49.59400
H  22.87700 -10.45900 48.82200
H  26.74600 -8.88400 46.17700
H  25.61500 -10.28000 46.42300
H  27.26600 -11.07300 47.83600
H  27.03800 -9.63400 48.82300
H  28.21900 -9.60400 47.47000
H  29.17200 -5.34900 46.72100
H  28.75200 -4.39600 48.11200
H  29.52400 -3.58100 46.67800
H  26.97700 -1.47200 43.00600
H  26.92800 2.96700 42.85600
H  28.39700 2.55000 43.71300
H  26.92900 2.62100 44.67800
Mg -6.13600 25.38900 26.16500
C  -4.43300 26.34000 28.93900
C  -8.05800 23.33300 28.21100
C  -7.15000 23.75700 23.34400
C  -3.94500 27.33100 24.17600
N  -6.18200 24.85800 28.30800
C  -5.45200 25.46500 29.28300
C  -6.09800 25.29700 30.67100
C  -7.04300 24.09100 30.39200
C  -7.11100 24.04700 28.87300
C  -6.63500 22.78900 31.17700
C  -6.83300 26.58300 31.18500
C  -7.04500 26.56000 32.82400
H  -6.50500 25.44400 33.75800
N  -7.52800 23.99500 25.84100
C  -8.23000 23.23600 26.78600
C  -9.20000 22.45000 26.13200
C  -8.98500 22.59200 24.74100
C  -7.88500 23.42300 24.57300
C  -10.36600 21.66100 26.88500
C  -9.72200 21.88200 23.61600
O  -9.53700 22.09800 22.40500
C  -10.68500 20.75300 23.88100
N  -5.57400 25.53800 24.06100
C  -6.15200 24.66500 23.13200
C  -5.54800 24.96400 21.68700
C  -4.57600 26.16800 21.88300
C  -4.72900 26.37100 23.43200
C  -5.02400 23.65100 21.07900
C  -5.05500 27.40800 21.07600
C  -4.13100 28.08400 20.07600
N  -4.57600 26.66600 26.44000
C  -3.81000 27.46100 25.55200
C  -2.78600 28.12100 26.29700
C  -2.91700 27.66200 27.67000
C  -4.07800 26.84500 27.67600
C  -1.75000 28.98000 25.71200
C  -2.47800 27.76200 29.04700
O  -1.49300 28.36200 29.51100
C  -3.48100 27.07900 29.95000
C  -2.80400 26.21400 30.82800
O  -2.20700 25.25700 30.48800
O  -2.86900 26.79900 32.10200
C  -2.20200 25.95500 33.20100
H  -8.76600 22.70500 28.75500
H  -7.53100 23.27800 22.44000
H  -3.30000 27.88600 23.49200
H  -5.29900 25.06800 31.37500
H  -8.04400 24.18000 30.81500
H  -7.22800 22.82300 32.09100
H  -5.58400 22.84800 31.46000
H  -6.90300 21.91300 30.58600
H  -7.81100 26.56800 30.70600
H  -6.34100 27.39300 30.64600
H  -8.13400 26.57800 32.85500
H  -6.69400 27.51000 33.22800
H  -11.36500 21.74800 26.45900
H  -10.43700 22.01500 27.91300
H  -10.18700 20.58500 26.88600
H  -11.62500 21.06400 24.33700
H  -10.18700 20.02300 24.51900
H  -11.01900 20.27200 22.96200
H  -6.45600 25.23700 21.15000
H  -3.56400 25.91800 21.56500
H  -5.22800 22.78000 21.70100
H  -3.98700 23.74400 20.75500
H  -5.64900 23.51400 20.19600
H  -5.26800 28.19200 21.80200
H  -5.93800 27.12300 20.50300
H  -4.51100 28.25900 19.07000
H  -3.22700 27.50000 19.90300
H  -3.78700 29.09300 20.30700
H  -2.15300 29.59500 24.90700
H  -0.89400 28.46800 25.27200
H  -1.28000 29.54000 26.52000
H  -4.11000 27.75000 30.53600
H  -2.69000 24.98800 33.32000
H  -2.32100 26.51700 34.12700
H  -1.15800 25.85300 32.90500

