158

Mg 27.35900 49.88600 26.05800
C  25.34700 50.60600 28.84300
C  29.70800 48.57900 28.38000
C  29.38000 49.16900 23.49300
C  25.11800 51.48000 24.01000
N  27.48400 49.71700 28.43600
C  26.48300 50.02900 29.27500
C  26.83300 49.63700 30.69000
C  28.29400 49.20800 30.56000
C  28.58400 49.11600 29.03600
C  29.37400 50.03700 31.27000
C  25.89200 48.50500 31.25600
C  25.35900 48.56300 32.68300
H  26.16400 49.25500 33.81600
N  29.25500 49.02400 25.95700
C  30.04200 48.59900 27.00600
C  31.33200 48.23700 26.54300
C  31.34300 48.50500 25.12900
C  29.98000 48.94500 24.77900
C  32.48100 47.74800 27.40200
C  32.41200 48.29400 24.16400
O  32.30900 48.30600 22.93900
C  33.72400 47.93400 24.64900
N  27.23100 50.30800 24.07600
C  28.10400 49.75100 23.22500
C  27.74300 50.10500 21.75900
C  26.18900 50.52600 21.84800
C  26.14600 50.82800 23.39300
C  28.54400 51.22900 21.10800
C  25.19300 49.31400 21.45000
C  24.41000 49.44800 20.14500
N  25.61600 50.93700 26.33700
C  24.85400 51.61200 25.41800
C  23.72100 52.24600 26.15200
C  23.86000 51.79100 27.47900
C  25.03800 51.04500 27.57200
C  22.59200 52.93300 25.60200
C  23.19700 51.66400 28.71400
O  22.09200 52.12200 29.04600
C  24.16900 51.02700 29.67400
C  24.61400 52.15900 30.54600
O  25.29700 53.04500 30.18800
O  24.01200 51.93000 31.77100
C  24.31400 52.94100 32.75500
H  30.45100 48.19800 29.08400
H  30.08100 49.06500 22.66200
H  24.32000 51.87500 23.37700
H  26.82600 50.58400 31.22900
H  28.42600 48.21000 30.97700
H  29.91600 50.60000 30.51000
H  29.95800 49.30200 31.82500
H  28.86000 50.73900 31.92600
H  26.35500 47.51900 31.22600
H  25.04000 48.36900 30.59100
H  25.24700 47.54700 33.06100
H  24.38300 49.04800 32.66100
H  33.26100 48.50900 27.43300
H  32.84400 46.80400 26.99500
H  32.36800 47.53600 28.46500
H  33.62800 46.93500 25.07200
H  33.87300 48.75500 25.35100
H  34.41700 47.96000 23.80800
H  27.69000 49.18400 21.17900
H  25.99600 51.36300 21.17800
H  29.01300 50.87600 20.19000
H  29.36200 51.48100 21.78300
H  27.92200 52.07200 20.80600
H  24.49800 49.15700 22.27400
H  25.78000 48.39700 21.39300
H  24.67700 48.54600 19.59400
H  24.75800 50.30600 19.57000
H  23.33500 49.37600 20.31100
H  22.68000 53.28900 24.57500
H  22.29800 53.81700 26.16900
H  21.76000 52.22900 25.57100
H  23.74900 50.21100 30.26100
H  23.66000 52.79300 33.61500
H  24.05000 53.95400 32.45400
H  25.37200 52.87000 33.00700
Mg -2.01000 34.09400 27.37100
C  -3.70200 32.28500 29.72900
C  -0.69800 36.00700 29.94900
C  -0.76200 36.20700 25.14200
C  -3.81800 32.44300 24.77100
N  -2.32500 34.20500 29.60400
C  -3.00800 33.29600 30.29600
C  -2.89600 33.52500 31.81900
C  -2.07300 34.92400 31.87800
C  -1.60400 35.05500 30.42900
C  -2.83200 36.16100 32.33300
C  -2.24300 32.28700 32.50800
C  -2.82100 32.05000 33.85300
H  -1.91100 31.94000 35.05600
N  -0.82700 35.77700 27.50600
C  -0.26600 36.34900 28.63300
C  0.81000 37.28200 28.23200
C  0.66200 37.49700 26.83200
C  -0.31500 36.48000 26.42800
C  1.72900 37.98100 29.19900
C  1.45100 38.41600 25.90700
O  1.09900 38.58900 24.70400
C  2.70800 38.88200 26.43700
N  -2.36400 34.48400 25.24200
C  -1.60100 35.30700 24.50900
C  -1.81200 35.14600 23.01600
C  -2.78100 33.90600 22.92300
C  -3.03300 33.57800 24.39700
C  -2.13900 36.44000 22.18500
C  -2.22400 32.66000 22.18700
C  -3.11800 32.09700 21.03600
N  -3.45300 32.65200 27.21400
C  -4.07900 32.01500 26.12100
C  -4.96100 30.99800 26.62300
C  -4.84900 31.06200 28.06400
C  -3.99200 32.13300 28.34000
C  -5.69200 30.00900 25.73600
C  -5.29100 30.43400 29.28300
O  -6.08700 29.52900 29.44000
C  -4.73900 31.28200 30.40100
C  -5.98700 31.89000 30.99200
O  -6.90900 32.51200 30.40900
O  -5.97300 31.55200 32.31800
C  -7.26200 31.57400 33.10400
H  -0.28800 36.55600 30.79900
H  -0.22000 36.78600 24.39100
H  -4.28500 31.86600 23.97000
H  -3.91000 33.79300 32.11500
H  -1.22600 34.79700 32.55300
H  -3.72500 35.95800 32.92500
H  -3.27300 36.82000 31.58500
H  -2.17400 36.61400 33.07500
H  -1.21400 32.63300 32.60800
H  -2.28600 31.40700 31.86600
H  -3.47500 31.17900 33.83300
H  -3.47400 32.87700 34.13400
H  1.40900 37.77400 30.22000
H  1.57000 39.05100 29.07200
H  2.75300 37.61300 29.12100
H  2.45200 39.60500 27.21100
H  3.44700 39.20900 25.70600
H  3.25200 38.11500 26.98800
H  -0.90100 34.76600 22.55400
H  -3.70600 34.21600 22.43700
H  -3.21800 36.40900 22.03000
H  -1.62600 36.40300 21.22400
H  -1.83700 37.36600 22.67300
H  -1.96500 31.88900 22.91300
H  -1.24100 32.88700 21.77300
H  -2.65900 32.15700 20.04900
H  -4.13500 32.48900 21.00300
H  -3.15300 31.04300 21.31200
H  -5.26500 29.02400 25.92100
H  -5.56800 30.30000 24.69300
H  -6.74100 30.02200 26.03200
H  -4.28700 30.57600 31.09700
H  -8.09600 32.00500 32.55000
H  -7.13100 32.16300 34.01100
H  -7.59200 30.54700 33.26100

