158

Mg 17.49000 -1.40700 28.20900
C  16.22000 0.63500 30.84300
C  19.38300 -3.07200 30.51900
C  19.09900 -2.73100 25.67500
C  15.63400 0.69600 26.06400
N  17.67400 -1.22200 30.45900
C  17.08000 -0.36000 31.31400
C  17.47700 -0.74300 32.78600
C  18.72700 -1.69600 32.59600
C  18.60700 -2.02100 31.09600
C  20.10800 -0.97500 32.92600
C  16.26700 -1.33000 33.53100
C  15.94200 -0.65800 34.95000
H  17.17600 -0.05500 35.63000
N  18.96100 -2.73600 28.08000
C  19.56900 -3.39200 29.14200
C  20.32100 -4.55600 28.69500
C  20.23700 -4.49600 27.24100
C  19.42000 -3.27400 26.91000
C  21.07700 -5.47400 29.59600
C  21.06700 -5.29900 26.18200
O  20.94800 -5.20400 24.94600
C  22.02100 -6.38500 26.65700
N  17.50800 -1.03400 26.17100
C  18.23400 -1.70000 25.31700
C  18.13400 -1.12200 23.96100
C  16.89000 -0.15900 23.98600
C  16.69400 -0.08200 25.55600
C  19.33600 -0.46800 23.33100
C  15.58200 -0.71100 23.29300
C  14.94800 0.21000 22.27700
N  16.16200 0.26400 28.34700
C  15.40100 0.94500 27.39500
C  14.44000 1.87700 28.01300
C  14.69800 1.64300 29.39800
C  15.80300 0.76200 29.52800
C  13.60600 2.91600 27.38500
C  14.30800 2.10000 30.70400
O  13.39300 2.87500 30.95200
C  15.36900 1.51000 31.66600
C  16.15300 2.54100 32.34200
O  17.37400 2.69400 32.29300
O  15.34000 3.15200 33.28800
C  15.98300 3.99100 34.27400
H  19.97600 -3.64200 31.23800
H  19.57800 -3.35900 24.92000
H  15.17900 1.43000 25.39600
H  17.74600 0.18900 33.28500
H  18.54400 -2.55100 33.24700
H  20.66400 -1.59000 33.63400
H  20.08300 0.05500 33.28300
H  20.74100 -0.79700 32.05700
H  16.24400 -2.41900 33.49400
H  15.42700 -1.07500 32.88500
H  15.44200 -1.35800 35.62000
H  15.24800 0.13900 34.68300
H  20.88800 -6.46800 29.19100
H  20.58300 -5.43900 30.56700
H  22.08200 -5.07500 29.72800
H  22.13400 -7.13700 25.87700
H  21.70100 -7.01800 27.48400
H  22.99300 -5.91800 26.81400
H  17.92100 -2.04300 23.41900
H  17.10900 0.80300 23.52100
H  19.44600 0.53100 23.75200
H  19.31600 -0.39100 22.24400
H  20.20000 -1.04500 23.65900
H  14.87800 -1.04800 24.05300
H  15.74800 -1.65500 22.77300
H  14.93300 -0.26100 21.29400
H  15.42500 1.18900 22.30100
H  13.90900 0.38200 22.55800
H  12.57400 2.64200 27.60600
H  13.72300 3.15000 26.32700
H  13.67300 3.87400 27.90000
H  14.75200 1.11100 32.47200
H  16.27900 4.93400 33.81500
H  16.84500 3.52500 34.75200
H  15.20000 4.25100 34.98700
Mg 6.54100 54.65100 39.84600
C  6.24600 51.13400 39.77000
C  9.86300 54.24100 39.02100
C  6.75600 57.94800 39.31500
C  3.08400 54.80400 40.31800
N  7.83700 52.88200 39.25400
C  7.54600 51.59400 39.43900
C  8.75900 50.77700 39.22900
C  9.89400 51.75800 39.51200
C  9.18700 53.03300 39.25200
C  10.58400 51.65600 40.86900
C  8.76500 50.03900 37.81500
C  8.52700 50.99000 36.64600
H  7.19500 50.94200 35.96200
N  8.11300 55.90600 39.18200
C  9.42000 55.58300 38.96200
C  10.25100 56.74800 38.78600
C  9.35700 57.85000 38.87700
C  7.97600 57.28300 39.10400
C  11.72900 56.79400 38.43700
C  9.75100 59.31900 38.53500
O  10.87200 59.66300 38.38500
C  8.63900 60.44600 38.58100
N  5.08300 56.21200 39.67200
C  5.42700 57.51800 39.57200
C  4.20300 58.43600 39.55700
C  3.08600 57.44700 40.10100
C  3.75800 56.06000 40.03900
C  4.45100 59.67900 40.46400
C  1.83600 57.53700 39.27500
C  0.49800 57.71300 39.94900
N  4.94900 53.29400 39.97700
C  3.61000 53.46900 40.22600
C  2.93800 52.17200 40.56200
C  3.95200 51.24800 40.37500
C  5.11800 51.97000 40.02500
C  1.48300 52.00700 40.98700
C  4.28200 49.80600 40.41700
O  3.60600 48.85200 40.77100
C  5.80000 49.63300 39.98600
C  5.62900 48.94600 38.63100
O  4.95000 49.29800 37.66700
O  6.32600 47.77000 38.68200
C  6.17200 46.77700 37.59900
H  10.94800 54.12700 39.07700
H  6.72200 59.03700 39.24300
H  2.01400 54.87600 40.52700
H  8.77300 50.05300 40.04400
H  10.65900 51.58600 38.75600
H  10.60300 52.64300 41.33100
H  11.60700 51.29800 40.74900
H  10.11500 50.91300 41.51400
H  7.91500 49.37300 37.66400
H  9.68100 49.47100 37.65200
H  9.17900 50.60700 35.86100
H  8.81200 52.00200 36.93300
H  11.62900 57.07800 37.39000
H  12.13200 55.78400 38.36100
H  12.41000 57.49300 38.92300
H  9.11100 61.40500 38.36600
H  8.19600 60.44600 39.57700
H  7.96200 60.19400 37.76400
H  3.98400 58.74200 38.53500
H  2.88200 57.68500 41.14500
H  4.10700 60.52000 39.86400
H  5.47200 59.83100 40.81500
H  3.89500 59.61000 41.39900
H  1.80300 56.68500 38.59600
H  1.95400 58.44500 38.68400
H  0.58400 57.44500 41.00200
H  -0.20100 57.05700 39.43100
H  0.14500 58.73100 39.78400
H  0.91500 52.54200 40.22500
H  1.30500 52.38300 41.99400
H  1.29900 50.93300 40.97800
H  6.33300 48.96500 40.66200
H  7.10500 46.21900 37.51300
H  5.84400 47.26200 36.68000
H  5.42800 46.08300 37.98900

