158

Mg 44.55800 4.92600 46.25700
C  42.61600 7.85500 46.05100
C  41.52700 3.18100 45.72900
C  46.32400 2.24900 45.45300
C  47.45100 6.94800 45.80500
N  42.36400 5.43700 45.85500
C  41.86800 6.70600 45.85300
C  40.37000 6.69400 45.84900
C  39.96600 5.20500 45.83000
C  41.35900 4.52800 45.81700
C  39.09900 4.71700 47.01100
C  39.69100 7.58700 44.77500
C  40.43100 7.97400 43.48700
H  39.79400 7.71700 42.07100
N  43.93100 2.96900 45.87900
C  42.66900 2.41700 45.79400
C  42.77100 0.96600 45.72600
C  44.19900 0.65500 45.69800
C  44.93000 1.97000 45.64800
C  41.52300 0.04900 45.68900
C  44.74600 -0.77900 45.64700
O  43.99900 -1.73600 45.77600
C  46.18000 -1.13300 45.39800
N  46.62800 4.59100 45.67500
C  47.14700 3.37900 45.47100
C  48.66300 3.41200 45.22900
C  48.98200 4.87000 45.37600
C  47.63000 5.50900 45.65000
C  49.54800 2.35900 45.97200
C  49.75300 5.57200 44.27300
C  51.14200 5.99300 44.65700
N  45.00700 6.99600 46.17800
C  46.27900 7.62200 46.02000
C  46.04100 9.01000 46.12200
C  44.65400 9.11000 46.23800
C  44.03500 7.86800 46.12700
C  47.00600 10.17600 46.13900
C  43.50700 10.11800 46.32500
O  43.53800 11.36200 46.45700
C  42.19100 9.26500 46.23500
C  41.38300 9.37000 47.51500
O  41.49400 8.55600 48.42700
O  40.59500 10.51800 47.55600
C  39.81600 10.74600 48.73600
H  40.65300 2.58200 45.46400
H  47.05000 1.45100 45.28200
H  48.34300 7.57700 45.77600
H  40.10000 7.19600 46.77800
H  39.38800 4.88800 44.96200
H  39.54000 3.82900 47.46400
H  38.07200 4.61900 46.65700
H  38.97100 5.48500 47.77500
H  39.34800 8.50500 45.25000
H  38.73000 7.16300 44.48500
H  41.33900 7.37000 43.49100
H  40.58500 9.05400 43.49600
H  41.70400 -0.80100 45.03200
H  40.60000 0.53800 45.37700
H  41.36900 -0.44400 46.64900
H  46.27100 -2.21800 45.44700
H  46.63000 -0.75100 46.31500
H  46.56000 -0.77600 44.44100
H  48.71600 3.14700 44.17300
H  49.52200 5.02700 46.30900
H  48.95100 1.50400 46.29200
H  50.12400 2.84100 46.76200
H  50.28600 1.91200 45.30700
H  49.24800 6.37900 43.74100
H  49.92700 4.86500 43.46200
H  51.15200 6.38300 45.67600
H  51.52500 6.76600 43.99200
H  51.91300 5.22400 44.64300
H  47.79500 10.03500 46.87800
H  46.46200 11.11000 46.27900
H  47.47200 10.18200 45.15400
H  41.48600 9.54800 45.45300
H  39.22800 11.65800 48.64000
H  40.47300 10.87000 49.59700
H  39.08200 9.95500 48.88800
Mg 40.42400 10.08300 29.94100
C  42.59400 11.26500 32.44500
C  38.38800 8.72900 32.27300
C  38.42900 8.90400 27.53600
C  42.72400 11.05300 27.57900
N  40.48600 10.09500 32.10800
C  41.47200 10.60300 32.93600
C  41.03200 10.44300 34.42500
C  39.69300 9.56000 34.36800
C  39.56600 9.39900 32.84700
C  39.80600 8.16900 35.09100
C  40.84500 11.79400 35.04200
C  40.22000 11.97300 36.42200
H  40.89500 12.89300 37.42100
N  38.65300 8.88000 29.87600
C  37.94000 8.48200 30.98100
C  36.76700 7.70200 30.59100
C  36.75300 7.83000 29.22600
C  37.97700 8.55600 28.77900
C  35.70700 7.08500 31.62200
C  35.77000 7.23500 28.20700
O  35.82100 7.34600 27.01400
C  34.51800 6.50700 28.68800
N  40.63500 9.79600 27.77700
C  39.58600 9.47100 26.99100
C  39.83100 9.74500 25.51900
C  41.21400 10.60000 25.55200
C  41.63500 10.45500 27.08100
C  39.89700 8.43700 24.66900
C  41.10800 12.05000 25.12300
C  40.00500 12.89300 25.74100
N  42.35400 10.81400 29.98000
C  43.12500 11.21900 28.93000
C  44.29900 11.77000 29.39900
C  44.11500 11.87900 30.81700
C  42.93500 11.23100 31.08300
C  45.37900 12.29000 28.58200
C  44.62700 12.48300 31.98800
O  45.66000 13.12000 32.13300
C  43.70800 12.01800 33.19000
C  44.45500 11.11400 34.17800
O  44.93500 10.03800 33.94800
O  44.47700 11.75100 35.35700
C  45.09200 11.18400 36.52700
H  37.63000 8.33500 32.95400
H  37.69000 8.58900 26.79600
H  43.29800 11.66200 26.87700
H  41.79600 9.87100 34.95100
H  38.78200 10.05300 34.70600
H  39.32800 7.37900 34.51200
H  39.25600 8.35900 36.01200
H  40.85000 8.13400 35.40200
H  40.34000 12.40700 34.29500
H  41.84200 12.22800 35.12000
H  40.30900 11.03400 36.97000
H  39.17500 12.26100 36.30700
H  36.14500 7.11900 32.62000
H  35.37900 6.06700 31.41300
H  34.82900 7.72900 31.57000
H  34.57600 5.66600 29.37800
H  33.91500 6.26300 27.81400
H  34.05200 7.37200 29.16100
H  38.99900 10.37200 25.19900
H  41.99600 10.13100 24.95500
H  39.50500 8.59200 23.66300
H  39.38600 7.59500 25.13600
H  40.93400 8.10200 24.64900
H  40.75200 12.10800 24.09500
H  42.07700 12.52500 25.27800
H  40.49800 13.64100 26.36200
H  39.22600 12.39700 26.31900
H  39.41800 13.46900 25.02500
H  44.96200 13.13800 28.03900
H  45.57700 11.55600 27.80100
H  46.32200 12.60500 29.02800
H  43.33700 12.95600 33.60500
H  45.53900 11.94000 37.17300
H  45.93600 10.59800 36.16300
H  44.44800 10.46700 37.03600

