158

Mg -1.63600 17.13700 25.80800
C  -1.97900 14.81600 28.49100
C  -2.26900 19.60600 28.06500
C  -1.66100 19.48900 23.31200
C  -1.43200 14.67000 23.56200
N  -2.29200 17.15400 28.07100
C  -2.24500 16.11500 28.91300
C  -2.72500 16.53800 30.33300
C  -2.84700 18.13000 30.23300
C  -2.45400 18.36600 28.71600
C  -4.16500 18.72500 30.71700
C  -2.02800 15.97500 31.57500
C  -2.12600 16.70500 32.90000
H  -2.03200 15.99900 34.24100
N  -1.78000 19.18300 25.71800
C  -1.93000 20.02800 26.80900
C  -1.86700 21.41600 26.44400
C  -1.66500 21.38600 25.02100
C  -1.74300 19.94600 24.62500
C  -2.14200 22.60100 27.35200
C  -1.61800 22.59700 24.04100
O  -1.56600 22.61300 22.83700
C  -1.59000 23.94500 24.68700
N  -1.62800 17.03700 23.71300
C  -1.52100 18.13400 22.90600
C  -1.42800 17.68700 21.48100
C  -1.02600 16.12800 21.64400
C  -1.34700 15.95900 23.05000
C  -2.75300 17.96800 20.75500
C  0.44200 15.73300 21.21200
C  1.63200 16.36000 22.01000
N  -1.64200 15.19400 25.95500
C  -1.52700 14.21400 24.90400
C  -1.65800 12.89500 25.57400
C  -1.76200 13.09100 26.93500
C  -1.77000 14.49400 27.14200
C  -1.80800 11.59900 24.82900
C  -1.82600 12.38700 28.15600
O  -1.74100 11.19800 28.41900
C  -1.92100 13.50300 29.27500
C  -0.92000 13.39100 30.37700
O  0.25700 13.71000 30.36100
O  -1.54200 12.76100 31.44100
C  -0.75700 12.28400 32.52900
H  -2.22400 20.34400 28.86900
H  -1.50700 20.22600 22.52200
H  -1.35100 13.87000 22.82300
H  -3.75200 16.17500 30.35900
H  -2.06800 18.60100 30.83300
H  -4.65300 19.17100 29.85000
H  -3.92000 19.47200 31.47200
H  -4.75800 17.94600 31.19500
H  -0.98800 15.77900 31.31300
H  -2.55200 15.03500 31.74900
H  -2.91900 17.44800 32.98300
H  -1.24200 17.34100 32.85700
H  -2.98200 23.15400 26.93100
H  -1.23700 23.20500 27.41900
H  -2.49300 22.36300 28.35600
H  -2.54100 24.29800 25.08700
H  -1.37400 24.61700 23.85600
H  -0.89900 24.01500 25.52700
H  -0.55300 18.21300 21.09800
H  -1.69700 15.46900 21.09400
H  -3.30400 17.03300 20.64900
H  -2.57700 18.48800 19.81300
H  -3.36900 18.62600 21.36700
H  0.60000 15.96300 20.15800
H  0.62800 14.66300 21.29900
H  2.37900 15.65300 22.37000
H  1.21300 16.85800 22.88500
H  2.19000 17.09300 21.42700
H  -1.93400 11.92300 23.79600
H  -2.65400 11.02200 25.20200
H  -0.83200 11.12500 24.93100
H  -2.86900 13.53000 29.81100
H  -0.55800 13.14800 33.16200
H  0.16800 11.85600 32.14200
H  -1.28500 11.52100 33.10100
Mg 17.47500 -1.87700 27.03400
C  16.50400 0.15600 29.83400
C  19.44600 -3.69500 29.31800
C  18.66300 -3.53800 24.43100
C  15.81500 0.31600 24.99400
N  17.98400 -1.73800 29.33600
C  17.35100 -0.92300 30.23100
C  17.77800 -1.24900 31.64300
C  18.84600 -2.40000 31.46800
C  18.73000 -2.63900 29.97300
C  20.29700 -2.09100 31.78800
C  16.54300 -1.57400 32.50800
C  16.43500 -0.85900 33.81500
H  17.78400 -0.69500 34.48700
N  18.84100 -3.37700 26.92000
C  19.46900 -4.08100 27.94200
C  20.20600 -5.12700 27.30400
C  20.02800 -5.11100 25.91600
C  19.12400 -3.94500 25.68500
C  21.03900 -6.10200 28.14200
C  20.63900 -6.05000 24.87800
O  20.32900 -6.03300 23.71000
C  21.61700 -7.10300 25.25700
N  17.28900 -1.65400 25.03100
C  17.88500 -2.37300 24.07500
C  17.56400 -2.03200 22.65100
C  16.47100 -0.96700 22.91300
C  16.49700 -0.73800 24.40400
C  18.71800 -1.51400 21.74100
C  15.03800 -1.27200 22.34500
C  13.95600 -1.64100 23.34800
N  16.30600 -0.15700 27.32900
C  15.63200 0.55800 26.45800
C  14.84100 1.59500 26.97300
C  15.12800 1.47700 28.37100
C  16.01200 0.41700 28.51500
C  13.91000 2.48100 26.28500
C  14.86400 2.00600 29.72200
O  14.21700 3.01000 30.02900
C  15.76900 1.16500 30.69900
C  16.57300 2.14400 31.41100
O  17.71000 2.49100 31.14000
O  15.78600 2.67200 32.41500
C  16.35300 3.72900 33.26600
H  19.99500 -4.31400 30.03100
H  19.09300 -4.16500 23.64700
H  15.27200 0.99700 24.33500
H  18.15600 -0.31600 32.06000
H  18.49200 -3.29600 31.97800
H  20.44500 -1.18300 32.37300
H  20.93800 -1.87000 30.93400
H  20.74400 -2.95600 32.27700
H  16.57500 -2.64400 32.71000
H  15.65400 -1.48400 31.88400
H  15.89800 -1.54300 34.47300
H  15.85100 0.05900 33.74600
H  21.19000 -7.12100 27.78500
H  20.56000 -6.28100 29.10500
H  22.01300 -5.63800 28.29300
H  22.32400 -6.86400 26.05100
H  22.19000 -7.51200 24.42500
H  20.96500 -7.88900 25.63700
H  17.23200 -2.98300 22.23400
H  16.79600 0.01500 22.57000
H  19.60800 -1.48500 22.36900
H  18.44800 -0.56900 21.27100
H  18.84500 -2.19500 20.90000
H  15.11000 -2.10400 21.64500
H  14.66500 -0.37900 21.84200
H  13.38600 -0.74300 23.58700
H  14.45500 -2.09300 24.20500
H  13.40300 -2.43900 22.85300
H  13.44400 1.76100 25.61200
H  14.64400 3.05800 25.72300
H  13.17200 3.06000 26.84100
H  15.17200 0.65700 31.45600
H  15.70500 4.57300 33.03000
H  17.37100 4.04000 33.03100
H  16.20800 3.58800 34.33700

