158

Mg -0.10700 7.95300 27.46800
C  0.75400 10.19900 30.04300
C  0.28400 5.38400 29.86200
C  -0.63200 5.82000 25.00300
C  0.24500 10.65400 25.22400
N  0.43500 7.76000 29.71800
C  0.53000 8.90100 30.56600
C  0.52500 8.50900 32.02400
C  0.79800 6.94600 31.94700
C  0.52500 6.64600 30.42900
C  2.22800 6.49600 32.33400
C  -0.86300 8.84600 32.66900
C  -0.83100 9.17700 34.22300
H  0.43400 8.86100 34.97500
N  -0.28200 5.88900 27.50000
C  -0.09200 5.01600 28.51700
C  -0.27000 3.63300 27.97500
C  -0.62800 3.75100 26.59700
C  -0.55900 5.20900 26.28800
C  -0.20300 2.41600 28.85700
C  -1.00000 2.60900 25.60300
O  -1.32400 2.80700 24.43700
C  -0.92500 1.17700 26.04200
N  -0.16600 8.23100 25.46800
C  -0.44300 7.19500 24.56200
C  -0.30300 7.68900 23.07600
C  -0.47100 9.22400 23.27400
C  -0.10700 9.41200 24.75500
C  1.02300 7.21500 22.31500
C  -1.91100 9.86000 22.85700
C  -1.98400 10.95400 21.77200
N  0.37400 9.94700 27.56100
C  0.48600 10.94000 26.54800
C  0.89400 12.14400 27.16800
C  0.93300 11.87800 28.50000
C  0.64200 10.55600 28.71900
C  1.18300 13.53300 26.49000
C  1.16500 12.52700 29.76400
O  1.42600 13.71100 29.97500
C  1.00300 11.41700 30.82800
C  2.23300 11.45700 31.64000
O  3.24600 10.86100 31.34300
O  2.06500 12.23300 32.75300
C  3.26400 12.42800 33.60300
H  0.27400 4.61500 30.63700
H  -0.74400 5.11400 24.17800
H  0.26400 11.55900 24.61400
H  1.34700 9.01000 32.53500
H  0.01500 6.54800 32.59100
H  2.92800 7.28800 32.60200
H  2.67500 6.00500 31.47000
H  2.27400 5.69900 33.07700
H  -1.64500 8.16500 32.33200
H  -1.17200 9.77000 32.18000
H  -1.73100 8.68400 34.58800
H  -1.11200 10.22400 34.33800
H  -1.18900 2.07900 29.17600
H  0.27800 2.67600 29.80000
H  0.35100 1.64300 28.32600
H  -1.68300 0.90000 26.77400
H  0.10900 1.00100 26.33900
H  -1.05300 0.50200 25.19600
H  -1.18100 7.24800 22.60300
H  0.30600 9.82400 22.80100
H  0.81300 6.58900 21.44700
H  1.61900 6.62800 23.01400
H  1.59600 8.11700 22.10400
H  -2.36600 10.26200 23.76200
H  -2.53500 9.02300 22.54600
H  -2.52100 10.56000 20.90900
H  -1.00700 11.34200 21.48200
H  -2.48300 11.83800 22.16900
H  0.54800 13.84000 25.66000
H  2.20400 13.60200 26.11500
H  0.97200 14.24300 27.28900
H  0.22600 11.75300 31.51400
H  3.06200 12.08200 34.61700
H  3.55000 13.47300 33.72100
H  4.14300 11.85800 33.30100
Mg 42.64800 41.23400 27.87200
C  41.50700 43.63400 30.30200
C  43.37900 39.11200 30.40400
C  43.96600 39.24000 25.59300
C  42.65900 44.00900 25.50800
N  42.53700 41.48600 30.02800
C  41.94700 42.40800 30.79900
C  41.91700 42.00900 32.23200
C  42.71200 40.68200 32.26400
C  42.90700 40.37700 30.76400
C  44.05500 40.78900 33.02000
C  40.49600 42.02500 32.90500
C  40.30900 43.07000 34.04000
H  39.49900 42.51600 35.31900
N  43.45100 39.35700 27.95100
C  43.54300 38.55600 29.06300
C  43.94200 37.15900 28.71700
C  44.08800 37.21800 27.33200
C  43.92100 38.66700 26.88600
C  43.97400 36.04200 29.69800
C  44.30200 36.04200 26.41200
O  44.64300 36.14900 25.23900
C  44.13400 34.65600 27.03500
N  43.15000 41.59200 25.85600
C  43.70500 40.53900 25.11400
C  43.84500 40.93000 23.64200
C  43.30900 42.42600 23.58000
C  43.06800 42.75000 25.08200
C  45.25100 40.77900 23.04200
C  42.04400 42.57400 22.70800
C  40.67700 42.31400 23.43800
N  42.14700 43.35500 27.90500
C  42.20300 44.29100 26.78500
C  41.67900 45.53400 27.26000
C  41.32200 45.29400 28.66900
C  41.68200 43.97200 28.97700
C  41.37000 46.74900 26.42600
C  40.68400 45.88800 29.91900
O  40.18300 46.96000 30.13100
C  40.91900 44.87000 31.02100
C  41.93100 45.48200 31.94000
O  43.12800 45.27900 31.80200
O  41.27000 46.20300 32.92400
C  41.94900 46.74200 34.16000
H  43.54400 38.36600 31.18500
H  44.30000 38.53300 24.83200
H  42.56400 44.80400 24.76700
H  42.41900 42.80900 32.77700
H  42.07700 39.91500 32.70600
H  44.26400 40.00900 33.75200
H  44.06500 41.75100 33.53200
H  44.92600 40.96000 32.38700
H  40.25500 41.08500 33.40200
H  39.65400 42.11700 32.21800
H  39.75600 43.89000 33.58100
H  41.26000 43.41100 34.44900
H  43.15500 35.35500 29.48200
H  43.79000 36.29200 30.74300
H  44.84600 35.40100 29.57100
H  43.20900 34.48500 27.58500
H  44.96800 34.16200 27.53300
H  44.07700 33.96300 26.19500
H  43.11200 40.29600 23.14400
H  44.09400 43.11700 23.27500
H  45.22400 39.86000 22.45700
H  45.99200 40.53400 23.80200
H  45.53300 41.50100 22.27600
H  41.99200 41.86900 21.87900
H  41.98400 43.49900 22.13400
H  40.76000 42.01800 24.48300
H  39.93600 41.71200 22.91200
H  40.17200 43.28000 23.45100
H  40.52600 46.59600 25.75400
H  42.23100 47.08500 25.84700
H  41.07700 47.53400 27.12300
H  39.95300 44.60900 31.45400
H  42.89000 47.23500 33.91600
H  42.12900 45.96800 34.90600
H  41.25000 47.44800 34.60900

