158

Mg 40.99300 9.11200 29.91200
C  42.88200 10.16200 32.65800
C  38.62600 7.91100 32.19900
C  39.39300 8.12300 27.32700
C  43.78400 9.90800 27.85300
N  40.84400 9.04100 32.21500
C  41.63300 9.75800 33.09300
C  41.00500 9.71200 34.53900
C  39.86300 8.69200 34.40100
C  39.79000 8.50500 32.85300
C  40.06900 7.30700 35.06800
C  40.68400 11.12500 35.07800
C  39.99200 11.17300 36.41600
H  40.61600 12.19500 37.36600
N  39.21700 8.28200 29.78200
C  38.31000 7.90400 30.74800
C  37.06900 7.50000 30.11800
C  37.35500 7.53400 28.73700
C  38.73600 7.95300 28.54600
C  35.84200 7.06000 30.83600
C  36.39100 7.06800 27.54300
O  36.69600 7.21100 26.34500
C  35.05600 6.50600 27.80100
N  41.57500 8.97000 27.88900
C  40.70400 8.46800 27.04700
C  41.14500 8.65300 25.59600
C  42.37000 9.53800 25.73900
C  42.64500 9.46200 27.25100
C  41.57100 7.38600 24.87600
C  42.20300 10.95700 25.14200
C  40.91400 11.80100 25.37300
N  43.03900 9.73600 30.15100
C  43.99000 10.05900 29.22700
C  45.06700 10.60200 29.92000
C  44.67200 10.70000 31.24400
C  43.45500 10.09000 31.33900
C  46.29500 11.16200 29.40400
C  45.05000 11.18800 32.50100
O  46.09000 11.74000 32.78000
C  43.91700 10.85800 33.46800
C  44.51100 9.98300 34.54200
O  45.38100 9.13000 34.48200
O  43.88800 10.52300 35.68300
C  44.26500 9.84100 36.93400
H  37.89500 7.45200 32.86800
H  38.78700 7.97100 26.43200
H  44.49900 10.29900 27.12500
H  41.91000 9.28900 34.97500
H  38.92700 9.05700 34.82400
H  39.72600 6.41300 34.54800
H  39.80000 7.32200 36.12500
H  41.14900 7.19800 35.17200
H  40.13100 11.48800 34.21200
H  41.61300 11.67600 35.22500
H  39.91200 10.14400 36.76800
H  38.98900 11.55000 36.21500
H  36.01100 7.41900 31.85100
H  35.82900 5.97200 30.90400
H  34.91100 7.44400 30.42000
H  34.70800 5.92800 26.94500
H  34.31200 7.28200 27.97800
H  35.17700 5.78700 28.61200
H  40.41600 9.17100 24.97400
H  43.25600 9.11900 25.26400
H  40.71200 6.75900 24.63500
H  42.14600 6.80500 25.59600
H  42.09700 7.66900 23.96400
H  42.43500 10.93200 24.07700
H  42.95600 11.55500 25.65700
H  41.12500 12.76800 25.83000
H  40.28000 11.37300 26.15000
H  40.30900 11.96100 24.48100
H  47.06000 11.07500 30.17600
H  46.06500 12.21500 29.24100
H  46.58200 10.74700 28.43900
H  43.50300 11.77800 33.88100
H  44.06400 8.79600 36.69600
H  43.64700 10.15700 37.77400
H  45.32100 9.92700 37.18900
Mg 9.93100 48.07100 26.01700
C  7.71400 48.15200 28.78200
C  12.34800 49.41100 27.95700
C  11.89800 47.43100 23.49400
C  7.16500 47.46000 23.97700
N  10.02000 48.63700 28.14800
C  9.02300 48.48500 29.11200
C  9.62100 48.86200 30.49400
C  10.91300 49.61700 30.06800
C  11.16600 49.07500 28.65200
C  10.85100 51.18500 30.15100
C  9.90000 47.68000 31.48200
C  9.27700 47.92300 32.89700
H  9.02600 46.72800 33.77400
N  11.89200 48.45000 25.72400
C  12.72500 49.00800 26.66300
C  14.09600 48.91200 26.12500
C  13.97700 48.28900 24.86800
C  12.55600 48.05500 24.63700
C  15.19600 49.28400 27.03100
C  15.05400 48.11900 23.85200
O  14.76900 47.89600 22.67400
C  16.50500 48.16200 24.20400
N  9.58800 47.79000 23.87700
C  10.57100 47.28300 23.13400
C  10.10400 46.64000 21.80900
C  8.61500 46.78100 21.94600
C  8.45100 47.34500 23.36300
C  10.74300 47.20000 20.45600
C  7.80200 45.44200 21.60900
C  6.47200 45.69000 20.83400
N  7.85200 48.00200 26.22700
C  6.87800 47.71300 25.31300
C  5.62800 47.57400 25.99400
C  5.89300 47.72100 27.35000
C  7.25800 47.99500 27.43400
C  4.34600 47.20200 25.32600
C  5.28900 47.81500 28.68500
O  4.13500 47.74900 29.05100
C  6.46900 47.99000 29.61700
C  6.55900 46.70800 30.43900
O  7.01500 45.62500 30.09900
O  5.85400 46.91400 31.62900
C  5.51300 45.76400 32.49800
H  13.12400 49.97500 28.47900
H  12.68500 46.93600 22.92100
H  6.26600 47.25700 23.39100
H  8.96200 49.59800 30.95600
H  11.83000 49.27100 30.54400
H  11.26400 51.37800 31.14100
H  9.85100 51.61900 30.14400
H  11.51600 51.66000 29.43000
H  10.91300 47.30800 31.63300
H  9.43200 46.76000 31.12900
H  8.34100 48.46800 32.77100
H  9.79400 48.70900 33.44700
H  15.85800 48.42400 27.13600
H  14.92000 49.66700 28.01300
H  15.85400 50.05800 26.63800
H  16.84400 49.13300 24.56600
H  17.24800 47.74700 23.52400
H  16.57300 47.48300 25.05400
H  10.23900 45.55900 21.83100
H  8.27800 47.58600 21.29400
H  10.03800 47.51400 19.68700
H  11.33300 46.41500 19.98400
H  11.42000 48.02700 20.67100
H  7.44000 45.00600 22.54000
H  8.47300 44.68700 21.19900
H  6.37000 46.74700 20.58900
H  5.64400 45.29200 21.42100
H  6.57000 45.16900 19.88100
H  3.61200 47.19600 26.13300
H  4.29000 46.27500 24.75700
H  4.10000 48.01000 24.63700
H  6.16900 48.80800 30.27200
H  4.50400 45.92700 32.87700
H  6.12700 45.88300 33.39100
H  5.60400 44.76600 32.07100

