158

Mg 1.77800 -2.20400 43.12600
C  5.15100 -1.50000 42.35000
C  0.98000 0.69200 41.45000
C  -1.40100 -3.11600 43.23200
C  2.77500 -5.48900 43.90700
N  3.00700 -0.66800 41.95100
C  4.31300 -0.53700 41.88800
C  4.71900 0.84000 41.20500
C  3.35200 1.57100 41.11300
C  2.38000 0.46400 41.50800
C  3.19100 2.88900 42.00500
C  5.48700 0.68500 39.86300
C  6.49100 1.76400 39.59900
H  6.62300 2.41900 38.18400
N  -0.00200 -1.23900 42.53300
C  -0.11500 -0.01700 41.93800
C  -1.51100 0.33800 41.86700
C  -2.21400 -0.81800 42.31900
C  -1.23100 -1.79700 42.77200
C  -1.92100 1.63800 41.20800
C  -3.75800 -0.96000 42.36200
O  -4.55500 -0.08300 42.00800
C  -4.42800 -2.12200 43.08000
N  0.81000 -4.06200 43.45300
C  -0.49800 -4.15400 43.53100
C  -0.94600 -5.49700 44.17600
C  0.41100 -6.32300 44.18600
C  1.37100 -5.28200 43.69600
C  -1.73400 -5.48300 45.44400
C  0.33200 -7.63300 43.35900
C  1.28700 -8.78200 43.73200
N  3.56300 -3.29400 43.24600
C  3.84100 -4.57100 43.63700
C  5.28400 -4.75600 43.81200
C  5.79900 -3.62800 43.27700
C  4.72200 -2.76100 42.87800
C  5.90200 -6.04200 44.40700
C  7.04400 -2.89200 42.97800
O  8.21900 -3.11900 43.13000
C  6.59500 -1.49300 42.39600
C  7.02400 -0.39200 43.30500
O  6.67800 -0.16800 44.43800
O  7.97600 0.35000 42.71800
C  8.60100 1.40500 43.56700
H  0.73800 1.65700 40.99900
H  -2.41600 -3.50300 43.34600
H  3.11700 -6.46200 44.26600
H  5.39600 1.38900 41.86000
H  3.00700 1.87500 40.12500
H  3.86800 2.85000 42.85800
H  2.19900 2.99600 42.44300
H  3.44800 3.75300 41.39200
H  4.80300 0.74900 39.01600
H  5.99100 -0.28000 39.82100
H  7.44900 1.28400 39.79800
H  6.34100 2.67500 40.18000
H  -1.77100 1.53700 40.13300
H  -1.24900 2.44500 41.49900
H  -2.94600 1.95600 41.39900
H  -5.47900 -1.86900 43.21400
H  -3.91200 -2.24800 44.03200
H  -4.35400 -3.04900 42.51100
H  -1.55000 -6.00800 43.42600
H  0.60400 -6.49100 45.24500
H  -1.60800 -4.52600 45.95100
H  -1.47800 -6.26400 46.15900
H  -2.80000 -5.59200 45.24200
H  0.57700 -7.51400 42.30400
H  -0.67400 -8.05200 43.33600
H  1.83600 -8.65500 44.66500
H  1.96400 -9.05400 42.92200
H  0.59300 -9.62100 43.78800
H  6.95300 -5.96600 44.68600
H  5.78900 -6.93900 43.79800
H  5.36600 -6.18100 45.34600
H  7.05500 -1.41400 41.41100
H  9.59100 1.49100 43.12100
H  8.55000 1.43700 44.65500
H  8.06800 2.32300 43.31800
Mg 47.97400 16.64400 28.80300
C  45.90500 16.17600 31.65100
C  50.02600 18.63600 30.83800
C  49.81300 17.32000 26.07400
C  45.66600 14.97900 26.86400
N  47.94400 17.34300 30.99000
C  47.09200 16.84900 31.97100
C  47.48300 17.39700 33.38900
C  48.74800 18.27600 32.99600
C  48.93700 18.14000 31.49600
C  48.71700 19.77800 33.34500
C  47.79400 16.28800 34.46400
C  47.24900 16.40900 35.86800
H  47.10400 17.86500 36.41100
N  49.63800 17.90800 28.45500
C  50.38800 18.57900 29.45300
C  51.59700 19.08500 28.87000
C  51.61400 18.69400 27.50200
C  50.33300 17.90400 27.30100
C  52.62100 19.88200 29.64000
C  52.65300 18.97400 26.48600
O  52.50200 18.65700 25.31100
C  53.94300 19.69100 26.81400
N  47.72500 16.24400 26.67800
C  48.64800 16.62600 25.78300
C  48.28700 16.10600 24.39700
C  47.13600 15.00500 24.68400
C  46.76500 15.44500 26.15000
C  47.99600 17.15600 23.23200
C  47.56400 13.54800 24.63800
C  46.47700 12.65800 24.04000
N  46.18700 15.71300 29.15500
C  45.37000 15.03600 28.23300
C  44.17900 14.56900 28.91700
C  44.33500 14.98000 30.22800
C  45.60700 15.61200 30.32800
C  43.10700 13.82000 28.32000
C  43.71500 14.95300 31.56700
O  42.69800 14.44700 31.97800
C  44.79800 15.65700 32.54700
C  44.05200 16.62300 33.36000
O  43.74300 17.75700 33.02800
O  43.94300 16.11500 34.57800
C  43.01300 16.96300 35.44700
H  50.74300 19.19800 31.44000
H  50.47200 17.50700 25.22300
H  44.95100 14.37700 26.29800
H  46.54000 17.89400 33.61400
H  49.62900 17.85300 33.47800
H  47.88600 19.90100 34.04000
H  48.46500 20.39000 32.47900
H  49.65400 20.08000 33.81400
H  48.86900 16.26700 34.64700
H  47.37200 15.40800 33.98000
H  47.91200 15.84500 36.52500
H  46.25100 15.97200 35.89600
H  52.92200 20.67500 28.95600
H  53.47600 19.23800 29.85000
H  52.13000 20.42200 30.45000
H  53.73900 20.76100 26.78900
H  54.60000 19.61500 25.94800
H  54.50100 19.39900 27.70400
H  49.13300 15.44500 24.20700
H  46.19000 15.26900 24.21300
H  46.98100 17.02500 22.85700
H  48.72000 17.07500 22.42000
H  48.09100 18.14300 23.68600
H  47.75600 13.19500 25.65100
H  48.44600 13.38800 24.01800
H  46.91900 11.69300 23.79200
H  46.04400 13.05600 23.12200
H  45.68800 12.51900 24.77900
H  42.31800 13.63700 29.04900
H  43.46000 12.89700 27.85900
H  42.49900 14.31800 27.56600
H  45.06500 14.75700 33.10100
H  42.04200 17.14900 34.98800
H  43.41200 17.96200 35.62600
H  42.89900 16.48500 36.42000

