158

Mg 40.99000 8.47100 30.02200
C  42.89000 9.87200 32.54500
C  38.48600 7.83700 32.22500
C  39.32900 6.98500 27.44200
C  43.63600 9.15300 27.86300
N  40.72100 8.75300 32.10000
C  41.59800 9.41800 32.94900
C  41.01600 9.55800 34.38100
C  39.70700 8.65900 34.29600
C  39.56900 8.43400 32.74800
C  39.69900 7.46200 35.19200
C  40.82100 11.09700 34.82600
C  39.72300 11.28800 35.85700
H  40.19300 12.08600 37.09000
N  39.12900 7.53500 29.86200
C  38.26600 7.35700 30.89400
C  37.16000 6.57100 30.39500
C  37.35900 6.33900 29.02900
C  38.67300 6.96700 28.70900
C  35.97600 6.08800 31.25800
C  36.35900 5.58600 28.06300
O  36.56400 5.42800 26.84700
C  34.91100 5.22200 28.51400
N  41.43000 8.07600 27.96900
C  40.58600 7.56100 27.12500
C  41.07200 7.43700 25.66300
C  42.37600 8.30400 25.75600
C  42.42000 8.68000 27.26300
C  41.18400 5.97500 25.17600
C  42.33400 9.60000 24.91800
C  43.65900 9.94700 24.18400
N  42.95800 9.13600 30.16200
C  43.86000 9.48500 29.18300
C  45.10500 10.08900 29.79700
C  44.67800 10.29300 31.13800
C  43.40500 9.75900 31.27000
C  46.41600 10.45500 29.10500
C  45.06700 10.86300 32.41700
O  46.08200 11.44800 32.73300
C  43.93900 10.63400 33.36900
C  44.36900 9.75700 34.44000
O  44.92700 8.66300 34.23300
O  44.06900 10.18100 35.72300
C  44.40400 9.24700 36.84000
H  37.67000 7.72500 32.94200
H  38.76600 6.43600 26.68400
H  44.46000 9.03200 27.15600
H  41.65200 8.97900 35.05100
H  38.87800 9.33100 34.51900
H  38.94300 7.79000 35.90500
H  40.63100 7.24700 35.71500
H  39.30600 6.60300 34.64800
H  40.75000 11.70400 33.92300
H  41.77300 11.46100 35.21300
H  39.52200 10.25100 36.12700
H  38.82900 11.73000 35.41700
H  35.86500 5.02500 31.04000
H  35.06500 6.58100 30.92000
H  36.15900 6.25000 32.32000
H  34.36400 6.08100 28.90300
H  34.87100 4.36800 29.19100
H  34.30800 5.01900 27.62900
H  40.32400 8.00400 25.10900
H  43.33700 7.81300 25.59700
H  40.50100 5.81100 24.34200
H  40.76100 5.28800 25.90900
H  42.19400 5.67100 24.90200
H  42.09400 10.50700 25.47300
H  41.52400 9.52600 24.19200
H  44.01500 9.00100 23.77500
H  44.38000 10.26400 24.93700
H  43.60000 10.68600 23.38500
H  46.23500 10.97700 28.16500
H  47.07900 9.60800 28.92800
H  46.86400 11.15100 29.81400
H  43.60100 11.59900 33.74400
H  45.29100 9.48700 37.42600
H  44.56400 8.24200 36.45200
H  43.55500 9.25500 37.52300
Mg 47.21300 35.16000 27.10400
C  45.49100 33.16300 29.43200
C  47.37200 37.77500 29.32100
C  48.70100 36.95200 24.68500
C  46.41200 32.62900 24.67300
N  46.56000 35.42300 29.16600
C  45.99500 34.38800 29.94000
C  45.96300 34.85500 31.28800
C  46.09800 36.40800 31.20000
C  46.67500 36.65400 29.76500
C  44.68800 37.10400 31.56100
C  47.19800 34.22900 32.10500
C  46.96800 34.15700 33.66000
H  45.98200 35.04300 34.33100
N  48.05200 37.01800 27.09100
C  48.05400 37.94400 28.11500
C  48.75200 39.13100 27.72900
C  49.13100 38.92300 26.30300
C  48.70300 37.54700 25.97900
C  48.95600 40.19400 28.78000
C  49.81500 39.94400 25.39900
O  50.25700 39.60000 24.32300
C  50.04600 41.41000 25.75000
N  47.20200 34.96700 24.79500
C  48.04700 35.81000 24.17000
C  48.41400 35.20200 22.76600
C  47.76600 33.75500 22.84400
C  47.07000 33.78000 24.16600
C  47.91800 36.02600 21.61500
C  48.83900 32.56300 22.68000
C  48.31800 31.49400 21.69000
N  46.08500 33.33200 27.07200
C  45.99400 32.42900 25.98200
C  45.40100 31.20500 26.56000
C  45.12700 31.43900 27.90800
C  45.55200 32.74300 28.09900
C  45.16700 29.95200 25.94300
C  44.62300 30.90800 29.08100
O  44.09800 29.83600 29.38300
C  44.56300 32.12500 30.08200
C  45.05000 31.47200 31.35900
O  46.20000 31.01900 31.52300
O  44.06800 31.50500 32.23200
C  44.52400 30.93600 33.48300
H  47.42200 38.68300 29.92600
H  49.00000 37.58000 23.84400
H  46.34400 31.74700 24.03300
H  45.13500 34.57300 31.93700
H  46.90700 36.69600 31.87200
H  43.95300 36.41200 31.97200
H  44.19400 37.55900 30.70300
H  44.86400 37.91400 32.27000
H  48.19100 34.60300 31.85500
H  47.41000 33.20800 31.78900
H  47.94000 34.38100 34.09900
H  46.76700 33.14600 34.01400
H  49.49600 41.05400 28.38500
H  49.43300 39.67800 29.61400
H  48.00100 40.47800 29.22200
H  50.45200 42.00600 24.93300
H  50.69800 41.18800 26.59400
H  49.13900 41.81800 26.19500
H  49.50000 35.26000 22.69300
H  47.00800 33.62200 22.07200
H  47.42300 35.36100 20.90700
H  48.79300 36.45900 21.13100
H  47.24800 36.82700 21.92600
H  49.07700 32.06100 23.61800
H  49.74400 32.98400 22.24100
H  47.53100 31.99300 21.12600
H  47.83800 30.68800 22.24500
H  49.14300 31.26100 21.01700
H  44.40300 29.33900 26.42300
H  46.07600 29.35600 25.86200
H  44.92900 30.04700 24.88400
H  43.55600 32.51700 30.22400
H  44.75300 29.87200 33.41100
H  43.87100 31.21300 34.31000
H  45.37900 31.55100 33.76600

