158

Mg 2.31900 -1.07800 44.78700
C  5.57700 -0.46700 43.94500
C  1.36800 1.57800 42.96800
C  -0.80200 -2.38300 44.91400
C  3.53600 -4.20100 46.23400
N  3.40700 0.32000 43.50000
C  4.73200 0.48600 43.40700
C  5.14500 1.65600 42.46700
C  3.80900 2.51900 42.50400
C  2.74900 1.44700 43.00900
C  3.86000 3.81500 43.40300
C  5.56700 1.30500 41.00300
C  6.63700 2.16700 40.51900
H  6.33200 3.05900 39.35300
N  0.45600 -0.39500 44.18000
C  0.29800 0.71700 43.41300
C  -1.10200 0.83000 43.23100
C  -1.79800 -0.25300 43.82400
C  -0.71900 -1.10600 44.35100
C  -1.75500 2.03500 42.50700
C  -3.27600 -0.39000 43.93900
O  -4.06300 0.36300 43.43000
C  -3.85000 -1.50700 44.71800
N  1.49600 -3.03000 45.49700
C  0.15500 -3.23700 45.48200
C  -0.09800 -4.70800 45.82800
C  1.21300 -5.21500 46.46300
C  2.15800 -4.09500 46.08600
C  -1.39900 -5.02200 46.72000
C  1.63500 -6.62200 45.95700
C  1.98200 -7.65700 47.02600
N  4.14000 -2.11800 45.10700
C  4.43300 -3.36900 45.73500
C  5.82800 -3.60800 45.71700
C  6.28300 -2.49800 45.01200
C  5.24600 -1.58300 44.69100
C  6.72400 -4.81100 46.19300
C  7.47800 -1.84700 44.53200
O  8.64500 -2.20900 44.63400
C  7.07300 -0.57200 43.80800
C  7.79000 0.63300 44.45400
O  7.88400 0.87900 45.65800
O  8.49500 1.32500 43.47400
C  9.23500 2.53700 43.91500
H  1.06900 2.45700 42.39400
H  -1.74900 -2.91100 44.78500
H  3.96400 -5.14100 46.58800
H  5.87000 2.29400 42.97200
H  3.38900 2.77800 41.53200
H  2.82500 4.00300 43.68900
H  4.24800 4.66900 42.84800
H  4.26900 3.59600 44.38900
H  4.80600 1.41600 40.23100
H  5.64600 0.22600 40.86800
H  7.35200 1.41600 40.18400
H  7.14600 2.71300 41.31200
H  -2.84100 1.96600 42.45700
H  -1.19500 2.09700 41.57400
H  -1.50400 2.87000 43.16200
H  -4.91900 -1.33000 44.83200
H  -3.41900 -1.54800 45.71900
H  -3.77400 -2.47600 44.22500
H  -0.14100 -5.23300 44.87400
H  1.08900 -5.15900 47.54500
H  -1.92000 -5.93500 46.43100
H  -2.02900 -4.13500 46.78300
H  -1.06600 -5.22800 47.73700
H  2.53200 -6.40600 45.37700
H  0.87800 -7.01800 45.28000
H  3.03500 -7.88000 47.19800
H  1.44100 -8.55100 46.71200
H  1.75200 -7.30500 48.03100
H  6.24300 -5.20000 47.09000
H  7.69100 -4.45700 46.55300
H  6.83200 -5.61100 45.46200
H  7.40300 -0.63600 42.77200
H  9.70200 3.03600 43.06600
H  10.03600 2.27600 44.60600
H  8.57100 3.31800 44.28800
Mg 49.28000 44.55000 42.43800
C  46.24400 45.06500 40.67900
C  49.67800 41.58800 40.70600
C  52.62200 44.60400 43.07900
C  49.08800 47.88400 43.45900
N  48.13300 43.51500 40.80200
C  46.84100 43.85300 40.37100
C  46.40900 42.79200 39.34200
C  47.26400 41.59200 39.62100
C  48.42200 42.25500 40.45300
C  46.67900 40.37800 40.38200
C  46.47800 43.32400 37.90700
C  45.28900 43.08700 36.92900
H  45.27800 43.81300 35.60800
N  50.92800 43.26600 41.91600
C  50.86100 42.06300 41.29100
C  52.16800 41.33600 41.44100
C  53.00800 42.16000 42.18000
C  52.24000 43.40500 42.43800
C  52.43200 39.88800 40.93700
C  54.37100 41.74200 42.61800
O  54.75600 40.65900 42.20800
C  55.39400 42.58700 43.12600
N  50.69200 46.01500 43.15000
C  51.97800 45.78300 43.45400
C  52.66200 46.97800 44.21200
C  51.46900 48.04500 44.36400
C  50.34500 47.31300 43.62100
C  53.33500 46.57100 45.52100
C  51.72800 49.43800 43.66100
C  51.12600 50.66100 44.35700
N  47.87200 46.14200 42.36000
C  47.92900 47.43200 42.76000
C  46.74500 48.14900 42.47100
C  46.07000 47.28000 41.64800
C  46.77100 46.07200 41.61500
C  46.50000 49.53400 42.92000
C  44.94600 47.12700 40.75900
O  44.12700 47.97800 40.48700
C  44.91500 45.72400 40.16200
C  43.59900 45.12900 40.68200
O  42.70000 44.88400 39.94000
O  43.53000 45.02500 42.07000
C  42.24800 44.84800 42.64300
H  49.89100 40.55600 40.42100
H  53.65500 44.46300 43.40300
H  48.96800 48.84500 43.96200
H  45.39300 42.40400 39.40000
H  47.66300 41.19500 38.68700
H  46.90000 40.36000 41.44900
H  46.99300 39.44000 39.92400
H  45.60800 40.30200 40.19500
H  47.31300 42.84300 37.39800
H  46.60200 44.40300 37.80800
H  44.38000 43.21900 37.51700
H  45.31700 42.00300 36.81900
H  53.32700 39.83300 40.31600
H  51.68900 39.57300 40.20500
H  52.49600 39.23300 41.80600
H  55.11800 42.93000 44.12300
H  55.63600 43.43900 42.49100
H  56.30200 41.99400 43.23900
H  53.49700 47.34100 43.61300
H  51.25800 48.12600 45.43000
H  53.04700 47.20300 46.36100
H  54.41000 46.56500 45.34400
H  53.04200 45.56600 45.82700
H  51.41000 49.39700 42.61900
H  52.81700 49.46200 43.68200
H  51.79800 51.45900 44.67300
H  50.70400 50.37900 45.32100
H  50.38200 51.10400 43.69500
H  46.35100 50.28600 42.14500
H  47.30900 49.81300 43.59500
H  45.55500 49.46000 43.45900
H  44.83500 45.81600 39.07800
H  42.30000 44.20000 43.51800
H  41.51600 44.38200 41.98300
H  41.91000 45.87100 42.80300

