158

Mg 49.75100 35.58700 26.52700
C  47.68800 34.34500 29.27500
C  50.39600 38.39100 28.34800
C  51.62100 36.55000 23.93100
C  48.66000 32.74100 24.68400
N  49.02500 36.31300 28.60600
C  48.30600 35.60900 29.59200
C  48.40900 36.29100 30.92400
C  48.86700 37.79300 30.44400
C  49.46100 37.48500 29.06000
C  47.78800 38.84100 30.33200
C  49.44900 35.64700 31.77800
C  49.07300 35.49000 33.24000
H  48.02500 36.36300 33.87300
N  50.90000 37.25200 26.18000
C  51.08700 38.33500 27.04900
C  52.03600 39.23600 26.42800
C  52.49000 38.64500 25.18500
C  51.65700 37.42200 25.05100
C  52.37000 40.59900 27.08400
C  53.42200 39.34600 24.19900
O  53.68200 38.81400 23.09500
C  54.18800 40.64500 24.54200
N  50.00900 34.82100 24.54700
C  50.86200 35.37900 23.75100
C  51.07500 34.51900 22.44800
C  50.31400 33.28900 22.78200
C  49.60100 33.62700 24.05800
C  50.88700 35.13900 21.04900
C  51.22500 32.07200 23.08800
C  50.68800 30.68200 22.92900
N  48.37800 33.96100 26.81200
C  48.12300 32.86300 25.99900
C  47.33100 31.88400 26.72400
C  47.06900 32.47400 27.96000
C  47.79400 33.70800 28.01900
C  46.69700 30.68800 26.12000
C  46.37300 32.21100 29.19500
O  45.70400 31.28400 29.56900
C  46.64600 33.47800 30.07100
C  47.01100 32.98900 31.48700
O  48.13500 32.57000 31.78300
O  45.92200 32.84200 32.27900
C  46.20500 32.19700 33.60800
H  50.64400 39.16600 29.07600
H  52.28100 36.88400 23.12800
H  48.40500 31.84800 24.11000
H  47.40300 36.27500 31.34300
H  49.55000 38.28500 31.13600
H  48.14600 39.72000 30.86900
H  46.95400 38.41300 30.88800
H  47.52300 39.13100 29.31600
H  50.35000 36.25300 31.68400
H  49.53900 34.60400 31.47500
H  49.92500 35.38900 33.91200
H  48.70300 34.46500 33.24200
H  51.50800 40.84300 27.70600
H  52.37700 41.42500 26.37300
H  53.34900 40.62700 27.56200
H  53.76500 41.63200 24.35900
H  55.01200 40.60700 23.83000
H  54.44400 40.50800 25.59300
H  52.14500 34.31700 22.48600
H  49.55700 32.99400 22.05600
H  50.13200 34.58800 20.48800
H  51.81900 35.17900 20.48700
H  50.56700 36.16900 21.21000
H  51.74800 32.12100 24.04400
H  51.95300 32.06400 22.27700
H  51.14900 30.04700 23.68600
H  51.02700 30.30900 21.96200
H  49.61100 30.52000 22.95700
H  47.28700 30.19800 25.34600
H  45.71300 30.95500 25.73400
H  46.69900 29.97300 26.94300
H  45.65700 33.93600 30.06600
H  47.11200 31.59600 33.67800
H  45.36600 31.50500 33.68900
H  46.06900 32.86400 34.45900
Mg -12.30200 15.86400 42.07300
C  -9.17500 14.27000 41.65600
C  -11.21700 18.47200 40.07900
C  -15.34800 17.08800 42.10600
C  -13.35300 12.91200 43.76200
N  -10.37500 16.32200 41.00300
C  -9.23100 15.58200 40.98300
C  -8.10400 16.29700 40.26400
C  -8.86800 17.54400 39.62400
C  -10.25300 17.46500 40.28600
C  -8.09000 18.90900 39.95900
C  -7.28500 15.46000 39.20600
C  -5.79300 15.55800 39.34600
H  -4.95600 14.80200 38.38000
N  -13.14600 17.62700 41.34000
C  -12.51000 18.57400 40.57000
C  -13.41100 19.68600 40.33400
C  -14.70500 19.27200 40.81700
C  -14.45400 17.94800 41.45800
C  -12.91100 20.99000 39.66900
C  -15.94400 20.06500 40.68100
O  -15.91000 21.11400 40.02300
C  -17.18500 19.66500 41.16000
N  -14.19400 14.96800 42.66400
C  -15.25600 15.80500 42.70700
C  -16.42800 14.99900 43.27900
C  -15.74800 13.82400 44.01800
C  -14.34500 13.89200 43.47300
C  -17.39600 15.88400 44.08300
C  -16.55700 12.51500 43.74100
C  -17.11400 11.89800 45.07400
N  -11.51200 13.93200 42.60400
C  -12.07000 12.85600 43.24800
C  -11.03100 11.83500 43.49300
C  -9.90800 12.35900 42.97200
C  -10.23300 13.60000 42.31400
C  -11.30100 10.59700 44.30800
C  -8.50300 12.07900 42.64400
O  -7.75700 11.10200 42.94200
C  -7.98900 13.30100 41.75600
C  -6.93000 13.94400 42.48100
O  -7.13800 14.88200 43.26300
O  -5.73900 13.38200 42.10900
C  -4.53900 14.06100 42.62500
H  -10.92600 19.22600 39.34500
H  -16.38200 17.41700 42.22200
H  -13.66400 12.06500 44.37700
H  -7.51500 16.73100 41.07200
H  -9.00400 17.58800 38.54400
H  -8.51500 19.40900 40.82900
H  -8.13200 19.48500 39.03400
H  -7.03600 18.66700 40.09400
H  -7.62200 15.81400 38.23200
H  -7.66800 14.44000 39.15700
H  -5.53300 15.15100 40.32300
H  -5.48700 16.59000 39.51600
H  -11.84500 21.13600 39.84000
H  -13.37500 21.84400 40.16300
H  -13.19700 20.98400 38.61700
H  -17.50400 18.74100 40.67800
H  -17.84500 20.50300 40.93500
H  -17.11300 19.53200 42.23900
H  -16.99000 14.62400 42.42400
H  -15.71900 14.05700 45.08300
H  -17.59600 15.41200 45.04500
H  -18.28900 16.08400 43.49100
H  -17.05100 16.89000 44.32300
H  -15.81900 11.82400 43.33300
H  -17.36100 12.70700 43.03100
H  -18.16700 11.73700 44.84100
H  -17.01000 12.50000 45.97600
H  -16.67800 10.91800 45.26700
H  -11.80800 10.85900 45.23700
H  -10.34100 10.16600 44.59300
H  -11.94100 9.93000 43.73000
H  -7.50200 12.98900 40.83200
H  -3.74600 13.93200 41.88700
H  -4.22500 13.55900 43.54000
H  -4.49100 15.13600 42.79200

