158

Mg -8.73100 40.10800 43.19400
C  -8.07200 36.79900 42.29200
C  -5.91200 40.99700 41.32800
C  -9.64400 43.40400 43.30100
C  -11.79600 39.26500 44.33900
N  -7.16200 38.99800 42.07200
C  -7.07500 37.66500 41.90000
C  -5.90600 37.31300 40.99800
C  -5.05900 38.61400 40.94900
C  -6.09700 39.63800 41.41900
C  -3.81800 38.74000 41.82400
C  -6.49400 36.75100 39.68400
C  -5.59100 35.58500 38.99100
H  -4.74600 36.08900 37.77800
N  -7.87000 41.95800 42.43000
C  -6.72500 42.09000 41.73600
C  -6.46500 43.53300 41.41200
C  -7.56100 44.26700 41.99900
C  -8.43700 43.24300 42.61700
C  -5.34900 44.09400 40.55100
C  -7.64800 45.79700 42.05800
O  -6.88000 46.52800 41.44300
C  -8.79700 46.50700 42.85000
N  -10.49800 41.26200 43.62100
C  -10.63100 42.56400 43.77200
C  -11.97000 43.06600 44.30100
C  -12.61400 41.70700 44.71700
C  -11.55600 40.65300 44.15400
C  -11.87600 44.25300 45.33900
C  -14.14800 41.46000 44.44400
C  -14.48400 41.35800 42.92300
N  -9.69700 38.32200 43.52300
C  -11.00800 38.14200 43.94200
C  -11.28800 36.66200 43.88800
C  -10.12500 36.14900 43.29300
C  -9.21200 37.16800 43.06000
C  -12.52600 35.89800 44.42500
C  -9.50300 34.93500 42.95400
O  -9.98500 33.77700 43.02100
C  -8.19500 35.29600 42.14700
C  -7.08300 34.57800 42.69700
O  -6.44500 34.86400 43.69800
O  -6.57800 33.71200 41.73200
C  -5.29600 33.03500 42.00000
H  -5.00900 41.24900 40.76800
H  -9.88800 44.43500 43.56600
H  -12.72600 38.98800 44.83800
H  -5.35100 36.54200 41.53200
H  -4.96600 38.81300 39.88100
H  -3.88600 39.44600 42.65100
H  -2.92800 39.14000 41.33700
H  -3.62000 37.73200 42.19100
H  -6.48900 37.55200 38.94500
H  -7.52900 36.41100 39.69900
H  -6.27000 34.77600 38.72500
H  -4.87200 35.05300 39.61400
H  -5.63300 44.94100 39.92600
H  -4.95600 43.34200 39.86600
H  -4.60900 44.35900 41.30600
H  -8.74600 47.56900 42.61300
H  -8.70500 46.33000 43.92200
H  -9.75400 46.16500 42.45600
H  -12.53300 43.34400 43.41000
H  -12.44500 41.57600 45.78600
H  -10.82800 44.44000 45.57300
H  -12.37000 44.07600 46.29500
H  -12.27800 45.16800 44.90500
H  -14.69000 42.34800 44.76800
H  -14.42800 40.58300 45.02800
H  -14.82100 40.35100 42.67700
H  -13.59100 41.59000 42.34200
H  -15.17900 42.10500 42.53900
H  -12.68500 36.22200 45.45400
H  -12.28700 34.83500 44.43100
H  -13.43300 36.06500 43.84400
H  -8.37700 35.07700 41.09500
H  -4.51500 33.73300 42.30300
H  -4.89700 32.55200 41.10800
H  -5.34900 32.31200 42.81400
Mg -2.43000 33.93900 26.74700
C  -3.83100 32.22200 29.59700
C  -0.60100 35.72100 29.01000
C  -1.38100 35.73800 24.26800
C  -4.24500 31.99500 24.67300
N  -2.41200 34.12100 29.11000
C  -2.94300 33.26000 30.02500
C  -2.33500 33.46100 31.45400
C  -1.32700 34.59100 31.18900
C  -1.42200 34.75000 29.63500
C  -1.66800 35.85700 31.94400
C  -1.57800 32.22100 32.05000
C  -2.14600 31.66600 33.32600
H  -1.19600 31.67200 34.56800
N  -1.18000 35.51400 26.67400
C  -0.47600 36.08100 27.72100
C  0.34500 37.11600 27.16900
C  0.15300 37.17400 25.74400
C  -0.86200 36.15200 25.48800
C  1.20500 38.08000 28.06500
C  0.76000 38.04100 24.71700
O  0.36600 38.04600 23.58500
C  1.95500 38.95900 25.07300
N  -2.95900 34.01200 24.74600
C  -2.26200 34.75900 23.90700
C  -2.64100 34.42500 22.40900
C  -3.34000 33.00900 22.55900
C  -3.42100 32.95200 24.05800
C  -3.57300 35.48800 21.68400
C  -2.52200 31.78400 21.93900
C  -1.05100 31.62500 22.31600
N  -3.91500 32.57800 26.99500
C  -4.57100 31.79600 26.07200
C  -5.38300 30.73000 26.70500
C  -5.13600 30.87200 28.10400
C  -4.23200 32.00100 28.18700
C  -6.14400 29.64000 26.06300
C  -5.41800 30.34300 29.40400
O  -6.14300 29.40400 29.76400
C  -4.60300 31.19200 30.35400
C  -5.51000 31.76600 31.40800
O  -6.18300 32.72900 31.22200
O  -5.31000 31.15600 32.65400
C  -6.01100 31.65000 33.83700
H  0.13400 36.15500 29.69200
H  -0.86300 36.27200 23.46800
H  -4.64900 31.21900 24.01800
H  -3.16700 33.70200 32.11600
H  -0.28700 34.31500 31.35800
H  -2.16500 36.52100 31.23700
H  -0.81300 36.46400 32.24200
H  -2.34300 35.77100 32.79600
H  -0.53700 32.48100 32.24100
H  -1.55900 31.38800 31.34700
H  -2.46200 30.65400 33.07300
H  -3.03200 32.23200 33.61400
H  0.76700 39.01900 28.40100
H  2.17200 38.14400 27.56400
H  1.50300 37.51900 28.95100
H  2.79400 38.33000 25.36900
H  1.73500 39.59500 25.93100
H  2.35200 39.53500 24.23700
H  -1.74200 34.35600 21.79700
H  -4.36700 33.00700 22.19300
H  -3.98500 35.03300 20.78300
H  -2.98400 36.31400 21.28400
H  -4.34400 35.87800 22.34800
H  -2.53300 31.97400 20.86600
H  -3.08000 30.85700 22.06900
H  -0.51100 31.60800 21.36900
H  -0.73900 30.76200 22.90400
H  -0.73200 32.51700 22.85400
H  -5.97300 28.76800 26.69500
H  -5.69200 29.52200 25.07800
H  -7.18500 29.96200 26.04200
H  -3.82000 30.54900 30.75800
H  -6.58000 32.56100 33.65100
H  -5.22900 31.87400 34.56200
H  -6.61900 30.82700 34.21400

