158

Mg -1.86400 17.27100 27.33800
C  -2.32600 15.19800 30.16300
C  -2.38200 19.97100 29.48100
C  -1.56600 19.24300 24.74500
C  -2.02800 14.46700 25.28100
N  -2.25900 17.50500 29.61800
C  -2.32000 16.54400 30.55700
C  -2.28600 17.16400 31.98600
C  -2.51400 18.67800 31.70800
C  -2.42000 18.72800 30.17600
C  -3.84500 19.24200 32.21100
C  -0.98700 16.89400 32.84900
C  -0.97400 16.31800 34.23400
H  0.17900 16.65500 35.26500
N  -1.84400 19.34900 27.09900
C  -2.07500 20.32300 28.07300
C  -2.00500 21.57600 27.46300
C  -1.58600 21.36400 26.14500
C  -1.66500 19.96400 25.93100
C  -2.15000 22.83400 28.23500
C  -1.22400 22.36200 25.09300
O  -0.79600 22.07500 23.96000
C  -1.14000 23.81400 25.30900
N  -1.88400 16.86300 25.30400
C  -1.66200 17.90800 24.42100
C  -1.74600 17.39700 22.95100
C  -1.42200 15.84300 23.17800
C  -1.87600 15.70900 24.66600
C  -3.03100 17.63100 22.12600
C  0.07800 15.53900 22.87300
C  1.09600 15.95900 23.95300
N  -2.04600 15.28200 27.60900
C  -2.24800 14.25000 26.67000
C  -2.38700 12.94100 27.36300
C  -2.30700 13.31900 28.70700
C  -2.20700 14.71400 28.81900
C  -2.60900 11.55600 26.81900
C  -2.46600 12.70200 30.02500
O  -2.66500 11.53500 30.36000
C  -2.48900 13.95000 30.98100
C  -1.40100 13.66100 31.94000
O  -0.19300 13.71000 31.74800
O  -2.01200 13.19900 33.04000
C  -1.09400 12.28300 33.85100
H  -2.43500 20.80500 30.18400
H  -1.59500 19.96600 23.92700
H  -1.87600 13.56000 24.69300
H  -3.20300 16.83400 32.47500
H  -1.75900 19.32200 32.15800
H  -4.31500 19.90200 31.48300
H  -3.66900 19.85100 33.09800
H  -4.62700 18.51400 32.43000
H  -0.33200 17.76400 32.81300
H  -0.37800 16.17200 32.30400
H  -0.92800 15.24800 34.03300
H  -1.94800 16.54400 34.66700
H  -2.69500 22.69100 29.16800
H  -2.72800 23.57100 27.67800
H  -1.17400 23.24000 28.50100
H  -0.19100 23.90500 25.83700
H  -1.93900 24.28400 25.88300
H  -0.92400 24.36500 24.39400
H  -0.90600 17.83600 22.41200
H  -2.08700 15.18800 22.61500
H  -3.81900 18.29900 22.47300
H  -3.56200 16.69000 21.98600
H  -2.70200 18.12800 21.21400
H  0.34700 16.23100 22.07400
H  0.24300 14.54000 22.46900
H  0.62700 16.21100 24.90400
H  1.75500 16.76300 23.62500
H  1.77200 15.10500 23.92200
H  -1.75800 11.21400 26.23000
H  -3.52900 11.37800 26.26100
H  -2.49900 10.94500 27.71400
H  -3.46500 13.85000 31.45700
H  -0.38000 11.70300 33.26700
H  -1.69800 11.65400 34.50400
H  -0.49100 12.93400 34.48400
Mg 44.09200 4.19300 46.93300
C  42.10200 7.08700 46.78000
C  41.33400 2.25400 46.95800
C  46.12300 1.71000 46.67500
C  46.98500 6.47100 46.85500
N  41.95800 4.73200 46.84700
C  41.35200 5.94900 46.79400
C  39.79900 5.79900 46.88300
C  39.63300 4.25100 46.99200
C  41.08300 3.68700 46.84400
C  38.99800 3.88000 48.31000
C  38.98200 6.48100 45.80800
C  39.53200 6.30300 44.33800
H  38.52200 6.03700 43.18400
N  43.75900 2.22100 46.77000
C  42.58900 1.58900 46.82900
C  42.76600 0.19300 46.62500
C  44.17000 -0.10900 46.55800
C  44.77800 1.27400 46.72000
C  41.66600 -0.79800 46.45100
C  44.79200 -1.45800 46.41700
O  44.04600 -2.41300 46.18900
C  46.31000 -1.78300 46.44100
N  46.32000 4.15200 46.57000
C  46.80200 2.90700 46.67500
C  48.39900 2.98000 46.73700
C  48.69400 4.54300 46.75000
C  47.30800 5.11700 46.71300
C  49.15400 2.08000 47.80000
C  49.46400 5.04300 45.49100
C  51.02800 4.86400 45.48900
N  44.52800 6.36300 46.71200
C  45.69400 7.07400 46.77000
C  45.42000 8.50600 46.81800
C  43.99300 8.55300 46.85600
C  43.49000 7.24200 46.76200
C  46.40700 9.57800 46.89500
C  42.83400 9.42500 46.83200
O  42.81600 10.64100 46.67300
C  41.55800 8.54100 46.82000
C  40.77400 8.83600 48.12500
O  40.92500 8.19500 49.16600
O  39.96900 9.91900 48.06300
C  39.09400 10.00300 49.24200
H  40.40700 1.68000 46.91500
H  46.82200 0.87000 46.67600
H  47.91700 6.99100 47.08800
H  39.43800 6.16900 47.84200
H  39.01100 3.81800 46.20900
H  38.30100 4.63600 48.67000
H  39.73200 3.61100 49.07000
H  38.53700 2.91400 48.10700
H  38.69700 7.50200 46.06200
H  38.07100 5.88500 45.76700
H  40.28400 5.52400 44.21500
H  40.02400 7.25300 44.13000
H  41.85800 -1.55500 45.69000
H  40.71500 -0.26500 46.45700
H  41.63500 -1.42300 47.34300
H  46.83100 -1.21000 45.67400
H  46.51100 -2.84200 46.27400
H  46.60600 -1.65200 47.48200
H  48.63600 2.47400 45.80100
H  49.32300 4.81900 47.59700
H  48.29800 1.77400 48.40200
H  49.85600 2.72000 48.33300
H  49.55600 1.18500 47.32500
H  49.19500 6.05600 45.19100
H  49.09600 4.37300 44.71400
H  51.34500 4.19500 44.68900
H  51.31700 4.45700 46.45800
H  51.52900 5.81300 45.29800
H  47.40100 9.19300 46.66800
H  46.51800 9.88200 47.93600
H  46.16500 10.43000 46.26000
H  40.97800 8.79500 45.93300
H  39.59000 10.63100 49.98200
H  38.69200 9.18500 49.84000
H  38.20100 10.46300 48.81700

