158

Mg 0.90900 8.27100 27.13800
C  1.65200 10.10400 30.19600
C  0.57900 5.58700 29.05500
C  0.55700 6.63200 24.29700
C  1.91700 11.12700 25.34100
N  1.41700 7.82100 29.38600
C  1.56000 8.72400 30.40900
C  1.26600 8.06700 31.76400
C  1.11000 6.56200 31.35400
C  0.96300 6.62700 29.84000
C  2.26600 5.70800 31.87100
C  -0.11700 8.56700 32.45100
C  -0.44100 8.27800 33.96000
H  0.50900 7.39800 34.77600
N  0.58300 6.36200 26.78500
C  0.40800 5.40500 27.64700
C  0.13300 4.17900 26.96600
C  0.12200 4.46400 25.58200
C  0.45300 5.93000 25.51000
C  -0.06100 2.88600 27.64800
C  -0.22400 3.53100 24.42400
O  -0.21400 3.83900 23.22100
C  -0.71600 2.18700 24.80200
N  1.27400 8.73700 25.06800
C  1.00700 7.91600 24.09000
C  1.48000 8.49500 22.79300
C  1.63000 9.98600 23.15200
C  1.57000 9.97600 24.62000
C  2.76600 7.83600 22.14300
C  0.68900 10.93500 22.31200
C  -0.80200 11.20100 22.61400
N  1.61200 10.22400 27.54900
C  1.96400 11.32700 26.75300
C  2.22600 12.50100 27.56300
C  2.13800 12.04200 28.86800
C  1.76000 10.66500 28.83200
C  2.43800 13.89400 27.03000
C  2.28100 12.44700 30.22100
O  2.72700 13.49300 30.63000
C  1.85100 11.26700 31.06700
C  2.83400 11.19500 32.24300
O  3.92100 10.68900 32.17200
O  2.26600 11.73300 33.36300
C  3.00400 11.55400 34.64800
H  0.29800 4.69200 29.61500
H  0.54600 6.00700 23.40100
H  2.22200 11.89400 24.62600
H  2.06800 8.33500 32.45200
H  0.18900 6.22500 31.83100
H  1.80100 4.98200 32.53800
H  2.99600 6.29800 32.42400
H  2.77000 5.21900 31.03700
H  -0.87700 8.01400 31.89900
H  -0.18800 9.63100 32.22300
H  -1.42200 7.80900 33.87700
H  -0.55900 9.20900 34.51600
H  -1.09000 2.54600 27.53500
H  -0.05900 2.91200 28.73800
H  0.64500 2.15400 27.25500
H  0.18100 1.62100 25.05600
H  -1.31300 1.68000 24.04300
H  -1.44900 2.06300 25.59900
H  0.68300 8.27900 22.08100
H  2.64100 10.33100 22.93600
H  3.58700 8.53300 22.31300
H  2.67300 7.73200 21.06200
H  3.03400 6.89200 22.61800
H  0.76500 10.52800 21.30400
H  1.22800 11.88200 22.29000
H  -1.39200 11.16600 21.69800
H  -0.84800 12.22000 22.99700
H  -1.30600 10.49000 23.26800
H  3.49600 14.15500 26.99100
H  1.87500 14.59300 27.64700
H  2.03500 14.03900 26.02800
H  0.90000 11.62100 31.46400
H  2.22900 11.31800 35.37800
H  3.46200 12.42900 35.10800
H  3.72300 10.73800 34.57300
Mg 8.20300 2.56100 28.32400
C  9.54900 1.05300 31.22400
C  6.31500 4.61100 30.37800
C  7.19500 4.03400 25.60900
C  9.76200 -0.04700 26.45300
N  7.89900 2.64800 30.52800
C  8.65200 2.13800 31.51300
C  8.36800 2.72400 32.87800
C  7.23400 3.72100 32.63800
C  7.11000 3.66200 31.06100
C  5.89800 3.39500 33.37200
C  9.63500 3.41400 33.50200
C  10.12600 3.01600 34.85500
H  9.09000 2.75800 36.03500
N  7.07100 4.21600 27.99400
C  6.29600 4.87200 29.00300
C  5.54600 5.95700 28.29200
C  5.79500 5.85000 26.94600
C  6.69700 4.67100 26.75200
C  4.61900 6.83500 29.02900
C  5.27700 6.72400 25.79000
O  5.69200 6.60100 24.60000
C  4.42000 7.86700 26.03200
N  8.43600 2.10100 26.37200
C  7.96000 2.86600 25.43500
C  8.22000 2.32400 23.96700
C  9.25000 1.14400 24.24200
C  9.15100 1.05200 25.79900
C  6.94300 1.87100 23.14700
C  10.75900 1.37900 23.82200
C  11.33400 2.64000 24.40900
N  9.33400 0.76300 28.72600
C  9.87500 -0.18900 27.87100
C  10.57300 -1.23600 28.62300
C  10.50300 -0.77300 29.92900
C  9.72000 0.44700 29.95200
C  11.28000 -2.47700 28.14100
C  10.92800 -1.01100 31.27200
O  11.58200 -1.95500 31.75300
C  10.32900 0.13100 32.21100
C  9.43600 -0.49800 33.17600
O  8.30600 -0.81900 32.94200
O  9.94500 -0.59900 34.41700
C  9.40800 -1.59200 35.36300
H  5.83200 5.28600 31.08700
H  6.84900 4.43800 24.65600
H  10.24600 -0.77700 25.80000
H  8.16000 1.92000 33.58400
H  7.43200 4.78600 32.75600
H  5.86400 2.42900 33.87500
H  5.10600 3.38200 32.62400
H  5.67200 4.21800 34.05100
H  9.36800 4.44800 33.72200
H  10.48900 3.33700 32.82900
H  10.83400 3.80100 35.12300
H  10.72100 2.11600 34.69900
H  4.84800 7.87100 28.77800
H  4.65300 6.75900 30.11600
H  3.56100 6.66700 28.83200
H  3.54200 7.37000 26.44300
H  4.10700 8.37000 25.11700
H  4.90400 8.66500 26.59500
H  8.63800 3.15000 23.39100
H  8.96300 0.20300 23.77200
H  6.92900 0.82900 22.82900
H  6.95800 2.55400 22.29700
H  6.09900 2.18600 23.76000
H  10.82800 1.53900 22.74600
H  11.38500 0.50500 24.00300
H  12.39400 2.61600 24.66300
H  11.01300 2.86800 25.42500
H  11.19700 3.46500 23.70900
H  11.76000 -2.34500 27.17100
H  10.57400 -3.30000 28.02500
H  12.15900 -2.66400 28.75800
H  11.16300 0.58100 32.75000
H  10.21100 -2.09200 35.90500
H  8.65200 -2.29600 35.01600
H  8.95400 -1.07000 36.20600

