158

Mg 36.09200 2.01300 28.61500
C  33.97500 3.17500 31.34300
C  38.60300 2.16300 30.90100
C  38.05800 1.34300 26.09200
C  33.32900 2.16300 26.52900
N  36.14700 2.60200 30.80900
C  35.24700 2.91000 31.76800
C  35.74600 2.85400 33.24100
C  37.29700 3.05400 32.94800
C  37.39400 2.45000 31.47600
C  37.91000 4.47700 33.15200
C  35.26100 1.61100 34.08400
C  35.00900 1.92700 35.58700
H  35.68300 3.24700 36.14000
N  38.06500 1.63800 28.49000
C  38.93500 1.81000 29.55200
C  40.26700 1.49000 29.06400
C  40.18300 1.33600 27.64700
C  38.73700 1.39200 27.36000
C  41.45100 1.42300 29.96700
C  41.26200 1.01200 26.62900
O  40.90800 0.75200 25.47300
C  42.72200 0.92400 27.01400
N  35.73800 1.56900 26.64500
C  36.68300 1.36300 25.74000
C  36.16400 1.24900 24.31600
C  34.67100 1.27800 24.47300
C  34.50100 1.65600 25.97400
C  36.78200 2.35500 23.38200
C  33.85600 0.01800 24.24600
C  32.58500 0.21500 23.30400
N  34.10900 2.62700 28.83200
C  33.06600 2.56000 27.87500
C  31.88700 3.12800 28.45000
C  32.13500 3.29400 29.83500
C  33.50700 2.96400 30.03200
C  30.64500 3.39900 27.55800
C  31.62100 3.85500 31.07600
O  30.63300 4.51300 31.24900
C  32.69400 3.54500 32.13400
C  32.85700 4.81000 32.94300
O  33.65100 5.66700 32.81700
O  31.94100 4.73100 33.97700
C  31.95400 5.76500 34.94500
H  39.45500 2.20300 31.58300
H  38.64900 1.14900 25.19500
H  32.48300 2.47100 25.91100
H  35.35900 3.75800 33.70900
H  37.99100 2.45900 33.54200
H  37.13300 5.11100 33.57900
H  38.28400 4.87200 32.20700
H  38.72000 4.39700 33.87700
H  36.09900 0.93100 33.93000
H  34.43200 1.03800 33.66900
H  35.15300 1.07600 36.25300
H  33.93200 2.08500 35.52700
H  41.30400 1.29800 31.04000
H  42.06300 2.31700 29.85000
H  41.92500 0.52000 29.58100
H  42.92200 1.70000 27.75300
H  43.35900 1.05000 26.13900
H  42.89100 -0.06700 27.43400
H  36.44200 0.24400 23.99800
H  34.31500 2.12300 23.88300
H  37.54600 2.99200 23.82900
H  35.97100 2.97500 23.00100
H  37.35500 1.87200 22.59000
H  33.48000 -0.47500 25.14300
H  34.48900 -0.72100 23.75400
H  31.67500 0.09900 23.89300
H  32.50500 -0.50000 22.48600
H  32.60000 1.20800 22.85300
H  30.39800 2.42300 27.14100
H  30.97900 4.09600 26.78900
H  29.70900 3.66400 28.05000
H  32.29900 2.71400 32.71800
H  30.97000 6.03600 35.32800
H  32.64600 6.58500 34.74700
H  32.52400 5.22600 35.70100
Mg 53.59300 22.68000 44.78700
C  51.61400 25.34900 43.62800
C  51.53900 20.63300 43.17600
C  55.93900 20.35400 44.88300
C  55.93400 25.15500 45.90900
N  51.76400 22.99600 43.39700
C  51.10400 24.13800 43.20300
C  49.71000 23.89400 42.49400
C  49.52500 22.32400 42.91600
C  51.00700 21.95100 43.10900
C  48.72800 22.17200 44.21900
C  49.71400 24.01300 40.92500
C  51.09400 24.07000 40.28900
H  51.06700 24.61600 38.91300
N  53.62500 20.75300 44.27500
C  52.69400 20.03900 43.60000
C  53.04600 18.61300 43.48700
C  54.36000 18.50800 44.00800
C  54.73500 19.96300 44.36600
C  52.17000 17.48600 42.89400
C  55.07700 17.23000 44.36600
O  54.65500 16.14100 44.06300
C  56.39600 17.21700 45.04700
N  55.69500 22.78100 45.23600
C  56.41700 21.64400 45.20700
C  57.83800 21.93300 45.65000
C  57.79000 23.44500 46.00900
C  56.41300 23.85800 45.69300
C  58.41600 20.99300 46.75400
C  58.70100 24.28900 45.07800
C  59.14500 25.68400 45.65600
N  53.68700 24.78700 44.93700
C  54.67600 25.61500 45.45200
C  54.09600 26.93700 45.57800
C  52.93900 26.91000 44.78300
C  52.78700 25.57200 44.36900
C  54.71800 28.10300 46.39600
C  51.80700 27.70000 44.21700
O  51.58800 28.88100 44.22400
C  50.90100 26.70400 43.55300
C  50.68100 27.14400 42.15000
O  51.50700 27.38400 41.30100
O  49.32100 27.08600 41.99600
C  48.81000 27.80600 40.86600
H  50.74500 20.00900 42.76200
H  56.78100 19.66200 44.95600
H  56.59500 25.84400 46.43900
H  48.88700 24.50400 42.86600
H  48.86300 21.80700 42.22200
H  47.81100 21.64900 43.94700
H  48.38600 23.18600 44.42400
H  49.28500 21.66100 45.00500
H  49.20700 24.93500 40.63900
H  49.27800 23.12000 40.47600
H  51.40400 23.02500 40.26400
H  51.83000 24.62600 40.87000
H  52.39000 17.24400 41.85400
H  51.14400 17.78500 43.11200
H  52.29600 16.49900 43.34000
H  56.31700 17.90600 45.88800
H  57.14300 17.50800 44.30700
H  56.86100 16.26300 45.29300
H  58.42700 21.78900 44.74400
H  57.93600 23.74600 47.04700
H  58.69100 21.60500 47.61200
H  59.35200 20.53700 46.43100
H  57.73400 20.16200 46.93600
H  58.19000 24.44400 44.12700
H  59.58200 23.69900 44.82700
H  60.23500 25.69800 45.66700
H  58.79500 25.85000 46.67500
H  58.78300 26.40300 44.92100
H  54.21900 29.02800 46.10400
H  55.77200 28.20400 46.13900
H  54.54400 27.77100 47.42000
H  49.96800 26.82400 44.10300
H  47.99100 27.32900 40.32900
H  49.49300 27.91300 40.02300
H  48.44000 28.78200 41.18100

