158

Mg 25.57200 0.46700 29.11500
C  27.50800 0.47200 31.91100
C  22.81000 1.24900 30.95600
C  23.74600 0.41700 26.29300
C  28.36100 -0.45500 27.23200
N  25.21700 0.55000 31.28900
C  26.17500 0.73800 32.23800
C  25.52300 1.27200 33.58700
C  23.95000 1.40900 33.25400
C  23.99000 1.04500 31.72800
C  23.04000 0.59500 34.20200
C  26.10200 2.56600 34.18800
C  26.82900 2.47600 35.50300
H  26.37900 3.11700 36.81700
N  23.52400 0.71700 28.64700
C  22.57700 1.10400 29.55200
C  21.30100 1.33100 28.87700
C  21.54800 1.09400 27.46100
C  23.00600 0.79400 27.40200
C  20.04800 1.83800 29.47300
C  20.56100 1.10900 26.27400
O  20.88100 0.93500 25.11700
C  19.10500 1.41700 26.51100
N  25.96600 -0.06500 26.97800
C  25.07800 0.07200 26.02700
C  25.67600 -0.12200 24.56200
C  27.19700 -0.23700 24.92200
C  27.19700 -0.25000 26.45300
C  25.24400 -1.27300 23.77500
C  28.05500 0.98300 24.40400
C  29.38100 0.71200 23.71300
N  27.46900 -0.06600 29.48400
C  28.52700 -0.34100 28.60100
C  29.79700 -0.46700 29.36300
C  29.41000 -0.08300 30.66900
C  28.01100 0.06000 30.69500
C  31.16700 -0.80200 28.85500
C  29.94100 0.14800 31.97700
O  31.10800 0.12300 32.36600
C  28.70600 0.43900 32.83900
C  28.66800 -0.64500 33.90500
O  28.00000 -1.67000 33.78200
O  29.45600 -0.30300 34.90200
C  29.32800 -1.21500 36.01100
H  21.94900 1.65100 31.49500
H  23.29400 0.28100 25.30800
H  29.21200 -0.66200 26.58000
H  25.65800 0.42100 34.25500
H  23.70900 2.46600 33.37200
H  22.04900 1.04900 34.22600
H  23.35100 0.73000 35.23800
H  22.92200 -0.47700 34.03900
H  25.37400 3.36800 34.31000
H  26.73400 2.97400 33.39900
H  27.76400 3.02100 35.37400
H  27.00500 1.46900 35.88200
H  19.16600 1.21100 29.34100
H  19.71600 2.69800 28.89300
H  20.10500 2.16600 30.51100
H  18.76800 0.60300 27.15100
H  18.59600 1.28700 25.55600
H  19.00900 2.37500 27.02200
H  25.30100 0.83800 24.20700
H  27.63700 -1.15500 24.53200
H  24.60800 -0.89300 22.97600
H  24.63100 -1.94200 24.38000
H  25.97800 -1.86100 23.22400
H  28.09600 1.68500 25.23700
H  27.37200 1.44600 23.69200
H  30.05400 0.87900 24.55400
H  29.59800 1.49300 22.98500
H  29.47600 -0.29800 23.31500
H  31.12400 -0.46800 27.81800
H  31.25600 -1.88100 28.97800
H  31.94000 -0.29800 29.43500
H  28.76000 1.41000 33.33200
H  29.13500 -2.23600 35.68300
H  28.53700 -0.82400 36.65100
H  30.25200 -1.18100 36.58700
Mg 25.99000 50.57900 27.06500
C  23.52200 51.42200 29.43400
C  28.19700 49.97600 29.45100
C  28.39900 50.37800 24.57800
C  23.62000 51.43300 24.53000
N  25.78200 50.69700 29.16000
C  24.74300 51.01600 29.97000
C  25.03300 50.77800 31.49100
C  26.56800 50.57000 31.42900
C  26.86700 50.33500 29.90700
C  27.48100 51.65700 32.15700
C  24.20900 49.53400 31.99700
C  23.53800 49.66100 33.38100
H  24.19900 50.51000 34.51100
N  27.94300 50.13000 27.05800
C  28.75100 49.90900 28.16600
C  30.15300 49.77600 27.79100
C  30.19600 49.82800 26.43200
C  28.80100 50.08100 25.95000
C  31.21400 49.55900 28.85000
C  31.48100 49.65300 25.54400
O  31.46400 49.74300 24.32600
C  32.78200 49.40500 26.18700
N  25.98200 50.89000 24.88300
C  27.12600 50.76400 24.11600
C  26.90800 51.19400 22.65000
C  25.30800 51.26600 22.60400
C  24.92900 51.12700 24.09800
C  27.59800 52.51000 22.21500
C  24.67600 50.13500 21.73100
C  24.10200 50.43000 20.34300
N  23.97200 51.31600 26.96900
C  23.14700 51.57800 25.86000
C  21.85700 51.93900 26.36900
C  22.00900 51.94000 27.76000
C  23.30700 51.55400 28.08600
C  20.74500 52.26700 25.47300
C  21.28700 52.22300 29.02200
O  20.13900 52.54800 29.22100
C  22.30300 51.91800 30.20300
C  22.60500 53.08800 31.12400
O  23.14700 54.12400 30.81200
O  22.02500 52.82200 32.36100
C  22.03900 54.00100 33.25100
H  28.86100 49.73500 30.28400
H  29.20500 50.31900 23.84400
H  22.92800 51.65800 23.71600
H  24.69700 51.66900 32.02200
H  26.82100 49.62300 31.90600
H  28.40500 51.24200 32.56000
H  26.89400 51.95700 33.02500
H  27.52900 52.38000 31.34300
H  24.89200 48.68600 31.95000
H  23.45700 49.50000 31.20900
H  23.46900 48.63000 33.72900
H  22.53500 49.99100 33.11100
H  30.77700 49.52000 29.84800
H  31.95800 50.35300 28.89800
H  31.72900 48.61400 28.67200
H  32.74100 48.42700 26.66600
H  33.10100 50.28600 26.74500
H  33.57400 49.12800 25.49200
H  27.35200 50.46200 21.97600
H  24.94100 52.23400 22.26300
H  28.30500 52.28500 21.41700
H  28.02500 52.85600 23.15600
H  26.95600 53.31500 21.85900
H  23.78900 49.77000 22.24900
H  25.27900 49.25600 21.50000
H  24.29800 49.64000 19.61800
H  24.56500 51.38800 20.10700
H  23.03600 50.65800 20.33900
H  19.83900 52.45500 26.05000
H  20.56900 51.43000 24.79800
H  21.07000 53.18400 24.98300
H  21.89900 51.12900 30.83900
H  22.73500 54.82600 33.10000
H  22.26700 53.69900 34.27300
H  21.00200 54.33500 33.28200

