158

Mg 41.61500 40.97200 27.03900
C  40.76500 43.22000 29.46100
C  42.12200 38.53000 29.34600
C  42.24100 38.72200 24.54000
C  41.19200 43.37400 24.61700
N  41.48800 40.89900 29.09000
C  41.09200 41.96100 29.90300
C  41.13000 41.57900 31.39100
C  41.58300 40.08900 31.35500
C  41.75700 39.82500 29.82000
C  42.97900 39.70800 32.11900
C  39.75300 41.84200 32.08800
C  39.63900 42.88700 33.27300
H  39.06800 42.40900 34.63100
N  42.15800 38.94500 26.95300
C  42.37400 38.08500 28.00200
C  42.74400 36.73600 27.56100
C  42.71500 36.75800 26.17800
C  42.31900 38.17900 25.79500
C  43.19800 35.60100 28.53000
C  43.06600 35.70800 25.18200
O  42.93500 35.88400 23.96400
C  43.61200 34.37500 25.65900
N  41.84400 41.08500 24.89600
C  42.07100 40.07500 24.11500
C  42.17700 40.48700 22.59100
C  41.75600 41.97300 22.70600
C  41.55200 42.13300 24.16700
C  43.59700 40.36100 21.90700
C  40.44200 42.21600 21.88900
C  39.01700 41.94900 22.54200
N  41.06800 42.98200 26.99700
C  40.96000 43.85700 25.92700
C  40.58800 45.16200 26.38400
C  40.44700 44.96700 27.79900
C  40.78800 43.64600 28.08700
C  40.44000 46.36100 25.60700
C  40.18400 45.57000 29.05700
O  39.88300 46.78200 29.29900
C  40.40800 44.50500 30.15400
C  41.38400 44.96800 31.10700
O  42.57100 44.65100 31.10100
O  40.72500 45.84400 31.98000
C  41.49500 46.26200 33.13800
H  42.21400 37.70800 30.05800
H  42.24600 38.06500 23.66800
H  41.10000 44.16600 23.87000
H  41.94800 42.13000 31.85400
H  40.76300 39.45800 31.69800
H  42.72900 38.82300 32.70400
H  43.27000 40.50200 32.80600
H  43.82200 39.34400 31.53300
H  39.32700 40.91500 32.47400
H  38.95100 42.03100 31.37500
H  39.09800 43.70300 32.79300
H  40.65500 43.27600 33.34900
H  44.28500 35.66300 28.57900
H  42.80600 34.64000 28.19700
H  42.71000 35.62600 29.50400
H  42.80700 33.72100 25.99300
H  44.41300 34.46200 26.39300
H  43.99500 33.85900 24.77800
H  41.44500 39.86200 22.08000
H  42.50100 42.67500 22.33300
H  44.36100 39.89900 22.53200
H  43.96900 41.33900 21.60200
H  43.46400 39.70400 21.04700
H  40.55200 41.59700 20.99900
H  40.40100 43.27500 21.63400
H  38.33600 41.51700 21.80800
H  38.64600 42.89100 22.94600
H  39.22600 41.14500 23.24800
H  39.43200 46.77000 25.68200
H  40.90400 46.32400 24.62200
H  41.15100 47.06800 26.03500
H  39.46400 44.41300 30.69100
H  42.46900 46.69300 32.90400
H  41.54100 45.40900 33.81600
H  40.94400 47.05200 33.64700
Mg 26.14500 50.69400 27.60000
C  24.05700 52.05800 29.98900
C  28.27900 49.66900 30.00900
C  28.30200 49.79000 25.18800
C  24.04500 52.05000 25.16000
N  26.10200 50.78200 29.70500
C  25.11100 51.29400 30.52700
C  25.40400 51.04600 32.03000
C  26.88800 50.73400 31.97300
C  27.10600 50.27600 30.46900
C  27.91000 51.83200 32.43000
C  24.50900 50.01900 32.65400
C  24.03300 50.19000 34.14500
H  24.83500 50.88500 35.29900
N  27.94800 49.83900 27.62100
C  28.66400 49.34500 28.72200
C  29.93500 48.77500 28.33600
C  30.04300 48.86800 26.87300
C  28.70600 49.49700 26.49300
C  31.01900 48.12200 29.27400
C  31.18800 48.41400 25.98400
O  31.09200 48.41900 24.78600
C  32.50900 47.94500 26.49800
N  26.27500 51.09600 25.47200
C  27.26800 50.53200 24.64100
C  26.92700 50.67200 23.16300
C  25.47700 51.37500 23.13700
C  25.21500 51.46500 24.68600
C  27.99000 51.36700 22.25900
C  24.38800 50.66900 22.35800
C  23.96900 49.23800 22.70100
N  24.35000 51.68500 27.48300
C  23.65800 52.15500 26.48800
C  22.54900 52.98500 26.91100
C  22.73400 53.02200 28.32000
C  23.78900 52.18400 28.60300
C  21.57500 53.72300 26.09700
C  22.19000 53.47900 29.58500
O  21.29500 54.26800 29.84000
C  23.03000 52.83200 30.74200
C  23.70600 53.90800 31.56000
O  24.68700 54.56100 31.25500
O  22.89800 54.23400 32.68000
C  23.52400 54.91800 33.85200
H  28.97400 49.34100 30.78400
H  28.91700 49.46600 24.34500
H  23.40000 52.41600 24.35900
H  25.37100 52.05500 32.44000
H  27.08500 49.82300 32.53700
H  28.59000 52.12300 31.62900
H  28.50500 51.33500 33.19600
H  27.42800 52.71100 32.85800
H  24.92400 49.01700 32.54400
H  23.59000 49.85800 32.08900
H  23.88200 49.14300 34.40900
H  23.12600 50.79400 34.17000
H  30.40100 47.82500 30.12200
H  31.77700 48.84700 29.57200
H  31.53800 47.25300 28.87000
H  32.92000 48.71900 27.14600
H  33.14800 47.88500 25.61700
H  32.47900 46.91400 26.85000
H  26.83300 49.64900 22.79800
H  25.60700 52.42500 22.87200
H  27.51500 52.19700 21.73500
H  28.25000 50.61800 21.51100
H  28.84100 51.82000 22.76700
H  24.67600 50.70000 21.30700
H  23.52900 51.31500 22.54100
H  24.28500 48.62800 21.85400
H  22.88900 49.12400 22.60300
H  24.35000 48.83400 23.63900
H  22.09600 54.59000 25.69200
H  20.68600 54.01000 26.65800
H  21.28900 53.00300 25.33000
H  22.46500 52.18300 31.41200
H  23.75400 55.97300 33.70400
H  24.42400 54.32800 34.02600
H  22.91600 54.80100 34.74900

