158

Mg 2.02800 -1.82700 44.50700
C  5.32000 -1.06000 43.75700
C  1.06000 0.83500 42.42700
C  -1.14900 -2.73300 44.96300
C  3.04500 -4.96400 45.72000
N  3.09400 -0.32100 43.17800
C  4.43400 -0.21800 43.04600
C  4.85100 0.86800 42.00600
C  3.47200 1.47900 41.61900
C  2.45500 0.70300 42.49100
C  3.29400 3.03100 41.60900
C  5.67500 0.39700 40.75500
C  6.67400 1.47700 40.28400
H  6.30000 2.17300 39.01800
N  0.19100 -0.92400 43.96200
C  -0.03300 0.11400 43.10700
C  -1.48600 0.40800 43.02900
C  -2.11900 -0.62200 43.80100
C  -0.99300 -1.47900 44.30500
C  -1.91600 1.58400 42.26400
C  -3.64400 -0.78400 43.91600
O  -4.36200 -0.06600 43.29900
C  -4.26800 -1.86900 44.69400
N  1.07200 -3.68100 45.10600
C  -0.23900 -3.71800 45.38800
C  -0.70100 -5.07300 45.96800
C  0.70900 -5.77500 46.16200
C  1.66600 -4.82800 45.52800
C  -1.56200 -5.10700 47.23900
C  0.84100 -7.24100 45.53500
C  1.19000 -8.35500 46.51800
N  3.78500 -2.86300 44.80300
C  4.11100 -4.06500 45.38800
C  5.54500 -4.13400 45.56500
C  6.02900 -2.97000 44.94200
C  4.92700 -2.26800 44.45300
C  6.34300 -5.25100 46.09100
C  7.28800 -2.25700 44.60900
O  8.40100 -2.58100 44.97400
C  6.86900 -0.96500 43.76000
C  7.38700 0.17600 44.46200
O  7.00000 0.59700 45.53600
O  8.36400 0.74900 43.70300
C  9.07800 1.83100 44.38400
H  0.69700 1.62900 41.77100
H  -2.19200 -3.01700 45.11900
H  3.39600 -5.85100 46.25100
H  5.49600 1.54700 42.56400
H  3.27000 1.34200 40.55700
H  2.74300 3.46200 42.44500
H  3.09500 3.37800 40.59500
H  4.29200 3.37900 41.87400
H  5.03500 0.23400 39.88800
H  6.16200 -0.54600 41.00300
H  7.61500 0.94600 40.14000
H  6.73100 2.22600 41.07400
H  -2.06400 1.33600 41.21400
H  -1.23200 2.43100 42.32400
H  -2.88900 1.85000 42.67700
H  -5.35700 -1.84700 44.75100
H  -3.80700 -1.76900 45.67700
H  -3.97700 -2.80400 44.21600
H  -1.33100 -5.48200 45.17800
H  0.92100 -5.82200 47.23000
H  -1.75000 -4.08600 47.57000
H  -1.04700 -5.64700 48.03300
H  -2.58800 -5.35200 46.96200
H  1.63800 -7.17000 44.79500
H  0.01500 -7.44200 44.85200
H  1.44100 -7.98400 47.51200
H  2.13200 -8.76100 46.15000
H  0.40600 -9.11000 46.56700
H  7.40200 -5.04000 46.24200
H  6.23700 -6.09800 45.41300
H  6.04700 -5.36000 47.13400
H  7.40700 -1.10600 42.82300
H  8.39800 2.50600 44.90300
H  9.55200 2.46300 43.63300
H  9.77400 1.44000 45.12700
Mg 30.39200 57.31700 39.05700
C  27.66300 55.38700 38.17700
C  32.57100 54.81100 38.36200
C  32.94100 59.58500 39.24600
C  28.12700 60.06700 39.44700
N  30.12300 55.34600 38.44800
C  28.97100 54.79400 38.06100
C  29.23700 53.42400 37.51500
C  30.73900 53.12000 37.73000
C  31.25400 54.50200 38.20000
C  31.13100 51.98100 38.68700
C  28.76300 52.99700 36.11200
C  29.17000 53.81800 34.85400
H  28.08500 54.50700 34.03000
N  32.45700 57.26900 38.73300
C  33.17900 56.11900 38.54400
C  34.51300 56.39400 38.54200
C  34.67800 57.78000 38.91100
C  33.31300 58.26800 38.99900
C  35.65700 55.43100 38.34100
C  36.06600 58.53900 39.11000
O  37.11600 57.94300 38.88100
C  36.18700 59.98800 39.40700
N  30.53000 59.49400 39.07600
C  31.69800 60.17500 39.37200
C  31.50700 61.64600 39.79700
C  29.95900 61.62600 40.06200
C  29.48500 60.31300 39.44900
C  32.37000 62.23800 41.07100
C  29.29700 62.88100 39.50600
C  28.10600 63.52900 40.25400
N  28.27600 57.68300 38.92400
C  27.51400 58.83300 39.13200
C  26.07600 58.51400 39.00200
C  26.09900 57.18000 38.63500
C  27.41500 56.74200 38.54900
C  24.78800 59.45000 39.06400
C  25.25300 56.05000 38.35200
O  24.01500 55.99900 38.36700
C  26.29100 54.84100 37.92200
C  26.05200 53.73700 38.82000
O  26.65400 53.47900 39.87900
O  25.05000 52.91500 38.28600
C  24.70700 51.65900 39.11300
H  33.26100 53.96600 38.32400
H  33.66400 60.37700 39.45400
H  27.47100 60.83300 39.86500
H  28.67500 52.74600 38.15800
H  31.32400 52.93900 36.82800
H  30.26800 51.38900 38.99300
H  31.51400 52.34000 39.64200
H  31.89800 51.34400 38.24600
H  27.67600 52.95600 36.18900
H  29.06800 51.96500 35.93700
H  29.50600 52.98600 34.23500
H  29.98600 54.47300 35.15700
H  36.47700 55.89400 37.79400
H  35.30500 54.65300 37.66200
H  36.03900 55.18500 39.33100
H  35.88400 60.37800 40.37900
H  35.49400 60.47500 38.72200
H  37.19600 60.36600 39.24800
H  31.76900 62.24000 38.92200
H  29.73900 61.66800 41.12900
H  31.77300 62.62300 41.89700
H  33.00100 63.02700 40.66100
H  33.08300 61.45700 41.33700
H  28.95300 62.61300 38.50700
H  30.05500 63.66000 39.42700
H  27.30700 63.90100 39.61300
H  28.52100 64.43800 40.69100
H  27.68800 62.93300 41.06600
H  24.99200 60.50500 38.88600
H  24.24300 59.40400 40.00700
H  24.11500 59.11900 38.27300
H  26.01000 54.49800 36.92700
H  23.87300 51.81400 39.79700
H  25.56700 51.13400 39.52700
H  24.37900 50.96900 38.33500

