158

Mg 8.40600 3.82400 26.77900
C  9.95800 2.27200 29.51000
C  6.41000 5.46900 28.77500
C  6.92300 4.87400 23.91600
C  10.43500 1.62200 24.70300
N  8.10800 3.56400 28.83600
C  8.86500 3.06200 29.86200
C  8.49500 3.50800 31.23700
C  7.23000 4.42100 30.94100
C  7.23800 4.50100 29.38700
C  5.94000 4.05200 31.61300
C  9.64600 4.20100 31.99900
C  9.09500 5.12900 33.15000
H  9.75400 5.11500 34.54100
N  6.93000 5.08400 26.41000
C  6.20900 5.62800 27.36800
C  5.27500 6.55500 26.72500
C  5.55400 6.56200 25.34300
C  6.48800 5.49300 25.16000
C  4.31100 7.46000 27.61100
C  4.96300 7.36400 24.17500
O  5.24600 7.28200 23.01800
C  3.94400 8.36100 24.54600
N  8.63600 3.27100 24.59900
C  7.88200 3.88100 23.59800
C  8.16200 3.39300 22.21600
C  9.36100 2.42300 22.50900
C  9.52700 2.39300 24.01800
C  7.04000 2.76700 21.40400
C  10.77500 2.76600 21.80600
C  11.15700 1.92500 20.68000
N  9.90600 2.28700 26.95600
C  10.69700 1.61700 26.05900
C  11.54200 0.67500 26.77700
C  11.33200 0.93900 28.12800
C  10.36100 1.99400 28.19400
C  12.43500 -0.51100 26.25300
C  11.75400 0.48100 29.47700
O  12.54400 -0.37600 29.83200
C  10.87500 1.41600 30.39600
C  10.17700 0.63900 31.43900
O  9.31200 -0.14400 31.27700
O  10.73700 0.90900 32.65300
C  10.08200 0.41900 33.85300
H  5.93300 6.21300 29.41600
H  6.44300 5.16900 22.98000
H  10.92500 0.97600 23.97200
H  8.23400 2.56100 31.70900
H  7.38200 5.44300 31.28800
H  5.95000 2.96200 31.64400
H  5.00600 4.42900 31.19700
H  5.93400 4.40400 32.64400
H  10.12300 4.75200 31.18800
H  10.29800 3.45000 32.44600
H  8.09100 4.86500 33.48500
H  9.16400 6.17000 32.83500
H  4.46800 8.50200 27.33000
H  4.39600 7.36200 28.69300
H  3.26800 7.20600 27.42000
H  3.19400 7.90000 25.18900
H  3.39700 8.70400 23.66800
H  4.45200 9.22300 24.97900
H  8.57600 4.20100 21.61300
H  9.01700 1.42500 22.23700
H  6.90700 3.44500 20.56100
H  6.10800 2.76500 21.97000
H  7.17500 1.73800 21.07100
H  11.62200 2.71100 22.49000
H  10.85500 3.73700 21.31600
H  11.59500 2.53300 19.88900
H  10.28000 1.48600 20.20400
H  11.76000 1.04500 20.90300
H  12.72100 -0.34100 25.21600
H  12.00400 -1.49500 26.44300
H  13.32500 -0.52100 26.88300
H  11.58300 2.10700 30.85500
H  9.09100 0.83500 34.03100
H  10.68000 0.82400 34.67000
H  10.22800 -0.63800 34.07700
Mg 0.79100 42.79400 26.79000
C  2.90600 42.69400 29.61600
C  -1.83200 42.12900 29.09700
C  -1.24700 42.45100 24.21100
C  3.47900 43.37400 24.84000
N  0.62200 42.50700 29.07100
C  1.60800 42.66500 30.05300
C  1.09500 42.60900 31.48100
C  -0.39200 42.22600 31.22300
C  -0.55400 42.27200 29.64600
C  -0.95500 40.90300 31.82300
C  1.41200 43.88900 32.20300
C  1.36400 43.77200 33.74400
H  1.03800 42.49600 34.53000
N  -1.23400 42.19000 26.62000
C  -2.14800 42.13700 27.66800
C  -3.45100 41.86400 27.13700
C  -3.33400 41.90900 25.66100
C  -1.91800 42.18600 25.43500
C  -4.75300 41.72400 27.96000
C  -4.37800 41.64600 24.56100
O  -4.10000 41.44400 23.34400
C  -5.89600 41.39800 24.94600
N  1.07500 42.82900 24.76600
C  0.03700 42.79800 23.85800
C  0.58200 42.88200 22.38200
C  2.14100 43.21300 22.61800
C  2.25300 43.12500 24.14000
C  0.26100 41.61300 21.53900
C  2.70600 44.51200 21.94700
C  2.37800 45.91200 22.64900
N  2.74800 43.05000 27.10400
C  3.74500 43.25900 26.21900
C  5.05000 43.30200 26.87400
C  4.77100 42.97900 28.19000
C  3.36700 42.83600 28.27100
C  6.32500 43.67600 26.23200
C  5.39800 42.82300 29.49100
O  6.58200 42.87200 29.80100
C  4.15900 42.67600 30.52800
C  4.24300 41.46600 31.40600
O  4.12600 40.32000 31.01200
O  4.57400 41.83900 32.68400
C  4.79700 40.68500 33.52700
H  -2.65300 42.05500 29.81400
H  -1.96400 42.62900 23.40600
H  4.33800 43.67200 24.23600
H  1.44300 41.70600 31.98300
H  -0.96000 43.09100 31.56700
H  -1.30100 40.29700 30.98600
H  -1.82700 41.20700 32.40300
H  -0.22600 40.33500 32.40100
H  0.58700 44.56200 31.97200
H  2.36400 44.29000 31.85600
H  0.91600 44.67000 34.17000
H  2.39600 44.07100 33.93200
H  -5.43400 40.97100 27.56300
H  -5.14400 42.73900 28.04000
H  -4.46700 41.40700 28.96300
H  -5.96900 40.39400 25.36500
H  -6.42300 41.41700 23.99300
H  -6.42500 42.17000 25.50500
H  0.11500 43.70800 21.84600
H  2.60000 42.34600 22.14200
H  -0.14400 40.79700 22.13700
H  1.22700 41.37300 21.09300
H  -0.61300 41.79500 20.91500
H  2.32200 44.56800 20.92800
H  3.75500 44.21600 21.97200
H  3.37300 46.24700 22.94100
H  1.81300 45.73600 23.56400
H  1.81800 46.58200 21.99600
H  6.24400 44.55900 25.59900
H  6.73800 42.84300 25.66400
H  6.89900 43.95300 27.11700
H  4.08800 43.50700 31.23000
H  5.81200 40.32300 33.36300
H  4.07500 39.87200 33.44700
H  4.89200 41.02800 34.55800

