158

Mg 2.04700 -1.56800 45.14300
C  5.43100 -0.40300 44.69700
C  0.99100 1.20600 43.44300
C  -0.86100 -3.14400 44.55900
C  3.47200 -4.46000 46.56500
N  3.09600 0.11000 44.07300
C  4.49700 0.44700 44.06600
C  4.73500 1.79600 43.35100
C  3.24300 2.52400 43.41800
C  2.38800 1.24600 43.70000
C  3.03500 3.57200 44.55400
C  5.38700 1.50600 42.00500
C  4.59200 1.85000 40.72500
H  5.36300 1.46100 39.43200
N  0.33700 -0.99500 44.12400
C  0.10100 0.15200 43.44700
C  -1.26800 0.15300 42.92300
C  -1.76700 -1.15700 43.25300
C  -0.70800 -1.84300 43.95500
C  -2.00900 1.25900 42.26300
C  -3.22100 -1.58400 43.09800
O  -4.03600 -0.89800 42.45800
C  -3.86400 -2.82400 43.58900
N  1.45100 -3.51900 45.44900
C  0.14000 -3.85500 45.28500
C  -0.08900 -5.28900 45.89800
C  1.27700 -5.75900 46.40200
C  2.10200 -4.47100 46.21600
C  -1.17200 -5.44700 47.02700
C  1.93400 -6.77200 45.44800
C  1.56400 -8.28600 45.56900
N  4.06900 -2.28500 45.69000
C  4.45400 -3.48000 46.17800
C  5.86600 -3.51600 46.40700
C  6.30800 -2.29800 45.86000
C  5.18200 -1.59700 45.37400
C  6.68900 -4.62200 46.99700
C  7.43400 -1.48300 45.56300
O  8.62100 -1.62700 45.86300
C  6.93600 -0.24000 44.80400
C  7.18400 0.92100 45.72600
O  7.18300 0.93400 46.95600
O  7.84300 1.87100 45.05600
C  8.56300 2.92300 45.75300
H  0.70000 2.20500 43.11200
H  -1.75300 -3.77000 44.49200
H  4.00900 -5.35500 46.88600
H  5.50100 2.42800 43.80100
H  2.85900 2.96500 42.49900
H  3.85900 3.67100 45.26100
H  2.08600 3.52500 45.08900
H  3.05800 4.52400 44.02300
H  5.50400 0.44000 41.81400
H  6.38200 1.93900 41.90100
H  4.36900 2.91500 40.66200
H  3.69100 1.23900 40.78400
H  -2.82800 1.55000 42.92000
H  -2.44300 0.97400 41.30400
H  -1.31700 2.09400 42.14900
H  -3.41600 -3.72000 43.16000
H  -4.88900 -3.00700 43.26600
H  -3.90800 -2.91600 44.67400
H  -0.47300 -5.80200 45.01700
H  1.33500 -5.95100 47.47300
H  -0.73600 -5.99500 47.86300
H  -2.06200 -5.97600 46.68700
H  -1.41400 -4.45500 47.40800
H  3.01900 -6.70500 45.36400
H  1.53500 -6.46600 44.48100
H  1.08800 -8.69400 44.67800
H  0.87600 -8.35200 46.41100
H  2.48400 -8.86300 45.66000
H  7.75400 -4.48000 46.81100
H  6.29300 -5.57500 46.64700
H  6.54000 -4.69300 48.07500
H  7.38300 -0.19400 43.81100
H  8.58800 3.79300 45.09700
H  9.60500 2.61900 45.85800
H  8.10200 3.26600 46.67900
Mg 34.43600 3.58400 29.48300
C  32.27500 4.52700 32.10400
C  36.98300 3.37600 31.74700
C  36.59300 3.21000 26.99100
C  31.95800 4.26500 27.18500
N  34.58600 3.83000 31.65900
C  33.56900 4.24800 32.57100
C  34.05900 4.21200 34.03500
C  35.64800 4.05500 33.85300
C  35.73600 3.69400 32.35700
C  36.59400 5.26200 34.18900
C  33.34000 3.08800 34.85000
C  33.01700 3.31200 36.32700
H  34.07800 4.11500 37.05700
N  36.43100 3.14000 29.40100
C  37.31000 2.96000 30.46200
C  38.57800 2.49700 29.97900
C  38.52900 2.50100 28.56800
C  37.11900 2.94200 28.26300
C  39.64600 1.97400 30.88100
C  39.59500 2.28900 27.52900
O  39.43000 2.31300 26.30300
C  40.98200 1.98300 27.94100
N  34.30200 3.84000 27.30000
C  35.32200 3.61000 26.50100
C  34.91300 3.79900 25.04100
C  33.36100 3.92200 25.10500
C  33.16500 3.95200 26.61700
C  35.74500 4.82600 24.14800
C  32.60500 2.77600 24.44200
C  31.18900 3.14300 24.02800
N  32.46900 4.18900 29.61700
C  31.60200 4.37400 28.55700
C  30.33200 4.74400 29.12700
C  30.55300 4.88900 30.50400
C  31.84000 4.39500 30.76900
C  29.07900 5.12100 28.36800
C  29.96900 5.33200 31.79800
O  28.84800 5.78000 32.07800
C  31.05100 5.02800 32.86200
C  31.29200 6.34500 33.71000
O  31.87400 7.35100 33.34200
O  30.74500 6.16200 35.01100
C  30.66300 7.33900 35.86600
H  37.74700 3.12700 32.48700
H  37.22000 2.90100 26.15200
H  31.17800 4.65500 26.52900
H  33.80200 5.18100 34.46400
H  35.95400 3.17100 34.41200
H  37.28500 4.95900 34.97500
H  36.04500 6.09100 34.63400
H  37.10600 5.51400 33.26000
H  33.95300 2.18700 34.85100
H  32.40400 2.86400 34.33700
H  32.88000 2.34500 36.81000
H  32.00900 3.71600 36.41800
H  40.16800 1.12600 30.43800
H  39.15800 1.58000 31.77300
H  40.41600 2.72900 31.04100
H  41.70100 2.39100 27.23000
H  41.11300 0.91000 28.08100
H  41.32400 2.36600 28.90300
H  35.32800 2.88900 24.60700
H  33.06700 4.92100 24.78300
H  36.44100 4.31500 23.48300
H  36.32100 5.50600 24.77600
H  35.17900 5.41000 23.42400
H  32.50200 1.94000 25.13300
H  33.05300 2.33100 23.55400
H  30.98700 3.31400 22.97000
H  30.79600 3.96600 24.62500
H  30.60200 2.26600 24.30000
H  28.96900 4.58400 27.42600
H  28.91000 6.17300 28.14100
H  28.21200 4.72600 28.89800
H  30.71700 4.20600 33.49500
H  29.59500 7.37900 36.08000
H  31.06900 8.27700 35.48700
H  31.33200 7.10700 36.69500

