158

Mg 0.47600 7.38600 26.00200
C  0.99600 9.63200 28.67900
C  0.60200 4.79000 28.04800
C  0.22200 5.58700 23.28600
C  0.69500 10.26900 23.76300
N  0.72100 7.27100 28.18300
C  0.89800 8.27300 29.07100
C  1.00900 7.76300 30.53400
C  0.94900 6.12400 30.29700
C  0.71500 6.00700 28.73100
C  2.20600 5.32800 30.81600
C  -0.12200 8.34300 31.39100
C  0.26800 9.29100 32.50100
H  -0.20600 9.04300 33.92400
N  0.31900 5.49100 25.72500
C  0.35900 4.52000 26.73100
C  0.19600 3.21400 26.16500
C  0.10900 3.41500 24.74900
C  0.17800 4.89700 24.48200
C  0.32200 1.94300 26.96300
C  0.11200 2.44300 23.51900
O  0.13900 2.81600 22.33500
C  0.06000 1.00500 23.83100
N  0.49600 7.89900 23.76800
C  0.32000 6.93200 22.89200
C  0.20600 7.53700 21.44100
C  -0.04800 9.00400 21.69800
C  0.35000 9.13100 23.11500
C  1.48900 7.17900 20.65600
C  -1.51300 9.43100 21.59100
C  -1.81800 10.25300 20.31800
N  0.80600 9.57800 26.18800
C  0.95300 10.56200 25.18600
C  1.24200 11.86100 25.89100
C  1.22200 11.53500 27.26700
C  1.00600 10.14800 27.40500
C  1.24400 13.17800 25.19600
C  1.37000 12.08400 28.59600
O  1.56600 13.23400 28.95800
C  1.14000 10.79900 29.59200
C  2.31300 10.82800 30.45600
O  3.30400 10.16500 30.24100
O  2.19000 11.78300 31.47400
C  3.28900 11.87200 32.38400
H  0.58800 3.91200 28.69800
H  0.23000 5.01900 22.35300
H  0.68300 11.14600 23.11300
H  1.97500 8.03000 30.96400
H  0.14900 5.64600 30.86300
H  2.64200 4.81900 29.95700
H  1.77800 4.61700 31.52400
H  2.93600 5.95600 31.32600
H  -0.56900 7.52000 31.94900
H  -0.85900 8.78600 30.72200
H  -0.24800 10.20700 32.21300
H  1.33600 9.50900 32.49200
H  0.87400 2.04500 27.89700
H  0.87100 1.12500 26.49700
H  -0.64200 1.49000 27.19500
H  -0.84100 0.90100 24.43500
H  0.85500 0.62700 24.47400
H  -0.11400 0.27700 23.03800
H  -0.69700 7.04600 21.07800
H  0.66800 9.54100 21.07500
H  1.86400 8.03100 20.09000
H  1.34200 6.30000 20.02700
H  2.27900 6.94200 21.36900
H  -1.75500 9.98400 22.49900
H  -2.13400 8.55500 21.77800
H  -0.88800 10.26400 19.75000
H  -2.24200 11.21200 20.61500
H  -2.60200 9.75900 19.74400
H  1.21000 14.04100 25.86100
H  0.38300 13.12800 24.53100
H  2.12200 13.16400 24.55000
H  0.25300 11.04600 30.17500
H  3.40600 12.93700 32.58200
H  4.23200 11.46800 32.01500
H  2.96100 11.25100 33.21800
Mg 49.80600 46.24000 42.51900
C  46.56100 46.54200 41.11900
C  49.94700 43.04600 41.20900
C  53.12200 46.22200 42.79600
C  49.84900 49.71700 42.98400
N  48.37300 45.02700 41.29300
C  47.14200 45.32900 40.80000
C  46.47700 44.17000 39.98000
C  47.53900 43.05400 40.13100
C  48.69400 43.71200 41.00000
C  47.04600 41.75200 40.72400
C  46.10700 44.65400 38.51500
C  44.71200 44.52600 38.04000
H  44.46000 43.50100 36.90400
N  51.26200 44.74600 42.27600
C  51.10600 43.54600 41.73100
C  52.33200 42.75600 41.88200
C  53.37800 43.63700 42.26100
C  52.63400 44.92600 42.47200
C  52.46400 41.25600 41.61600
C  54.84600 43.30100 42.46100
O  55.34500 42.21400 42.12800
C  55.77100 44.42200 43.08200
N  51.26400 47.69300 42.79900
C  52.54800 47.42900 42.98200
C  53.41900 48.70500 43.22400
C  52.36300 49.81500 43.08500
C  51.04900 48.99900 43.02200
C  54.20200 48.79100 44.58500
C  52.43700 50.65000 41.75700
C  52.48000 52.19000 41.93600
N  48.44500 47.85400 42.35400
C  48.57800 49.19800 42.65800
C  47.29200 49.81200 42.49100
C  46.52400 48.79700 41.90900
C  47.26000 47.67200 41.74100
C  46.98600 51.28400 42.70200
C  45.13400 48.56900 41.40400
O  44.16400 49.26000 41.44400
C  45.16600 47.09700 40.78800
C  44.21700 46.30600 41.64200
O  44.25100 46.10000 42.93000
O  43.12200 45.81200 40.87000
C  42.00400 45.18500 41.67500
H  50.04800 42.02000 40.85000
H  54.19100 46.35200 42.97900
H  49.93200 50.80500 43.00400
H  45.62300 43.86000 40.58000
H  47.95900 42.74800 39.17200
H  47.11700 40.96700 39.97200
H  46.00500 41.89800 41.01200
H  47.63400 41.64100 41.63500
H  46.73800 44.05600 37.85800
H  46.44800 45.68000 38.37800
H  44.15200 45.44200 37.85100
H  44.20100 44.05100 38.87800
H  51.50500 40.74200 41.68600
H  53.05100 40.83400 42.43200
H  52.90800 41.05000 40.64100
H  55.90000 45.19100 42.32000
H  56.74600 43.95800 43.23000
H  55.44900 44.70500 44.08400
H  54.20400 48.71400 42.46900
H  52.29100 50.41600 43.99200
H  54.77200 47.87700 44.75200
H  53.54700 48.99900 45.43100
H  54.90500 49.62300 44.54000
H  51.49500 50.47500 41.23900
H  53.16900 50.28200 41.03700
H  53.43300 52.51700 41.51900
H  52.41600 52.46300 42.98900
H  51.66600 52.56100 41.31300
H  47.42300 51.84500 41.87500
H  47.48100 51.71100 43.57500
H  45.90900 51.44800 42.72300
H  44.90000 47.12300 39.73200
H  41.25300 45.12800 40.88700
H  41.57100 45.79700 42.46700
H  42.26900 44.24900 42.16700

