158

Mg 54.25000 24.50900 44.93100
C  51.62300 26.78700 44.23300
C  52.05100 21.93600 44.23800
C  56.93400 22.42800 44.85400
C  56.24300 27.05500 45.88400
N  52.03600 24.40900 44.33600
C  51.22000 25.47000 44.02400
C  49.85900 24.92500 43.52500
C  49.91600 23.42300 43.98300
C  51.39900 23.20000 44.20300
C  48.90600 23.14200 45.13700
C  49.50900 25.17100 42.03900
C  50.70400 25.25800 41.07700
H  51.54500 23.91800 40.95200
N  54.47700 22.43000 44.48400
C  53.41700 21.56100 44.30600
C  53.99100 20.23300 44.12500
C  55.38900 20.35900 44.19100
C  55.71300 21.77700 44.49300
C  53.05200 19.12800 43.79900
C  56.45000 19.18100 44.00400
O  56.07200 18.04200 43.86900
C  58.00500 19.43300 43.93700
N  56.42400 24.85200 45.08400
C  57.21200 23.77500 45.19500
C  58.68000 24.29900 45.55500
C  58.42400 25.79500 45.90000
C  56.92400 25.91700 45.62900
C  59.45800 23.53300 46.66300
C  59.28200 26.81800 45.13700
C  60.17600 27.83500 45.85100
N  54.03800 26.59300 44.92600
C  54.93300 27.46000 45.47700
C  54.25700 28.75200 45.56000
C  52.93200 28.56200 45.11900
C  52.85600 27.18600 44.77300
C  54.81000 30.01400 46.21000
C  51.63800 29.18100 44.79400
O  51.21500 30.34800 45.01200
C  50.78900 28.00600 44.17400
C  50.55800 28.48600 42.79800
O  51.41000 28.87000 42.03400
O  49.25900 28.42300 42.42500
C  48.96000 28.57700 40.98900
H  51.34600 21.10200 44.19300
H  57.74000 21.71600 45.04100
H  56.82100 27.85900 46.34500
H  49.15800 25.59100 44.02900
H  49.44600 22.81200 43.21200
H  48.83400 24.14000 45.56900
H  49.24000 22.40600 45.86800
H  47.96200 22.84800 44.67900
H  48.92700 26.09200 42.06900
H  48.77600 24.44600 41.68400
H  51.25900 26.19000 41.18900
H  50.26800 25.42000 40.09100
H  52.71300 19.41400 42.80300
H  52.15500 19.09000 44.41700
H  53.55800 18.16300 43.75400
H  58.11100 20.18900 43.15800
H  58.49400 18.51700 43.60600
H  58.46000 19.70800 44.88900
H  59.24400 24.26600 44.62200
H  58.54100 25.91900 46.97600
H  60.32000 23.05700 46.19500
H  58.85400 22.71700 47.06000
H  59.72500 24.04800 47.58600
H  58.55100 27.44700 44.62800
H  59.97200 26.46100 44.37300
H  60.21200 28.75200 45.26400
H  61.20700 27.53600 46.04100
H  59.84000 28.05200 46.86500
H  55.85000 29.80200 46.45700
H  54.11500 30.21000 47.02700
H  54.84200 30.88400 45.55500
H  49.84500 27.87000 44.70300
H  48.24000 27.76700 40.87700
H  49.79200 28.53700 40.28500
H  48.42900 29.52900 40.97100
Mg -11.42800 38.51500 41.48000
C  -9.58600 35.61600 40.87000
C  -9.18000 40.27500 39.62900
C  -13.54100 41.10900 41.71700
C  -13.99400 36.44500 42.73500
N  -9.51700 38.04000 40.49400
C  -8.98900 36.80000 40.31300
C  -7.67900 36.85300 39.52100
C  -7.54500 38.36700 39.23400
C  -8.78200 38.96400 39.83300
C  -6.18100 39.06100 39.68600
C  -7.64800 36.01600 38.21100
C  -6.30900 35.37400 37.68700
H  -5.66200 35.69700 36.34200
N  -11.30600 40.41700 40.85400
C  -10.28200 40.98700 40.12600
C  -10.57800 42.45900 39.96800
C  -11.67300 42.72100 40.82400
C  -12.20300 41.38000 41.23600
C  -9.79900 43.40000 39.08900
C  -12.26900 44.13300 41.14000
O  -11.68300 45.07500 40.68600
C  -13.49200 44.37500 41.94900
N  -13.61400 38.73200 41.95000
C  -14.20800 39.90200 42.00500
C  -15.63700 39.90600 42.54700
C  -15.82700 38.34500 42.83300
C  -14.40200 37.84000 42.54100
C  -15.92900 40.79700 43.77600
C  -16.92500 37.63200 41.98100
C  -18.00800 36.76900 42.63700
N  -11.71700 36.50200 41.82300
C  -12.78500 35.84700 42.42100
C  -12.48700 34.43200 42.58400
C  -11.24400 34.34900 41.97600
C  -10.85900 35.63800 41.48200
C  -13.30900 33.41500 43.16000
C  -10.15800 33.41600 41.63400
O  -10.17000 32.20600 41.85800
C  -9.06300 34.19200 40.86400
C  -7.76200 33.95700 41.48500
O  -7.05100 32.97500 41.30500
O  -7.43500 34.94100 42.38700
C  -6.15100 34.71400 43.03000
H  -8.44700 40.89100 39.10300
H  -14.24700 41.93600 41.81300
H  -14.76900 35.83100 43.19800
H  -6.91300 36.45300 40.18500
H  -7.69700 38.65100 38.19300
H  -6.50600 40.03200 40.05900
H  -5.50200 39.24800 38.85400
H  -5.67500 38.47300 40.45200
H  -7.92700 36.52100 37.28600
H  -8.50600 35.34500 38.21700
H  -6.37000 34.28600 37.64400
H  -5.51600 35.53800 38.41700
H  -10.47100 43.76300 38.31200
H  -9.00400 42.95800 38.49000
H  -9.48700 44.26100 39.68000
H  -13.39100 45.39900 42.31000
H  -13.69300 43.74200 42.81300
H  -14.26100 44.37400 41.17600
H  -16.23800 40.25100 41.70700
H  -16.04400 38.19400 43.89000
H  -15.19800 41.58000 43.97600
H  -16.17600 40.12100 44.59500
H  -16.93700 41.10800 43.50300
H  -16.38700 36.90600 41.37200
H  -17.39300 38.36600 41.32400
H  -17.95800 36.80800 43.72600
H  -17.99300 35.70000 42.42800
H  -18.98500 37.04100 42.23800
H  -13.52000 33.63000 44.20700
H  -12.79600 32.46600 42.99900
H  -14.32200 33.31800 42.76800
H  -9.19100 33.67300 39.91400
H  -5.28700 34.84300 42.37800
H  -6.08000 33.77700 43.58300
H  -6.19300 35.46600 43.81700

