158

Mg 9.11500 3.22600 27.44000
C  10.28100 1.68000 30.32500
C  7.45300 5.46200 29.47200
C  7.76300 4.46100 24.70700
C  10.73000 0.64900 25.44300
N  8.93200 3.52000 29.65500
C  9.46500 2.74400 30.70400
C  9.21200 3.41600 32.13800
C  8.24600 4.58300 31.74400
C  8.17300 4.50900 30.18500
C  6.88500 4.54800 32.53600
C  10.61500 3.80000 32.73500
C  10.63500 4.98800 33.68100
H  11.10800 4.79900 35.07200
N  7.87400 4.83000 27.16000
C  7.30400 5.67700 28.09900
C  6.70000 6.74500 27.38800
C  6.78500 6.50100 25.93500
C  7.50200 5.19600 25.87600
C  6.04600 7.76200 28.15000
C  6.22400 7.35200 24.85700
O  6.45400 7.13000 23.65800
C  5.37300 8.62400 25.14700
N  9.10100 2.54600 25.40500
C  8.52100 3.31800 24.54800
C  8.64300 2.74300 23.16700
C  9.46100 1.43600 23.26700
C  9.81600 1.53900 24.79700
C  7.21500 2.52600 22.49500
C  10.64200 1.21100 22.25700
C  10.39900 0.07000 21.26900
N  10.29500 1.47800 27.74800
C  10.78400 0.55100 26.90700
C  11.57100 -0.38100 27.69200
C  11.40400 0.05100 29.02100
C  10.59200 1.17500 29.02200
C  12.24600 -1.64600 27.34800
C  11.80900 -0.25000 30.38900
O  12.58800 -1.11300 30.77900
C  11.18900 0.81900 31.27200
C  10.38400 0.22200 32.41100
O  9.37400 -0.41800 32.25900
O  11.02100 0.42000 33.60900
C  10.39200 -0.08900 34.85200
H  6.99800 6.21700 30.11700
H  7.30400 4.79500 23.77500
H  11.21000 -0.18000 24.91800
H  8.60400 2.75300 32.75500
H  8.64300 5.56900 31.98300
H  6.50400 5.55100 32.72900
H  7.18700 4.35100 33.56500
H  6.28300 3.78400 32.04400
H  11.24900 3.99500 31.87000
H  10.99000 2.93400 33.28000
H  9.65700 5.46200 33.77500
H  11.45000 5.62300 33.33400
H  5.86900 7.66100 29.22100
H  5.01100 7.70900 27.81300
H  6.44500 8.73200 27.85200
H  6.02500 9.21000 25.79500
H  4.54900 8.37200 25.81300
H  5.12800 9.19800 24.25300
H  9.08700 3.51300 22.53600
H  8.88900 0.51000 23.20600
H  7.06200 1.52400 22.09400
H  7.06100 3.18300 21.63900
H  6.37400 2.62600 23.18200
H  11.56200 1.03000 22.81400
H  10.74600 2.18800 21.78500
H  9.33400 -0.12600 21.14400
H  10.86300 -0.84900 21.62700
H  10.76100 0.48400 20.32800
H  13.20500 -1.42900 26.87800
H  11.60600 -2.17300 26.64100
H  12.16800 -2.18900 28.29000
H  11.96900 1.48200 31.64400
H  9.90800 0.71400 35.40800
H  11.29300 -0.47100 35.33100
H  9.73500 -0.94600 34.70100
Mg 16.11400 51.61100 25.88600
C  18.09700 50.52900 28.51500
C  13.49900 52.14600 27.93600
C  14.28600 52.43100 23.18400
C  18.70300 50.50600 23.61300
N  15.87400 51.30700 27.86200
C  16.82500 50.94000 28.82600
C  16.34800 51.32800 30.19400
C  14.74100 51.45700 29.96900
C  14.62100 51.46400 28.48500
C  13.89700 50.26800 30.62000
C  16.98400 52.59900 30.77700
C  17.05000 52.74300 32.31900
H  16.17200 51.76400 33.12500
N  14.14800 52.24500 25.58600
C  13.21700 52.36400 26.58100
C  11.93200 52.87300 26.04000
C  12.14700 52.94500 24.63900
C  13.56600 52.54100 24.38400
C  10.86100 53.44300 26.88400
C  11.22000 53.36200 23.49900
O  11.50000 53.28700 22.30100
C  9.71900 53.83500 23.85500
N  16.51300 51.49700 23.67600
C  15.60900 52.01100 22.83800
C  16.09400 51.87600 21.37800
C  17.57100 51.33000 21.55500
C  17.59500 51.09200 23.02500
C  15.18900 51.00700 20.45700
C  18.72400 52.29800 21.01900
C  19.78900 51.50800 20.17100
N  17.98700 50.55000 25.99800
C  18.97500 50.26800 24.99600
C  20.10200 49.67400 25.71200
C  19.82000 49.79600 27.09400
C  18.54400 50.25700 27.16800
C  21.31100 49.13700 25.03700
C  20.36500 49.67700 28.46000
O  21.42500 49.26100 28.87000
C  19.24200 50.12300 29.43900
C  18.86100 49.10900 30.38000
O  18.38000 48.04100 30.06400
O  19.27900 49.47900 31.63400
C  19.22300 48.44100 32.67600
H  12.90200 52.53300 28.76500
H  13.74000 52.69600 22.27600
H  19.54600 50.26100 22.96400
H  16.68300 50.51000 30.83200
H  14.39000 52.40300 30.38200
H  14.50400 49.58000 31.20900
H  13.45400 49.73600 29.77900
H  13.09700 50.67600 31.23700
H  16.49800 53.45800 30.31400
H  17.99900 52.60300 30.38000
H  16.91000 53.79800 32.55500
H  18.09900 52.56300 32.55500
H  10.54700 54.43400 26.55600
H  11.13500 53.40100 27.93800
H  10.02800 52.75300 26.74900
H  9.14700 53.17500 24.50700
H  9.24400 53.92400 22.87800
H  9.86000 54.83100 24.27500
H  16.00800 52.84000 20.87500
H  17.60200 50.29800 21.20700
H  14.54600 50.44000 21.13100
H  15.77600 50.29000 19.88300
H  14.58400 51.51200 19.70400
H  19.25500 52.75200 21.85600
H  18.41400 53.07300 20.31700
H  19.51200 51.73300 19.14100
H  19.69300 50.43600 20.34600
H  20.79400 51.80700 20.46800
H  22.07900 48.98400 25.79400
H  21.60500 49.66500 24.13000
H  21.07000 48.16500 24.60600
H  19.53200 51.02100 29.98300
H  19.62500 47.51900 32.25400
H  18.28900 48.38400 33.23400
H  19.91500 48.68800 33.48100

