158

Mg 40.66800 9.11000 29.61500
C  42.56100 10.31700 32.30900
C  38.41000 7.67800 31.80600
C  39.08600 7.98600 26.87300
C  43.27500 10.04900 27.48900
N  40.55800 8.95300 31.80900
C  41.41100 9.60800 32.73200
C  40.88300 9.42200 34.11100
C  39.51500 8.63700 33.94300
C  39.50000 8.36300 32.43000
C  39.22700 7.37900 34.81800
C  40.77200 10.76700 34.92000
C  39.47400 11.16700 35.72100
H  39.41700 12.05100 36.89600
N  39.04200 7.86900 29.36200
C  38.21000 7.40800 30.39400
C  37.12300 6.69000 29.80300
C  37.38100 6.72800 28.37700
C  38.49100 7.62200 28.13500
C  36.12400 5.93900 30.63500
C  36.56700 6.05000 27.25600
O  36.85500 6.04000 26.08500
C  35.44800 5.15100 27.56000
N  41.14500 8.97400 27.43000
C  40.25100 8.66500 26.49100
C  40.80500 8.72100 24.99900
C  42.24500 9.34800 25.26000
C  42.21900 9.55000 26.83000
C  40.81700 7.37700 24.22800
C  42.49900 10.70500 24.54700
C  41.75100 11.90700 25.08800
N  42.46000 10.05800 29.72800
C  43.43100 10.34800 28.82600
C  44.58900 10.92400 29.43900
C  44.29400 10.95500 30.78900
C  43.00300 10.41000 30.93600
C  45.82500 11.25500 28.65100
C  44.75900 11.28400 32.10200
O  45.79700 11.82000 32.43100
C  43.59700 11.00000 33.22000
C  44.25800 10.12800 34.15500
O  44.41000 8.90200 34.00800
O  44.70800 10.88000 35.13400
C  45.47800 10.33400 36.20100
H  37.61100 7.28800 32.43900
H  38.61200 7.61800 25.96000
H  44.21900 10.09200 26.94200
H  41.60100 8.74600 34.57600
H  38.68100 9.33800 33.90700
H  38.25300 7.38500 35.30900
H  40.06700 7.25400 35.50200
H  39.14800 6.55200 34.11200
H  40.92300 11.54900 34.17600
H  41.58900 10.93000 35.62300
H  39.08400 10.20700 36.05700
H  38.75600 11.58900 35.01800
H  35.95000 6.28700 31.65300
H  36.43400 4.90200 30.76800
H  35.23600 5.81900 30.01500
H  34.49200 5.59200 27.84300
H  35.72200 4.52900 28.41200
H  35.27700 4.35800 26.83200
H  40.07200 9.38500 24.54100
H  42.99600 8.60000 25.00700
H  40.02000 7.27200 23.49200
H  40.74200 6.63000 25.01800
H  41.74800 7.35100 23.66200
H  42.38000 10.69400 23.46300
H  43.55100 10.97800 24.63000
H  42.34100 12.62400 25.66000
H  40.91200 11.60700 25.71500
H  41.33300 12.47700 24.25800
H  46.22400 10.45000 28.03400
H  46.48900 11.55200 29.46300
H  45.62700 12.06100 27.94400
H  43.26000 11.97200 33.57900
H  46.14600 9.50900 35.95000
H  44.88100 9.85300 36.97500
H  46.12300 11.10300 36.62600
Mg 30.61000 58.60300 39.62800
C  28.30700 56.07300 38.73900
C  33.13900 56.35600 38.72400
C  32.84900 61.06800 39.86000
C  27.97300 60.77400 39.58000
N  30.72800 56.44500 38.79400
C  29.62900 55.60800 38.69800
C  30.03800 54.30700 38.11800
C  31.54200 54.25900 38.52600
C  31.85800 55.81100 38.54700
C  31.78900 53.61800 39.93100
C  29.85900 54.09500 36.58300
C  28.80400 53.12000 36.09000
H  27.80100 53.62400 35.09000
N  32.71500 58.69100 39.36500
C  33.58300 57.65900 39.03400
C  34.96500 58.12000 38.98600
C  34.88500 59.54600 39.34300
C  33.45100 59.82700 39.58900
C  36.21800 57.31300 38.74200
C  36.07300 60.51000 39.46200
O  37.20800 60.18100 39.10000
C  35.83200 61.97700 39.79500
N  30.48800 60.69800 39.33400
C  31.47000 61.43300 39.86500
C  30.89800 62.79000 40.37000
C  29.40000 62.80000 39.90200
C  29.27400 61.33700 39.58900
C  31.15200 63.18300 41.90600
C  29.05600 63.78000 38.79400
C  27.86700 64.76800 39.16300
N  28.47600 58.47100 39.45400
C  27.53300 59.41300 39.49500
C  26.21300 58.86700 39.28600
C  26.48100 57.51000 39.00300
C  27.86800 57.32900 39.05500
C  24.89500 59.62500 39.26000
C  25.87100 56.22200 38.60500
O  24.71200 55.89200 38.46800
C  27.03100 55.32600 38.38000
C  26.77100 54.06400 39.22300
O  27.08200 53.98900 40.38200
O  25.99300 53.18300 38.54800
C  25.44200 52.00400 39.33000
H  33.99200 55.68500 38.60600
H  33.53700 61.80200 40.28400
H  27.15900 61.48700 39.72900
H  29.52400 53.56300 38.72600
H  32.15500 53.75500 37.77900
H  32.15200 54.32300 40.67800
H  32.48200 52.77700 39.90600
H  30.95700 53.08700 40.39300
H  30.80200 53.86800 36.08500
H  29.76900 55.13900 36.28300
H  28.23700 52.56300 36.83600
H  29.42400 52.39200 35.56600
H  36.13000 56.30600 39.15000
H  37.02500 57.78400 39.30300
H  36.40800 57.33200 37.66800
H  35.18800 62.38300 39.01500
H  36.76700 62.51600 39.64300
H  35.44700 61.97500 40.81500
H  31.45800 63.47900 39.73700
H  28.79600 62.99600 40.78700
H  32.01400 63.85000 41.92000
H  31.44500 62.34100 42.53100
H  30.24300 63.65300 42.28200
H  28.73300 63.17600 37.94600
H  29.98400 64.25900 38.48200
H  27.04000 64.64800 38.46300
H  28.23400 65.78900 39.05900
H  27.52700 64.72500 40.19700
H  24.92400 60.70100 39.43400
H  24.22200 59.13800 39.96600
H  24.51400 59.49800 38.24700
H  27.06200 54.97100 37.35000
H  26.15600 51.18300 39.28500
H  24.52100 51.66000 38.85900
H  25.24000 52.23500 40.37600

