158

Mg 26.16100 1.37600 29.37800
C  27.98700 0.94700 32.35800
C  23.24400 1.80900 31.26800
C  24.47500 1.51900 26.59100
C  29.22900 0.69100 27.67500
N  25.72300 1.37500 31.56300
C  26.63700 1.30700 32.58700
C  25.93100 1.55700 33.92900
C  24.40700 1.64500 33.56600
C  24.43300 1.57400 32.04400
C  23.55900 0.53100 34.15400
C  26.48900 2.83100 34.74200
C  26.72500 2.54400 36.22500
H  26.47600 3.53600 37.35300
N  24.13300 1.53900 29.00000
C  23.13200 1.78000 29.88800
C  21.87300 1.99200 29.12400
C  22.19300 1.89800 27.70600
C  23.67800 1.65800 27.70200
C  20.52300 2.11100 29.76400
C  21.31500 1.91900 26.45800
O  21.76700 2.02300 25.30600
C  19.71000 1.91300 26.46500
N  26.78300 1.27300 27.46500
C  25.84100 1.28100 26.44300
C  26.55000 1.03600 25.00800
C  28.07000 1.10500 25.39500
C  28.03800 0.97700 26.91500
C  26.16100 -0.36900 24.38700
C  28.86400 2.41700 24.95900
C  30.01100 2.37900 23.94700
N  28.14900 0.87000 29.83700
C  29.33200 0.62900 29.05700
C  30.46100 0.31700 29.96700
C  29.95000 0.46600 31.27800
C  28.53500 0.74700 31.15600
C  31.81400 0.05000 29.51200
C  30.41600 0.39200 32.64300
O  31.51200 0.09500 33.10700
C  29.16500 0.82300 33.36400
C  28.82800 -0.34400 34.25000
O  28.14600 -1.34500 33.96800
O  29.42100 -0.10100 35.50300
C  29.43400 -1.31100 36.39900
H  22.43000 2.00300 31.97000
H  23.99300 1.43600 25.61400
H  30.09200 0.64500 27.00800
H  26.17200 0.68700 34.54000
H  23.84000 2.54100 33.82100
H  23.21000 -0.23400 33.46000
H  22.74000 0.98300 34.71300
H  24.10100 -0.03900 34.90800
H  25.80300 3.67700 34.70900
H  27.39800 3.21100 34.27500
H  27.76600 2.22000 36.22000
H  26.20900 1.60400 36.41800
H  19.99000 1.16700 29.65300
H  19.94800 2.96300 29.40300
H  20.71000 2.26900 30.82600
H  19.19200 1.25700 27.16500
H  19.32900 1.64000 25.48100
H  19.32600 2.93100 26.53000
H  26.21700 1.69600 24.20700
H  28.54500 0.17600 25.08100
H  25.57200 -0.93800 25.10600
H  27.06700 -0.92800 24.15500
H  25.55300 -0.28900 23.48600
H  29.20700 2.73700 25.94300
H  28.09500 3.14200 24.69400
H  30.90500 2.84900 24.35600
H  29.68800 2.82000 23.00400
H  30.25700 1.32200 23.84200
H  32.01400 0.47800 28.52900
H  31.98100 -1.02700 29.46400
H  32.54100 0.44300 30.22200
H  29.35400 1.60900 34.09500
H  29.80400 -2.22800 35.94100
H  28.46500 -1.38600 36.89300
H  30.13700 -0.98600 37.16600
Mg 40.45900 9.51000 29.38400
C  42.31100 10.80200 32.07700
C  38.26400 8.16100 31.67600
C  38.92200 8.07600 26.83000
C  43.29700 10.32600 27.36800
N  40.36300 9.45000 31.62900
C  41.10500 10.20200 32.48400
C  40.50600 10.25900 33.93600
C  39.48300 9.08600 33.74100
C  39.28100 8.92700 32.21600
C  39.75900 7.73300 34.39900
C  39.79700 11.62100 34.30400
C  39.60400 11.70300 35.86700
H  40.29000 12.90400 36.61100
N  38.73800 8.43400 29.23600
C  37.94500 8.00300 30.31800
C  36.72400 7.33200 29.76200
C  36.86600 7.47900 28.31500
C  38.23100 8.02000 28.04800
C  35.63900 6.71400 30.63800
C  35.94000 7.15600 27.20100
O  36.09900 7.51500 26.03500
C  34.68800 6.40100 27.55100
N  40.99400 9.23600 27.42500
C  40.24000 8.54300 26.52200
C  40.96000 8.49500 25.16500
C  42.27800 9.18500 25.38000
C  42.15100 9.62800 26.81400
C  41.02700 7.11300 24.38900
C  42.70200 10.22800 24.34600
C  42.24900 11.70800 24.62800
N  42.35800 10.42300 29.59200
C  43.40100 10.68900 28.72100
C  44.48000 11.37400 29.40600
C  44.04100 11.46100 30.72400
C  42.77000 10.81100 30.76000
C  45.81100 11.72000 28.93200
C  44.47800 11.93300 31.97600
O  45.49300 12.50500 32.25400
C  43.35800 11.56900 32.89700
C  43.74400 10.79300 34.11000
O  43.67000 9.55600 34.27200
O  44.12100 11.70500 35.09900
C  44.31900 11.19800 36.45100
H  37.56700 7.68600 32.37000
H  38.49400 7.72500 25.88800
H  44.09200 10.62900 26.68400
H  41.24100 9.98400 34.69200
H  38.49800 9.35000 34.12600
H  39.03700 7.62100 35.20800
H  40.78000 7.72300 34.78000
H  39.63300 6.86400 33.75300
H  38.77700 11.60400 33.92000
H  40.33600 12.53000 34.03500
H  40.01200 10.81500 36.35000
H  38.52200 11.82400 35.91500
H  34.75800 7.33900 30.78600
H  36.00200 6.37000 31.60600
H  35.42400 5.77600 30.12400
H  34.99800 5.36500 27.69100
H  34.00700 6.43400 26.70100
H  34.13800 6.85800 28.37300
H  40.33500 9.11000 24.51800
H  43.04200 8.41300 25.47100
H  41.98600 6.59900 24.32700
H  40.53100 7.09800 23.41800
H  40.29800 6.50900 24.93000
H  42.25600 9.98200 23.38200
H  43.77300 10.23000 24.14500
H  41.66400 11.81800 25.54100
H  41.73300 12.12500 23.76300
H  43.17500 12.26000 24.79100
H  46.05500 11.27200 27.96900
H  46.46000 11.54800 29.79100
H  45.95000 12.80000 28.87800
H  42.72800 12.37000 33.28300
H  45.26500 11.62700 36.78000
H  44.43600 10.11800 36.54100
H  43.47900 11.50500 37.07400

