158

Mg 10.09100 48.29200 26.29900
C  8.12200 48.79000 29.21400
C  12.77900 49.75800 27.95200
C  11.68100 48.05200 23.53700
C  7.03700 47.99100 24.59700
N  10.33300 49.15200 28.36100
C  9.47800 49.16400 29.38300
C  10.20100 49.64600 30.67600
C  11.51200 50.22300 30.09600
C  11.55100 49.68200 28.71300
C  11.59200 51.76900 30.00600
C  10.38100 48.49800 31.77400
C  9.77200 48.74900 33.13100
H  9.55600 47.53800 34.00700
N  11.95000 48.65700 25.85800
C  12.99300 49.19600 26.67700
C  14.27800 49.17800 25.89300
C  13.93900 48.63200 24.56000
C  12.49000 48.44100 24.58900
C  15.52800 49.62300 26.43900
C  14.85000 48.34900 23.39600
O  14.48000 47.87800 22.31700
C  16.25400 48.52900 23.50800
N  9.37100 48.02700 24.38200
C  10.31900 47.91200 23.43500
C  9.69900 47.55500 22.07100
C  8.18900 47.64000 22.33600
C  8.15600 47.81100 23.82500
C  10.11100 48.47700 20.86600
C  7.42300 46.43200 21.89500
C  6.74300 46.62700 20.55600
N  8.04800 48.20400 26.76900
C  6.91400 48.11200 25.98700
C  5.72800 48.21200 26.75300
C  6.12800 48.35300 28.05000
C  7.57600 48.43200 27.95800
C  4.33000 48.12500 26.18700
C  5.76200 48.52900 29.40100
O  4.59600 48.54100 29.89500
C  7.00300 48.68300 30.23500
C  7.10400 47.46500 31.15600
O  7.67900 46.40100 30.97200
O  6.20200 47.62000 32.17900
C  5.83300 46.43100 33.01900
H  13.58200 50.24800 28.50700
H  12.30600 47.82800 22.67000
H  6.07400 47.96500 24.08300
H  9.63300 50.40600 31.21200
H  12.41000 49.84400 30.58400
H  11.28500 52.13500 29.02700
H  12.59000 52.17200 30.18000
H  10.91500 52.21000 30.73700
H  11.44400 48.36600 31.97500
H  10.05600 47.52500 31.40600
H  8.78900 49.10300 32.82300
H  10.15200 49.60900 33.68200
H  15.36400 50.39100 27.19500
H  16.03300 50.20000 25.66500
H  16.16300 48.86200 26.89300
H  16.63000 48.04400 24.40900
H  16.47000 49.59700 23.47400
H  16.77100 48.04700 22.67900
H  10.00500 46.53000 21.86000
H  7.82800 48.53500 21.82800
H  9.26200 48.80100 20.26400
H  10.89300 48.02900 20.25300
H  10.66600 49.36600 21.16500
H  6.68400 46.26600 22.67900
H  8.09900 45.57800 21.86300
H  5.88200 47.27800 20.70800
H  6.37000 45.65800 20.22600
H  7.44600 47.04000 19.83200
H  3.68800 48.85900 26.67500
H  4.04800 47.07800 26.29700
H  4.28700 48.39000 25.13100
H  6.90600 49.57600 30.85200
H  4.76200 46.24500 32.94300
H  6.24000 46.67900 34.00000
H  6.39800 45.58800 32.62200
Mg 1.02600 43.83200 26.04500
C  2.73800 43.75100 29.10900
C  -1.83000 42.94300 27.84900
C  -0.43100 43.17300 23.22800
C  4.08900 44.04500 24.47700
N  0.42100 43.53800 28.33900
C  1.30900 43.58900 29.36500
C  0.65100 43.30000 30.75900
C  -0.78300 42.90100 30.29600
C  -0.80400 43.20900 28.72900
C  -1.22200 41.42200 30.64000
C  0.68000 44.55200 31.68300
C  1.25800 44.22700 33.05000
H  0.75000 43.07600 33.82900
N  -0.87200 43.15700 25.61800
C  -1.93900 42.98400 26.44100
C  -3.16900 42.74900 25.69700
C  -2.80400 42.81900 24.35200
C  -1.35000 42.99000 24.35600
C  -4.57700 42.65100 26.38500
C  -3.79100 42.66600 23.13700
O  -3.37900 42.51700 22.00700
C  -5.29200 42.58000 23.36300
N  1.73300 43.60800 24.16500
C  0.92600 43.36200 23.14400
C  1.79800 43.22600 21.82300
C  3.14100 43.82400 22.18500
C  2.97700 43.81200 23.75800
C  1.72500 41.74600 21.42100
C  3.43400 45.19000 21.58900
C  3.06800 46.45800 22.34200
N  3.03800 44.01900 26.58200
C  4.18700 44.08800 25.83100
C  5.35100 43.96500 26.68100
C  4.78500 43.89400 27.97600
C  3.40300 43.91300 27.83400
C  6.82600 44.06800 26.19300
C  5.17000 43.81700 29.38000
O  6.27100 43.86300 29.94600
C  3.89300 43.66700 30.17900
C  3.95000 42.38800 30.83400
O  3.61200 41.32800 30.27700
O  4.61700 42.49100 32.08200
C  4.78900 41.08200 32.67200
H  -2.64300 42.49400 28.42400
H  -0.96600 43.02000 22.28800
H  5.00900 44.12300 23.89400
H  1.20300 42.46400 31.18900
H  -1.58400 43.49500 30.73600
H  -1.44800 40.95800 29.68000
H  -2.00800 41.43800 31.39500
H  -0.33100 40.92400 31.02300
H  -0.36900 44.81400 31.81800
H  1.24400 45.34900 31.19900
H  1.23000 45.16300 33.60800
H  2.29100 44.01700 32.77300
H  -4.27400 42.60700 27.43100
H  -5.05700 41.71300 26.10600
H  -5.13900 43.53400 26.08100
H  -5.74000 42.51200 22.37100
H  -5.68300 43.47900 23.84000
H  -5.50600 41.62200 23.83500
H  1.35200 43.68800 20.94300
H  3.90900 43.20600 21.72100
H  1.07700 41.48700 20.58300
H  1.31800 41.02900 22.13400
H  2.75400 41.46000 21.19900
H  3.09200 45.27900 20.55800
H  4.50200 45.18800 21.37500
H  3.77500 46.67600 23.14300
H  2.19200 46.31500 22.97600
H  2.97000 47.31900 21.68100
H  6.97000 44.95500 25.57700
H  7.01300 43.15000 25.63500
H  7.52600 44.17900 27.02100
H  3.82700 44.41400 30.97000
H  5.38500 41.21800 33.57400
H  5.45100 40.59900 31.95400
H  3.84600 40.63600 32.99100

