158

Mg -1.12000 17.86500 27.16500
C  -1.82500 15.79500 29.99100
C  -1.99500 20.59900 29.12100
C  -0.71500 19.83100 24.53100
C  -1.11700 14.90700 25.18000
N  -1.87200 18.11300 29.27900
C  -1.81000 17.17300 30.29400
C  -2.02500 17.81800 31.60700
C  -2.28000 19.30300 31.25000
C  -2.08400 19.34200 29.78300
C  -3.64500 19.89600 31.59200
C  -0.80400 17.62600 32.53500
C  -1.18300 17.18400 33.90100
H  -0.14000 17.02900 34.98600
N  -1.14300 19.94500 26.87900
C  -1.46400 20.94200 27.82700
C  -1.23600 22.23700 27.25200
C  -0.79200 21.94400 25.90100
C  -0.84400 20.54000 25.72000
C  -1.55500 23.51100 28.01800
C  -0.40900 22.97900 24.79900
O  -0.04000 22.66200 23.72200
C  -0.76700 24.48200 25.07900
N  -0.97200 17.43900 25.19700
C  -0.77100 18.44800 24.30000
C  -0.75300 17.79800 22.90900
C  -0.66800 16.26200 23.11200
C  -0.88900 16.22200 24.64100
C  -1.89000 18.28900 22.01700
C  0.80900 15.84300 22.70400
C  1.95000 16.40500 23.58300
N  -1.32900 15.74400 27.47600
C  -1.33700 14.68800 26.58500
C  -1.65500 13.45100 27.28600
C  -1.77400 13.83000 28.62400
C  -1.60600 15.21900 28.67200
C  -1.96200 12.13700 26.84300
C  -1.95300 13.34700 29.97800
O  -2.04000 12.23200 30.42500
C  -1.87000 14.60400 30.93100
C  -0.65000 14.36100 31.77000
O  0.52000 14.52400 31.37300
O  -0.98100 13.90200 32.98900
C  0.17400 13.30600 33.71300
H  -2.21000 21.45100 29.77000
H  -0.69300 20.42200 23.61300
H  -1.03300 14.06200 24.49400
H  -2.80700 17.27400 32.13800
H  -1.55200 19.96600 31.71700
H  -4.33900 19.19700 32.05900
H  -4.18200 20.23100 30.70400
H  -3.58300 20.85700 32.10300
H  -0.35800 18.61200 32.66000
H  0.05000 17.10000 32.10700
H  -1.70700 16.23100 33.83600
H  -1.81000 17.94500 34.36600
H  -0.65000 24.11700 28.03600
H  -1.71800 23.30400 29.07600
H  -2.37600 23.98800 27.48200
H  -1.83800 24.65200 25.18700
H  -0.42300 24.95200 24.15800
H  -0.24200 24.76400 25.99200
H  0.13900 18.29600 22.52900
H  -1.31300 15.60000 22.53500
H  -2.43700 18.84200 22.78000
H  -2.67600 17.58600 21.74100
H  -1.52400 18.96100 21.24000
H  1.04000 16.11500 21.67400
H  0.87100 14.75500 22.71900
H  1.54500 17.01900 24.38800
H  2.69700 17.01900 23.08100
H  2.50200 15.54600 23.96300
H  -2.21100 12.15900 25.78200
H  -2.81700 11.68200 27.34100
H  -1.10300 11.49800 27.04600
H  -2.79200 14.63800 31.51200
H  -0.24300 13.14400 34.70700
H  1.11900 13.83500 33.58800
H  0.21800 12.32400 33.24300
Mg 17.49400 -1.04000 27.59600
C  16.41700 0.62900 30.54900
C  19.10700 -3.23600 29.55100
C  18.95400 -2.27500 24.76600
C  16.08000 1.45700 25.68200
N  17.65800 -1.17400 29.80400
C  17.16400 -0.51200 30.80800
C  17.56300 -0.98100 32.21100
C  18.34500 -2.26000 31.80600
C  18.34600 -2.26500 30.27200
C  19.70800 -2.46500 32.47800
C  16.36500 -1.37100 33.17700
C  16.43100 -0.70500 34.56800
H  17.82800 -0.32300 35.08000
N  18.77200 -2.60800 27.24800
C  19.34400 -3.35500 28.17700
C  20.11800 -4.42800 27.46000
C  20.01300 -4.19700 26.06800
C  19.16400 -2.97400 25.95600
C  20.84000 -5.57500 28.22900
C  20.60900 -4.97000 24.89000
O  20.18600 -4.92200 23.74800
C  21.73200 -5.87000 25.13200
N  17.41700 -0.50200 25.54000
C  18.14500 -1.10300 24.59600
C  17.99100 -0.51900 23.20300
C  16.90600 0.54700 23.52500
C  16.79200 0.51100 24.99700
C  19.28700 0.12900 22.69300
C  15.56500 0.41800 22.72900
C  14.41600 -0.19400 23.61200
N  16.33600 0.62100 27.95900
C  15.81800 1.56300 27.02900
C  14.96100 2.53300 27.86000
C  15.23800 2.15900 29.21400
C  16.11500 1.09700 29.25200
C  13.98800 3.62900 27.40000
C  14.84800 2.47800 30.57400
O  13.95300 3.26000 31.00400
C  15.64200 1.48300 31.42700
C  16.48900 2.34300 32.25100
O  17.69500 2.43200 32.15900
O  15.82600 2.85700 33.38700
C  16.65600 3.63800 34.32900
H  19.52500 -3.94600 30.26600
H  19.49700 -2.63700 23.89100
H  15.64200 2.22100 25.03700
H  18.16800 -0.10000 32.42600
H  17.85400 -3.19100 32.09000
H  19.83200 -3.13900 33.32500
H  19.82600 -1.47500 32.92000
H  20.53100 -2.58300 31.77300
H  16.33800 -2.44100 33.38200
H  15.41900 -1.21800 32.65700
H  16.03800 -1.49600 35.20700
H  15.86600 0.22400 34.50000
H  21.90900 -5.58000 28.01500
H  20.34000 -6.50300 27.95200
H  20.70300 -5.54200 29.30900
H  22.48400 -5.20000 25.54900
H  22.13800 -6.38600 24.26300
H  21.36700 -6.60600 25.84900
H  17.70800 -1.34100 22.54600
H  17.35100 1.52500 23.34600
H  19.04600 0.94600 22.01300
H  19.86900 -0.62900 22.16800
H  19.81900 0.60700 23.51500
H  15.74300 -0.28100 21.91200
H  15.29400 1.33100 22.19900
H  14.81300 -0.88500 24.35500
H  13.80800 -0.81100 22.95100
H  13.87400 0.66200 24.01400
H  13.57800 3.28800 26.44900
H  14.65100 4.43700 27.09100
H  13.33700 3.77800 28.26100
H  14.95200 1.01000 32.12500
H  17.43600 4.12100 33.74000
H  17.02600 3.05700 35.17400
H  16.14700 4.45200 34.84500

