158

Mg -2.16900 17.06000 26.83300
C  -2.90500 14.87100 29.57700
C  -2.68200 19.66000 29.03000
C  -1.76800 19.09600 24.33200
C  -2.35700 14.26300 24.74000
N  -2.79300 17.21000 29.06200
C  -2.86000 16.21100 30.03500
C  -2.83200 16.81800 31.41500
C  -3.01200 18.37500 31.21800
C  -2.80500 18.42300 29.64300
C  -4.38100 19.06000 31.64800
C  -1.61800 16.28300 32.20500
C  -1.13800 17.08100 33.33200
H  -0.57600 16.30700 34.51000
N  -2.17500 19.04400 26.74300
C  -2.37700 19.96200 27.69500
C  -2.13600 21.35900 27.18800
C  -1.81800 21.19100 25.82500
C  -1.90700 19.77500 25.58500
C  -2.44000 22.55800 27.98100
C  -1.56500 22.20700 24.75300
O  -1.55400 22.02400 23.51200
C  -1.32400 23.59700 25.26500
N  -2.43700 16.74000 24.75100
C  -2.01300 17.77000 23.92100
C  -1.71700 17.26700 22.47800
C  -1.87800 15.74200 22.64300
C  -2.20500 15.55200 24.16900
C  -2.76300 17.87400 21.45700
C  -0.73500 14.85700 22.13400
C  -0.71200 14.87400 20.57500
N  -2.53900 15.00000 27.01600
C  -2.50500 13.95700 26.09200
C  -2.73400 12.68100 26.74500
C  -2.92700 13.03500 28.06000
C  -2.80700 14.44600 28.23400
C  -2.77400 11.39600 25.99100
C  -3.13000 12.41300 29.34200
O  -3.25600 11.27200 29.69300
C  -3.16400 13.59800 30.42300
C  -2.04100 13.29400 31.35300
O  -0.86900 13.59800 31.14700
O  -2.43200 12.60400 32.49900
C  -1.28900 12.25200 33.38100
H  -2.73500 20.47900 29.75000
H  -1.54400 19.71200 23.45800
H  -2.33500 13.41900 24.04800
H  -3.69800 16.34500 31.87800
H  -2.20400 18.86200 31.76500
H  -5.05500 18.20600 31.58100
H  -4.80400 19.79700 30.96500
H  -4.37400 19.54400 32.62500
H  -0.79000 16.12300 31.51400
H  -1.89700 15.34500 32.68600
H  -1.79200 17.84200 33.75700
H  -0.24500 17.60500 32.99000
H  -3.38800 22.46900 28.51100
H  -2.53400 23.54500 27.52900
H  -1.60300 22.57400 28.67900
H  -0.67000 23.88400 24.44200
H  -0.83100 23.65100 26.23600
H  -2.24200 24.17900 25.18400
H  -0.71300 17.54900 22.16200
H  -2.69500 15.28800 22.08200
H  -3.29300 18.76900 21.78500
H  -3.46200 17.06600 21.24500
H  -2.27100 18.12200 20.51700
H  -0.86600 13.85900 22.55100
H  0.24400 15.13000 22.53100
H  -0.95100 13.88300 20.19000
H  0.30100 14.99000 20.19100
H  -1.28700 15.59500 19.99400
H  -1.79900 11.35200 25.50600
H  -3.57300 11.28300 25.25900
H  -2.63400 10.69900 26.81800
H  -4.09200 13.77500 30.96500
H  -0.61900 13.11100 33.43900
H  -0.72500 11.44200 32.91900
H  -1.68300 12.01300 34.36900
Mg 1.80800 41.43800 26.80200
C  3.36600 42.25200 29.92200
C  -0.79000 40.14800 28.54900
C  0.48400 40.62300 23.87100
C  4.83700 42.22400 25.28500
N  1.34700 41.25400 29.03300
C  2.07300 41.71700 30.10300
C  1.21400 41.71300 31.37200
C  -0.07600 40.84200 30.91300
C  0.14500 40.77300 29.41100
C  -0.14500 39.44400 31.63600
C  0.95600 43.15600 31.93700
C  1.31700 43.41400 33.38100
H  1.18800 42.35300 34.45200
N  0.05800 40.57300 26.21700
C  -0.85300 40.05800 27.08900
C  -1.98300 39.52500 26.22600
C  -1.53500 39.54500 24.88800
C  -0.27500 40.28500 24.97300
C  -3.18600 38.76200 26.81900
C  -2.20600 38.95100 23.64500
O  -1.63300 39.05200 22.57800
C  -3.56100 38.15200 23.76200
N  2.63000 41.32800 24.96100
C  1.84700 40.99200 23.88100
C  2.60800 41.24500 22.51100
C  3.99000 41.74800 22.95100
C  3.85900 41.68600 24.50200
C  2.63100 39.99700 21.61800
C  4.36700 43.19600 22.34900
C  3.75300 44.35200 23.05000
N  3.71000 42.12200 27.41000
C  4.81100 42.46800 26.66400
C  5.91300 42.85700 27.56300
C  5.30500 42.76800 28.82600
C  4.02000 42.35900 28.73100
C  7.33000 43.18200 27.32500
C  5.65400 42.80000 30.20500
O  6.73600 42.99500 30.66700
C  4.37600 42.57300 31.02600
C  4.75100 41.39400 31.82100
O  4.89100 40.25900 31.37200
O  4.71400 41.75800 33.11600
C  4.86700 40.69500 34.10300
H  -1.68500 39.79700 29.06800
H  0.04300 40.54200 22.87600
H  5.78200 42.53400 24.83300
H  1.69800 41.19200 32.19900
H  -1.03400 41.29200 31.17200
H  0.56100 39.35300 32.46200
H  -0.18000 38.62600 30.91700
H  -1.13400 39.19000 32.01500
H  -0.12600 43.28900 31.94500
H  1.39100 43.89500 31.26500
H  0.66200 44.24600 33.63900
H  2.37100 43.67900 33.46800
H  -3.34400 38.86300 27.89300
H  -3.13000 37.67400 26.83000
H  -4.15600 39.16500 26.52700
H  -3.57100 37.36100 24.51200
H  -3.70700 37.77600 22.74900
H  -4.43500 38.78600 23.90900
H  2.12100 42.04700 21.95600
H  4.82900 41.12500 22.64100
H  2.24100 39.17900 22.22300
H  3.67300 39.80900 21.35700
H  2.09400 40.17600 20.68600
H  3.84100 43.31700 21.40200
H  5.41300 43.36700 22.09500
H  3.05100 43.89400 23.74600
H  3.19400 45.10100 22.49000
H  4.57400 44.88200 23.53200
H  7.63600 42.84900 26.33300
H  7.82700 42.56800 28.07600
H  7.45000 44.24900 27.50800
H  4.11400 43.51900 31.50100
H  4.53000 39.76800 33.63900
H  4.40800 40.93800 35.06200
H  5.89400 40.66800 34.46700

