158

Mg 8.97300 3.08900 28.09100
C  10.04300 1.43300 30.98800
C  7.17700 5.24400 30.01200
C  7.23200 4.05900 25.27500
C  10.14900 0.36400 26.20200
N  8.54400 3.36200 30.24000
C  9.26300 2.59400 31.19400
C  8.90700 3.07000 32.57000
C  7.99400 4.31800 32.27600
C  7.82100 4.33500 30.76700
C  6.60100 4.15600 33.00300
C  10.17900 3.40800 33.32600
C  10.30400 2.99100 34.76400
H  10.80300 4.00100 35.85400
N  7.65900 4.60400 27.62700
C  7.11600 5.41600 28.55600
C  6.24600 6.40200 27.97100
C  6.33300 6.09400 26.59200
C  7.10700 4.86000 26.39800
C  5.55600 7.49600 28.70200
C  5.57900 6.84500 25.44900
O  5.79000 6.59200 24.29800
C  4.73100 7.95700 25.72000
N  8.93100 2.45400 25.93500
C  8.07700 2.93500 25.04900
C  8.16500 2.12700 23.69500
C  9.41400 1.20900 24.04000
C  9.44100 1.32400 25.48400
C  6.87500 1.43500 23.34700
C  10.74700 1.60200 23.33500
C  11.68400 0.45100 22.87200
N  10.01200 1.35500 28.47500
C  10.45400 0.37600 27.58800
C  11.28500 -0.58300 28.31000
C  11.16600 -0.24000 29.65100
C  10.36400 0.89000 29.67700
C  12.03400 -1.67200 27.68700
C  11.51500 -0.58000 31.04200
O  12.16000 -1.50600 31.49900
C  10.78600 0.49700 31.92100
C  9.88400 -0.10200 32.95500
O  8.73000 -0.37700 32.64400
O  10.59800 -0.36100 34.07600
C  9.72600 -0.91800 35.15700
H  6.61100 5.93900 30.63600
H  6.53300 4.41000 24.51400
H  10.50200 -0.48800 25.61700
H  8.36600 2.24100 33.02500
H  8.37600 5.28800 32.59300
H  6.35800 5.09000 33.51100
H  6.47800 3.31500 33.68600
H  5.82500 4.09800 32.24000
H  10.45100 4.46300 33.35100
H  11.06500 2.95500 32.88100
H  10.99100 2.16000 34.92500
H  9.31500 2.64700 35.06400
H  5.86200 7.60600 29.74200
H  4.49300 7.25800 28.65600
H  5.52800 8.41600 28.11900
H  4.11200 7.79000 26.60200
H  4.14000 8.09000 24.81300
H  5.40200 8.76200 26.01700
H  8.27900 2.86800 22.90400
H  9.13700 0.19700 23.74500
H  7.10200 0.37900 23.19800
H  6.36400 1.61800 22.40200
H  6.16300 1.47700 24.17100
H  11.33100 2.18200 24.05000
H  10.51700 2.34600 22.57300
H  12.61600 0.48800 23.43700
H  11.99000 0.46600 21.82600
H  11.24200 -0.53600 23.01100
H  11.41000 -2.54200 27.48500
H  12.88800 -1.95100 28.30500
H  12.46900 -1.34900 26.74100
H  11.50400 0.95300 32.60200
H  9.13200 -1.74700 34.77100
H  9.03000 -0.21800 35.62000
H  10.39300 -1.37700 35.88700
Mg 43.41500 3.34200 47.15500
C  41.47800 6.27000 47.12300
C  40.68600 1.45100 47.06300
C  45.46800 0.71400 46.84100
C  46.28200 5.52200 46.39500
N  41.31500 3.90200 47.07200
C  40.70300 5.08800 47.14900
C  39.18700 4.91000 46.99500
C  39.05300 3.37700 47.19700
C  40.44100 2.82000 47.04300
C  38.27400 2.87000 48.49200
C  38.52100 5.39900 45.68500
C  38.99100 4.75400 44.30300
H  39.67700 5.62200 43.24200
N  43.10600 1.27400 47.15800
C  41.85500 0.68900 47.20800
C  42.00600 -0.78700 47.11000
C  43.43200 -1.01900 47.08200
C  44.09200 0.33600 47.03300
C  40.83500 -1.76800 47.23000
C  44.16200 -2.37600 47.07700
O  43.46800 -3.36200 47.10400
C  45.65700 -2.61700 47.05400
N  45.52700 3.20000 46.72600
C  46.14600 1.97800 46.76900
C  47.70900 2.03600 46.74200
C  47.90200 3.56100 46.44600
C  46.45600 4.14900 46.42400
C  48.39700 1.46800 48.00500
C  48.79800 3.86700 45.16900
C  49.90800 4.86200 45.45300
N  43.90800 5.47100 46.76000
C  45.02600 6.18700 46.53300
C  44.75300 7.58900 46.56400
C  43.35900 7.66000 46.75800
C  42.87900 6.32800 46.85200
C  45.64200 8.71700 46.55200
C  42.26000 8.60700 46.86000
O  42.19400 9.82300 46.85000
C  40.92100 7.66700 47.00400
C  40.05600 8.04200 48.16100
O  40.27100 7.77600 49.29100
O  39.10600 8.98300 47.71700
C  38.28900 9.58400 48.81000
H  39.80000 0.82400 46.94500
H  46.08400 -0.18200 46.73900
H  47.11900 6.15900 46.10200
H  38.77600 5.51500 47.80300
H  38.50300 2.96200 46.35200
H  37.94500 3.73700 49.06500
H  38.89200 2.14800 49.02600
H  37.38100 2.34000 48.16100
H  38.61800 6.47800 45.57400
H  37.47500 5.09200 45.72600
H  38.16700 4.31300 43.74200
H  39.66500 3.90400 44.40800
H  39.90900 -1.25600 47.48900
H  40.97200 -2.50100 48.02500
H  40.89500 -2.31200 46.28700
H  46.08300 -2.33200 46.09200
H  45.78700 -3.68500 46.87500
H  46.19800 -2.29100 47.94300
H  48.16700 1.48200 45.92200
H  48.35700 4.01500 47.32700
H  47.59500 1.46200 48.74400
H  49.21700 2.13500 48.27300
H  48.70700 0.44400 47.79800
H  48.19900 4.20900 44.32500
H  49.21300 2.90600 44.86600
H  50.85000 4.41400 45.13600
H  50.09400 5.24900 46.45500
H  49.70900 5.79500 44.92500
H  45.41800 9.36200 45.70300
H  46.66000 8.32700 46.56600
H  45.43000 9.34000 47.42100
H  40.51100 7.94600 46.03300
H  38.72800 10.49100 49.22500
H  38.04500 8.91100 49.63200
H  37.32400 9.71100 48.31900

