158

Mg 29.50600 58.50100 39.12700
C  26.86200 56.43500 38.33600
C  31.67600 56.00100 38.24400
C  32.11300 60.80900 39.14700
C  27.22200 61.10900 39.70600
N  29.24700 56.54000 38.12800
C  28.08300 55.90700 38.00200
C  28.30300 54.48300 37.46300
C  29.82600 54.29600 37.78700
C  30.29600 55.68900 38.09500
C  30.22200 53.18400 38.89800
C  27.93300 54.12900 36.00300
C  28.54400 55.08400 34.93900
H  27.69900 55.66700 33.87000
N  31.54300 58.44100 38.75400
C  32.29700 57.26900 38.51000
C  33.73200 57.55300 38.41200
C  33.85700 58.97800 38.63300
C  32.44600 59.47700 38.88500
C  34.74900 56.39900 38.21000
C  35.18300 59.66500 38.67000
O  36.25900 59.06500 38.43700
C  35.25700 61.19700 39.00400
N  29.61500 60.68800 39.31000
C  30.81500 61.39500 39.34300
C  30.54300 62.89600 39.50600
C  29.00000 62.97200 39.73000
C  28.57000 61.52700 39.55500
C  31.42400 63.59600 40.63600
C  28.25900 64.14300 38.93400
C  26.96100 64.65300 39.52700
N  27.50000 58.66900 39.31600
C  26.68200 59.79300 39.52300
C  25.33600 59.47700 39.36500
C  25.39100 58.14900 38.97500
C  26.68500 57.68200 38.93500
C  24.15300 60.32700 39.70200
C  24.57000 57.04600 38.53100
O  23.33300 56.99000 38.40500
C  25.47900 55.83800 38.03800
C  25.16900 54.60900 38.87400
O  25.82100 54.29400 39.85000
O  24.13200 53.93400 38.36000
C  23.60600 52.86000 39.23100
H  32.31300 55.13400 38.05500
H  32.86000 61.58500 38.96900
H  26.57000 61.94000 39.98300
H  27.73900 53.77400 38.06900
H  30.31200 54.09800 36.83100
H  29.36100 52.81000 39.45200
H  30.99900 53.65300 39.50100
H  30.55900 52.21700 38.52500
H  26.85200 54.23300 35.91300
H  28.19600 53.10800 35.72600
H  29.31800 54.43500 34.53000
H  29.07900 55.94300 35.34400
H  34.25500 55.47000 37.92400
H  35.30400 56.15500 39.11600
H  35.51100 56.68500 37.48500
H  36.30300 61.49800 39.06000
H  34.71500 61.44600 39.91700
H  34.77000 61.57800 38.10600
H  30.86100 63.40900 38.59900
H  28.89700 63.21800 40.78700
H  30.84400 64.09000 41.41600
H  32.09400 64.39600 40.32100
H  32.07900 62.95600 41.22600
H  27.80500 63.83600 37.99100
H  29.03700 64.77200 38.50100
H  27.15800 65.72400 39.57200
H  26.67600 64.24000 40.49500
H  26.06700 64.57900 38.90800
H  24.31400 60.87900 40.62800
H  23.27400 59.69600 39.83700
H  24.01200 61.07500 38.92100
H  25.30700 55.66700 36.97600
H  24.45800 52.28100 39.58800
H  23.01700 52.17100 38.62600
H  23.01600 53.17600 40.09100
Mg 1.39600 42.11900 25.72100
C  2.92900 42.38900 28.91800
C  -1.30800 40.64700 27.24000
C  0.10800 41.88200 22.80300
C  4.48000 43.23800 24.41300
N  0.86900 41.46700 27.93300
C  1.55800 41.96100 28.99200
C  0.69800 41.67600 30.27400
C  -0.59100 40.99000 29.77700
C  -0.35100 40.99800 28.24800
C  -0.98600 39.70600 30.51100
C  0.51000 42.97000 31.07800
C  0.82300 42.88800 32.60400
H  0.69100 41.53800 33.29100
N  -0.18200 41.15400 25.08200
C  -1.20300 40.66800 25.81400
C  -2.29700 40.26000 24.97000
C  -1.98700 40.76600 23.68200
C  -0.64000 41.29700 23.79900
C  -3.57200 39.59500 25.39600
C  -2.89600 40.83000 22.44900
O  -2.47600 41.32100 21.38100
C  -4.29000 40.49300 22.45000
N  2.25500 42.48000 23.92200
C  1.47600 42.28200 22.78500
C  2.13900 42.84300 21.54500
C  3.43100 43.47700 22.09400
C  3.40200 43.08300 23.54300
C  2.35000 41.87000 20.36400
C  3.48400 45.06500 22.02900
C  4.15600 45.54500 20.76100
N  3.31100 42.70900 26.45800
C  4.45100 43.11100 25.80300
C  5.48800 43.32800 26.76300
C  4.96000 43.00400 27.94200
C  3.63500 42.62700 27.74500
C  7.02400 43.78400 26.55500
C  5.30300 43.01600 29.32600
O  6.28000 43.32500 29.92300
C  3.92900 42.63600 30.13600
C  4.29800 41.41900 30.93000
O  4.37800 40.31600 30.44900
O  4.33500 41.73700 32.24900
C  4.44000 40.60100 33.17400
H  -2.20300 40.31200 27.76700
H  -0.31200 42.04800 21.80900
H  5.41400 43.62800 24.00300
H  1.33000 40.95000 30.78600
H  -1.44900 41.64100 29.94600
H  -1.04600 38.89300 29.78700
H  -1.96600 39.76900 30.98300
H  -0.29600 39.53500 31.33800
H  -0.54400 43.24800 31.06700
H  1.17900 43.74700 30.70800
H  0.01600 43.56100 32.89500
H  1.74500 43.40800 32.86400
H  -4.40900 40.29200 25.35400
H  -3.40700 39.20300 26.40000
H  -3.70200 38.73800 24.73500
H  -4.52100 39.52700 22.90000
H  -4.62800 40.44100 21.41500
H  -4.90300 41.18100 23.03200
H  1.50700 43.67900 21.24600
H  4.33600 43.14600 21.58500
H  1.37700 41.75000 19.88800
H  2.62700 40.87200 20.70400
H  2.96100 42.24700 19.54400
H  3.85300 45.38100 23.00500
H  2.42700 45.33100 22.00400
H  4.42000 44.68400 20.14800
H  5.08500 46.09800 20.90300
H  3.44600 46.20100 20.25700
H  7.58100 42.90000 26.86600
H  7.22700 44.49500 27.35600
H  7.27200 44.14100 25.55500
H  3.64100 43.40200 30.85600
H  5.49800 40.40700 33.34900
H  4.06600 39.70100 32.68600
H  3.85400 40.76000 34.07900

