158

Mg 25.73600 0.11700 28.43600
C  27.45800 -0.32300 31.56600
C  22.74400 0.23500 30.25700
C  24.14500 0.21700 25.55500
C  28.58500 -0.92500 26.81900
N  25.15400 -0.08900 30.67400
C  26.08800 -0.12000 31.75900
C  25.31300 0.15800 33.05100
C  23.78900 0.29000 32.64600
C  23.85000 0.16900 31.10900
C  22.65900 -0.66500 33.35400
C  25.80800 1.41000 33.91100
C  26.37600 1.05000 35.29000
H  25.70300 1.77400 36.49500
N  23.75600 0.25100 28.00000
C  22.68300 0.33700 28.82700
C  21.52900 0.46800 28.05100
C  21.88400 0.52200 26.71300
C  23.28700 0.31500 26.71500
C  20.13600 0.58400 28.67900
C  20.99300 0.70700 25.56900
O  21.27100 0.38300 24.43600
C  19.54000 1.01400 25.78000
N  26.32500 -0.39500 26.45200
C  25.47900 -0.06100 25.44200
C  26.16400 -0.09500 24.03600
C  27.66000 -0.28400 24.50100
C  27.55400 -0.53600 25.99500
C  25.63300 -1.24300 23.16500
C  28.73100 0.79000 24.13800
C  29.44800 0.83300 22.72500
N  27.55000 -0.52100 29.02700
C  28.67700 -0.82800 28.24200
C  29.83100 -1.02100 29.01800
C  29.36800 -0.87500 30.34600
C  28.01700 -0.58400 30.30800
C  31.27200 -1.11900 28.57800
C  29.79900 -0.87600 31.71400
O  30.93600 -1.08000 32.08400
C  28.61400 -0.43000 32.58000
C  28.46700 -1.37000 33.67300
O  27.93800 -2.45700 33.68800
O  28.83900 -0.76100 34.79400
C  28.73900 -1.54600 36.01000
H  21.81200 0.32400 30.81800
H  23.65700 0.47000 24.61200
H  29.44800 -1.19400 26.20600
H  25.31900 -0.76000 33.63900
H  23.40100 1.25900 32.96100
H  23.14200 -1.42000 33.97400
H  22.30400 -1.30000 32.54300
H  21.82000 -0.16700 33.84000
H  24.92600 2.03600 34.05300
H  26.52200 2.00100 33.33800
H  27.45700 1.15100 35.38900
H  26.23000 0.00100 35.54700
H  19.61300 1.54100 28.69400
H  20.14400 0.19800 29.69800
H  19.57000 -0.12500 28.07500
H  19.06700 0.12900 26.20500
H  19.03200 1.26400 24.84800
H  19.58200 1.82500 26.50800
H  25.94700 0.84000 23.51900
H  28.07600 -1.18400 24.04800
H  24.89300 -1.72500 23.80400
H  26.36400 -2.04000 23.02400
H  25.13700 -0.99600 22.22600
H  29.44800 0.98100 24.93600
H  28.14400 1.70400 24.05400
H  30.47100 1.16300 22.91000
H  28.91500 1.50200 22.05000
H  29.38300 -0.13900 22.23600
H  31.26700 -0.78300 27.54100
H  31.66100 -2.13700 28.58500
H  31.90000 -0.47200 29.19200
H  28.74600 0.57600 32.97700
H  29.24500 -2.50600 35.91000
H  27.74800 -1.86200 36.33600
H  29.19900 -0.98500 36.82300
Mg 48.74500 44.97800 42.68500
C  45.22200 44.64700 42.60800
C  48.89000 41.50700 42.18400
C  52.04700 45.29900 42.39800
C  48.27200 48.42900 42.64600
N  47.06200 43.28900 42.31200
C  45.76800 43.39600 42.51500
C  45.13200 42.00400 42.46100
C  46.32000 40.98300 42.43000
C  47.50700 41.98300 42.24500
C  46.43900 40.08700 43.67200
C  44.22300 41.75200 41.19800
C  44.83300 42.09600 39.74000
H  44.88400 40.96900 38.72500
N  50.33000 43.58000 42.21500
C  50.14200 42.25000 42.07600
C  51.52100 41.69500 41.89500
C  52.41700 42.82500 41.85900
C  51.60700 43.98400 42.18000
C  51.76400 40.28000 41.61400
C  53.96900 42.82200 41.63000
O  54.56400 41.76400 41.34600
C  54.86500 44.04300 41.63300
N  49.98700 46.62800 42.29900
C  51.30900 46.44100 42.55300
C  52.01200 47.69800 43.01500
C  50.86200 48.71900 42.82700
C  49.60800 47.91300 42.58200
C  52.72200 47.56200 44.45900
C  51.01800 49.76000 41.59000
C  50.47800 51.10100 41.89200
N  47.15200 46.24600 42.69100
C  47.07200 47.64400 42.63400
C  45.70800 48.11200 42.71600
C  44.94500 46.94000 42.69100
C  45.86700 45.86500 42.65700
C  45.21600 49.55000 42.75600
C  43.66000 46.47900 42.68700
O  42.66900 47.14900 42.77600
C  43.73100 44.99900 42.62000
C  42.97700 44.24100 43.61300
O  41.96600 43.55700 43.38000
O  43.55800 44.43300 44.84600
C  42.90000 43.69400 46.02200
H  48.96900 40.41900 42.24200
H  53.10000 45.44100 42.65100
H  48.20700 49.47100 42.96800
H  44.50300 41.94100 43.35000
H  46.19500 40.31000 41.58200
H  46.09000 39.06400 43.53200
H  46.01600 40.50400 44.58600
H  47.52000 40.11200 43.80100
H  43.28500 42.30100 41.28000
H  43.83300 40.74800 41.36900
H  45.79100 42.55400 39.98800
H  44.23700 42.84500 39.21900
H  52.82900 40.04600 41.61200
H  51.30900 40.06900 40.64700
H  51.25500 39.63600 42.33200
H  54.53100 44.90500 41.05600
H  55.90200 43.76300 41.44800
H  54.87600 44.21600 42.70900
H  52.67800 48.00400 42.20900
H  50.78000 49.18700 43.80800
H  53.74400 47.93900 44.48800
H  52.69500 46.56200 44.89000
H  52.20300 48.16200 45.20700
H  50.66900 49.34800 40.64300
H  52.07000 50.02200 41.47500
H  51.20400 51.90800 41.99400
H  49.96900 50.93900 42.84300
H  49.80100 51.43800 41.10700
H  45.71200 50.06200 43.58100
H  44.13500 49.66300 42.84300
H  45.57300 49.98300 41.82200
H  43.22300 44.65200 41.72000
H  41.92400 43.30100 45.73600
H  42.74600 44.37500 46.85900
H  43.49900 42.83900 46.33600

