158

Mg 1.97200 -1.13500 44.85400
C  5.45700 -0.45500 44.05800
C  1.22300 1.48600 42.63200
C  -1.21400 -1.95500 45.15600
C  3.08200 -4.03100 46.41800
N  3.24600 0.37700 43.55000
C  4.60600 0.39500 43.34900
C  5.00500 1.73700 42.54700
C  3.60700 2.28600 42.07900
C  2.57900 1.26000 42.74100
C  3.23800 3.70600 42.55500
C  5.86600 1.45200 41.28100
C  6.94400 2.50400 40.98300
H  6.47700 3.62800 40.12200
N  0.14700 -0.26800 44.09700
C  0.07300 0.81900 43.25200
C  -1.29100 1.09400 43.08900
C  -2.10100 0.18400 43.82200
C  -1.10000 -0.72100 44.44800
C  -1.79400 2.30400 42.27500
C  -3.60200 0.21700 44.01100
O  -4.33700 1.02500 43.39400
C  -4.26500 -0.63100 45.04600
N  1.01800 -2.81300 45.45900
C  -0.27500 -2.87900 45.59400
C  -0.66500 -4.22600 46.25200
C  0.68800 -4.82200 46.71500
C  1.68500 -3.80400 46.19400
C  -1.77400 -4.07600 47.40100
C  0.86600 -6.28700 46.29000
C  1.12700 -7.34400 47.37200
N  3.80600 -2.07300 45.23900
C  4.07900 -3.22200 45.96200
C  5.53300 -3.41400 46.04100
C  6.07100 -2.34300 45.35300
C  4.99700 -1.58200 44.79300
C  6.30000 -4.44200 46.81100
C  7.40300 -1.82700 44.88500
O  8.57200 -2.15900 45.07400
C  6.96900 -0.55200 44.05400
C  7.54300 0.60800 44.90100
O  7.12600 0.94500 45.97300
O  8.58500 1.27500 44.23300
C  9.18800 2.49300 44.87200
H  1.02600 2.38500 42.04400
H  -2.26400 -2.22900 45.27800
H  3.45800 -4.89300 46.97400
H  5.60000 2.37800 43.19700
H  3.50800 2.28800 40.99300
H  4.04600 4.23600 43.05900
H  2.32000 3.71100 43.14200
H  3.05500 4.39400 41.73000
H  5.26400 1.26400 40.39200
H  6.31800 0.46700 41.40100
H  7.61900 1.88500 40.39200
H  7.39300 2.85100 41.91300
H  -1.37100 1.99900 41.31700
H  -1.32300 3.22000 42.63000
H  -2.86400 2.50600 42.23200
H  -5.29300 -0.29000 45.17000
H  -3.68800 -0.56400 45.96800
H  -4.34300 -1.65300 44.67700
H  -0.99700 -4.87900 45.44500
H  0.80500 -4.87800 47.79800
H  -2.03600 -3.02000 47.46200
H  -1.53100 -4.53500 48.36000
H  -2.62500 -4.69100 47.11000
H  1.67800 -6.28400 45.56200
H  -0.04000 -6.70200 45.84800
H  0.18900 -7.82500 47.65000
H  1.76000 -6.96600 48.17400
H  1.83500 -8.08300 46.99600
H  6.09600 -5.42100 46.37700
H  6.02500 -4.42300 47.86600
H  7.37500 -4.36400 46.64700
H  7.42800 -0.64000 43.06900
H  9.02600 3.36400 44.23600
H  10.25200 2.26400 44.92900
H  8.83300 2.61300 45.89500
Mg 50.26400 45.76800 41.13400
C  47.34000 47.41200 39.87900
C  48.89300 42.79500 40.35400
C  53.41700 44.36900 41.21200
C  51.66500 48.85200 41.78800
N  48.45000 45.24700 40.03800
C  47.29500 45.99600 39.77300
C  46.17200 45.15800 39.15300
C  46.55100 43.72400 39.66800
C  48.09600 43.89900 40.02900
C  45.76300 43.40400 40.92200
C  46.16600 45.24400 37.59400
C  44.75600 45.24400 37.05700
H  44.53300 44.28200 35.89000
N  51.05300 43.80000 40.77800
C  50.26500 42.70600 40.60400
C  51.05300 41.54600 40.55600
C  52.41100 41.94600 40.74000
C  52.35500 43.41600 40.91700
C  50.38500 40.15500 40.54100
C  53.57600 40.96800 40.85900
O  53.41400 39.75800 40.68300
C  54.89900 41.55600 41.28100
N  52.32400 46.51600 41.31700
C  53.40100 45.76100 41.36200
C  54.70800 46.59300 41.74200
C  54.07100 47.97200 41.86900
C  52.58900 47.77500 41.76500
C  55.45500 46.18100 42.97700
C  54.65400 48.99700 40.91700
C  55.64800 49.98300 41.39900
N  49.69600 47.73100 40.96300
C  50.31000 48.88500 41.26800
C  49.50400 50.07400 41.00300
C  48.36800 49.53400 40.37900
C  48.51200 48.06200 40.43700
C  49.88500 51.51700 41.40800
C  47.12900 49.92700 39.75500
O  46.66800 51.05100 39.49100
C  46.39800 48.49400 39.38200
C  45.16800 48.39400 40.16700
O  45.04500 48.30000 41.37900
O  44.11100 48.19700 39.23600
C  42.76000 47.88200 39.72200
H  48.38600 41.82800 40.38500
H  54.43300 43.97400 41.14500
H  52.21900 49.72700 42.13300
H  45.20000 45.48600 39.52200
H  46.24200 42.98500 38.92900
H  46.40500 43.24800 41.78900
H  45.19300 42.49300 40.73900
H  45.05700 44.18800 41.19400
H  46.66200 44.39400 37.12600
H  46.73000 46.03500 37.09900
H  44.60500 46.21000 36.57500
H  43.94800 45.12300 37.77900
H  50.48500 39.76400 39.52900
H  49.32900 40.23800 40.79900
H  50.92200 39.57300 41.29000
H  54.60700 42.04300 42.21200
H  55.35000 42.23200 40.55500
H  55.60200 40.77600 41.57500
H  55.43900 46.59600 40.93400
H  54.35900 48.33800 42.85500
H  54.80000 46.28700 43.84200
H  56.31100 46.83500 43.14200
H  55.87100 45.18900 42.80200
H  53.88700 49.56300 40.38800
H  55.08400 48.50100 40.04600
H  56.56300 50.10500 40.82000
H  55.88900 49.85000 42.45400
H  55.15000 50.95300 41.38300
H  49.11400 51.67900 42.16100
H  49.87300 52.23300 40.58600
H  50.88600 51.54300 41.83900
H  46.12500 48.47000 38.32700
H  42.64000 46.84400 40.03200
H  41.92100 47.84000 39.02800
H  42.52000 48.55400 40.54600

