158

Mg 25.20900 0.97400 28.85800
C  27.16000 0.70700 31.70600
C  22.41400 0.80500 31.15700
C  23.12200 1.15100 26.32200
C  27.92200 0.40200 26.86400
N  24.84500 0.61300 31.16200
C  25.85700 0.75100 32.11600
C  25.37300 0.76300 33.58100
C  23.78700 0.82800 33.35100
C  23.64700 0.68700 31.79400
C  22.89000 -0.17600 34.15700
C  25.83900 1.96600 34.42200
C  24.99300 2.44500 35.58400
H  25.61100 3.00900 36.86500
N  23.12000 0.94200 28.68300
C  22.19500 0.90100 29.71000
C  20.78300 1.04100 29.14000
C  20.94800 1.14300 27.72200
C  22.42400 1.09600 27.51400
C  19.53100 0.74700 29.88200
C  19.89500 1.14500 26.55400
O  20.20300 1.23100 25.37800
C  18.33600 0.99200 26.87600
N  25.43300 0.81300 26.88900
C  24.49700 1.01700 25.97500
C  25.05200 1.22200 24.60800
C  26.61900 1.19200 24.83700
C  26.68200 0.69100 26.25100
C  24.52200 0.21400 23.57300
C  27.37500 2.58100 24.67500
C  26.91900 3.70900 25.57000
N  27.19900 0.61000 29.13300
C  28.26000 0.40500 28.24000
C  29.50500 0.19600 28.97000
C  29.14300 0.35800 30.32200
C  27.70500 0.57100 30.36300
C  30.84400 0.06800 28.27500
C  29.64100 0.41000 31.68900
O  30.72000 0.25700 32.14200
C  28.36300 0.53200 32.56900
C  28.28600 -0.69400 33.39100
O  27.89500 -1.79100 33.09300
O  28.59500 -0.34800 34.68100
C  28.26400 -1.23000 35.84400
H  21.55300 0.81600 31.82900
H  22.57300 1.23400 25.38100
H  28.72000 0.16600 26.15700
H  25.73300 -0.14100 34.07400
H  23.41100 1.81300 33.62600
H  22.29100 -0.88200 33.58200
H  22.28100 0.40100 34.85200
H  23.56300 -0.86800 34.66300
H  25.90200 2.78900 33.71000
H  26.85800 1.91200 34.80500
H  24.28100 1.65400 35.82200
H  24.46400 3.36400 35.33400
H  18.73200 1.43900 29.61500
H  19.59200 0.77900 30.97000
H  19.16300 -0.20200 29.49300
H  17.74500 1.07300 25.96400
H  17.98600 1.65200 27.67000
H  18.29000 -0.00700 27.31000
H  24.73600 2.25700 24.47700
H  27.05900 0.37500 24.26400
H  23.99900 -0.69200 23.87900
H  25.35400 -0.00300 22.90400
H  23.75000 0.75500 23.02400
H  27.06700 3.04100 23.73600
H  28.43600 2.33600 24.63900
H  27.46500 3.52500 26.49500
H  25.83800 3.64900 25.69600
H  27.16800 4.68700 25.15800
H  30.88000 0.45700 27.25700
H  31.02400 -1.00700 28.30300
H  31.68200 0.39500 28.89100
H  28.42600 1.43800 33.17200
H  27.55700 -0.63100 36.41800
H  29.19600 -1.40400 36.38300
H  27.65400 -2.09500 35.58500
Mg 45.80800 17.51700 28.16400
C  44.09800 16.75400 31.18700
C  47.92900 19.47000 30.08100
C  47.39600 18.23500 25.52700
C  43.34800 15.77400 26.40900
N  46.01000 17.98800 30.36100
C  45.29800 17.44600 31.36000
C  45.86400 17.83100 32.75300
C  46.78500 18.99600 32.37700
C  46.94200 18.82700 30.83400
C  46.22300 20.40500 32.85300
C  46.49200 16.59100 33.37300
C  46.22300 16.36600 34.85900
H  45.89300 17.67800 35.67500
N  47.47800 18.73600 27.81700
C  48.26800 19.36700 28.71600
C  49.40500 19.93100 27.99000
C  49.23400 19.66600 26.59700
C  48.05900 18.82100 26.64800
C  50.52900 20.50700 28.81000
C  50.02100 20.02600 25.32300
O  49.72900 19.79300 24.14200
C  51.29800 20.83600 25.47500
N  45.18700 17.34700 26.22000
C  46.11100 17.65200 25.32800
C  45.66500 17.22900 23.88600
C  44.59900 16.09500 24.20400
C  44.20800 16.51900 25.68400
C  45.26200 18.32700 22.86600
C  45.17900 14.61900 24.12800
C  44.62600 13.82400 22.94600
N  44.06900 16.47600 28.61300
C  43.19500 15.75700 27.83100
C  42.05300 15.25400 28.62300
C  42.46800 15.59500 29.94500
C  43.62100 16.34500 29.89800
C  40.79800 14.59500 28.17300
C  42.06700 15.43100 31.42300
O  41.22600 14.74100 31.95600
C  43.19000 16.21100 32.22700
C  42.57000 17.28200 32.94600
O  42.13400 18.26900 32.38100
O  42.61400 17.05600 34.37200
C  41.85000 18.04100 35.11200
H  48.55800 20.12200 30.69000
H  47.88600 18.33800 24.55700
H  42.75300 15.03400 25.86900
H  45.04200 18.20000 33.36700
H  47.71300 18.82700 32.92300
H  46.38100 20.51300 33.92600
H  45.14800 20.43500 32.67600
H  46.66400 21.24400 32.31400
H  47.55900 16.53000 33.15700
H  46.28700 15.67200 32.82300
H  47.15700 16.00000 35.28500
H  45.46100 15.58700 34.88500
H  51.38000 20.70200 28.15600
H  50.71900 19.84700 29.65600
H  50.10800 21.44800 29.16500
H  52.13200 20.20800 25.78800
H  51.16700 21.75200 26.05100
H  51.65200 21.17400 24.50100
H  46.46600 16.64500 23.43200
H  43.65900 16.19700 23.66200
H  44.23300 18.31600 22.50500
H  45.97500 18.26500 22.04500
H  45.30900 19.30700 23.34200
H  44.93500 14.09400 25.05200
H  46.26700 14.55700 24.14800
H  44.12100 14.44300 22.20500
H  44.06900 12.94900 23.28200
H  45.43900 13.29900 22.44400
H  40.91600 14.31800 27.12500
H  39.99100 15.28000 28.43500
H  40.73000 13.68000 28.76100
H  43.59500 15.48000 32.92700
H  42.02300 19.06100 34.77000
H  42.23600 18.05300 36.13100
H  40.78500 17.81000 35.13300

