158

Mg 46.49100 34.85200 27.53700
C  44.65700 33.01300 30.03500
C  46.74700 37.30300 29.91000
C  47.51000 36.69200 25.18000
C  45.46100 32.26300 25.29500
N  45.71400 35.19600 29.67500
C  45.15100 34.23300 30.51300
C  45.25900 34.63600 32.04000
C  45.47300 36.13900 31.84900
C  46.15800 36.21100 30.45000
C  44.20400 37.02700 31.92100
C  46.50000 33.89300 32.64000
C  46.72600 34.02900 34.19300
H  45.79900 34.99700 34.92100
N  47.13400 36.68400 27.57300
C  47.23200 37.56700 28.61200
C  47.70300 38.86600 28.15900
C  48.00400 38.74400 26.75600
C  47.45300 37.37300 26.40900
C  47.98700 40.10200 29.04900
C  48.62600 39.71400 25.80800
O  48.83200 39.41100 24.58900
C  49.00600 41.12500 26.28600
N  46.52900 34.44600 25.54500
C  47.04900 35.44900 24.75300
C  46.97000 35.04800 23.26300
C  46.21100 33.67300 23.24800
C  45.96900 33.45100 24.76000
C  46.30800 36.14800 22.33000
C  46.76300 32.50000 22.41300
C  45.88000 32.11000 21.21000
N  45.42000 32.98500 27.64800
C  45.23900 32.04200 26.66300
C  44.64200 30.93900 27.21900
C  44.39000 31.23100 28.54200
C  44.85000 32.51200 28.70900
C  44.30300 29.67800 26.45200
C  43.80500 30.65500 29.74300
O  43.30400 29.52500 29.93300
C  43.78700 31.83600 30.69300
C  44.00000 31.42000 32.12100
O  45.04600 30.87100 32.45900
O  43.01300 31.86300 32.94000
C  43.24100 31.71200 34.34300
H  46.93200 38.13700 30.59000
H  47.84700 37.23900 24.29700
H  45.25700 31.47000 24.57300
H  44.35200 34.37700 32.58600
H  46.18300 36.40300 32.63300
H  43.31200 36.46800 31.63900
H  44.33000 37.86800 31.23900
H  44.06600 37.60900 32.83200
H  47.42600 34.23700 32.17900
H  46.42400 32.82000 32.46300
H  47.74100 34.34100 34.43800
H  46.70800 33.00800 34.57600
H  47.53800 40.00300 30.03700
H  47.63600 41.03200 28.60200
H  49.01500 40.18600 29.39900
H  49.70800 41.02800 27.11400
H  48.09300 41.61600 26.62300
H  49.45800 41.67700 25.46200
H  47.96300 34.93900 22.82700
H  45.23300 33.86300 22.80600
H  46.08100 36.93600 23.04800
H  45.40000 35.86600 21.79700
H  47.07200 36.54500 21.66200
H  46.94100 31.61900 23.02900
H  47.73100 32.78000 21.99700
H  46.41800 32.61400 20.40800
H  44.85500 32.43100 21.39700
H  45.85800 31.03100 21.05100
H  45.26900 29.17300 26.44100
H  43.90800 29.84900 25.45000
H  43.60000 29.03000 26.97600
H  42.73900 32.10000 30.83300
H  43.97300 30.97400 34.66900
H  42.30300 31.39700 34.80000
H  43.42500 32.69400 34.77900
Mg -4.39800 24.64200 26.83200
C  -3.06000 26.63200 29.16500
C  -5.77300 22.61200 29.27900
C  -5.77400 22.60100 24.35200
C  -2.73300 26.36000 24.23900
N  -4.20800 24.53000 28.96600
C  -3.77300 25.59500 29.72300
C  -4.15500 25.34600 31.22600
C  -4.52800 23.85200 31.21600
C  -4.90900 23.62100 29.69500
C  -3.36600 22.93600 31.57600
C  -5.37400 26.24600 31.63500
C  -5.34900 26.77000 33.12500
H  -6.39400 26.28300 33.99900
N  -5.71000 22.91500 26.83600
C  -6.15800 22.28900 27.93300
C  -6.95500 21.15800 27.59400
C  -7.03200 21.12100 26.17400
C  -6.13900 22.25000 25.68300
C  -7.53900 20.13700 28.54600
C  -7.80800 20.14500 25.29400
O  -7.65100 20.14100 24.10800
C  -8.75000 19.11700 25.92700
N  -4.27900 24.50800 24.56700
C  -5.04000 23.65800 23.82600
C  -4.76100 23.81400 22.31400
C  -3.75400 25.01400 22.29500
C  -3.56200 25.34100 23.79400
C  -4.18000 22.49600 21.57200
C  -4.07300 26.21700 21.41100
C  -5.35000 26.95200 21.84100
N  -3.13900 26.24300 26.66400
C  -2.45200 26.80400 25.54700
C  -1.70300 27.89700 26.04200
C  -1.94700 27.95300 27.45100
C  -2.78200 26.86600 27.74800
C  -0.95400 28.82500 25.11900
C  -1.80500 28.63700 28.71800
O  -1.31600 29.71400 28.98000
C  -2.50000 27.81800 29.86200
C  -1.54100 27.39000 30.86700
O  -0.83100 26.39400 30.79800
O  -1.58000 28.29200 31.93800
C  -0.84000 27.79600 33.15200
H  -6.12200 21.96700 30.08800
H  -6.20200 21.92100 23.61400
H  -2.20700 26.97300 23.50300
H  -3.25600 25.59500 31.79000
H  -5.38800 23.81100 31.88300
H  -3.46300 21.97500 31.07000
H  -3.25400 22.77800 32.64800
H  -2.49500 23.49700 31.23700
H  -6.30300 25.77000 31.32100
H  -5.31800 27.19100 31.09500
H  -5.26800 27.85600 33.16800
H  -4.39300 26.54100 33.59500
H  -8.61400 20.27400 28.42900
H  -7.19100 20.25900 29.57200
H  -7.28700 19.10100 28.32100
H  -9.22900 18.57700 25.11000
H  -9.47300 19.66200 26.53200
H  -8.13300 18.42800 26.50400
H  -5.72400 24.09100 21.88400
H  -2.73700 24.70300 22.05700
H  -4.04100 21.74900 22.35300
H  -3.24600 22.75200 21.07100
H  -4.89700 22.13200 20.83600
H  -4.31700 25.70000 20.48300
H  -3.19900 26.82200 21.16900
H  -5.10800 27.78100 22.50600
H  -5.98100 26.36800 22.51000
H  -5.88800 27.24500 20.93900
H  -0.11400 28.36900 24.59500
H  -0.69600 29.68500 25.73700
H  -1.52500 29.09400 24.23100
H  -3.22500 28.45400 30.37100
H  -0.99400 26.72600 33.28900
H  -1.19500 28.40000 33.98700
H  0.24300 27.88100 33.06300

