158

Mg -9.45000 18.09100 42.04200
C  -5.98800 17.42200 42.25100
C  -8.73800 21.27300 41.37600
C  -12.74500 18.56200 41.67400
C  -9.94800 14.52000 41.97300
N  -7.55700 19.13000 41.59300
C  -6.33300 18.73500 42.02200
C  -5.34200 19.86500 41.70800
C  -6.27700 21.13600 41.61300
C  -7.65400 20.49500 41.56700
C  -6.04200 22.18300 42.78500
C  -4.43300 19.44600 40.49200
C  -4.99300 18.69700 39.25200
H  -4.79900 19.17600 37.79000
N  -10.60700 19.73200 41.70800
C  -10.09000 20.96000 41.42200
C  -11.16800 21.90400 41.50600
C  -12.41300 21.16900 41.52400
C  -11.98900 19.79500 41.63200
C  -10.96700 23.35500 41.24200
C  -13.85200 21.78300 41.48700
O  -13.91000 23.00000 41.41500
C  -15.13300 20.97000 41.85400
N  -11.04000 16.70300 41.80500
C  -12.35000 17.17300 41.70400
C  -13.37400 15.99800 41.88400
C  -12.45400 14.77100 41.63600
C  -11.03600 15.33700 41.85100
C  -14.30600 15.91900 43.12300
C  -12.61600 14.04400 40.22600
C  -12.61300 12.50200 40.18200
N  -8.29700 16.25200 42.15300
C  -8.61100 14.91900 42.15500
C  -7.40400 14.11700 42.41900
C  -6.38200 15.03600 42.57600
C  -6.94400 16.38100 42.36100
C  -7.14700 12.56000 42.45300
C  -4.94500 15.18400 42.84300
O  -4.10300 14.33100 43.10300
C  -4.64500 16.72900 42.57400
C  -4.01400 17.25400 43.75900
O  -2.82200 17.02100 44.07700
O  -4.80300 18.09800 44.53200
C  -4.12700 18.79000 45.63700
H  -8.36100 22.29400 41.28500
H  -13.81900 18.56300 41.47700
H  -10.12600 13.44500 41.90200
H  -4.81500 19.79000 42.65900
H  -6.15800 21.59100 40.62900
H  -6.98900 22.25600 43.31900
H  -5.70100 23.16000 42.44200
H  -5.22400 21.75600 43.36500
H  -3.61300 18.84500 40.88400
H  -4.08200 20.45500 40.27600
H  -6.07800 18.60100 39.28900
H  -4.48300 17.73500 39.29500
H  -10.96000 23.66300 40.19600
H  -10.02600 23.72400 41.65000
H  -11.62900 23.94000 41.88100
H  -14.91500 20.31100 42.69500
H  -15.36000 20.35200 40.98500
H  -16.01300 21.59300 42.01300
H  -14.02400 15.96700 41.01000
H  -12.58400 14.04200 42.43600
H  -14.43700 14.84500 43.25700
H  -15.25000 16.44300 42.97500
H  -13.88200 16.32500 44.04100
H  -11.70400 14.37800 39.73200
H  -13.47000 14.35100 39.62200
H  -13.46200 12.06400 39.65800
H  -12.82400 12.12900 41.18500
H  -11.75900 11.99400 39.73500
H  -6.38000 12.27400 41.73400
H  -8.07100 12.05800 42.16400
H  -7.07100 12.23300 43.49000
H  -3.90800 16.82000 41.77600
H  -4.51200 19.80600 45.72300
H  -3.04800 18.94000 45.62100
H  -4.26200 18.22400 46.55800
Mg -5.35900 25.19100 26.58700
C  -3.39600 26.71000 29.07400
C  -6.45500 22.85200 29.00300
C  -7.29100 23.62000 24.20400
C  -3.88500 27.27900 24.31500
N  -4.86200 24.78400 28.78500
C  -4.23700 25.70900 29.59400
C  -4.47300 25.43800 31.07700
C  -5.12600 23.92600 31.02900
C  -5.54100 23.84400 29.50200
C  -4.09300 22.91200 31.51800
C  -5.50700 26.50100 31.67200
C  -5.44700 26.74600 33.18400
H  -4.94200 25.52600 34.00400
N  -6.70900 23.44000 26.56100
C  -7.05800 22.70200 27.66800
C  -7.96200 21.65800 27.23000
C  -8.29100 21.93200 25.84400
C  -7.43100 23.02700 25.47500
C  -8.48500 20.54900 28.11600
C  -9.34900 21.28800 24.93200
O  -9.51800 21.53700 23.77100
C  -10.33900 20.10100 25.45000
N  -5.44400 25.29200 24.56300
C  -6.39500 24.68400 23.77300
C  -6.24700 25.04600 22.22800
C  -5.41100 26.35900 22.38100
C  -4.87500 26.36500 23.88300
C  -5.62300 23.94700 21.46500
C  -6.25400 27.68200 22.28700
C  -6.65600 28.09200 20.86800
N  -3.80000 26.51900 26.68600
C  -3.35000 27.36500 25.63500
C  -2.36300 28.33600 26.08900
C  -2.37600 28.13800 27.50800
C  -3.22600 26.99000 27.74700
C  -1.56000 29.38300 25.36000
C  -1.92500 28.64400 28.82300
O  -1.40100 29.66200 29.13200
C  -2.54900 27.67900 29.89100
C  -1.54600 27.03400 30.68500
O  -0.87000 26.09800 30.33800
O  -1.49200 27.56200 31.93100
C  -0.61000 26.94500 32.89200
H  -6.83500 22.14000 29.73700
H  -7.94100 23.17600 23.44700
H  -3.67300 28.06600 23.58900
H  -3.48900 25.45800 31.54700
H  -6.02100 24.04000 31.64000
H  -3.36000 23.29900 32.22500
H  -3.56400 22.72500 30.58400
H  -4.44000 22.03200 32.06000
H  -6.53300 26.26600 31.39200
H  -5.25000 27.44500 31.19300
H  -6.45000 27.03000 33.50400
H  -4.78900 27.59900 33.35100
H  -9.46000 20.84900 28.49900
H  -7.85000 20.45600 28.99700
H  -8.59400 19.57400 27.64000
H  -9.70400 19.46200 26.06300
H  -10.64900 19.58000 24.54500
H  -11.10400 20.51200 26.10900
H  -7.25600 25.27300 21.88600
H  -4.57200 26.38100 21.68600
H  -5.75400 22.97100 21.93300
H  -4.59600 24.12700 21.14700
H  -6.17500 23.73000 20.55000
H  -5.65800 28.49600 22.70000
H  -7.13600 27.68000 22.92700
H  -6.08400 28.94400 20.50000
H  -7.67700 28.47100 20.81900
H  -6.65000 27.26600 20.15600
H  -1.58400 30.26200 26.00400
H  -1.95200 29.52700 24.35300
H  -0.50300 29.12000 25.37600
H  -3.17600 28.30200 30.52900
H  0.33400 26.56800 32.50000
H  -1.12600 26.33900 33.63700
H  -0.33600 27.77400 33.54500

