158

Mg 0.04000 7.64200 27.73200
C  1.07900 10.05100 30.13300
C  -0.46300 5.43600 30.43500
C  -1.04300 5.35300 25.59700
C  1.06600 9.80400 25.23300
N  0.30100 7.75200 29.96400
C  0.60800 8.86200 30.70600
C  0.29500 8.55600 32.18800
C  0.25100 6.98900 32.28800
C  0.06600 6.69400 30.76600
C  1.48600 6.31000 32.98500
C  -1.04200 9.23200 32.50300
C  -1.69800 9.00500 33.90300
H  -0.85500 8.67400 35.09500
N  -0.68400 5.67700 27.93800
C  -0.98100 5.01700 29.13200
C  -1.63800 3.78600 28.75200
C  -1.82500 3.78100 27.38700
C  -1.17100 4.92800 26.94300
C  -2.08100 2.84100 29.81500
C  -2.54200 2.77800 26.53100
O  -2.76300 2.90600 25.31400
C  -3.16600 1.62100 27.20700
N  0.17600 7.55000 25.69600
C  -0.44100 6.51600 25.00800
C  -0.70900 6.90900 23.56100
C  0.08400 8.30400 23.41600
C  0.50200 8.57400 24.84100
C  -0.25100 5.70000 22.65400
C  -0.74900 9.47100 22.83900
C  0.01200 10.40300 21.77300
N  0.76900 9.55600 27.66400
C  1.25900 10.29900 26.54300
C  1.72600 11.63200 27.03300
C  1.66300 11.54500 28.36200
C  1.12100 10.26000 28.71800
C  2.20000 12.83900 26.24000
C  1.87000 12.29700 29.62200
O  2.23300 13.46400 29.79000
C  1.49700 11.31600 30.87300
C  2.66100 10.99700 31.69700
O  3.53000 10.14600 31.50500
O  2.78400 11.94400 32.65000
C  4.01200 11.90200 33.46900
H  -0.62400 4.73200 31.25400
H  -1.63400 4.96600 24.76400
H  1.29600 10.48400 24.41000
H  1.05600 8.95000 32.86200
H  -0.63300 6.80800 32.89900
H  1.90400 5.51000 32.37500
H  1.07200 5.96700 33.93400
H  2.19000 7.11600 33.18900
H  -1.80100 8.97000 31.76600
H  -0.82500 10.30000 32.48500
H  -2.49300 8.26100 33.87000
H  -2.20500 9.92900 34.18100
H  -2.36000 3.42600 30.69100
H  -1.29100 2.14000 30.08300
H  -2.96200 2.22000 29.65300
H  -3.63600 1.04700 26.40900
H  -3.96600 2.04400 27.81500
H  -2.34600 1.19700 27.78700
H  -1.76000 7.16900 23.43900
H  0.91500 8.07700 22.74900
H  -1.10400 5.22500 22.16900
H  0.25000 4.95200 23.26800
H  0.42000 5.93400 21.82700
H  -1.04700 10.17500 23.61700
H  -1.61400 8.97900 22.39500
H  -0.57500 10.51100 20.86100
H  1.04700 10.12600 21.57400
H  0.12100 11.35400 22.29600
H  2.76500 13.51300 26.88400
H  1.30900 13.39500 25.94700
H  2.67700 12.55500 25.30200
H  0.66600 11.47400 31.56100
H  4.70400 12.45900 32.83700
H  4.31900 10.87300 33.65500
H  3.73200 12.40500 34.39500
Mg 39.93900 9.12000 28.91500
C  41.86100 10.25500 31.55200
C  37.65400 7.76600 31.07300
C  38.18400 8.01400 26.25700
C  42.60400 9.90900 26.76300
N  39.90600 8.91600 31.06100
C  40.71800 9.54400 31.92900
C  40.15900 9.51200 33.32800
C  38.92500 8.52100 33.19500
C  38.76700 8.43200 31.67800
C  38.96900 7.19300 33.93800
C  39.85100 10.91700 33.86100
C  39.51000 11.17500 35.34800
H  40.50300 11.96100 36.19400
N  38.16000 8.06000 28.72200
C  37.29700 7.61300 29.72300
C  36.03800 7.12500 29.20800
C  36.22400 7.20900 27.73600
C  37.56800 7.79600 27.49700
C  34.85700 6.58700 30.03100
C  35.23600 6.99200 26.71900
O  35.49700 7.09200 25.51800
C  33.75100 6.59500 27.06300
N  40.41600 8.94300 26.83100
C  39.44900 8.52000 25.86200
C  40.00100 8.41200 24.41600
C  41.42500 9.11300 24.61800
C  41.52600 9.35200 26.15600
C  39.98100 6.98200 23.87500
C  41.45300 10.59600 23.92100
C  40.73800 11.81500 24.52700
N  41.81700 10.04200 29.03000
C  42.77700 10.33000 28.11200
C  43.88000 11.02700 28.71600
C  43.63500 11.00700 30.12700
C  42.34000 10.41100 30.21500
C  45.06900 11.61400 28.01400
C  44.11900 11.29200 31.43800
O  45.18100 11.75700 31.87600
C  42.94600 10.94300 32.42400
C  43.42200 10.10900 33.50500
O  44.16900 9.16600 33.33600
O  42.96000 10.63200 34.67300
C  43.36500 10.04600 35.90500
H  36.96600 7.37200 31.82400
H  37.62300 7.78400 25.34900
H  43.45900 10.05600 26.10000
H  40.83900 9.06600 34.05400
H  38.04300 9.07600 33.51600
H  39.81700 7.22600 34.62200
H  39.05400 6.36700 33.23200
H  38.04300 7.10100 34.50500
H  38.94200 11.22900 33.34700
H  40.74900 11.47900 33.60400
H  39.56200 10.13800 35.67700
H  38.50900 11.60800 35.34000
H  34.89800 6.76400 31.10500
H  34.62500 5.53500 29.86100
H  33.97300 7.14000 29.71100
H  33.59100 5.95500 27.93100
H  33.25300 6.14200 26.20600
H  33.18700 7.49900 27.29400
H  39.46700 9.01000 23.67700
H  42.29900 8.51600 24.35500
H  39.09100 6.85000 23.25900
H  39.88300 6.42100 24.80400
H  40.91000 6.81500 23.33100
H  41.04700 10.40300 22.92900
H  42.52500 10.74800 23.79100
H  40.12000 11.55400 25.38700
H  39.96400 12.13200 23.82900
H  41.41800 12.65800 24.64700
H  44.64200 11.81600 27.03200
H  45.82600 10.83000 27.99400
H  45.46100 12.54200 28.43200
H  42.59100 11.89800 32.81200
H  42.49700 9.88100 36.54300
H  44.03700 10.79200 36.32900
H  43.92900 9.11300 35.90200

