158

Mg 40.84800 41.33500 26.90500
C  39.82200 43.80000 29.14100
C  41.21600 39.14000 29.71100
C  42.01500 39.05400 24.76400
C  40.83700 43.69100 24.36200
N  40.61400 41.47500 29.20800
C  40.19300 42.61400 29.84800
C  39.97300 42.34100 31.35700
C  40.63100 40.88100 31.55600
C  40.83400 40.42600 30.09600
C  41.96300 40.85700 32.36200
C  38.50400 42.57700 31.80200
C  38.14500 41.93000 33.19300
H  37.49900 42.79800 34.28000
N  41.51100 39.39600 27.17500
C  41.58300 38.66500 28.42500
C  42.05300 37.36100 28.11700
C  42.26400 37.29800 26.67800
C  41.90400 38.59700 26.14400
C  42.21100 36.22500 29.13300
C  42.74300 36.11300 25.90500
O  42.72000 36.00700 24.71400
C  43.22500 34.87400 26.51400
N  41.49200 41.41700 24.89900
C  41.85800 40.27400 24.18400
C  41.89300 40.57200 22.69900
C  41.61500 42.07600 22.60400
C  41.23800 42.40500 24.03300
C  43.15800 39.97900 21.97600
C  40.51100 42.43700 21.56200
C  39.02200 42.26700 22.00900
N  40.37400 43.30900 26.71000
C  40.52600 44.11900 25.68100
C  40.09100 45.49000 26.10300
C  39.83700 45.39600 27.45900
C  40.01300 44.06200 27.80400
C  39.89400 46.71700 25.18400
C  39.37000 46.16900 28.60200
O  39.15100 47.41600 28.74500
C  39.41300 45.16000 29.78300
C  40.36300 45.58200 30.84900
O  41.61100 45.36700 30.80800
O  39.68300 46.01700 31.97500
C  40.41900 45.85000 33.31100
H  41.05900 38.40200 30.49900
H  42.47000 38.33400 24.08100
H  40.77600 44.49400 23.62500
H  40.56400 43.09000 31.88300
H  39.86200 40.19900 31.91900
H  42.06700 41.88500 32.70800
H  42.83500 40.58000 31.77000
H  41.99300 40.21400 33.24100
H  37.90100 42.08300 31.04100
H  38.41500 43.62800 32.07900
H  38.99700 41.45500 33.68000
H  37.63400 40.99400 32.96900
H  41.49400 35.42400 28.95500
H  42.05400 36.58700 30.14900
H  43.24900 35.90200 29.20600
H  44.14000 35.06200 27.07600
H  43.46600 34.15400 25.73200
H  42.51200 34.46400 27.22900
H  41.05100 39.99800 22.31300
H  42.52800 42.57500 22.28100
H  43.90700 39.48900 22.59900
H  43.62200 40.82500 21.47000
H  42.71700 39.33700 21.21400
H  40.59200 41.75300 20.71800
H  40.68900 43.44300 21.18300
H  38.80200 42.40700 23.06700
H  38.54100 41.34900 21.67300
H  38.53100 43.05600 21.43800
H  39.30700 46.43500 24.31000
H  40.90200 47.03100 24.91400
H  39.39000 47.45800 25.80400
H  38.47000 45.16500 30.33000
H  39.84000 45.27800 34.03500
H  40.49700 46.87900 33.66500
H  41.47100 45.56400 33.33100
Mg -4.53700 24.65100 26.96600
C  -2.91300 26.52900 29.43100
C  -5.47700 22.43700 29.42800
C  -6.00300 22.80600 24.67900
C  -3.13900 26.74700 24.54900
N  -4.26600 24.54800 29.19000
C  -3.70200 25.47600 29.95200
C  -4.07100 25.22500 31.43400
C  -4.77600 23.84900 31.46800
C  -4.84600 23.56700 29.92200
C  -3.91700 22.75200 31.99100
C  -4.90800 26.35200 32.08600
C  -4.58100 26.51500 33.61800
H  -5.64300 26.11600 34.64900
N  -5.46200 22.75100 27.04400
C  -5.75000 21.97900 28.10100
C  -6.41900 20.79200 27.77700
C  -6.51000 20.81000 26.33400
C  -6.00300 22.14500 25.91100
C  -6.76200 19.73300 28.87600
C  -6.97400 19.73000 25.34700
O  -7.01100 19.97200 24.13300
C  -7.28000 18.39700 25.84100
N  -4.61000 24.82900 24.86800
C  -5.33200 23.91400 24.16800
C  -5.15000 24.10400 22.72100
C  -4.12700 25.36400 22.59100
C  -3.99500 25.70400 24.10800
C  -4.77900 22.84000 21.94700
C  -4.78000 26.53200 21.83400
C  -3.78600 27.41100 21.03000
N  -3.24200 26.28700 26.92400
C  -2.83600 27.07500 25.90200
C  -2.08400 28.26500 26.40000
C  -2.07800 28.05600 27.78400
C  -2.77100 26.82000 28.04800
C  -1.47400 29.38100 25.64800
C  -1.68100 28.63000 29.05700
O  -1.14900 29.67900 29.39600
C  -2.20600 27.64900 30.12800
C  -1.05200 27.14400 30.89200
O  -0.28100 26.20900 30.59900
O  -1.05000 27.80300 32.07600
C  0.06800 27.28300 32.94500
H  -6.01400 21.86600 30.18900
H  -6.45200 22.13100 23.94700
H  -2.76800 27.39500 23.75300
H  -3.07900 25.12300 31.87500
H  -5.77100 23.77700 31.90700
H  -3.24600 23.12300 32.76600
H  -3.42000 22.23600 31.17000
H  -4.54400 22.08000 32.57700
H  -5.97200 26.20800 31.89800
H  -4.73800 27.29500 31.56600
H  -4.29800 27.55900 33.75400
H  -3.73000 25.90000 33.91100
H  -5.89000 19.28300 29.35100
H  -7.36700 18.96700 28.39100
H  -7.35200 20.15200 29.69100
H  -8.22200 18.41200 26.39000
H  -6.52800 17.96900 26.50400
H  -7.25600 17.74000 24.97200
H  -6.11900 24.57600 22.55700
H  -3.15400 25.09900 22.17600
H  -4.15000 22.18000 22.54500
H  -4.28100 23.04900 21.00000
H  -5.69600 22.43900 21.51700
H  -5.09700 27.29700 22.54200
H  -5.65200 26.23800 21.25000
H  -3.59500 28.40200 21.44200
H  -4.04300 27.44500 19.97100
H  -2.83500 26.88400 20.96000
H  -0.68400 28.97400 25.01800
H  -1.02000 30.08000 26.35100
H  -2.27700 29.74100 25.00600
H  -2.87000 28.24800 30.75100
H  1.06300 27.54900 32.58900
H  0.06000 26.21400 33.16100
H  -0.15200 27.83800 33.85700

