158

Mg 6.86700 53.84800 41.29500
C  6.64300 50.31000 41.04600
C  10.23000 53.59900 40.16800
C  6.85200 57.10200 40.97400
C  3.43500 53.85700 42.02100
N  8.28100 52.09400 40.74200
C  7.92800 50.80200 40.55500
C  9.03000 49.90400 40.11200
C  10.27900 50.92200 40.14100
C  9.57500 52.32400 40.27400
C  11.21800 50.59100 41.35700
C  8.83300 49.16900 38.75300
C  8.23000 50.03100 37.57000
H  7.25400 49.28900 36.56300
N  8.35000 55.18900 40.79400
C  9.63900 54.92500 40.37900
C  10.32500 56.08600 40.07600
C  9.38600 57.20600 40.29200
C  8.08900 56.54200 40.65700
C  11.77100 56.08300 39.49600
C  9.65600 58.70300 40.15200
O  10.79900 59.11800 40.03200
C  8.49300 59.64200 40.09000
N  5.28900 55.16200 41.32000
C  5.61900 56.53600 41.39800
C  4.53300 57.40300 41.96800
C  3.43600 56.32400 42.32000
C  4.13400 54.99200 41.93100
C  4.98200 58.23200 43.22900
C  1.90200 56.51400 41.79500
C  0.72900 56.76600 42.78400
N  5.24900 52.37800 41.52100
C  3.95100 52.57300 41.85600
C  3.35900 51.18400 42.05100
C  4.36900 50.30500 41.78100
C  5.51900 51.10200 41.43200
C  1.94700 50.98000 42.51800
C  4.71100 48.89600 41.85600
O  4.07800 47.89900 42.26500
C  6.11600 48.93200 41.11700
C  5.84200 48.15200 39.78300
O  5.39000 48.52100 38.71300
O  6.40600 46.87900 39.91100
C  6.36200 46.05800 38.66800
H  11.31500 53.59700 40.04000
H  6.97700 58.15300 41.24400
H  2.40900 53.95700 42.38200
H  9.12900 49.18600 40.92600
H  10.75600 51.03800 39.16800
H  12.25100 50.68600 41.02200
H  11.02000 49.55300 41.62500
H  10.90700 51.21000 42.19900
H  8.24700 48.25300 38.81800
H  9.81200 48.82100 38.42400
H  9.09100 50.26900 36.94400
H  7.68900 50.91100 37.91800
H  12.32000 56.91700 39.93300
H  11.67300 56.07500 38.41100
H  12.36900 55.21200 39.76100
H  8.09800 59.81900 41.09100
H  7.87800 59.11900 39.35800
H  8.81800 60.59200 39.66700
H  4.20100 58.07500 41.17700
H  3.39700 56.21600 43.40400
H  4.26600 58.37800 44.03700
H  5.07100 59.25600 42.86400
H  5.93600 57.92500 43.65600
H  1.63400 55.59500 41.27400
H  1.77900 57.34600 41.10100
H  0.15200 55.85100 42.91200
H  0.10400 57.60500 42.47900
H  1.15500 56.92700 43.77500
H  1.49800 50.12900 42.00700
H  1.42800 51.90400 42.26200
H  2.01500 50.82000 43.59400
H  6.75200 48.21300 41.63300
H  6.81200 45.09000 38.88500
H  6.92700 46.55700 37.88100
H  5.32800 45.83800 38.39900
Mg -1.13700 34.84100 26.36400
C  -2.90000 33.04900 28.59300
C  -0.26200 37.05900 28.71000
C  -0.23600 37.12200 23.86700
C  -3.07500 33.17700 23.79700
N  -1.86000 35.16200 28.43000
C  -2.30800 34.18900 29.22200
C  -2.14200 34.44900 30.74800
C  -1.53300 35.91500 30.69800
C  -1.21900 36.08300 29.16400
C  -2.63400 36.89300 31.11000
C  -1.22900 33.40200 31.46500
C  -1.72700 32.70600 32.71500
H  -0.80500 32.57500 33.88300
N  -0.06100 36.58300 26.32700
C  0.22500 37.29300 27.42500
C  1.14600 38.38100 27.07800
C  1.13800 38.40900 25.65400
C  0.33400 37.33200 25.21000
C  1.85300 39.34600 28.03800
C  1.82100 39.51200 24.71500
O  1.78000 39.47600 23.53300
C  2.34100 40.74100 25.32100
N  -1.80900 35.26800 24.15700
C  -1.24200 36.25900 23.39400
C  -1.79800 36.28600 21.94900
C  -2.44400 34.81400 21.88800
C  -2.49000 34.34700 23.34100
C  -2.74000 37.52100 21.81000
C  -1.75600 33.70300 20.98100
C  -0.57700 32.90600 21.52600
N  -2.52000 33.26200 26.16600
C  -3.19200 32.68400 25.13200
C  -3.99000 31.56400 25.56600
C  -3.82900 31.61500 27.03700
C  -2.98100 32.69200 27.26100
C  -4.76600 30.48900 24.74000
C  -4.24500 31.08500 28.28200
O  -5.06300 30.16400 28.57800
C  -3.50400 31.92400 29.38200
C  -4.50800 32.31800 30.40700
O  -5.47300 33.03800 30.16200
O  -4.31800 31.70900 31.63700
C  -5.38900 31.95500 32.67800
H  0.19300 37.70100 29.46800
H  0.27000 37.68700 23.08100
H  -3.56700 32.46900 23.12800
H  -3.10200 34.47300 31.26300
H  -0.64000 36.02800 31.31300
H  -3.24100 36.64000 31.98000
H  -3.26000 36.96700 30.22100
H  -2.18400 37.87300 31.26600
H  -0.31500 33.97500 31.62300
H  -0.88200 32.64800 30.75700
H  -1.93900 31.64900 32.55700
H  -2.63100 33.20800 33.05900
H  2.90800 39.37700 27.76700
H  1.77300 39.06000 29.08700
H  1.48300 40.36900 28.09400
H  1.43500 41.08600 25.81800
H  2.85700 41.40200 24.62500
H  3.04300 40.50100 26.11900
H  -0.95700 36.24300 21.25600
H  -3.46900 34.96100 21.54900
H  -2.91100 38.00300 22.77300
H  -3.72500 37.20100 21.47200
H  -2.27300 38.23400 21.13000
H  -1.35000 34.21700 20.11100
H  -2.50400 33.09300 20.47400
H  0.25700 32.83600 20.82700
H  -0.95500 31.89600 21.68300
H  -0.24100 33.29400 22.48800
H  -5.42700 31.01500 24.05100
H  -5.21000 29.76300 25.42100
H  -4.04200 29.94800 24.13000
H  -2.70200 31.39500 29.89500
H  -5.41900 33.00400 32.97100
H  -5.17200 31.45700 33.62300
H  -6.32500 31.65700 32.20600

