158

Mg 25.31100 51.00000 26.43000
C  23.03400 52.05700 29.03800
C  27.58300 50.31900 28.87300
C  27.69700 50.50000 24.06100
C  22.98000 52.00800 24.07900
N  25.25900 51.02700 28.71300
C  24.18500 51.33800 29.53600
C  24.60200 51.08500 31.04000
C  26.12000 50.69800 30.89200
C  26.32700 50.70800 29.39300
C  27.12200 51.57200 31.60300
C  23.63400 50.00200 31.63700
C  23.81000 49.58500 33.13400
H  23.90500 50.67300 34.09700
N  27.34300 50.55700 26.45100
C  28.06500 50.23600 27.52900
C  29.37500 49.80800 27.14200
C  29.50500 50.11900 25.79300
C  28.17200 50.46400 25.36200
C  30.46600 49.28800 28.06200
C  30.73100 50.08400 24.88000
O  30.53800 50.30400 23.65700
C  32.10400 49.74400 25.35100
N  25.41600 51.32400 24.40700
C  26.43700 50.91100 23.61500
C  26.15200 51.12800 22.12500
C  24.70400 51.76000 22.19000
C  24.31100 51.63500 23.62700
C  27.24600 51.96200 21.39300
C  23.71100 51.04600 21.22000
C  23.36500 49.58400 21.21100
N  23.38300 51.76400 26.53300
C  22.56000 52.13500 25.45800
C  21.36700 52.67500 25.98300
C  21.50600 52.70600 27.34800
C  22.73400 52.14400 27.69400
C  20.24100 53.21200 25.13300
C  20.82000 52.96500 28.62800
O  19.72300 53.43200 28.85900
C  21.85600 52.60800 29.78300
C  22.11300 53.74500 30.71300
O  22.72500 54.77000 30.45700
O  21.73300 53.42400 31.98100
C  21.92400 54.50200 32.94900
H  28.23200 49.88300 29.63500
H  28.32700 50.12900 23.25000
H  22.24800 52.34200 23.34000
H  24.47800 52.11400 31.38000
H  26.08400 49.69300 31.31400
H  26.49900 52.12300 32.30800
H  27.54500 52.32600 30.93900
H  27.91800 51.04400 32.12800
H  23.82400 49.13400 31.00600
H  22.59700 50.21800 31.37700
H  24.68300 48.94600 33.27200
H  22.89500 49.04100 33.36600
H  31.03700 48.42000 27.73400
H  30.02700 49.03100 29.02500
H  31.11400 50.12400 28.32700
H  32.25700 48.77700 25.83100
H  32.38800 50.51800 26.06400
H  32.80400 49.73900 24.51500
H  26.07900 50.13900 21.67400
H  24.78100 52.81800 21.93900
H  28.06200 52.17900 22.08300
H  26.81100 52.87600 20.99000
H  27.75200 51.34600 20.65000
H  24.25500 51.26400 20.30100
H  22.89200 51.76200 21.27800
H  23.72400 49.17300 20.26800
H  22.27700 49.51800 21.20900
H  23.78800 49.08300 22.08200
H  19.70400 52.43000 24.59400
H  20.72400 53.88300 24.42300
H  19.45100 53.71100 25.69400
H  21.30600 51.88900 30.39100
H  22.97700 54.45700 33.22900
H  21.27200 54.17500 33.75900
H  21.51000 55.46300 32.64700
Mg 6.09500 57.12200 42.15600
C  5.30700 53.46300 41.92600
C  9.07200 56.21200 40.54000
C  6.46400 60.23800 41.84100
C  2.81000 57.53100 43.29000
N  7.01600 55.03800 41.36300
C  6.53400 53.75400 41.33900
C  7.54400 52.71100 40.72800
C  8.78500 53.65300 40.48400
C  8.30800 55.04200 40.83600
C  10.08100 53.24000 41.25500
C  7.00800 52.09200 39.50000
C  7.53900 50.67000 39.23700
H  7.05400 50.11000 37.87900
N  7.54100 58.10600 41.37600
C  8.71500 57.68900 40.77600
C  9.44500 58.77800 40.37800
C  8.74800 59.95200 40.69700
C  7.54500 59.45400 41.31100
C  10.84900 58.58800 39.70200
C  9.40300 61.36900 40.57600
O  10.43300 61.62400 39.97400
C  8.70800 62.57500 41.30800
N  4.65200 58.67600 42.22200
C  5.26600 59.87200 42.39800
C  4.23900 60.86400 42.91500
C  2.97200 60.05200 43.27300
C  3.51900 58.67600 42.94100
C  4.70500 61.87100 43.97200
C  1.67400 60.45300 42.42700
C  0.28000 60.29700 43.06200
N  4.47100 55.84100 42.72200
C  3.25400 56.22300 43.21000
C  2.54800 54.99500 43.58300
C  3.33400 53.89400 43.15900
C  4.46700 54.43600 42.55400
C  1.26400 54.99900 44.20800
C  3.43700 52.45600 43.16100
O  2.71300 51.59400 43.63900
C  4.74000 52.11900 42.36600
C  4.46200 51.02300 41.33900
O  3.68400 51.02800 40.38900
O  5.22900 49.94600 41.73600
C  4.91200 48.70100 41.04000
H  10.06300 56.07200 40.10300
H  6.75000 61.29200 41.82100
H  1.84800 57.81500 43.72300
H  7.67500 51.95700 41.50400
H  9.08500 53.66700 39.43600
H  9.94400 52.42100 41.96200
H  10.39300 54.08100 41.87400
H  10.95500 52.89700 40.70100
H  7.08400 52.67200 38.58000
H  5.92900 52.00300 39.62400
H  7.27400 49.98700 40.04400
H  8.62000 50.80800 39.22200
H  11.39400 57.80700 40.23100
H  11.44200 59.50200 39.65400
H  10.69900 58.06500 38.75800
H  8.74800 62.48600 42.39300
H  7.78400 62.68600 40.74000
H  9.39200 63.40500 41.13100
H  4.06900 61.45900 42.01800
H  2.67900 60.18000 44.31500
H  5.67300 62.22100 43.61500
H  5.03000 61.41900 44.90900
H  4.11200 62.77800 44.08900
H  1.54000 59.70000 41.65100
H  1.77500 61.43300 41.96200
H  -0.45400 60.69300 42.35900
H  0.25500 60.68200 44.08100
H  0.01200 59.25000 43.20400
H  0.77200 54.03100 44.10900
H  0.67200 55.79900 43.76300
H  1.21900 55.09500 45.29300
H  5.36900 51.71800 43.16000
H  3.84100 48.64400 40.84700
H  5.26100 47.84000 41.61100
H  5.40500 48.56100 40.07800

