158

Mg 37.78200 50.00800 25.09300
C  38.21300 48.05100 28.00700
C  36.07000 52.35600 26.86200
C  36.78800 51.54700 22.15700
C  38.97900 47.34800 23.16000
N  37.05200 50.01800 27.25800
C  37.54000 49.29000 28.26900
C  37.22200 49.83500 29.65100
C  36.50400 51.22800 29.19900
C  36.58700 51.24500 27.70900
C  35.02000 51.22100 29.75600
C  38.55900 50.04300 30.49300
C  38.33300 49.73300 32.06000
H  36.90000 49.87600 32.69100
N  36.76900 51.89000 24.58300
C  36.07600 52.69100 25.46300
C  35.64600 53.82300 24.77200
C  35.83500 53.57100 23.37500
C  36.43100 52.29000 23.25700
C  35.09800 55.06400 25.45500
C  35.59000 54.48900 22.19000
O  35.79800 54.14500 21.04200
C  34.97500 55.89700 22.45900
N  37.70100 49.43800 22.96000
C  37.45900 50.34800 21.95100
C  37.89800 49.81200 20.56100
C  38.80900 48.60300 20.92100
C  38.47800 48.43800 22.43800
C  36.78000 49.53000 19.57300
C  40.20500 48.77700 20.31300
C  41.40700 49.25200 21.13600
N  38.36900 48.10900 25.41200
C  38.86100 47.15100 24.56300
C  39.32700 45.96900 25.25800
C  39.17800 46.33800 26.63000
C  38.49900 47.60000 26.67700
C  39.68800 44.66600 24.76300
C  39.27600 45.87800 28.00700
O  39.75500 44.80100 28.34600
C  38.64600 46.98400 29.01400
C  37.56900 46.33800 29.76400
O  36.42600 46.06000 29.39500
O  37.96900 46.13000 31.02000
C  36.95200 45.83100 31.98300
H  35.68900 53.11100 27.55300
H  36.51400 51.99000 21.19800
H  39.56600 46.65900 22.55000
H  36.50600 49.12400 30.06300
H  36.94200 52.13300 29.61900
H  34.89900 51.97200 30.53700
H  34.69600 50.24700 30.12200
H  34.36600 51.53200 28.94200
H  38.87400 51.08000 30.37700
H  39.37000 49.39100 30.16800
H  38.99900 50.43300 32.56500
H  38.59000 48.70200 32.30400
H  34.03600 54.82700 25.52100
H  35.42400 56.05900 25.15200
H  35.48400 55.08900 26.47400
H  33.97800 55.77100 22.88100
H  34.78000 56.43300 21.53000
H  35.67100 56.56400 22.96800
H  38.39500 50.67900 20.12700
H  38.41600 47.72500 20.40700
H  36.87000 50.28500 18.79100
H  35.85200 49.74500 20.10200
H  36.73300 48.52500 19.15400
H  40.12900 49.46400 19.47000
H  40.57500 47.84800 19.88100
H  41.28600 50.30700 21.38300
H  42.29100 49.27100 20.50000
H  41.55800 48.57600 21.97800
H  39.98500 44.06600 25.62300
H  40.47300 44.69200 24.00700
H  38.83200 44.10800 24.38200
H  39.42500 47.33400 29.69200
H  36.59200 44.85600 31.65500
H  36.14500 46.55800 32.07000
H  37.46600 45.61300 32.91900
Mg 1.51500 41.30200 26.61300
C  3.44500 41.59800 29.59300
C  -0.99500 40.04500 28.56300
C  0.05000 40.56400 23.72100
C  4.51400 42.04500 24.77700
N  1.22400 40.90900 28.84300
C  2.12000 41.23700 29.91000
C  1.41900 41.25100 31.22400
C  0.00100 40.66700 30.89800
C  0.06900 40.44200 29.36900
C  -0.50300 39.42300 31.69500
C  1.36900 42.67700 31.85400
C  0.91900 42.79700 33.34100
H  0.57900 41.46100 34.17000
N  -0.35900 40.56100 26.25700
C  -1.22400 40.01800 27.11600
C  -2.42400 39.58400 26.39700
C  -2.08600 39.77200 25.01200
C  -0.71600 40.28700 24.95300
C  -3.63600 38.96900 27.18700
C  -2.94600 39.36700 23.80600
O  -2.51600 39.46300 22.65700
C  -4.26000 38.76100 23.96500
N  2.14600 41.45300 24.54000
C  1.32700 41.13100 23.49300
C  1.97500 41.52300 22.17100
C  3.38500 42.07600 22.51000
C  3.36700 41.83900 24.00500
C  1.93600 40.47000 20.95700
C  3.68900 43.50900 22.03300
C  4.88200 43.70000 21.17000
N  3.50200 41.81800 27.01600
C  4.57800 42.04800 26.18300
C  5.74600 42.30200 26.91900
C  5.30000 42.06600 28.23100
C  3.94400 41.78100 28.25600
C  7.13900 42.76900 26.41100
C  5.80800 42.02100 29.62600
O  6.97500 42.11400 30.01500
C  4.63000 41.78100 30.51500
C  4.83800 40.59000 31.33800
O  5.15400 39.53800 30.86000
O  4.96200 40.86500 32.67300
C  5.54300 39.76200 33.46600
H  -1.93800 39.83400 29.07100
H  -0.53300 40.56800 22.79800
H  5.41400 42.27500 24.20100
H  1.90900 40.50400 31.84800
H  -0.73700 41.46100 31.00800
H  0.22700 39.21900 32.47800
H  -0.58900 38.53900 31.06300
H  -1.49700 39.75100 31.99800
H  0.67200 43.29800 31.29200
H  2.34300 43.13900 31.68800
H  -0.00200 43.36100 33.48600
H  1.74300 43.29600 33.85000
H  -3.47400 37.96200 27.57200
H  -4.55000 38.88100 26.60000
H  -3.99300 39.52200 28.05600
H  -4.64900 38.65100 22.95300
H  -4.90400 39.44300 24.52200
H  -4.20000 37.76700 24.40800
H  1.25600 42.28800 21.87700
H  4.09200 41.37000 22.07400
H  1.65300 39.55300 21.47500
H  2.87300 40.22400 20.45800
H  1.15600 40.71100 20.23400
H  3.61800 44.16300 22.90300
H  2.83300 43.80100 21.42300
H  4.50500 43.64100 20.14900
H  5.68600 42.97500 21.29500
H  5.35500 44.67700 21.26800
H  7.30900 42.90100 25.34200
H  7.92600 42.10600 26.76800
H  7.41200 43.75100 26.79700
H  4.46300 42.69300 31.08900
H  4.80900 38.95900 33.39700
H  5.82700 40.13500 34.45000
H  6.41300 39.39000 32.92400

