158

Mg 23.83100 -5.17900 46.20200
C  25.71500 -2.66300 44.47200
C  21.07000 -4.25600 44.42200
C  22.51900 -8.13600 46.92500
C  26.87800 -6.28600 47.44700
N  23.52400 -3.65100 44.60800
C  24.38300 -2.63000 44.11700
C  23.58300 -1.72900 43.20000
C  22.08100 -2.10900 43.59100
C  22.22200 -3.41100 44.26000
C  21.43700 -0.97500 44.49600
C  23.98100 -1.90800 41.69500
C  24.57300 -0.64000 40.99100
H  24.66300 -0.75600 39.44500
N  21.95500 -6.01900 45.79400
C  20.96000 -5.46100 45.06500
C  19.84600 -6.36500 44.99100
C  20.18200 -7.53200 45.74500
C  21.64600 -7.29500 46.17300
C  18.56600 -6.01800 44.24100
C  19.20900 -8.72300 45.95300
O  18.13800 -8.70700 45.44400
C  19.59700 -9.90400 46.80100
N  24.57900 -6.86800 47.20000
C  23.79500 -8.00100 47.36000
C  24.58500 -9.24200 47.92200
C  25.99900 -8.49400 48.28700
C  25.84600 -7.13900 47.57000
C  23.89600 -9.76900 49.21600
C  27.18900 -9.33400 47.78200
C  28.23500 -9.61300 48.82900
N  25.93200 -4.48900 46.26100
C  27.00100 -5.01300 46.86000
C  28.17400 -4.22100 46.57700
C  27.74600 -3.21900 45.73700
C  26.38800 -3.49800 45.43800
C  29.58700 -4.44900 47.13500
C  28.07000 -2.06900 44.95600
O  29.14400 -1.45000 44.93500
C  26.77300 -1.67800 44.21900
C  26.38700 -0.23000 44.57000
O  25.52400 0.02200 45.43400
O  27.23300 0.64500 43.94800
C  26.99900 2.04300 44.46000
H  20.25000 -3.84100 43.83300
H  22.03800 -9.06500 47.23700
H  27.86400 -6.48600 47.87200
H  23.79000 -0.68100 43.41700
H  21.45300 -2.12400 42.70000
H  21.99300 -0.03900 44.55100
H  21.32600 -1.39800 45.49400
H  20.51900 -0.66500 43.99600
H  23.13300 -2.29800 41.13100
H  24.84500 -2.56700 41.60300
H  25.55000 -0.27100 41.30300
H  23.88700 0.16500 41.25600
H  18.90600 -5.57000 43.30700
H  17.98400 -5.32900 44.85200
H  17.96300 -6.88600 43.97100
H  18.67800 -10.28800 47.24400
H  20.19100 -9.59100 47.66000
H  20.08900 -10.64200 46.16800
H  24.72300 -10.07400 47.23100
H  26.06400 -8.16100 49.32300
H  22.87900 -9.37900 49.26700
H  24.53400 -9.61500 50.08600
H  23.75400 -10.81300 48.93600
H  27.64400 -9.01000 46.84600
H  26.78800 -10.29200 47.45100
H  28.72100 -10.56100 48.59600
H  27.86000 -9.48800 49.84500
H  29.02400 -8.87400 48.69200
H  30.37100 -3.72300 46.91600
H  29.98100 -5.45000 46.96100
H  29.45500 -4.48700 48.21600
H  27.02200 -1.81700 43.16700
H  27.92000 2.50900 44.11100
H  26.99300 2.08500 45.54900
H  26.04900 2.38500 44.04900
Mg 1.95500 41.35900 26.42900
C  3.80100 41.98900 29.20200
C  -0.84200 40.53900 28.20200
C  0.50500 40.30000 23.54500
C  4.84700 42.20500 24.48500
N  1.50400 41.29100 28.49000
C  2.40300 41.64100 29.51500
C  1.71500 41.62700 30.87200
C  0.24700 41.19800 30.51800
C  0.26900 41.04700 28.98800
C  -0.20400 39.81000 31.12300
C  1.77600 43.03000 31.60100
C  2.24300 43.19600 33.07300
H  1.91000 41.97200 33.94800
N  0.13200 40.41700 26.01500
C  -0.92400 40.21200 26.86600
C  -2.02000 39.54900 26.20400
C  -1.56700 39.45500 24.79400
C  -0.24500 39.99800 24.73000
C  -3.35000 39.00900 26.86300
C  -2.30100 38.86600 23.54600
O  -1.84200 38.83000 22.41400
C  -3.73400 38.35200 23.79600
N  2.59200 41.31700 24.24200
C  1.74100 40.88300 23.29300
C  2.39500 40.95400 21.88900
C  3.80600 41.66700 22.15500
C  3.73300 41.75600 23.73600
C  2.58000 39.54800 21.14800
C  3.97300 43.00700 21.35000
C  4.11500 44.43500 22.12600
N  3.87900 42.02100 26.68200
C  4.91500 42.31400 25.84300
C  6.04400 42.77100 26.60500
C  5.66400 42.63200 27.96300
C  4.35700 42.13200 27.93200
C  7.37900 43.34000 26.09700
C  6.00900 42.79100 29.31000
O  7.04500 43.18500 29.85700
C  4.91500 42.23000 30.17400
C  5.45500 40.89500 30.78000
O  6.02000 39.99200 30.13800
O  5.15200 40.74700 32.06600
C  5.40800 39.51000 32.73200
H  -1.81900 40.32200 28.64000
H  0.06000 39.92500 22.62100
H  5.64900 42.56000 23.83400
H  2.27100 40.85000 31.39700
H  -0.52400 41.88200 30.87200
H  0.54300 39.49600 31.85100
H  -0.27400 39.01100 30.38600
H  -1.15400 39.88400 31.65300
H  0.75100 43.39500 31.65500
H  2.48200 43.72300 31.14400
H  1.94600 44.16900 33.46300
H  3.33200 43.18000 33.04100
H  -4.17400 39.70800 26.71900
H  -3.08300 38.87800 27.91100
H  -3.67700 38.05000 26.46100
H  -4.42100 39.05300 24.27000
H  -3.70300 37.44300 24.39700
H  -4.05800 38.11900 22.78200
H  1.78600 41.52300 21.18700
H  4.53300 40.99100 21.70500
H  1.99400 38.76500 21.63000
H  3.55000 39.19900 20.79600
H  1.88600 39.66500 20.31600
H  3.09800 43.10200 20.70800
H  4.82600 42.88900 20.68200
H  3.33600 45.13100 21.81600
H  5.04200 44.90600 21.79900
H  3.84300 44.46900 23.18100
H  8.13000 42.63500 25.74200
H  7.86600 44.03400 26.78200
H  7.12200 44.04500 25.30600
H  4.64000 42.91200 30.97800
H  4.93000 39.64100 33.70300
H  6.44800 39.24300 32.92400
H  4.89600 38.67600 32.25300

