158

Mg 2.01400 -1.35300 45.51000
C  5.37000 -0.34700 44.65100
C  0.87000 1.42400 43.67600
C  -0.93900 -2.78200 45.31300
C  3.42700 -4.36600 46.71100
N  2.98000 0.36000 44.28300
C  4.36800 0.59100 44.22700
C  4.66600 1.92200 43.52900
C  3.26100 2.50800 43.42000
C  2.31800 1.38500 43.83800
C  3.07400 3.76800 44.36300
C  5.34300 1.77900 42.06200
C  6.77700 2.18400 41.68800
H  7.06000 2.65800 40.21900
N  0.22800 -0.75000 44.54500
C  -0.09400 0.48200 43.95700
C  -1.51900 0.61700 43.81500
C  -2.11700 -0.56000 44.36500
C  -0.96900 -1.49100 44.74300
C  -2.19700 1.79000 43.21700
C  -3.64600 -0.96400 44.49200
O  -4.50300 -0.19600 44.13500
C  -4.18700 -2.24400 44.90900
N  1.40900 -3.37000 45.67600
C  0.12000 -3.58000 45.82100
C  -0.18900 -4.87800 46.61700
C  1.19800 -5.47200 46.87500
C  2.08000 -4.38900 46.31700
C  -1.05100 -4.65700 47.87300
C  1.48500 -6.83600 46.09200
C  0.52400 -8.07500 46.42500
N  3.90900 -2.22200 45.72500
C  4.30500 -3.42000 46.28900
C  5.80200 -3.39600 46.37600
C  6.21900 -2.20200 45.76700
C  5.05800 -1.54200 45.33000
C  6.84500 -4.46700 46.92600
C  7.42900 -1.48300 45.29400
O  8.67700 -1.63100 45.42000
C  6.89600 -0.20400 44.69200
C  7.33700 1.00300 45.51300
O  7.07700 1.25100 46.68700
O  8.17100 1.82700 44.72200
C  8.61000 3.11200 45.35000
H  0.60800 2.43100 43.34300
H  -1.84200 -3.38500 45.42600
H  3.91200 -5.13800 47.31200
H  5.40200 2.40900 44.16700
H  3.00200 2.85400 42.41900
H  2.72400 4.58800 43.73600
H  3.98600 4.08500 44.86900
H  2.25900 3.67600 45.08100
H  4.74900 2.23700 41.27100
H  5.39500 0.72300 41.79800
H  7.40100 1.30900 41.87200
H  7.02200 3.01900 42.34400
H  -3.18300 1.63300 42.78200
H  -1.59000 2.23900 42.43100
H  -2.31100 2.57800 43.96100
H  -4.08500 -2.56200 45.94700
H  -3.73400 -2.93000 44.19400
H  -5.24000 -2.16600 44.63600
H  -0.63100 -5.61100 45.94200
H  1.44600 -5.61300 47.92700
H  -0.56800 -4.76200 48.84400
H  -1.93900 -5.29000 47.87100
H  -1.41300 -3.63200 47.94900
H  2.51500 -7.11400 46.31400
H  1.54500 -6.57400 45.03600
H  0.33500 -8.45600 45.42100
H  -0.40800 -7.71800 46.86400
H  1.05000 -8.87800 46.94200
H  7.81300 -3.97200 47.00600
H  6.85400 -5.27100 46.19100
H  6.39000 -4.90900 47.81200
H  7.28900 -0.13000 43.67800
H  8.45800 3.89300 44.60500
H  9.69600 3.05300 45.41600
H  8.15500 3.40000 46.29800
Mg 16.68000 52.49500 26.00300
C  18.51200 50.86800 28.64100
C  14.18500 52.97800 28.21700
C  14.99900 53.81700 23.50000
C  18.87600 50.97000 23.70400
N  16.46100 52.16800 28.24600
C  17.24100 51.39100 29.08100
C  16.72100 51.38500 30.51100
C  15.27400 51.82700 30.36700
C  15.29900 52.35500 28.86300
C  14.18800 50.77700 30.68100
C  17.57100 52.23100 31.37400
C  17.64600 51.84900 32.86700
H  16.91900 52.80400 33.82300
N  14.92700 53.41400 25.90000
C  14.06600 53.56700 26.96500
C  13.00900 54.48900 26.60000
C  13.16300 54.69300 25.19600
C  14.43500 53.98500 24.83100
C  12.00800 54.95200 27.63100
C  12.31600 55.51300 24.31100
O  12.57400 55.64200 23.09600
C  11.04900 56.18500 24.79200
N  16.93400 52.43900 23.83700
C  16.10200 53.16700 23.03300
C  16.58500 53.15700 21.54200
C  17.87400 52.22300 21.66000
C  17.97900 51.85100 23.15200
C  15.54300 52.55400 20.55800
C  19.29500 52.86100 21.32600
C  19.96200 53.67300 22.46800
N  18.46600 51.30400 26.06900
C  19.17100 50.74900 25.03600
C  20.15800 49.87900 25.59000
C  20.05100 49.98600 26.97500
C  18.92400 50.88900 27.25200
C  21.13800 49.01500 24.79700
C  20.55000 49.52500 28.24600
O  21.52200 48.80300 28.40400
C  19.54800 50.08900 29.37600
C  19.02500 48.88300 30.07100
O  18.06600 48.20800 29.74700
O  19.80600 48.71500 31.21600
C  19.09700 47.86500 32.26200
H  13.23000 52.97400 28.74600
H  14.43100 54.29600 22.70000
H  19.40800 50.45600 22.90100
H  16.70100 50.35000 30.85000
H  15.00500 52.65500 31.02200
H  13.55800 51.13800 31.49300
H  14.68300 49.90400 31.10600
H  13.71500 50.49200 29.74100
H  17.29300 53.27800 31.25000
H  18.59500 52.13000 31.01400
H  18.72000 51.74200 33.02000
H  17.25400 50.84300 33.01400
H  11.94200 56.03300 27.50700
H  12.16700 54.72000 28.68400
H  11.00700 54.57300 27.42600
H  10.45600 56.65400 24.00700
H  11.42000 56.98800 25.42900
H  10.38300 55.44100 25.22900
H  16.97600 54.11400 21.19700
H  17.78900 51.30500 21.07900
H  15.32400 53.33700 19.83300
H  14.59000 52.18600 20.93800
H  15.92000 51.65200 20.07600
H  19.17200 53.57400 20.51000
H  20.05200 52.11500 21.08600
H  20.78500 52.99500 22.69500
H  19.32300 53.87100 23.32900
H  20.48300 54.54900 22.08000
H  21.57900 48.22200 25.40100
H  21.85600 49.65600 24.28700
H  20.55000 48.52500 24.02100
H  20.23600 50.72300 29.93600
H  19.69800 46.98500 32.49100
H  18.13900 47.44500 31.95700
H  18.97400 48.29300 33.25700

