158

Mg 17.31800 52.84600 26.77400
C  19.41600 51.26800 28.92400
C  15.06300 53.11800 29.25600
C  15.09300 54.25600 24.55100
C  19.40500 52.12800 24.20800
N  17.28600 52.31300 28.85000
C  18.31000 51.81400 29.59700
C  17.99500 51.85000 31.09100
C  16.42200 51.85900 31.02100
C  16.21200 52.52300 29.63100
C  15.74700 50.41000 31.19800
C  18.70800 53.07700 31.74700
C  18.29700 53.32900 33.13300
H  17.41400 52.28700 33.87300
N  15.38200 53.80100 26.92400
C  14.64300 53.80400 28.06400
C  13.37500 54.51900 27.75400
C  13.38000 54.84000 26.40600
C  14.63600 54.27600 25.85700
C  12.40200 54.83300 28.90300
C  12.26600 55.51900 25.67100
O  12.38100 55.89800 24.51900
C  10.97900 55.72700 26.32600
N  17.19800 52.99200 24.67900
C  16.25800 53.74600 23.99300
C  16.67100 53.94900 22.50100
C  18.22800 53.57900 22.54800
C  18.29700 52.82500 23.87400
C  15.84800 53.04000 21.56500
C  19.21400 54.79400 22.48200
C  20.23000 54.64700 21.30300
N  19.09400 51.85800 26.50300
C  19.81700 51.63000 25.42200
C  21.04800 50.89900 25.81400
C  20.93100 50.76000 27.22900
C  19.74100 51.35300 27.56300
C  22.20600 50.25300 25.01800
C  21.56300 50.12900 28.39900
O  22.52800 49.40100 28.59200
C  20.69100 50.66200 29.56200
C  20.26600 49.49300 30.29500
O  19.65800 48.51900 29.86700
O  20.72900 49.63400 31.60200
C  20.30300 48.51700 32.46100
H  14.27600 53.17400 30.01200
H  14.33300 54.66300 23.88000
H  20.08100 51.90800 23.37900
H  18.40200 50.94900 31.55100
H  15.83100 52.46100 31.71200
H  15.17100 50.28600 30.28100
H  15.12000 50.28500 32.08200
H  16.55200 49.67900 31.26700
H  18.58900 54.02600 31.22400
H  19.76300 52.85300 31.90700
H  17.82700 54.31100 33.17300
H  19.13600 53.43900 33.82000
H  12.71500 54.45300 29.87600
H  11.47600 54.33000 28.62600
H  12.31400 55.90600 29.07400
H  10.56200 54.76000 26.60600
H  10.23300 56.09900 25.62300
H  11.13000 56.37500 27.18900
H  16.42000 54.94300 22.13100
H  18.40000 52.96300 21.66600
H  15.51700 52.13100 22.06700
H  16.50400 52.81900 20.72300
H  14.96700 53.65300 21.37200
H  19.70000 54.80400 23.45800
H  18.66000 55.72100 22.33600
H  20.15400 53.74300 20.69800
H  21.21900 54.61300 21.76100
H  20.14000 55.55200 20.70300
H  23.06100 50.55800 25.62200
H  22.19100 50.63600 23.99800
H  22.08200 49.17100 25.02400
H  21.28300 51.34700 30.16900
H  20.72600 48.60300 33.46200
H  20.72400 47.57600 32.10800
H  19.21400 48.55500 32.47900
Mg 1.78600 42.17500 25.70500
C  2.97500 42.27900 29.06100
C  -1.17400 41.10300 26.83800
C  0.93500 41.74000 22.46700
C  4.92500 43.31900 24.66100
N  1.03000 41.91300 27.75200
C  1.63200 41.95000 28.95800
C  0.63400 41.78000 30.08400
C  -0.63600 41.25600 29.34700
C  -0.27400 41.49200 27.84200
C  -0.91500 39.76300 29.65400
C  0.51100 43.05000 30.96300
C  -0.38500 43.03900 32.21100
H  -0.82100 41.70700 32.81300
N  0.12000 41.52800 24.76700
C  -1.09700 41.17400 25.42600
C  -2.07900 40.75400 24.39400
C  -1.46000 40.85200 23.11500
C  -0.08800 41.44600 23.44500
C  -3.52500 40.31800 24.77300
C  -1.98000 40.49600 21.80400
O  -1.25500 40.44400 20.82500
C  -3.38300 39.81200 21.72100
N  2.77900 42.43400 23.83300
C  2.17900 42.26700 22.60900
C  3.11000 42.56700 21.44700
C  4.25700 43.30500 22.14300
C  4.02800 43.02900 23.62200
C  3.50900 41.30800 20.62900
C  4.45300 44.80900 21.66100
C  5.55200 45.12400 20.71100
N  3.54800 42.78900 26.60400
C  4.73700 43.20000 26.07700
C  5.71800 43.46600 27.15000
C  5.10800 43.05000 28.33800
C  3.79000 42.71400 27.98200
C  7.15300 43.86000 26.94200
C  5.24100 42.82400 29.73300
O  6.21500 42.97000 30.50700
C  3.86800 42.37200 30.24400
C  4.05000 41.01400 30.86900
O  4.31100 39.92000 30.29600
O  3.98000 41.12000 32.19900
C  4.15200 39.89900 32.96100
H  -2.14800 40.70500 27.13200
H  0.64500 41.68600 21.41600
H  5.77800 43.82700 24.20600
H  1.09900 41.04800 30.74400
H  -1.46900 41.85000 29.72100
H  -1.93500 39.57800 29.99100
H  -0.24400 39.30400 30.38100
H  -0.60300 39.27600 28.73000
H  0.08000 43.82000 30.32300
H  1.54200 43.38300 31.08100
H  -1.19800 43.74900 32.05800
H  0.23200 43.51700 32.97200
H  -4.22100 40.93500 24.20500
H  -3.82400 40.63400 25.77200
H  -3.72900 39.24800 24.72900
H  -4.08200 40.64200 21.61600
H  -3.49400 39.04300 22.48500
H  -3.50200 39.26700 20.78500
H  2.54300 43.30000 20.87300
H  5.17100 42.86100 21.74800
H  3.44000 40.39800 21.22500
H  4.52500 41.34300 20.23800
H  2.75300 41.05900 19.88400
H  4.52300 45.36000 22.59800
H  3.47500 45.18500 21.35800
H  6.12800 44.23100 20.46900
H  6.12500 45.93000 21.17100
H  5.13400 45.40300 19.74300
H  7.78200 42.97000 26.94900
H  7.48100 44.61700 27.65500
H  7.24500 44.29800 25.94800
H  3.48700 43.03300 31.02200
H  5.20200 39.62300 33.05800
H  3.67600 39.05000 32.47000
H  3.73300 39.82500 33.96500

