158

Mg 40.93700 8.00700 29.05600
C  42.74800 9.36400 31.78400
C  38.97300 6.40600 31.29700
C  39.33200 6.89800 26.44900
C  43.31500 9.48800 26.91600
N  40.95800 7.77000 31.25700
C  41.64500 8.62300 32.17100
C  41.08300 8.57300 33.58500
C  39.96800 7.41000 33.41000
C  39.92300 7.18700 31.89300
C  40.14700 6.19800 34.35400
C  40.47600 9.95400 34.13200
C  40.14500 9.97000 35.63600
H  41.03500 10.82300 36.55100
N  39.43300 6.74900 28.92300
C  38.76200 6.08900 29.93100
C  37.76400 5.25700 29.41600
C  37.69500 5.45000 27.98100
C  38.84600 6.36600 27.71700
C  36.84900 4.49800 30.36500
C  36.70300 4.97100 27.03400
O  36.86600 5.17500 25.85900
C  35.45300 4.24600 27.40000
N  41.24000 8.18800 27.04200
C  40.41700 7.69500 26.16200
C  40.74600 7.99100 24.73500
C  41.93100 8.99600 24.89300
C  42.20000 8.88200 26.38600
C  40.98800 6.78300 23.82600
C  41.52400 10.45300 24.48200
C  40.72300 11.29800 25.53800
N  42.70900 9.12100 29.23700
C  43.60600 9.59700 28.27300
C  44.64300 10.32800 28.92100
C  44.33800 10.28400 30.30900
C  43.16400 9.53700 30.44200
C  45.88100 10.93200 28.22900
C  44.80300 10.64400 31.66400
O  45.91700 11.06200 32.02800
C  43.71400 10.09300 32.70600
C  44.36500 9.22500 33.71200
O  44.87500 8.10200 33.60200
O  44.08300 9.80900 34.89100
C  44.35100 9.06100 36.11800
H  38.32700 5.93100 32.03900
H  38.84000 6.57000 25.53100
H  43.86100 9.96100 26.09700
H  41.85500 8.08800 34.18300
H  39.00500 7.79800 33.74100
H  39.87500 5.22700 33.94000
H  39.46700 6.35700 35.19100
H  41.15600 6.17900 34.76600
H  39.53200 10.15300 33.62400
H  40.96400 10.85100 33.75300
H  40.32200 8.95000 35.97700
H  39.08800 10.21300 35.74100
H  37.22100 4.26100 31.36200
H  36.60700 3.56200 29.86000
H  35.91500 5.05400 30.28300
H  34.87900 4.72500 28.19300
H  35.85500 3.26600 27.65700
H  34.71200 4.13000 26.60900
H  39.87000 8.56600 24.43700
H  42.81000 8.77900 24.28500
H  40.12100 6.85100 23.16900
H  40.80700 5.82200 24.30900
H  41.85700 6.85000 23.17100
H  40.90400 10.35700 23.59100
H  42.44700 10.91800 24.13500
H  40.82600 10.90400 26.54900
H  39.68000 11.13300 25.26700
H  40.97100 12.35900 25.50100
H  45.77800 12.01700 28.23700
H  45.91200 10.61300 27.18800
H  46.70800 10.54400 28.82300
H  43.19400 10.88800 33.24100
H  43.49500 8.40500 36.27800
H  44.38800 9.76300 36.95100
H  45.28000 8.50400 35.99700
Mg -12.30800 38.75400 42.16000
C  -10.01900 36.40700 40.85200
C  -10.60500 41.13700 40.68500
C  -14.93500 40.81300 42.67200
C  -14.33100 36.03300 43.25300
N  -10.50700 38.70400 40.90100
C  -9.74700 37.71400 40.47000
C  -8.63100 38.17300 39.60000
C  -8.59200 39.69700 40.01400
C  -10.03900 39.87900 40.51700
C  -7.42700 40.08600 40.97400
C  -9.03300 37.74700 38.12400
C  -7.94600 37.08500 37.30700
H  -7.30400 37.77200 36.18200
N  -12.65500 40.73200 41.79500
C  -11.81400 41.54200 41.22000
C  -12.26000 42.91900 41.40500
C  -13.54300 42.84700 41.95700
C  -13.77800 41.42900 42.18600
C  -11.40300 44.13700 41.03000
C  -14.40900 44.05600 42.22900
O  -14.12300 45.18300 41.79600
C  -15.68900 44.01100 42.90500
N  -14.40400 38.45300 42.73600
C  -15.20400 39.47300 43.03600
C  -16.60700 39.03600 43.59600
C  -16.28300 37.53800 43.74000
C  -14.91300 37.30200 43.25000
C  -17.02800 39.80000 44.88000
C  -17.49900 36.71700 43.14400
C  -17.34100 36.29600 41.73300
N  -12.26900 36.64900 42.01100
C  -13.08200 35.70100 42.62300
C  -12.53500 34.38900 42.36400
C  -11.38000 34.63800 41.62500
C  -11.22300 36.03200 41.52300
C  -12.85500 33.05000 42.88600
C  -10.24100 33.98700 40.94100
O  -10.01500 32.79300 40.87200
C  -9.27000 35.13300 40.44800
C  -7.93100 34.88900 41.14500
O  -7.78200 34.98600 42.34200
O  -6.91500 34.60500 40.25700
C  -5.64800 34.07400 40.83400
H  -9.90900 41.91100 40.35600
H  -15.72500 41.53100 42.90100
H  -14.86000 35.15100 43.62100
H  -7.73000 37.69000 39.97900
H  -8.51600 40.24700 39.07700
H  -6.51300 39.49200 40.97700
H  -7.90400 40.19100 41.94900
H  -7.03800 41.02500 40.58000
H  -9.31800 38.61700 37.53300
H  -9.85600 37.04100 38.23300
H  -8.45500 36.19900 36.92800
H  -7.23700 36.76700 38.07200
H  -11.92000 44.46200 40.12700
H  -10.34100 43.96800 40.85300
H  -11.36000 44.98800 41.71000
H  -16.52800 43.76200 42.25500
H  -15.94200 44.92800 43.43700
H  -15.60000 43.37900 43.78900
H  -17.38000 39.18600 42.84200
H  -16.29700 37.25100 44.79200
H  -17.65600 40.65000 44.61600
H  -16.24500 40.23800 45.49900
H  -17.66600 39.13600 45.46200
H  -18.34200 37.40300 43.22300
H  -17.52400 35.81500 43.75600
H  -17.63700 35.24700 41.73400
H  -16.28400 36.32700 41.46800
H  -17.94900 36.85300 41.02000
H  -13.91400 32.95800 43.12900
H  -12.30700 32.81800 43.79900
H  -12.58200 32.31300 42.13200
H  -9.12000 34.99200 39.37700
H  -5.80900 33.49100 41.74000
H  -4.86200 34.79900 41.04500
H  -5.20500 33.30300 40.20300

