158

Mg 41.94100 41.39900 26.03900
C  41.39200 43.78600 28.50500
C  43.18200 39.34100 28.60200
C  42.54600 39.01300 23.78400
C  40.78200 43.59500 23.68300
N  42.30300 41.62300 28.36400
C  41.85000 42.64100 29.12500
C  41.71400 42.21800 30.59300
C  42.54300 40.83300 30.62200
C  42.68900 40.51900 29.12100
C  43.90600 40.80200 31.41400
C  40.27400 42.07100 31.20200
C  39.89500 42.83900 32.49500
H  39.46000 42.00000 33.66600
N  42.79100 39.50600 26.18000
C  43.19100 38.82700 27.25000
C  43.69500 37.53700 26.92400
C  43.49800 37.34700 25.51500
C  42.93300 38.65500 25.09300
C  44.14000 36.51700 27.82700
C  43.65500 36.06800 24.65100
O  43.51600 36.06400 23.41600
C  44.17900 34.75400 25.25400
N  41.80700 41.31800 23.99200
C  41.96200 40.20100 23.29300
C  41.47900 40.35800 21.78200
C  41.07700 41.88800 21.84100
C  41.20800 42.29700 23.25400
C  42.46400 40.04000 20.66100
C  39.76800 42.23300 21.12800
C  39.88300 42.77500 19.71700
N  41.14400 43.32500 26.01300
C  40.67700 44.03500 24.98900
C  40.26700 45.31400 25.49300
C  40.47000 45.26500 26.85600
C  41.12500 44.02400 27.12000
C  39.54700 46.32800 24.72800
C  40.36800 46.02300 28.11600
O  39.90900 47.13300 28.29800
C  41.03700 45.08700 29.19700
C  42.13600 45.82900 29.85800
O  43.30700 45.77300 29.44600
O  41.62100 46.54200 30.94600
C  42.55000 47.43100 31.64500
H  43.51800 38.70600 29.42400
H  42.65400 38.26400 22.99700
H  40.44100 44.26800 22.89300
H  42.37900 42.85500 31.17700
H  41.92000 39.98700 30.91200
H  44.75600 40.68300 30.74200
H  43.95900 39.86900 31.97500
H  44.06700 41.63900 32.09300
H  40.10600 41.01900 31.43000
H  39.53000 42.45600 30.50500
H  39.17800 43.63000 32.27500
H  40.73000 43.44800 32.84100
H  45.12800 36.12600 27.58400
H  43.45900 35.67700 27.95900
H  44.44000 36.94600 28.78400
H  44.19400 34.06700 24.40800
H  43.55800 34.38500 26.06900
H  45.22700 34.86700 25.53100
H  40.56400 39.76600 21.80800
H  41.87100 42.46100 21.36300
H  42.68200 40.88900 20.01300
H  41.91500 39.34800 20.02300
H  43.45500 39.65000 20.89400
H  39.11100 42.83500 21.75600
H  39.22000 41.29000 21.13700
H  39.91000 41.92100 19.04000
H  40.73200 43.42400 19.50300
H  39.01000 43.41600 19.59500
H  39.46500 46.03400 23.68200
H  40.04800 47.29600 24.75600
H  38.60100 46.41200 25.26200
H  40.32000 44.87500 29.99100
H  43.20400 48.03100 31.01300
H  43.10000 46.89700 32.41800
H  41.96000 48.18200 32.17100
Mg 28.17400 56.54800 40.24200
C  25.99800 53.85200 39.55300
C  30.71600 54.57600 39.11100
C  30.10700 59.41000 39.76500
C  25.41000 58.60100 40.63200
N  28.22900 54.47900 39.23800
C  27.29100 53.53800 39.16300
C  27.81200 52.22000 38.54000
C  29.38100 52.37900 38.81300
C  29.49700 53.90700 39.04500
C  29.99500 51.54600 40.03200
C  27.39100 52.10800 37.00900
C  27.08200 53.35500 36.15000
H  27.30500 53.33400 34.70100
N  30.14900 56.94600 39.69100
C  31.02900 55.93500 39.31700
C  32.36100 56.56600 39.08000
C  32.21100 57.99300 39.29400
C  30.80600 58.19700 39.58900
C  33.54700 55.77700 38.57200
C  33.27800 59.05500 39.05600
O  34.34400 58.75400 38.58400
C  33.14600 60.44800 39.39800
N  27.86900 58.62200 40.23100
C  28.80800 59.62700 39.99800
C  28.20700 60.99300 40.13800
C  26.71900 60.73000 40.13300
C  26.62300 59.19800 40.38100
C  28.78800 61.81800 41.30400
C  25.91800 61.02000 38.78400
C  24.88000 62.16500 38.64000
N  26.09400 56.28300 40.20500
C  25.14000 57.23600 40.52400
C  23.86400 56.45700 40.77400
C  24.13600 55.13900 40.33900
C  25.51800 55.12500 40.01800
C  22.52700 56.95400 41.27300
C  23.67600 53.80000 40.13600
O  22.54500 53.35000 40.26900
C  24.82900 52.98800 39.60800
C  24.97300 51.83700 40.51900
O  24.49700 50.71300 40.44200
O  25.88200 52.11000 41.51800
C  26.19800 51.01700 42.48100
H  31.57000 53.92100 38.92400
H  30.62800 60.35500 39.60200
H  24.53000 59.23700 40.75000
H  27.44200 51.36200 39.10200
H  29.97400 52.08700 37.94700
H  29.97100 50.47100 39.85800
H  29.62000 51.79600 41.02500
H  31.06900 51.71700 39.96500
H  26.52500 51.44800 36.94900
H  28.20600 51.53600 36.56600
H  27.56000 54.21800 36.61400
H  26.01600 53.55700 36.25200
H  34.18100 56.26100 37.82900
H  33.23100 54.85800 38.07700
H  34.19700 55.56600 39.42100
H  32.83200 60.48200 40.44200
H  32.46700 60.94000 38.70100
H  34.03600 61.07100 39.31100
H  28.40300 61.56800 39.23300
H  26.24100 61.34500 40.89600
H  28.95900 62.85800 41.02200
H  29.68400 61.27400 41.60300
H  28.06800 61.58500 42.08700
H  25.34700 60.12300 38.54500
H  26.59900 61.13800 37.94100
H  24.76800 62.72300 39.56900
H  23.90500 61.77300 38.34900
H  25.35400 62.87100 37.95800
H  21.79800 56.93300 40.46200
H  22.75800 57.97400 41.58000
H  22.27100 56.28400 42.09300
H  24.71900 52.47300 38.65400
H  25.38200 50.96400 43.20200
H  27.16900 51.34400 42.85300
H  26.36600 50.02900 42.05300

