158

Mg 25.86400 0.04400 29.16300
C  27.49800 -0.23100 32.20000
C  22.92300 0.47600 30.95100
C  24.15100 -0.15800 26.25400
C  28.67500 -1.07700 27.56800
N  25.35800 0.30300 31.35800
C  26.19500 0.15400 32.39700
C  25.46800 0.37100 33.77000
C  23.99100 0.63500 33.31000
C  24.10100 0.46600 31.77300
C  22.85000 -0.22100 33.97200
C  26.04100 1.53100 34.60500
C  26.34000 1.25000 36.13800
H  26.00400 2.27900 37.14300
N  23.75500 0.24200 28.64200
C  22.73400 0.27700 29.52200
C  21.50600 0.27200 28.78600
C  21.79500 0.18000 27.40800
C  23.30400 -0.01500 27.39700
C  20.07400 0.27800 29.50200
C  20.95100 0.29000 26.19600
O  21.32200 -0.05600 25.06200
C  19.52800 0.83700 26.41900
N  26.31600 -0.54500 27.15400
C  25.48700 -0.39500 26.09700
C  26.19800 -0.62000 24.74000
C  27.65000 -0.99100 25.18800
C  27.58000 -0.86100 26.73800
C  25.56200 -1.61100 23.71000
C  28.78500 -0.06300 24.54400
C  28.88100 1.42000 25.06500
N  27.75300 -0.34300 29.66600
C  28.83400 -0.86600 28.93500
C  29.91400 -1.21600 29.88100
C  29.41900 -0.96500 31.13500
C  28.11800 -0.46900 30.96100
C  31.26300 -1.74400 29.53200
C  29.78500 -0.91300 32.59300
O  30.85400 -1.07100 33.16500
C  28.50800 -0.54000 33.27700
C  28.17400 -1.66900 34.16900
O  27.55600 -2.61100 33.84400
O  28.79700 -1.54000 35.40900
C  28.61400 -2.69000 36.39200
H  21.97000 0.69700 31.43800
H  23.66300 -0.05800 25.28300
H  29.54800 -1.28700 26.94600
H  25.41000 -0.55000 34.34900
H  23.75800 1.62800 33.69300
H  22.58300 -1.01800 33.27800
H  22.04000 0.47300 34.20000
H  23.19800 -0.67000 34.90200
H  25.38900 2.40400 34.61500
H  26.95300 1.98200 34.21200
H  27.40500 1.11000 36.32600
H  25.78700 0.38400 36.50200
H  19.58800 1.22900 29.28400
H  19.99600 0.13100 30.57900
H  19.67400 -0.55500 28.92400
H  18.94800 1.14900 25.55000
H  19.46800 1.73600 27.03300
H  18.92300 0.08800 26.93000
H  26.18900 0.35300 24.24900
H  27.92700 -1.98700 24.84400
H  26.27500 -2.41200 23.51500
H  25.31000 -1.17900 22.74200
H  24.72400 -2.12900 24.17700
H  28.59700 0.01800 23.47400
H  29.68400 -0.62200 24.80300
H  28.89400 1.98500 24.13300
H  29.85500 1.40100 25.55500
H  28.14500 1.69800 25.81900
H  31.40100 -2.14800 28.52900
H  31.40200 -2.60700 30.18400
H  32.08400 -1.12900 29.90100
H  28.90200 0.30300 33.84500
H  29.39000 -2.67700 37.15700
H  28.63800 -3.65800 35.89300
H  27.65100 -2.56800 36.88700
Mg 6.17600 53.84000 40.58200
C  5.76700 50.48100 40.37200
C  9.58800 53.24300 40.02100
C  6.63100 57.09400 40.30700
C  2.82600 54.31100 41.27900
N  7.45000 51.99000 39.90200
C  7.05500 50.74600 39.91300
C  8.21400 49.81700 39.71700
C  9.51800 50.68700 39.98500
C  8.80800 52.06900 39.95500
C  10.39700 50.39400 41.22800
C  8.09200 49.14800 38.33500
C  7.83300 50.04800 37.10100
H  6.61100 49.66800 36.27100
N  7.84100 55.01400 40.20700
C  9.16600 54.61500 39.97300
C  10.04200 55.68700 39.83200
C  9.22000 56.87400 40.01200
C  7.82600 56.38200 40.13100
C  11.48200 55.51700 39.47000
C  9.67400 58.31300 40.09500
O  10.81800 58.56100 39.75900
C  8.83800 59.47100 40.25200
N  4.81500 55.46100 40.48900
C  5.31500 56.71400 40.61100
C  4.20000 57.74200 40.97600
C  2.92700 56.83300 40.94600
C  3.59200 55.46300 40.94300
C  4.35100 58.69000 42.11700
C  1.92000 57.02500 39.75000
C  0.55800 56.47000 39.91400
N  4.54200 52.66000 40.61900
C  3.30300 52.95500 41.09600
C  2.54000 51.75700 41.34000
C  3.47000 50.78700 41.07500
C  4.69300 51.37600 40.58700
C  1.13200 51.53500 41.83600
C  3.68900 49.34300 41.05300
O  2.91400 48.42100 41.41000
C  5.02400 49.10700 40.43000
C  4.67100 48.37300 39.14500
O  4.17200 48.88100 38.13500
O  4.91500 47.01200 39.24900
C  4.44900 46.24700 38.12500
H  10.66000 53.03900 39.98000
H  6.73500 58.18100 40.32800
H  1.75200 54.39900 41.45900
H  7.96400 49.12300 40.51900
H  10.16500 50.62900 39.11000
H  10.49400 51.33700 41.76600
H  11.34000 49.92600 40.94500
H  9.77100 49.73900 41.83400
H  7.34500 48.35700 38.28000
H  9.03500 48.68100 38.05000
H  8.66500 49.97700 36.40200
H  7.83500 51.08900 37.42600
H  11.62100 55.45400 38.39100
H  11.91500 54.68500 40.02500
H  12.05500 56.39300 39.77500
H  8.06800 59.71400 39.52000
H  9.60500 60.24100 40.32600
H  8.30400 59.47700 41.20200
H  4.20600 58.42300 40.12500
H  2.35000 56.77100 41.86900
H  3.55100 58.59200 42.85100
H  4.31600 59.66000 41.62100
H  5.27100 58.50100 42.67100
H  2.35600 56.44400 38.93800
H  1.94400 58.06700 39.43000
H  -0.18900 57.16300 39.52700
H  0.23100 56.32300 40.94400
H  0.53100 55.54000 39.34500
H  0.41300 51.87100 41.08900
H  0.81100 52.02400 42.75600
H  0.99600 50.47000 42.02500
H  5.58600 48.42600 41.06900
H  5.00000 45.30800 38.19200
H  4.55700 46.73800 37.15800
H  3.38800 46.02800 38.24300

