158

Mg 1.36100 8.74200 26.76300
C  1.67400 11.08900 29.47800
C  1.85900 6.20200 28.97000
C  1.56100 6.63300 24.12200
C  1.86500 11.51100 24.56300
N  1.82500 8.66500 28.93300
C  1.61400 9.73300 29.85200
C  1.42000 9.24200 31.33900
C  1.85500 7.73300 31.08300
C  1.88100 7.48200 29.59300
C  3.12100 7.21200 31.82200
C  -0.00700 9.49700 31.98800
C  -0.08700 9.32000 33.42000
H  1.10900 8.75600 34.17300
N  1.52700 6.68900 26.57300
C  1.84900 5.82900 27.58300
C  1.83800 4.47100 27.07000
C  1.57100 4.53400 25.69000
C  1.58700 6.02000 25.39900
C  1.87600 3.23900 28.01500
C  1.38500 3.49800 24.70400
O  1.11200 3.74200 23.54600
C  1.49700 2.06800 25.02200
N  1.70200 8.98000 24.63600
C  1.58400 7.98300 23.69500
C  1.68200 8.54900 22.26000
C  1.75300 10.06900 22.52800
C  1.77400 10.19400 24.01700
C  2.87700 7.91700 21.52000
C  0.59400 10.93200 21.87100
C  -0.84900 10.79100 22.49300
N  1.54700 10.93800 26.89600
C  1.80900 11.91800 25.95200
C  1.88200 13.16700 26.64100
C  1.88300 12.92100 27.92700
C  1.64100 11.49700 28.10600
C  1.98500 14.52000 25.89100
C  1.92400 13.54500 29.20400
O  2.09900 14.72100 29.49800
C  1.73200 12.36400 30.23700
C  2.90200 12.34400 31.17800
O  4.07800 12.33500 30.88300
O  2.45300 12.40600 32.47100
C  3.48000 12.31600 33.59100
H  1.97500 5.39600 29.69800
H  1.58100 6.02500 23.21500
H  2.15000 12.26800 23.83000
H  2.18000 9.90400 31.75300
H  1.03800 7.10900 31.44400
H  3.53500 7.81600 32.63000
H  3.92900 7.07200 31.10500
H  2.84200 6.29100 32.33400
H  -0.78800 8.96300 31.44800
H  -0.20900 10.52900 31.70200
H  -0.93200 8.68000 33.67700
H  -0.29400 10.27200 33.90700
H  2.39600 3.51300 28.93400
H  2.45200 2.46800 27.50400
H  0.84600 2.91700 28.16600
H  0.72400 1.86800 25.76400
H  2.49600 1.82100 25.38400
H  1.38800 1.43100 24.14400
H  0.76700 8.31100 21.71800
H  2.69800 10.43300 22.12500
H  3.52400 7.24800 22.08800
H  3.56800 8.64400 21.09400
H  2.55200 7.23500 20.73400
H  0.66500 10.52200 20.86400
H  0.91400 11.96800 21.98800
H  -1.15900 11.64200 23.10000
H  -0.96000 9.85000 23.03000
H  -1.53700 10.68900 21.65400
H  1.18300 14.41000 25.16100
H  2.96800 14.63400 25.43400
H  1.87700 15.44000 26.46500
H  0.73900 12.44500 30.67900
H  3.88500 13.32600 33.66300
H  4.25100 11.59000 33.33400
H  3.03500 12.01200 34.53800
Mg 24.02100 -4.74600 45.91700
C  26.22200 -2.44400 44.42200
C  21.60200 -3.78200 43.73500
C  22.27200 -7.64600 46.72700
C  26.91000 -6.21700 47.49500
N  24.00600 -3.36800 44.23400
C  24.99700 -2.43200 43.79800
C  24.42600 -1.40100 42.77900
C  22.91500 -1.61600 42.93400
C  22.83100 -3.04600 43.72200
C  22.17700 -0.51000 43.62100
C  24.98700 -1.68300 41.37600
C  25.45200 -0.47700 40.63500
H  25.33100 -0.54900 39.07100
N  22.11000 -5.48200 45.47900
C  21.28300 -4.90100 44.54200
C  20.02900 -5.68600 44.56800
C  20.21200 -6.78600 45.48800
C  21.58900 -6.69400 45.92500
C  18.81800 -5.27500 43.78300
C  19.22300 -7.89000 45.80700
O  18.12500 -7.82200 45.25400
C  19.42600 -9.01900 46.82200
N  24.55100 -6.68900 47.05000
C  23.60000 -7.65500 47.21300
C  24.21300 -8.81200 47.95700
C  25.71000 -8.46900 48.11200
C  25.77100 -6.99300 47.55700
C  23.48800 -9.19800 49.30000
C  26.71300 -9.46900 47.46800
C  26.93500 -10.70000 48.23100
N  26.12000 -4.37000 46.08400
C  27.12400 -4.90900 46.87900
C  28.31000 -4.09600 46.70700
C  28.00100 -3.15700 45.71900
C  26.65200 -3.37200 45.35200
C  29.63600 -4.28800 47.43200
C  28.58700 -2.09700 44.95400
O  29.72900 -1.63200 44.95000
C  27.45400 -1.63600 44.03800
C  27.15600 -0.19200 44.43700
O  26.48800 0.14000 45.35400
O  27.86700 0.69800 43.61400
C  27.69100 2.15000 43.87900
H  20.77900 -3.44600 43.10100
H  21.79900 -8.54200 47.13300
H  27.75600 -6.72800 47.95900
H  24.71100 -0.38000 43.02900
H  22.35500 -1.89200 42.04100
H  22.92100 0.10900 44.12200
H  21.45600 -0.82200 44.37600
H  21.78400 0.15900 42.85600
H  24.18200 -2.05200 40.74000
H  25.75700 -2.44400 41.50300
H  26.49400 -0.25800 40.86800
H  24.92300 0.44100 40.89000
H  18.48300 -6.08200 43.13100
H  19.00500 -4.49700 43.04300
H  18.01900 -5.05900 44.49300
H  18.46600 -9.50700 46.99100
H  19.83900 -8.76800 47.79900
H  19.95900 -9.85700 46.37300
H  24.25200 -9.69200 47.31500
H  25.98400 -8.43600 49.16600
H  23.99900 -8.83900 50.19400
H  23.46400 -10.28800 49.30700
H  22.51300 -8.71300 49.27800
H  27.65600 -8.92600 47.41000
H  26.24400 -9.69800 46.51100
H  26.55200 -11.52800 47.63500
H  26.49300 -10.61700 49.22400
H  27.99400 -10.89000 48.40300
H  29.75400 -5.37200 47.40100
H  29.55100 -3.82000 48.41300
H  30.45600 -3.88800 46.83600
H  27.78000 -1.60300 42.99900
H  27.61900 2.67600 42.92800
H  28.61800 2.52500 44.31300
H  26.77000 2.47700 44.36300

