158

Mg 34.92300 3.32600 29.89800
C  32.76600 4.34500 32.45200
C  37.66700 3.51800 32.36100
C  37.24800 2.64400 27.53000
C  32.55400 3.72500 27.57600
N  35.20300 3.82700 32.18200
C  34.08800 4.06700 32.99900
C  34.51800 3.99600 34.44700
C  36.10700 4.08600 34.42400
C  36.43200 3.81800 32.89700
C  36.63000 5.50500 34.83800
C  34.01500 2.72600 35.21500
C  33.87900 2.87800 36.71100
H  34.76900 3.98300 37.55000
N  37.09900 2.90900 29.99300
C  38.00100 2.99200 31.06300
C  39.29100 2.56900 30.61700
C  39.23200 2.22400 29.25900
C  37.83400 2.53500 28.86000
C  40.49900 2.47400 31.60600
C  40.29300 1.56100 28.36000
O  40.03600 1.24400 27.24200
C  41.70700 1.46900 28.81700
N  35.01300 3.39700 27.87500
C  36.03600 3.05900 27.06500
C  35.60200 2.98900 25.57100
C  34.05600 3.07800 25.60600
C  33.87100 3.39700 27.14100
C  36.33300 4.08300 24.69200
C  33.33800 1.74000 25.30000
C  32.21700 1.68500 24.33700
N  33.05500 3.91900 29.92200
C  32.19600 4.05500 28.89100
C  30.91700 4.42100 29.35300
C  31.06800 4.55100 30.76000
C  32.44000 4.21800 31.06500
C  29.71000 4.68200 28.48900
C  30.42500 4.91900 31.99700
O  29.25900 5.42800 32.09400
C  31.46600 4.66100 33.19300
C  31.56200 5.81500 34.11700
O  32.39400 6.68900 33.96300
O  30.70800 5.61800 35.20600
C  30.71900 6.71400 36.24000
H  38.51600 3.60100 33.04200
H  37.86000 2.45400 26.64600
H  31.83600 3.85200 26.76300
H  34.15600 4.80200 35.08400
H  36.55400 3.42400 35.16600
H  36.06800 6.10900 35.55000
H  36.84200 6.04900 33.91800
H  37.59600 5.39900 35.33100
H  34.68000 1.90100 34.96200
H  32.97000 2.54800 34.96200
H  34.03400 1.92000 37.20800
H  32.86200 3.16400 36.97900
H  41.31800 3.05400 31.17900
H  40.70600 1.40400 31.64800
H  40.25000 2.73800 32.63300
H  41.74700 0.75200 29.63700
H  41.96900 2.43200 29.25500
H  42.44600 1.30700 28.03200
H  35.91600 2.00300 25.22800
H  33.62300 3.85700 24.97900
H  36.97300 4.75500 25.26400
H  35.70800 4.73900 24.08700
H  36.92300 3.49600 23.98900
H  32.84700 1.33600 26.18500
H  34.04400 0.92600 25.13200
H  32.08000 2.65600 23.86000
H  31.29000 1.44700 24.85800
H  32.50300 0.84900 23.69900
H  29.41600 3.78800 27.94000
H  29.89600 5.45400 27.74100
H  28.88100 5.05300 29.09200
H  31.10300 3.77300 33.71100
H  31.63500 6.79200 36.82600
H  29.83400 6.65400 36.87400
H  30.50700 7.59300 35.63100
Mg 54.71800 24.47300 44.55700
C  52.10400 26.76100 43.82300
C  52.58400 21.86600 43.54000
C  57.32900 22.39500 44.59300
C  56.69300 27.10300 45.38300
N  52.55700 24.34500 43.94000
C  51.75800 25.43100 43.58200
C  50.40700 24.87800 42.92400
C  50.47800 23.32000 43.37400
C  52.01800 23.14700 43.59600
C  49.70900 22.82400 44.58400
C  50.20000 25.04600 41.41100
C  48.83200 25.05200 40.74700
H  48.68100 24.28100 39.45100
N  54.94100 22.42000 44.03600
C  53.92700 21.49100 43.71600
C  54.54300 20.20600 43.53100
C  55.89500 20.30000 43.94600
C  56.10100 21.71600 44.17600
C  53.72900 19.06600 43.21300
C  56.89500 19.08600 44.07700
O  56.62900 17.90200 43.71200
C  58.18800 19.29000 44.73600
N  56.76000 24.67500 44.86800
C  57.70600 23.68800 44.84300
C  59.04100 24.14300 45.39600
C  58.70400 25.70200 45.60800
C  57.30200 25.83900 45.26000
C  59.57600 23.40400 46.69700
C  59.56200 26.59100 44.66300
C  60.58300 27.42000 45.40400
N  54.54800 26.55600 44.58200
C  55.38100 27.48900 45.12700
C  54.75900 28.76500 45.24400
C  53.49400 28.54600 44.64000
C  53.39800 27.20500 44.30600
C  55.37200 29.96000 45.86600
C  52.27800 29.20700 44.26500
O  51.94300 30.38500 44.39900
C  51.27900 28.05700 43.62300
C  50.84200 28.34500 42.24300
O  51.62500 28.41900 41.24700
O  49.52500 28.42900 42.22100
C  49.08100 28.71600 40.89000
H  51.85000 21.08200 43.34200
H  58.19600 21.74800 44.74200
H  57.36100 27.91700 45.67100
H  49.60100 25.32700 43.50500
H  50.27300 22.69900 42.50200
H  50.43900 22.69900 45.38400
H  49.04900 21.97100 44.42700
H  49.00400 23.61000 44.85300
H  50.88700 24.31700 40.98100
H  50.61100 26.01600 41.13200
H  48.57800 26.10600 40.64200
H  48.13800 24.57600 41.43900
H  53.26000 19.22400 42.24100
H  52.96200 18.94400 43.97800
H  54.22400 18.09700 43.15200
H  58.46900 18.28300 45.04500
H  58.12800 19.83300 45.68000
H  59.02000 19.67200 44.14600
H  59.78800 24.00200 44.61600
H  58.91200 25.91900 46.65600
H  59.33000 24.03300 47.55300
H  60.63800 23.16100 46.72900
H  59.06200 22.44400 46.75700
H  58.99400 27.29200 44.05100
H  60.11900 25.94700 43.98300
H  60.38900 27.41100 46.47600
H  60.54700 28.47900 45.15100
H  61.54000 26.97700 45.12600
H  56.39700 30.16400 45.55500
H  55.31900 29.79600 46.94200
H  54.79400 30.84100 45.59000
H  50.34900 27.91500 44.17200
H  48.84600 29.77400 40.77400
H  48.13100 28.20500 40.73300
H  49.70300 28.41100 40.04800

