158

Mg 37.01600 49.96800 25.13100
C  37.42400 47.91700 27.94600
C  35.58100 52.33400 27.32900
C  35.76900 51.56100 22.47600
C  37.81600 47.23000 23.26200
N  36.60100 50.11800 27.44300
C  36.96600 49.19600 28.33000
C  36.83600 49.69300 29.75700
C  35.94900 51.01300 29.65500
C  36.08900 51.19400 28.08000
C  34.57600 50.83900 30.19900
C  38.11800 49.95500 30.60400
C  38.06500 49.88100 32.08800
H  36.63500 49.96600 32.86000
N  35.99500 51.73000 24.84300
C  35.52900 52.55000 25.91700
C  35.05200 53.80900 25.33500
C  35.02600 53.64100 23.90400
C  35.58100 52.27100 23.63000
C  34.48500 55.03000 26.20700
C  34.53300 54.57100 22.81600
O  34.50800 54.23000 21.63300
C  33.97200 55.90500 23.13600
N  36.80500 49.43900 23.18200
C  36.29600 50.31400 22.20400
C  36.43900 49.68100 20.79600
C  37.35900 48.45700 21.08000
C  37.34500 48.36800 22.60000
C  35.21900 49.17400 20.11100
C  38.81400 48.48200 20.49400
C  39.94300 49.04200 21.42700
N  37.62800 47.96300 25.42400
C  37.83700 46.95000 24.61100
C  38.13700 45.70800 25.33000
C  37.93100 46.01400 26.67100
C  37.68600 47.38200 26.64200
C  38.43000 44.34200 24.75900
C  37.99900 45.45500 27.98600
O  38.25500 44.31500 28.39300
C  37.72100 46.67700 28.87400
C  36.50600 46.29600 29.67400
O  35.36600 46.12500 29.22300
O  36.90900 46.03500 30.95100
C  35.84500 45.47400 31.76700
H  34.97400 53.01300 27.93100
H  35.27300 52.04700 21.63300
H  37.95900 46.42500 22.53700
H  36.35300 48.89000 30.31400
H  36.37300 51.87900 30.16400
H  34.44900 51.18200 31.22600
H  34.34000 49.77700 30.27400
H  33.87400 51.22000 29.45800
H  38.54400 50.87500 30.20500
H  38.77600 49.19000 30.19300
H  38.68800 50.69900 32.44900
H  38.56500 48.97600 32.43400
H  34.33400 55.94500 25.63400
H  35.11700 55.30100 27.05200
H  33.46600 54.93600 26.58200
H  34.77200 56.52100 23.54700
H  33.15800 55.91200 23.86100
H  33.57700 56.31100 22.20500
H  37.04900 50.36000 20.20100
H  37.03600 47.54000 20.58700
H  34.39000 49.34500 20.79800
H  35.13300 48.10700 19.90600
H  35.08000 49.74600 19.19300
H  38.71900 49.27100 19.74800
H  38.96600 47.51800 20.00900
H  40.43000 49.89700 20.95800
H  40.65900 48.26200 21.68400
H  39.64200 49.50200 22.36800
H  39.10200 43.92500 25.51000
H  38.82000 44.41500 23.74300
H  37.68000 43.55100 24.75300
H  38.55700 46.96000 29.51400
H  35.20500 46.25500 32.17600
H  36.33700 45.09600 32.66300
H  35.34900 44.64700 31.25700
Mg -12.07900 16.98400 41.56900
C  -9.05300 15.17500 41.20500
C  -10.50300 19.67400 40.18800
C  -15.05700 18.47200 41.15500
C  -13.71700 13.78500 41.98200
N  -10.04100 17.36800 40.71700
C  -8.95900 16.50300 40.68200
C  -7.78600 17.04400 39.92800
C  -8.18700 18.57100 39.94400
C  -9.64900 18.58000 40.32100
C  -7.24200 19.45300 40.75400
C  -7.58000 16.41900 38.50100
C  -6.32400 15.66700 38.14400
H  -5.65300 15.96300 36.77900
N  -12.69100 18.92700 41.01700
C  -11.86700 19.93600 40.51500
C  -12.65500 21.08400 40.32900
C  -14.02300 20.77700 40.60100
C  -13.99200 19.36200 40.97700
C  -12.08300 22.32500 39.87300
C  -15.18000 21.66700 40.47200
O  -15.11100 22.80000 40.10600
C  -16.65600 21.24400 40.75800
N  -14.03000 16.21400 41.57500
C  -15.05800 17.08700 41.43800
C  -16.36900 16.30500 41.53500
C  -15.93100 14.81400 41.84100
C  -14.41300 14.91000 41.73100
C  -17.40600 16.87000 42.54600
C  -16.71900 13.69900 41.02800
C  -17.05600 12.39700 41.85300
N  -11.56400 14.87000 41.68900
C  -12.30500 13.70500 41.93200
C  -11.41000 12.58900 42.14500
C  -10.13800 13.09900 41.87600
C  -10.30300 14.51400 41.60300
C  -11.93300 11.22900 42.45400
C  -8.77800 12.70500 41.72000
O  -8.25600 11.66100 41.83300
C  -8.00600 14.11900 41.38300
C  -7.06500 14.42800 42.53200
O  -7.39400 14.92200 43.63500
O  -5.75500 14.15900 42.23600
C  -4.73000 14.29100 43.30300
H  -9.91100 20.54400 39.89300
H  -16.06500 18.89200 41.14300
H  -14.30600 12.88300 42.16400
H  -6.83700 16.86200 40.43200
H  -8.13900 18.95700 38.92600
H  -6.28800 18.98900 41.00600
H  -7.71200 19.60600 41.72500
H  -7.05500 20.41400 40.27400
H  -7.78600 17.20400 37.77400
H  -8.37900 15.70100 38.32000
H  -6.49400 14.59000 38.13900
H  -5.52000 15.80700 38.86700
H  -12.19400 22.38400 38.79100
H  -10.99900 22.39800 39.97200
H  -12.55200 23.15900 40.39400
H  -17.29100 22.12300 40.64700
H  -16.82500 20.87100 41.76800
H  -16.94500 20.36500 40.18100
H  -16.80600 16.35200 40.53700
H  -16.13400 14.70600 42.90700
H  -18.25200 17.38400 42.09000
H  -16.95900 17.64400 43.17000
H  -17.87800 16.14500 43.20800
H  -16.29500 13.50800 40.04200
H  -17.69400 14.16400 40.88300
H  -18.12000 12.45700 42.08100
H  -16.57400 12.38500 42.83100
H  -16.94000 11.51300 41.22600
H  -12.28500 10.67200 41.58600
H  -12.71200 11.37300 43.20300
H  -11.03100 10.80200 42.89100
H  -7.53400 13.97100 40.41200
H  -4.14600 13.37200 43.23700
H  -5.11200 14.26000 44.32300
H  -4.10100 15.14500 43.05300

