158

Mg 1.56500 -1.78000 43.43600
C  4.75100 -0.55900 42.91700
C  0.28500 1.04700 41.69100
C  -1.51900 -3.27200 43.36000
C  2.97700 -4.83300 44.48700
N  2.44900 0.08400 42.55800
C  3.78100 0.32100 42.41200
C  4.02600 1.65800 41.64100
C  2.57700 2.26300 41.51000
C  1.68000 1.01000 41.85400
C  2.25700 3.46900 42.49300
C  4.80800 1.52800 40.36200
C  5.89300 2.61000 40.11000
H  5.67100 3.51000 38.88200
N  -0.30000 -1.21500 42.65900
C  -0.61000 -0.01300 41.99300
C  -2.00400 -0.02700 41.62600
C  -2.54800 -1.22300 42.10800
C  -1.45000 -1.99800 42.71000
C  -2.78400 0.99700 40.84900
C  -4.05200 -1.50000 41.92400
O  -4.88600 -0.79600 41.37400
C  -4.66100 -2.81300 42.41300
N  0.87800 -3.79400 43.81500
C  -0.47400 -4.05600 43.88500
C  -0.80800 -5.34600 44.62600
C  0.63500 -5.94000 44.86400
C  1.55400 -4.82700 44.31500
C  -1.61200 -5.20900 45.94700
C  0.83300 -7.40000 44.27100
C  0.61100 -8.52100 45.34000
N  3.46600 -2.56300 43.79700
C  3.93200 -3.76700 44.27200
C  5.33500 -3.71700 44.45900
C  5.72900 -2.49400 43.94000
C  4.52900 -1.85000 43.54600
C  6.24500 -4.79600 44.99400
C  6.84900 -1.65000 43.56600
O  8.01800 -1.85000 43.65900
C  6.25100 -0.39600 42.89100
C  6.63300 0.78800 43.70700
O  6.20800 1.01100 44.84100
O  7.61000 1.52600 43.05300
C  8.22800 2.62800 43.70600
H  -0.10800 1.94600 41.21200
H  -2.56800 -3.50500 43.55200
H  3.43600 -5.69600 44.97300
H  4.64700 2.28600 42.28000
H  2.34200 2.67600 40.52900
H  3.20700 3.63500 43.00200
H  1.51100 3.17800 43.23200
H  1.95000 4.33600 41.90600
H  4.06500 1.80400 39.61400
H  5.08500 0.47700 40.27600
H  6.77200 2.00300 39.89200
H  5.99600 3.26300 40.97700
H  -3.17800 0.36900 40.05000
H  -2.18500 1.81900 40.45800
H  -3.63300 1.36900 41.42300
H  -4.12300 -3.66300 41.99300
H  -5.55100 -2.94900 41.79800
H  -4.75600 -2.85700 43.49800
H  -1.38500 -5.90800 43.89100
H  0.79600 -5.95000 45.94200
H  -0.88300 -4.89000 46.69200
H  -2.00600 -6.14400 46.34400
H  -2.38500 -4.44700 45.84100
H  1.78600 -7.70900 43.84300
H  0.02100 -7.56100 43.56200
H  -0.30600 -8.29200 45.88300
H  1.50300 -8.50200 45.96600
H  0.64400 -9.50100 44.86300
H  5.96700 -5.81200 44.71300
H  6.24300 -4.53800 46.05300
H  7.29500 -4.63300 44.74800
H  6.70500 -0.33300 41.90200
H  8.60400 2.00900 44.52000
H  7.45900 3.29900 44.08800
H  8.98900 3.21900 43.19800
Mg 8.70700 3.69700 27.30600
C  9.93800 2.26900 30.11900
C  6.53000 5.65700 29.17200
C  6.92900 4.62600 24.47100
C  10.27600 1.25800 25.33400
N  8.31000 3.89900 29.41100
C  9.02600 3.29600 30.38200
C  8.57200 3.96700 31.77000
C  7.31800 4.77600 31.33500
C  7.39100 4.80400 29.85600
C  5.99900 4.21200 31.86300
C  9.80000 4.78800 32.35200
C  9.55400 5.60300 33.66100
H  10.35800 5.06000 34.99300
N  7.03500 5.00600 26.92200
C  6.31300 5.67200 27.81600
C  5.25100 6.49000 27.14200
C  5.45400 6.31200 25.75600
C  6.47600 5.24600 25.64800
C  4.27400 7.20100 27.95300
C  4.74700 6.96800 24.57800
O  4.87100 6.64700 23.40000
C  3.79300 8.04800 24.87100
N  8.68400 3.11300 25.21700
C  7.89800 3.63900 24.23000
C  8.23700 3.06800 22.83100
C  9.14600 1.86000 23.13500
C  9.49200 2.12800 24.61500
C  7.01300 2.72300 21.83400
C  10.45300 1.81200 22.32800
C  10.87000 0.41500 21.87500
N  9.98900 2.15500 27.60700
C  10.57500 1.20500 26.72900
C  11.44300 0.25900 27.48400
C  11.27300 0.71900 28.80000
C  10.31500 1.79900 28.83600
C  12.28000 -0.93100 27.01900
C  11.71300 0.52100 30.18600
O  12.47700 -0.30000 30.63300
C  10.84800 1.52000 31.07400
C  10.06400 0.80800 32.17600
O  9.11100 0.06800 31.91900
O  10.47500 1.20900 33.41100
C  9.87500 0.54400 34.61400
H  5.80000 6.17900 29.79500
H  6.39700 4.82000 23.53700
H  10.64400 0.40600 24.75900
H  8.47500 3.23300 32.57100
H  7.34900 5.81900 31.64900
H  5.37300 5.02600 32.22800
H  6.04800 3.43300 32.62300
H  5.48700 3.71500 31.03900
H  10.36800 5.24700 31.54300
H  10.44800 3.95200 32.61600
H  8.48900 5.68800 33.87900
H  9.85600 6.64600 33.56600
H  3.39200 7.48800 27.38000
H  4.69800 7.94300 28.63000
H  3.94200 6.39400 28.60700
H  2.99700 7.56800 25.43900
H  3.37800 8.43700 23.94100
H  4.20400 8.85300 25.48000
H  8.87600 3.79900 22.33700
H  8.56300 0.94000 23.09400
H  6.08900 3.22300 22.12300
H  6.71000 1.68100 21.93600
H  7.35200 2.96900 20.82800
H  11.26800 2.20800 22.93300
H  10.33100 2.42100 21.43200
H  9.96100 -0.18600 21.87200
H  11.65100 -0.03900 22.48500
H  11.24800 0.34600 20.85500
H  12.07500 -1.08200 25.95900
H  11.86100 -1.79600 27.53300
H  13.35800 -0.90600 27.17300
H  11.50700 2.20000 31.61400
H  9.33400 -0.37200 34.37700
H  9.13500 1.19000 35.08800
H  10.55300 0.33000 35.44000

