158

Mg 30.54200 58.94100 41.17500
C  27.47900 57.86700 40.05400
C  32.07100 56.08500 39.90100
C  33.66500 60.41800 41.47300
C  29.04700 62.05400 41.82200
N  29.88700 57.32300 40.01100
C  28.55500 56.98600 39.82200
C  28.44600 55.64900 39.17700
C  29.80700 54.90900 39.68800
C  30.67600 56.16300 39.87000
C  29.89200 54.01200 40.94500
C  28.30200 55.76800 37.60200
C  27.15500 54.96400 36.90500
H  26.33100 55.52900 35.77200
N  32.67900 58.32700 40.83100
C  33.02100 57.12800 40.24100
C  34.44300 57.06800 40.24200
C  34.91900 58.30700 40.68500
C  33.76100 59.09800 40.98100
C  35.22700 55.86100 39.86700
C  36.36300 58.66000 40.68800
O  37.22500 57.87200 40.37400
C  36.92400 60.03700 40.81200
N  31.27800 60.95100 41.43700
C  32.57300 61.27400 41.62700
C  32.66100 62.73900 42.06900
C  31.19900 63.22100 42.24700
C  30.46100 61.97800 41.83300
C  33.56400 63.10700 43.26700
C  30.83500 64.43500 41.25600
C  30.06700 65.63200 41.89200
N  28.56900 59.81300 41.02200
C  28.08400 61.09700 41.31100
C  26.69900 61.21000 41.10800
C  26.35200 59.86800 40.65500
C  27.53300 59.15100 40.66000
C  25.83100 62.39300 41.26200
C  25.29100 59.06100 40.13800
O  24.11500 59.21800 39.78200
C  26.00100 57.66500 39.76900
C  25.52300 56.53800 40.59800
O  26.02600 56.07200 41.62300
O  24.39200 56.06700 39.92100
C  23.92800 54.79400 40.39200
H  32.60200 55.15200 39.70100
H  34.66600 60.78200 41.71400
H  28.55100 62.97300 42.14000
H  27.55000 55.18200 39.58600
H  30.17700 54.27900 38.88000
H  28.89100 53.98500 41.37400
H  30.59000 54.47000 41.64600
H  30.31600 53.02000 40.78700
H  29.23000 55.43900 37.13500
H  28.30600 56.83500 37.37900
H  26.44000 54.66000 37.66900
H  27.51200 54.00500 36.52800
H  35.63800 55.85700 38.85800
H  34.60200 54.98100 40.01400
H  36.06000 55.78200 40.56500
H  37.97600 60.10200 40.53300
H  36.82200 60.26800 41.87300
H  36.38300 60.79000 40.23900
H  33.05100 63.14200 41.13400
H  30.94200 63.36800 43.29600
H  34.15900 62.20500 43.40400
H  32.87600 63.23600 44.10200
H  34.29100 63.86600 42.98000
H  30.20700 63.99700 40.48100
H  31.66600 64.81500 40.66200
H  29.52500 66.16600 41.11200
H  30.76200 66.34200 42.33900
H  29.37600 65.34600 42.68600
H  26.31300 63.09600 41.94100
H  24.76200 62.18400 41.31600
H  25.95400 62.83200 40.27100
H  25.79800 57.49200 38.71200
H  23.76900 54.11900 39.55100
H  22.95200 54.88000 40.86900
H  24.42000 54.26000 41.20600
Mg 26.21700 52.23900 27.06100
C  23.65900 52.46600 29.40000
C  28.30900 51.10600 29.35800
C  28.59700 51.83200 24.54800
C  23.91000 53.07000 24.51700
N  25.89500 51.68700 29.21900
C  24.89000 51.97800 30.03500
C  25.19400 51.77200 31.52000
C  26.66700 51.23000 31.40500
C  27.02200 51.38400 29.94200
C  27.70200 51.98800 32.24800
C  24.22800 50.79200 32.34600
C  23.73000 51.28100 33.70100
H  24.79700 51.69700 34.73800
N  28.19900 51.61700 27.00500
C  28.90500 51.27600 28.07700
C  30.25800 50.89200 27.65200
C  30.35100 51.02700 26.23200
C  29.03600 51.54100 25.86900
C  31.20800 50.26100 28.56400
C  31.51500 50.73600 25.32100
O  31.43100 51.02700 24.11200
C  32.70900 50.16400 25.88200
N  26.29200 52.67600 24.84600
C  27.31600 52.27200 24.10700
C  27.04300 52.66100 22.57500
C  25.50600 52.88900 22.48300
C  25.20300 52.86300 23.98800
C  28.01500 53.82400 22.08800
C  24.72100 51.79100 21.71700
C  24.64100 51.99600 20.22900
N  24.21600 52.71200 26.96500
C  23.46600 53.05700 25.86200
C  22.16800 53.32500 26.29700
C  22.15000 53.15500 27.71000
C  23.44800 52.65900 28.04100
C  21.02100 53.50300 25.52300
C  21.30700 53.25800 28.91500
O  20.20600 53.68800 29.06500
C  22.32100 53.00600 30.12300
C  22.57100 54.26000 30.79800
O  23.11700 55.22200 30.28900
O  22.03300 54.25100 32.07000
C  22.37800 55.34300 32.93700
H  29.12400 50.91100 30.05800
H  29.26200 51.76700 23.68400
H  23.17600 53.27900 23.73600
H  25.18100 52.70400 32.08600
H  26.90900 50.17400 31.52200
H  28.42100 51.24600 32.59500
H  27.18200 52.45800 33.08300
H  28.25900 52.65200 31.58600
H  24.71900 49.82000 32.37500
H  23.27000 50.63700 31.85000
H  22.98300 50.61000 34.12600
H  23.24700 52.23000 33.47100
H  30.97500 50.14900 29.62300
H  32.11800 50.85800 28.50800
H  31.52000 49.27500 28.22200
H  33.47600 50.12300 25.10900
H  32.54300 49.12500 26.16800
H  33.17300 50.59100 26.77100
H  27.26000 51.73600 22.04000
H  25.32100 53.90000 22.11900
H  28.83100 53.85100 22.80900
H  27.51100 54.77100 21.89500
H  28.36000 53.52300 21.09800
H  23.68800 51.64600 22.03300
H  25.21400 50.83000 21.86400
H  24.83200 51.04100 19.73900
H  25.33900 52.69300 19.76500
H  23.65300 52.31400 19.89700
H  20.93600 52.83200 24.66800
H  20.81900 54.54000 25.25700
H  20.20200 53.24300 26.19300
H  22.01500 52.22700 30.82200
H  22.50800 56.27200 32.38200
H  23.30600 55.04300 33.42400
H  21.56000 55.37800 33.65600

