158

Mg 54.34100 24.33100 44.80200
C  51.74000 26.61200 43.99200
C  52.51400 21.80000 43.32600
C  57.17400 22.51000 44.58200
C  56.28500 27.17500 45.45400
N  52.32600 24.24400 43.79800
C  51.44300 25.30200 43.50400
C  50.32400 24.76300 42.62400
C  50.36600 23.24000 42.86200
C  51.80000 23.01100 43.40400
C  49.31000 22.64400 43.88600
C  50.34100 25.22600 41.16600
C  51.65300 25.78500 40.66100
H  52.57600 24.81800 39.87100
N  54.77700 22.36600 44.13500
C  53.86100 21.53600 43.59100
C  54.62500 20.32800 43.21000
C  55.96500 20.38300 43.71700
C  56.02900 21.76700 44.12900
C  53.91800 19.19600 42.41000
C  57.02300 19.25800 43.65300
O  56.69200 18.11400 43.27600
C  58.54100 19.49200 43.83000
N  56.51400 24.78900 44.83700
C  57.38800 23.83700 44.88300
C  58.83200 24.34300 45.21200
C  58.54200 25.86400 45.55100
C  56.97500 25.96700 45.22100
C  59.56400 23.71900 46.41900
C  59.36200 26.97100 44.89900
C  58.91600 27.61800 43.56500
N  54.02900 26.44600 44.96100
C  54.91900 27.48000 45.32700
C  54.18600 28.72000 45.47300
C  52.94800 28.46300 44.87000
C  52.92300 27.04600 44.57400
C  54.70300 29.97800 46.10400
C  51.59800 29.01300 44.64400
O  51.07000 30.13200 44.83400
C  50.88400 27.84900 43.89700
C  50.55800 28.35400 42.55100
O  51.38000 28.87200 41.82600
O  49.23900 28.18000 42.27500
C  48.78300 28.51300 40.84800
H  52.03400 20.90000 42.93700
H  58.14800 22.01700 44.60800
H  57.00300 27.98500 45.60000
H  49.45200 25.18000 43.12800
H  50.31500 22.68400 41.92600
H  48.84700 21.74800 43.47200
H  48.60700 23.45200 44.08900
H  49.78800 22.34100 44.81700
H  49.49200 25.89700 41.03200
H  50.31200 24.39400 40.46200
H  52.27900 26.26200 41.41500
H  51.43700 26.56700 39.93300
H  54.64300 18.63300 41.82300
H  53.21900 19.50600 41.63200
H  53.44500 18.59300 43.18400
H  58.73200 20.44100 43.32900
H  59.04900 18.67600 43.31500
H  58.58800 19.54100 44.91800
H  59.48800 24.41400 44.34400
H  58.60500 26.03900 46.62500
H  60.39700 23.13800 46.02200
H  58.81800 23.02900 46.81500
H  59.99500 24.40100 47.15200
H  60.31700 26.47000 44.73900
H  59.65000 27.77400 45.57800
H  59.49800 27.23800 42.72500
H  59.13800 28.68300 43.63200
H  57.88800 27.35200 43.32000
H  55.52800 30.49100 45.61000
H  55.02000 29.70300 47.11000
H  53.86100 30.66800 46.15100
H  49.93600 27.62900 44.38600
H  49.49800 28.33800 40.04400
H  48.46900 29.55700 40.87300
H  47.88300 27.92900 40.66000
Mg 17.51600 52.36300 26.77100
C  19.40800 50.82800 29.45900
C  15.04000 53.01700 29.02900
C  15.62900 53.49100 24.21500
C  19.86100 51.20100 24.56600
N  17.20300 51.74400 28.99600
C  18.16000 51.36200 29.88100
C  17.62400 51.57900 31.30600
C  16.13100 52.01500 31.08000
C  16.12800 52.33100 29.58300
C  15.06100 51.00100 31.58900
C  18.47900 52.70400 31.90600
C  18.80700 52.55500 33.39200
H  17.75400 53.10800 34.38000
N  15.61700 53.16600 26.66200
C  14.75700 53.45500 27.71900
C  13.64600 54.28100 27.30600
C  13.75400 54.38000 25.86900
C  15.03600 53.68900 25.48500
C  12.54900 54.70500 28.28000
C  12.77100 54.91800 24.89700
O  13.09600 55.05300 23.76100
C  11.42400 55.39500 25.45700
N  17.75300 52.41600 24.65000
C  16.75100 52.79800 23.84300
C  17.14400 52.66200 22.36800
C  18.63400 52.12300 22.51000
C  18.78500 51.83900 24.00600
C  16.13900 51.70300 21.63300
C  19.70200 53.17100 22.13300
C  21.06500 52.64200 21.72300
N  19.33000 51.27500 26.97000
C  20.16900 50.93800 25.96200
C  21.40300 50.32400 26.55000
C  21.12600 50.20700 27.92500
C  19.88300 50.80500 28.11600
C  22.52300 49.72800 25.74700
C  21.62500 49.74400 29.17800
O  22.62600 49.14100 29.48300
C  20.53000 50.21100 30.27400
C  20.05000 49.00300 31.02700
O  19.66600 47.94400 30.53500
O  20.12900 49.30100 32.32600
C  19.69900 48.30100 33.36900
H  14.30200 53.38200 29.74600
H  15.01100 53.91100 23.41900
H  20.62200 50.82200 23.88100
H  17.72300 50.56600 31.69500
H  15.96900 52.95800 31.60200
H  15.60100 50.31000 32.23600
H  14.73900 50.51000 30.67000
H  14.24500 51.47400 32.13500
H  17.97400 53.64300 31.68100
H  19.39000 52.90100 31.34200
H  19.77600 53.03800 33.51700
H  19.02800 51.51600 33.63500
H  11.83200 53.88600 28.22200
H  12.21900 55.70100 27.98600
H  12.91300 54.70400 29.30800
H  10.68500 55.71600 24.72300
H  11.84100 56.28300 25.93300
H  11.00900 54.73000 26.21300
H  17.05000 53.61600 21.85000
H  18.84800 51.21600 21.94400
H  15.28600 51.56600 22.29700
H  16.52100 50.68900 21.51700
H  15.82800 51.95400 20.61900
H  19.89100 53.66900 23.08400
H  19.30800 53.77300 21.31500
H  21.86800 52.94600 22.39500
H  21.28700 52.89600 20.68700
H  21.09300 51.56600 21.54700
H  23.44000 49.70500 26.33600
H  22.61000 50.38100 24.87800
H  22.35700 48.72200 25.36100
H  20.95900 50.94400 30.95700
H  20.48600 47.54900 33.42800
H  18.80400 47.80800 32.99100
H  19.41400 48.73600 34.32600

