158

Mg 1.46600 7.99800 24.85300
C  2.10700 9.72300 28.00400
C  1.30500 5.10100 26.76600
C  1.35700 6.32000 21.97300
C  1.81900 10.99900 23.28200
N  2.01700 7.45700 27.13000
C  1.99000 8.29600 28.16000
C  1.84300 7.60000 29.52800
C  1.78100 6.14000 29.07200
C  1.67100 6.19100 27.53600
C  2.89400 5.21100 29.71100
C  0.57600 8.08800 30.42500
C  0.91900 8.43700 31.86200
H  1.97900 7.75300 32.64800
N  1.40700 5.93100 24.39500
C  1.24200 4.95200 25.31500
C  1.01100 3.69400 24.60100
C  0.99500 3.98400 23.22000
C  1.31200 5.44300 23.12700
C  0.69400 2.45900 25.39300
C  0.73200 3.02900 21.99500
O  0.47800 3.56700 20.89300
C  0.46300 1.55700 22.09400
N  1.73100 8.54000 22.94500
C  1.48300 7.65900 21.93100
C  1.38000 8.36600 20.56400
C  1.27400 9.87300 20.99800
C  1.64000 9.82500 22.44200
C  2.67200 8.12400 19.74100
C  -0.09200 10.54300 20.64000
C  -0.22100 11.06500 19.17400
N  1.89300 9.95800 25.45700
C  1.99600 11.06000 24.68800
C  2.11900 12.25200 25.50900
C  2.18300 11.77800 26.82600
C  2.07900 10.34600 26.71300
C  2.15900 13.71500 25.06400
C  2.26700 12.13100 28.18100
O  2.30400 13.25000 28.69900
C  2.09600 10.87700 28.96000
C  3.26500 10.72800 29.89300
O  4.15500 9.89400 29.79900
O  3.13100 11.50700 31.03900
C  4.13900 11.31600 32.04200
H  0.99000 4.25100 27.37500
H  1.43800 5.74500 21.04800
H  1.82000 11.97800 22.79800
H  2.70600 7.80600 30.16100
H  0.88000 5.66000 29.45500
H  2.46200 4.54000 30.45300
H  3.54100 5.94500 30.19200
H  3.53100 4.71300 28.98000
H  -0.15100 7.27600 30.44800
H  0.18600 8.99100 29.95700
H  -0.04800 8.28600 32.34200
H  1.08600 9.51400 31.83200
H  0.15200 1.67300 24.86800
H  0.02300 2.68100 26.22300
H  1.59000 1.89200 25.64600
H  0.52400 1.20300 21.06500
H  -0.53100 1.43900 22.52600
H  1.19300 1.00200 22.68300
H  0.53500 8.00100 19.98100
H  2.04000 10.40900 20.43800
H  2.66000 8.42700 18.69400
H  2.91700 7.06200 19.74500
H  3.53100 8.62400 20.19000
H  -0.33200 11.40500 21.26300
H  -0.82400 9.76700 20.85900
H  0.60600 10.73800 18.54400
H  -0.25000 12.15300 19.12900
H  -1.01400 10.50400 18.67700
H  2.66900 14.32600 25.80800
H  1.13400 13.98700 24.81100
H  2.67500 13.81600 24.11000
H  1.18800 10.91300 29.56200
H  5.15300 11.27100 31.64400
H  3.87800 10.39500 32.56300
H  4.24000 12.01900 32.87000
Mg 24.65400 -7.91000 48.04800
C  27.19600 -6.01500 46.98600
C  22.70100 -6.65300 45.47600
C  22.50600 -10.33200 48.62300
C  27.07600 -9.78900 50.13700
N  24.99400 -6.58100 46.31000
C  26.05800 -5.70400 46.29400
C  25.77600 -4.67500 45.16200
C  24.25600 -4.73000 44.96600
C  23.90900 -6.04600 45.66200
C  23.48000 -3.46000 45.28300
C  26.53300 -4.93500 43.79800
C  26.88300 -3.66600 42.99200
H  26.18900 -3.50200 41.64200
N  22.82200 -8.35600 47.29400
C  22.11700 -7.69600 46.21400
C  20.86100 -8.31300 46.04400
C  20.85900 -9.51600 46.80700
C  22.08600 -9.44000 47.63100
C  19.82100 -7.60600 45.15400
C  19.83000 -10.49100 46.71600
O  18.79500 -10.32600 46.08600
C  19.94200 -11.82800 47.46200
N  24.79300 -9.87800 49.30300
C  23.63500 -10.60700 49.39800
C  23.91600 -11.86400 50.20100
C  25.34500 -11.67600 50.81500
C  25.76500 -10.37100 50.07200
C  22.80700 -12.39500 51.18900
C  26.41000 -12.78900 50.56200
C  27.31600 -12.94400 51.77100
N  26.73200 -7.94000 48.54400
C  27.54900 -8.75600 49.29900
C  28.89300 -8.21100 49.30900
C  28.75600 -7.12000 48.41200
C  27.44800 -7.04300 47.92500
C  30.08200 -8.80600 50.06300
C  29.55000 -6.01400 47.81600
O  30.74100 -5.83800 47.83600
C  28.51200 -5.22200 46.84200
C  28.27700 -3.88900 47.40100
O  27.35200 -3.50400 48.16000
O  29.26100 -3.02200 46.82200
C  29.17000 -1.67300 47.13000
H  22.03000 -6.24400 44.71800
H  21.85400 -11.18800 48.80600
H  27.79800 -10.04200 50.91600
H  25.95400 -3.73500 45.68400
H  24.10200 -4.83100 43.89200
H  24.16400 -2.80400 45.82000
H  22.63600 -3.77800 45.89400
H  23.11900 -2.89500 44.42200
H  25.97300 -5.60900 43.14900
H  27.46900 -5.43000 44.05400
H  27.96900 -3.57300 42.96100
H  26.41000 -2.86900 43.56600
H  19.82500 -6.56000 45.46200
H  18.80500 -7.89500 45.42400
H  19.95000 -7.72000 44.07800
H  20.83600 -12.34200 47.10900
H  19.01100 -12.35600 47.25600
H  19.95800 -11.71800 48.54700
H  23.94300 -12.66400 49.46100
H  25.22400 -11.53400 51.88900
H  22.08400 -11.61200 51.41700
H  23.20800 -12.67900 52.16200
H  22.27200 -13.25700 50.78900
H  26.96800 -12.45700 49.68600
H  25.92200 -13.73700 50.33200
H  26.58800 -12.78400 52.56600
H  28.13400 -12.24700 51.95400
H  27.65700 -13.97900 51.76500
H  29.77600 -8.74100 51.10700
H  30.93800 -8.15100 49.90100
H  30.22600 -9.86100 49.82900
H  28.99100 -5.25500 45.86400
H  30.16600 -1.24600 47.24700
H  28.65400 -1.44300 48.06200
H  28.78700 -1.07700 46.30200

