158

Mg 47.91000 44.90100 43.26300
C  44.56300 44.29700 42.49500
C  48.62100 41.57800 43.01000
C  51.09400 45.67200 43.61400
C  47.09000 48.36400 43.20700
N  46.80500 43.16600 42.55000
C  45.37500 43.13300 42.48700
C  44.91800 41.70500 42.21300
C  46.19800 40.84300 42.42700
C  47.31500 41.92300 42.75500
C  46.26200 39.89300 43.61700
C  44.26200 41.59300 40.81400
C  44.68800 42.33200 39.53900
H  43.91200 41.94200 38.20900
N  49.67000 43.70700 43.29100
C  49.74900 42.39500 43.24300
C  51.09000 42.02400 43.44800
C  51.87300 43.21100 43.55400
C  50.87500 44.28100 43.52500
C  51.45100 40.52100 43.46500
C  53.30800 43.30500 43.85600
O  53.98700 42.27100 43.85600
C  54.05200 44.52900 44.14600
N  48.94700 46.78200 43.27300
C  50.24300 46.78300 43.51900
C  50.74700 48.23300 43.68900
C  49.38700 49.07000 43.73500
C  48.40200 48.00000 43.36400
C  51.63200 48.42000 45.03100
C  49.46000 50.35200 42.88400
C  49.48600 51.65300 43.75200
N  46.13100 46.16800 42.95800
C  45.96300 47.52200 42.98300
C  44.58100 47.87000 42.79700
C  43.97300 46.60500 42.63100
C  44.97100 45.63600 42.70800
C  43.95500 49.23100 42.88200
C  42.63700 45.95600 42.45800
O  41.54800 46.46400 42.35000
C  42.99400 44.44300 42.29600
C  42.23200 43.81100 43.39400
O  41.32400 42.98300 43.27200
O  42.71800 44.18200 44.62200
C  41.99000 43.75200 45.85800
H  48.68300 40.49000 43.07900
H  52.12600 45.93900 43.85100
H  46.79900 49.41100 43.31600
H  44.17900 41.46700 42.97800
H  46.53500 40.30000 41.54500
H  46.90100 40.28900 44.40700
H  46.78500 38.96800 43.37600
H  45.26000 39.65200 43.97300
H  43.18200 41.61100 40.96000
H  44.45300 40.56500 40.50500
H  45.67500 41.90100 39.37000
H  44.54500 43.41300 39.51300
H  52.50400 40.28000 43.31700
H  50.90500 40.00900 42.67300
H  51.12000 40.02500 44.37700
H  54.17800 45.16200 43.26800
H  55.11400 44.38100 44.34000
H  53.61500 45.09300 44.97000
H  51.30300 48.34300 42.75900
H  49.17400 49.27000 44.78500
H  51.68900 49.43900 45.41300
H  52.63400 48.08000 44.76900
H  51.20000 47.65300 45.67300
H  48.63700 50.43300 42.17400
H  50.33200 50.38700 42.23100
H  50.25800 52.39500 43.54800
H  49.69500 51.44700 44.80200
H  48.47600 52.05500 43.66400
H  44.19100 49.88900 42.04500
H  44.29400 49.87000 43.69700
H  42.87200 49.20500 43.00500
H  42.68600 44.07400 41.31800
H  41.76800 42.68500 45.86700
H  41.02000 44.22500 46.01200
H  42.65500 43.94000 46.70100
Mg 36.37300 49.74900 24.70000
C  36.22500 48.06700 27.77100
C  35.34900 52.65000 26.23000
C  35.97200 51.23400 21.58400
C  36.99600 46.67800 23.12700
N  35.76400 50.21400 26.71300
C  35.99000 49.42800 27.83400
C  35.74200 50.31700 29.15300
C  35.28000 51.72400 28.58300
C  35.47600 51.55000 27.09600
C  33.98600 52.22500 29.09800
C  37.09800 50.39300 29.95600
C  37.14900 50.51000 31.49300
H  35.93300 50.76600 32.31400
N  35.75300 51.70900 23.99000
C  35.48400 52.74300 24.81000
C  35.17600 53.91100 24.03300
C  35.39100 53.58900 22.65300
C  35.75100 52.11000 22.67700
C  34.74200 55.31700 24.60100
C  35.16900 54.32500 21.34000
O  35.28500 53.76400 20.22000
C  34.66600 55.76900 21.42800
N  36.51100 49.03000 22.66000
C  36.34600 49.87400 21.60700
C  36.77100 49.15200 20.29700
C  37.22300 47.75400 20.82500
C  36.79700 47.76900 22.25000
C  35.70500 49.09900 19.21700
C  38.79900 47.46400 20.69700
C  39.28400 46.04500 20.37900
N  36.60800 47.75800 25.24700
C  36.78300 46.61300 24.52100
C  36.90100 45.51300 25.39400
C  36.71600 45.96700 26.68300
C  36.50400 47.32800 26.57700
C  37.15700 44.11400 24.98100
C  36.60600 45.62700 28.09000
O  36.76900 44.56600 28.65900
C  36.28700 47.03200 28.83500
C  35.07200 46.90500 29.70900
O  33.96300 47.06600 29.35500
O  35.44700 46.41500 30.97300
C  34.32000 46.36400 31.94000
H  35.11700 53.56900 26.77400
H  35.75600 51.61300 20.58300
H  37.36200 45.71700 22.76000
H  34.95300 49.80800 29.70700
H  35.97300 52.50500 28.89200
H  33.80100 51.78500 30.07800
H  33.11700 52.23600 28.44000
H  34.25900 53.26200 29.29300
H  37.67900 51.22700 29.56300
H  37.66700 49.50200 29.69000
H  37.86600 51.30900 31.68000
H  37.68700 49.70400 31.99300
H  35.53800 56.04100 24.42700
H  34.43100 55.24200 25.64300
H  33.86400 55.60400 24.02200
H  35.36600 56.42500 21.94600
H  33.65000 55.78300 21.82200
H  34.58500 56.04900 20.37800
H  37.56600 49.71100 19.80200
H  36.70100 46.93600 20.32800
H  35.85900 49.87400 18.46700
H  34.70300 49.31300 19.58700
H  35.55700 48.11000 18.78500
H  39.32100 47.75400 21.60800
H  39.13800 48.26800 20.04200
H  39.99400 46.18000 19.56300
H  38.45600 45.42500 20.03400
H  39.70100 45.49300 21.22200
H  37.91100 43.98200 24.20400
H  36.20100 43.65900 24.72100
H  37.67200 43.67700 25.83600
H  37.06600 47.21800 29.57500
H  34.56700 46.04700 32.95300
H  33.51200 45.80500 31.46700
H  33.90500 47.36900 32.01900

