158

Mg 16.96100 51.78300 26.32300
C  18.73200 50.49000 29.03300
C  14.49700 52.77500 28.53000
C  14.91100 52.48700 23.69400
C  19.16700 50.18900 24.17900
N  16.73200 51.54000 28.53400
C  17.60100 51.10400 29.51400
C  17.11200 51.56200 30.95700
C  15.62500 51.87300 30.64900
C  15.65300 52.19000 29.13600
C  14.64100 50.69700 31.02700
C  17.87400 52.78000 31.50000
C  18.21800 52.61400 33.00900
H  17.19500 51.80900 33.86200
N  15.08100 52.62300 26.16700
C  14.24200 52.99100 27.17600
C  12.97600 53.63400 26.62700
C  13.14900 53.58100 25.21500
C  14.35300 52.82500 24.95100
C  11.93400 54.28900 27.44300
C  12.24500 54.16200 24.06700
O  12.47500 54.12400 22.91900
C  10.88900 54.80400 24.47800
N  17.03200 51.52700 24.24400
C  16.14500 51.94800 23.33200
C  16.59100 51.78400 21.94300
C  17.96400 51.05500 22.07700
C  18.06300 50.83800 23.59400
C  15.62800 50.88700 21.12800
C  19.16800 51.81300 21.43400
C  20.37500 50.85100 20.91900
N  18.72200 50.71300 26.48300
C  19.55300 50.06700 25.56300
C  20.66300 49.41200 26.21800
C  20.41800 49.62600 27.55000
C  19.15900 50.31800 27.69600
C  21.79400 48.59300 25.69000
C  20.88200 49.29200 28.85000
O  21.87400 48.64500 29.16500
C  19.88300 49.86900 29.82900
C  19.47100 48.80000 30.85600
O  18.96600 47.69400 30.60900
O  19.82400 49.26600 32.13500
C  19.57400 48.48100 33.40500
H  13.76600 53.10600 29.27100
H  14.17300 52.47600 22.88900
H  19.86800 49.58800 23.59600
H  17.28500 50.67000 31.55900
H  15.26200 52.72400 31.22500
H  15.06100 50.11900 31.84900
H  14.55100 50.13300 30.09800
H  13.67600 51.03900 31.40200
H  17.37500 53.72700 31.29500
H  18.86700 52.77500 31.05100
H  18.25900 53.61200 33.44700
H  19.22700 52.22300 33.14100
H  12.14600 54.31900 28.51200
H  11.10900 53.57700 27.46400
H  11.69600 55.27200 27.03500
H  10.95500 55.78600 24.94800
H  10.39000 54.02200 25.05000
H  10.42200 54.80100 23.49300
H  16.72400 52.72900 21.41700
H  17.97800 50.07100 21.61000
H  14.86300 50.40300 21.73500
H  16.20300 50.24900 20.45700
H  15.08700 51.47600 20.38700
H  19.68900 52.44400 22.15400
H  18.91100 52.31300 20.50000
H  20.28900 49.86900 21.38400
H  21.32400 51.33200 21.15700
H  20.30900 50.80300 19.83200
H  22.43500 49.39200 25.31600
H  21.47600 47.95000 24.86900
H  22.14400 47.95300 26.49900
H  20.42200 50.62800 30.39700
H  18.55100 48.14500 33.23400
H  19.57000 49.12800 34.28200
H  20.31400 47.68100 33.43300
Mg 9.60500 47.61800 26.45100
C  7.63500 47.81200 29.21900
C  12.26500 49.11000 27.95600
C  11.26000 47.51300 23.52300
C  6.69500 46.48800 24.57400
N  9.91900 48.40200 28.40600
C  9.00900 48.30500 29.37900
C  9.59200 48.81900 30.71600
C  10.87700 49.64400 30.14200
C  11.05700 49.09600 28.73400
C  10.91400 51.16900 30.31900
C  9.87400 47.72100 31.75000
C  9.35900 47.90600 33.20300
H  9.25200 46.68300 34.05800
N  11.55400 48.15400 25.90800
C  12.54700 48.63700 26.71500
C  13.79400 48.59700 26.07200
C  13.49400 48.18000 24.73600
C  12.06500 47.91000 24.65600
C  15.07600 48.86500 26.74800
C  14.48300 47.91900 23.62300
O  14.16600 47.54200 22.51900
C  15.93100 48.12000 23.81100
N  8.93000 47.07900 24.37900
C  9.88000 47.08600 23.37300
C  9.35800 46.43200 22.09100
C  7.94400 45.89400 22.49700
C  7.84500 46.54300 23.88000
C  9.49200 47.30500 20.81700
C  7.86400 44.33800 22.58500
C  8.85400 43.65400 23.50600
N  7.60000 47.30800 26.83600
C  6.50200 46.82600 25.96100
C  5.31300 46.85400 26.67300
C  5.65700 47.21200 27.99100
C  7.07500 47.39100 28.01900
C  3.93900 46.72000 26.15000
C  5.19600 47.43600 29.35600
O  4.08000 47.42700 29.73100
C  6.44700 47.80700 30.28600
C  6.52600 46.51000 31.17000
O  7.19800 45.54900 30.84700
O  5.68100 46.59600 32.19900
C  5.64100 45.32800 32.98400
H  13.16700 49.51300 28.42200
H  11.89600 47.34100 22.65200
H  5.76400 46.19000 24.08600
H  8.86600 49.50600 31.15200
H  11.61900 49.27400 30.85000
H  9.90500 51.58100 30.34300
H  11.52600 51.65300 29.55800
H  11.31800 51.35100 31.31500
H  10.94700 47.52800 31.73600
H  9.42200 46.77400 31.45700
H  8.38800 48.35800 33.00400
H  9.95400 48.63000 33.76000
H  15.64900 47.96700 26.98100
H  14.89700 49.45900 27.64400
H  15.71500 49.45600 26.09200
H  16.49900 47.47600 24.48200
H  16.19900 49.14600 24.06100
H  16.37900 47.94800 22.83200
H  10.02900 45.60300 21.86600
H  7.13500 46.28500 21.87900
H  9.54600 48.35700 21.09700
H  8.65900 47.34000 20.11500
H  10.34300 47.05500 20.18400
H  8.07700 43.94800 21.58900
H  6.83000 44.09300 22.82800
H  8.22300 43.14300 24.23300
H  9.56000 44.27500 24.05600
H  9.33600 42.84300 22.96000
H  3.95900 46.20100 25.19100
H  3.56700 47.73700 26.02100
H  3.29900 46.12400 26.80000
H  6.33200 48.74100 30.83700
H  5.71600 45.69500 34.00800
H  6.47100 44.63700 32.83500
H  4.69400 44.79000 32.94500

