158

Mg 49.24400 45.99400 42.74500
C  45.78500 46.10900 42.37200
C  49.27000 42.71400 41.64900
C  52.70300 46.11200 42.27500
C  49.28600 49.37400 43.36900
N  47.77600 44.64800 41.94300
C  46.41800 44.87700 42.00300
C  45.59800 43.60200 41.55000
C  46.68500 42.45900 41.73000
C  47.96700 43.31900 41.78500
C  46.54100 41.67000 43.03800
C  45.08100 43.77600 40.10500
C  43.61000 43.36800 39.90600
H  43.03800 43.78100 38.54200
N  50.82200 44.57300 42.17100
C  50.57200 43.27200 41.82400
C  51.78200 42.64900 41.56400
C  52.80100 43.59900 41.68800
C  52.12000 44.80300 42.07500
C  51.85800 41.20300 41.14000
C  54.32300 43.33600 41.31600
O  54.66300 42.19800 41.10300
C  55.26000 44.38500 41.14900
N  50.80400 47.44900 42.79400
C  52.07500 47.26600 42.71000
C  52.92600 48.60100 42.85600
C  51.81900 49.56300 43.38700
C  50.56000 48.74700 43.10200
C  54.08200 48.54600 43.88100
C  51.86000 50.91900 42.66700
C  51.74800 52.21100 43.48900
N  47.85500 47.49700 42.77700
C  48.02200 48.81600 43.22300
C  46.74500 49.42500 43.33000
C  45.81700 48.39500 43.04600
C  46.53900 47.25500 42.73400
C  46.46900 50.85900 43.59600
C  44.42700 48.06300 42.89400
O  43.40600 48.67900 43.01500
C  44.35300 46.52200 42.50900
C  43.58700 45.80300 43.50500
O  43.98500 45.53900 44.61900
O  42.40500 45.48600 42.96400
C  41.51400 44.70400 43.87300
H  49.25200 41.64300 41.43700
H  53.77100 46.24800 42.09300
H  49.36000 50.36600 43.82100
H  44.75100 43.48400 42.22600
H  46.68200 41.69200 40.95500
H  45.78300 42.13700 43.66800
H  47.51100 41.69400 43.53400
H  46.18300 40.65900 42.84400
H  45.79000 43.17400 39.53700
H  45.11000 44.82700 39.81400
H  43.01200 43.73400 40.74100
H  43.49500 42.30000 40.09100
H  52.79500 40.64600 41.16500
H  51.35300 41.08600 40.18100
H  51.16300 40.60900 41.73300
H  54.93200 44.87800 40.23400
H  56.25600 44.03000 40.88400
H  55.23300 44.95500 42.07800
H  53.20000 48.71100 41.80700
H  51.77600 49.81400 44.44700
H  54.00500 49.42800 44.51700
H  55.02400 48.52700 43.33300
H  54.10300 47.64200 44.49000
H  50.95600 50.83300 42.06200
H  52.70300 50.90100 41.97600
H  52.68300 52.76900 43.44300
H  51.47200 51.94600 44.51000
H  50.95000 52.82100 43.06600
H  47.18200 51.15100 44.36700
H  45.44100 50.98200 43.93700
H  46.52200 51.52300 42.73300
H  43.88900 46.36800 41.53500
H  40.62500 44.43000 43.30400
H  41.27400 45.43400 44.64600
H  42.10400 43.82600 44.13600
Mg 9.29900 47.47100 26.43700
C  7.35200 47.88900 29.42900
C  12.14100 48.36800 28.17500
C  11.01600 47.27600 23.61300
C  6.28600 46.62800 24.77300
N  9.63800 48.25600 28.50600
C  8.70800 48.21200 29.57800
C  9.36600 48.60300 30.87000
C  10.83400 49.10200 30.39200
C  10.88900 48.58100 28.91700
C  11.23300 50.59000 30.45500
C  9.67400 47.35900 31.80900
C  9.13600 47.52400 33.20500
H  9.35100 46.37300 34.24900
N  11.27200 47.67800 26.01600
C  12.32200 47.95400 26.87000
C  13.60400 48.01400 26.17700
C  13.33200 47.79300 24.83100
C  11.85700 47.56200 24.75200
C  14.96700 48.35100 26.85400
C  14.20700 47.60900 23.63500
O  13.75700 47.30300 22.56300
C  15.59900 47.88200 23.77700
N  8.76300 47.01500 24.54400
C  9.70000 46.95700 23.53700
C  9.04900 46.53800 22.24100
C  7.59400 46.16700 22.61600
C  7.49200 46.71000 24.04500
C  9.10900 47.62100 21.07300
C  7.29900 44.73400 22.38400
C  8.10500 43.68400 23.12900
N  7.20900 47.32500 26.90500
C  6.14400 47.04400 26.06900
C  4.98400 47.09000 26.89800
C  5.39500 47.33800 28.19400
C  6.79500 47.55300 28.20600
C  3.57100 46.98100 26.38200
C  4.92000 47.55400 29.56000
O  3.85800 47.63700 30.10400
C  6.19000 47.79600 30.42000
C  6.30900 46.55300 31.30200
O  6.68400 45.44100 30.99500
O  5.82900 46.79700 32.57900
C  5.88800 45.74400 33.56100
H  12.98200 48.76900 28.74500
H  11.35400 47.32100 22.57500
H  5.45800 46.30400 24.13900
H  8.79800 49.42900 31.29700
H  11.66900 48.64500 30.92300
H  11.98900 50.68900 29.67600
H  11.51900 50.95500 31.44100
H  10.22700 50.95500 30.24400
H  10.72500 47.19000 32.04200
H  9.12900 46.48300 31.45800
H  8.05100 47.58200 33.12200
H  9.41800 48.49900 33.60100
H  15.63300 47.49800 26.72900
H  15.01600 48.67200 27.89400
H  15.43900 49.24300 26.44300
H  16.16600 47.76100 22.85400
H  15.81700 47.08200 24.48500
H  15.70300 48.85200 24.26400
H  9.67700 45.74300 21.83900
H  6.89400 46.82800 22.10500
H  9.53800 47.18000 20.17300
H  9.80700 48.41300 21.34100
H  8.11900 47.99800 20.81500
H  7.25200 44.49100 21.32300
H  6.29000 44.60400 22.77500
H  9.05200 44.01500 23.55500
H  8.26400 42.82000 22.48300
H  7.65400 43.27700 24.03300
H  2.87900 47.52900 27.02100
H  3.24100 45.96300 26.17200
H  3.51900 47.50600 25.42800
H  6.16100 48.75000 30.94600
H  4.92100 45.24400 33.61100
H  5.89100 46.25900 34.52200
H  6.72100 45.05400 33.42300

