158

Mg 42.53700 41.79100 26.26200
C  41.35200 43.94400 28.70200
C  43.66000 39.81000 28.71500
C  43.63100 39.58600 23.81700
C  41.72200 44.07900 23.79000
N  42.27500 41.77400 28.50200
C  41.83300 42.79800 29.22700
C  41.88800 42.39300 30.68600
C  42.67600 41.03800 30.74200
C  42.90900 40.87600 29.25700
C  44.01300 41.04700 31.62900
C  40.45000 42.30200 31.21800
C  40.24000 41.59200 32.53600
H  39.69900 42.48000 33.71800
N  43.48200 40.00200 26.27300
C  43.93400 39.40800 27.42300
C  44.59400 38.12400 27.00300
C  44.50200 38.02700 25.60200
C  43.88100 39.25400 25.15700
C  45.12900 37.17400 28.08200
C  44.80600 36.84900 24.67500
O  44.94800 36.91500 23.46900
C  45.10600 35.54200 25.32800
N  42.68200 41.85300 24.06600
C  43.19700 40.81300 23.32500
C  42.96700 41.11500 21.83700
C  42.16800 42.47600 21.81100
C  42.13600 42.84200 23.28800
C  44.25000 41.12300 20.95200
C  40.75400 42.31100 21.17400
C  39.83500 41.13300 21.71400
N  41.75600 43.65800 26.17400
C  41.47400 44.44600 25.11100
C  41.04800 45.81800 25.56600
C  40.94200 45.57800 26.96200
C  41.36600 44.27400 27.30400
C  40.62700 46.92300 24.78800
C  40.57900 46.20400 28.26100
O  40.26300 47.36800 28.47300
C  40.87500 45.17500 29.41100
C  41.86000 45.80200 30.37700
O  42.99700 46.18100 30.10200
O  41.27100 45.96600 31.64700
C  42.00700 46.75400 32.61700
H  44.01100 39.17600 29.53100
H  43.85500 38.97900 22.93700
H  41.27600 44.83000 23.13400
H  42.40900 43.12800 31.30000
H  42.01700 40.21800 31.02600
H  43.97900 41.96100 32.22300
H  44.91600 40.94500 31.02600
H  44.10600 40.21900 32.33100
H  39.73200 41.92200 30.49200
H  40.14800 43.31400 31.48700
H  41.20900 41.21600 32.86300
H  39.47600 40.84800 32.31100
H  46.11400 36.80700 27.79600
H  44.44300 36.35200 28.28900
H  45.21400 37.71700 29.02400
H  45.02300 34.83400 24.50400
H  44.21500 35.29500 25.90500
H  46.02800 35.54700 25.90900
H  42.34300 40.27600 21.52700
H  42.73000 43.24400 21.28000
H  44.49000 42.05900 20.44800
H  44.27800 40.36100 20.17300
H  45.11800 40.89600 21.57200
H  40.99800 42.08000 20.13800
H  40.23500 43.26800 21.12700
H  39.67900 40.35000 20.97300
H  38.88800 41.62400 21.93900
H  40.19900 40.63600 22.61300
H  39.54300 46.85300 24.69600
H  41.13100 46.84100 23.82500
H  40.95400 47.87500 25.20500
H  39.92600 45.17000 29.94700
H  41.31300 47.10100 33.38200
H  42.52100 47.66700 32.31600
H  42.74500 46.08900 33.06600
Mg 17.08700 52.42700 26.47100
C  18.93600 50.81200 28.78800
C  14.86400 53.32600 28.87600
C  15.21700 53.96100 24.06500
C  19.26200 51.28500 24.01000
N  16.98400 52.15900 28.62000
C  17.84000 51.48500 29.37600
C  17.39200 51.42400 30.92600
C  15.86700 51.85400 30.74900
C  15.92300 52.61600 29.33000
C  14.83500 50.77800 30.87400
C  18.36000 52.37500 31.66300
C  18.39300 52.32600 33.20100
H  17.28300 51.52900 33.93400
N  15.21100 53.34700 26.45600
C  14.51600 53.70000 27.60900
C  13.42700 54.50600 27.30600
C  13.49200 54.66000 25.85400
C  14.68300 54.03600 25.39700
C  12.26100 54.84300 28.29400
C  12.46500 55.30400 24.83200
O  12.66100 55.51400 23.66700
C  11.12600 55.89000 25.31800
N  17.13100 52.45400 24.30700
C  16.27300 53.21900 23.53000
C  16.61100 53.10800 22.06700
C  17.87700 52.20000 22.06600
C  18.14800 52.00900 23.59400
C  15.46300 52.64300 21.20900
C  19.02600 52.70200 21.20500
C  19.67800 53.96500 21.80100
N  18.80200 51.31200 26.33600
C  19.56500 50.86200 25.27500
C  20.63900 50.05800 25.74200
C  20.38600 49.93000 27.09500
C  19.30400 50.82000 27.41200
C  21.71800 49.34700 24.93700
C  20.84300 49.33600 28.30600
O  21.71600 48.51900 28.47700
C  20.00700 49.95600 29.46700
C  19.46200 48.86300 30.38500
O  18.65500 48.01100 30.03700
O  19.93800 49.05700 31.61500
C  19.41800 48.06900 32.53800
H  14.10300 53.59000 29.61300
H  14.72000 54.61700 23.34700
H  19.95300 50.97100 23.22500
H  17.48300 50.38900 31.25500
H  15.72300 52.46900 31.63800
H  14.38300 50.80700 31.86600
H  15.38100 49.88000 30.58700
H  14.04800 50.92700 30.13500
H  18.08200 53.41800 31.51400
H  19.38000 52.26800 31.29500
H  18.43600 53.26000 33.76200
H  19.41800 52.06900 33.46600
H  11.57100 54.05400 28.59400
H  11.52800 55.56800 27.94100
H  12.74200 55.27400 29.17200
H  10.69500 55.09000 25.92100
H  10.56400 56.24800 24.45500
H  11.31400 56.69000 26.03300
H  16.78200 54.13200 21.73300
H  17.68000 51.20600 21.66600
H  15.64300 51.76800 20.58500
H  15.23600 53.32400 20.38900
H  14.55800 52.45900 21.78900
H  18.53300 53.04400 20.29500
H  19.71400 51.90200 20.93000
H  19.67900 54.80000 21.09900
H  20.71800 53.65500 21.90600
H  19.28600 54.24300 22.77900
H  21.37100 49.16100 23.92100
H  21.94800 48.42100 25.46500
H  22.62000 49.95900 24.91200
H  20.64800 50.65600 30.00300
H  19.57200 48.48500 33.53400
H  19.92400 47.10500 32.47900
H  18.33500 48.08400 32.41300

