158

Mg 8.52100 2.41100 27.95000
C  10.10100 1.18900 30.85200
C  6.42100 4.28500 29.87300
C  7.19300 3.70600 25.15800
C  10.61700 0.29100 26.05700
N  8.38700 2.66800 30.13800
C  9.08800 2.10500 31.11800
C  8.69100 2.61300 32.49300
C  7.44600 3.49600 32.07900
C  7.35300 3.51400 30.63300
C  6.12900 3.22400 32.89100
C  9.76800 3.44800 33.23400
C  9.30900 4.13300 34.60300
H  10.04300 3.64600 35.92200
N  6.96100 3.80900 27.58200
C  6.27100 4.49600 28.49300
C  5.26400 5.25500 27.84200
C  5.46300 5.08300 26.45300
C  6.67700 4.24400 26.33800
C  4.13500 5.96100 28.54300
C  4.71800 5.68300 25.29300
O  5.01200 5.49500 24.12800
C  3.61500 6.62800 25.57600
N  8.83100 2.00700 25.96400
C  8.21500 2.79900 25.01900
C  8.66500 2.34500 23.58200
C  9.83700 1.43000 23.91200
C  9.67200 1.13100 25.38200
C  7.50200 1.63300 22.76400
C  11.21200 2.06100 23.53700
C  11.67600 3.20600 24.44000
N  10.00300 0.89200 28.37500
C  10.73900 0.13900 27.47400
C  11.62000 -0.66700 28.23400
C  11.44100 -0.31900 29.57200
C  10.44600 0.68600 29.60600
C  12.56700 -1.62100 27.63600
C  11.82100 -0.56000 30.94600
O  12.52900 -1.43300 31.38300
C  10.95900 0.49600 31.84200
C  10.21700 -0.27600 32.91000
O  9.40400 -1.15400 32.77400
O  10.78400 0.03300 34.09400
C  10.22400 -0.74200 35.24600
H  5.79000 4.99400 30.41100
H  6.99500 4.10200 24.16000
H  11.35800 -0.29000 25.50400
H  8.46900 1.72200 33.08100
H  7.61200 4.53700 32.35800
H  5.74200 4.11900 33.37800
H  6.44600 2.54800 33.68500
H  5.30400 2.78900 32.32700
H  10.10800 4.11200 32.43900
H  10.65100 2.85000 33.45900
H  8.22400 4.05100 34.67300
H  9.43500 5.20600 34.45600
H  4.36900 7.02400 28.50100
H  3.99000 5.61400 29.56600
H  3.19200 5.83400 28.01100
H  4.04900 7.33800 26.28000
H  2.64400 6.28300 25.92900
H  3.54700 7.14600 24.62000
H  9.00100 3.25200 23.08000
H  9.64600 0.48700 23.40000
H  7.34000 2.14800 21.81600
H  6.54900 1.80200 23.26600
H  7.51100 0.55500 22.60700
H  11.15100 2.57500 22.57800
H  11.98000 1.29400 23.43900
H  11.45600 4.18700 24.02000
H  12.73200 3.10700 24.69100
H  11.24300 3.17000 25.44000
H  12.97500 -1.35100 26.66200
H  12.08200 -2.59300 27.55300
H  13.36300 -1.57000 28.37900
H  11.61100 1.23600 32.30400
H  9.36600 -1.34300 34.94500
H  9.93200 0.02100 35.96800
H  11.02900 -1.36500 35.63700
Mg -4.24000 25.52700 26.89100
C  -2.94000 27.01500 29.76700
C  -6.24400 23.53700 28.84400
C  -4.84600 23.70900 24.04300
C  -1.91400 27.30200 25.04400
N  -4.56200 25.33700 29.12100
C  -3.87000 25.97600 30.13400
C  -4.49200 25.61700 31.53400
C  -5.35100 24.29600 31.20900
C  -5.40700 24.35500 29.65400
C  -4.67100 22.91100 31.71200
C  -5.45500 26.80000 32.01200
C  -5.60400 26.91300 33.54800
H  -5.31200 25.75400 34.59500
N  -5.41400 24.04200 26.51400
C  -6.22700 23.36800 27.43800
C  -7.16600 22.72600 26.63700
C  -6.84300 22.72600 25.29900
C  -5.60500 23.52300 25.23000
C  -8.20700 21.84200 27.27700
C  -7.57500 22.10700 24.13600
O  -7.25500 22.23100 23.01900
C  -8.91300 21.28600 24.29700
N  -3.45500 25.46800 24.88700
C  -3.77800 24.63900 23.89200
C  -2.94000 24.84700 22.59200
C  -2.18000 26.20300 22.88200
C  -2.54000 26.34500 24.38500
C  -1.99000 23.73800 22.20300
C  -2.79300 27.36700 22.02200
C  -1.95200 28.46100 21.48400
N  -2.78900 26.92500 27.25400
C  -1.99700 27.63700 26.43000
C  -1.25400 28.61700 27.12800
C  -1.54700 28.34200 28.44600
C  -2.51600 27.33900 28.48000
C  -0.27700 29.52800 26.54200
C  -1.37000 28.79300 29.79700
O  -0.61600 29.69900 30.18200
C  -2.18300 27.89400 30.74100
C  -1.42400 27.39300 31.83900
O  -0.42800 26.65200 31.83500
O  -1.94900 27.84500 33.00700
C  -1.44900 27.19500 34.22400
H  -6.75200 22.84300 29.51700
H  -5.02600 23.05800 23.18600
H  -1.14400 27.86500 24.51100
H  -3.68100 25.25900 32.16900
H  -6.33900 24.34300 31.66500
H  -4.23700 22.92800 32.71200
H  -3.92600 22.57800 30.98900
H  -5.39000 22.09200 31.69600
H  -6.46700 26.70800 31.61700
H  -5.15000 27.78100 31.64900
H  -6.60000 27.30900 33.75000
H  -4.95000 27.72300 33.87200
H  -7.88300 20.83100 27.02900
H  -9.13700 22.04500 26.74600
H  -8.35500 22.05100 28.33600
H  -9.74900 21.88800 24.65400
H  -8.74000 20.50500 25.03700
H  -9.16600 20.83200 23.33900
H  -3.68400 24.92400 21.79900
H  -1.09100 26.14900 22.87000
H  -1.01400 24.17700 22.41000
H  -2.12000 23.55300 21.13700
H  -2.17300 22.92400 22.90400
H  -3.66000 27.80400 22.51700
H  -3.19600 26.89700 21.12500
H  -0.92400 28.24800 21.77900
H  -2.16900 29.49400 21.75700
H  -1.91300 28.39700 20.39700
H  -0.36400 29.60800 25.45900
H  0.72800 29.22900 26.84100
H  -0.41100 30.52600 26.95900
H  -2.87800 28.63000 31.14500
H  -0.39400 27.39800 34.41000
H  -1.67600 26.13400 34.12500
H  -1.94700 27.62200 35.09500

