158

Mg 35.63700 1.38900 30.64400
C  33.49700 2.79500 32.94800
C  37.96600 0.89200 33.07100
C  37.84300 0.38200 28.27500
C  33.29400 1.82800 28.16700
N  35.73600 1.96700 32.74600
C  34.75100 2.50700 33.52300
C  35.18200 2.34200 34.97900
C  36.70300 2.00800 34.93700
C  36.80900 1.57600 33.50200
C  37.73200 3.12800 35.32600
C  34.28900 1.39300 35.81800
C  34.16100 1.59900 37.40500
H  34.78700 2.79900 38.17900
N  37.65400 0.78500 30.70000
C  38.39000 0.58600 31.79300
C  39.76500 0.22100 31.38200
C  39.71500 0.16400 29.99100
C  38.36000 0.51900 29.60200
C  40.89700 -0.06100 32.31700
C  40.81000 -0.24600 29.05200
O  40.77000 -0.09600 27.80400
C  42.10400 -0.87600 29.49600
N  35.57600 1.11400 28.51300
C  36.60400 0.66900 27.72900
C  36.23200 0.35500 26.25200
C  34.76500 0.90400 26.31400
C  34.54200 1.29500 27.72600
C  36.99900 1.06400 25.10100
C  33.74100 -0.18200 25.82600
C  33.61800 -0.20800 24.24400
N  33.78800 2.26400 30.52000
C  32.96300 2.38100 29.40200
C  31.74200 3.05600 29.76200
C  31.92100 3.27900 31.16800
C  33.13500 2.71800 31.55200
C  30.56600 3.44300 28.89900
C  31.33500 3.81500 32.38100
O  30.34200 4.49800 32.50100
C  32.27200 3.27900 33.62700
C  32.49200 4.37500 34.48600
O  33.29200 5.33900 34.25700
O  31.65700 4.34100 35.55800
C  31.65500 5.52700 36.34800
H  38.66500 0.67200 33.88000
H  38.49000 -0.03400 27.49900
H  32.49400 1.81600 27.42400
H  35.18700 3.37700 35.32100
H  36.95300 1.13000 35.53300
H  38.27500 2.51000 36.04200
H  37.34800 4.01100 35.83600
H  38.49100 3.21600 34.54900
H  34.82100 0.45200 35.67900
H  33.26500 1.27400 35.46100
H  34.33600 0.65700 37.92300
H  33.11200 1.89400 37.43800
H  41.26600 -1.08600 32.35900
H  40.65800 0.25600 33.33300
H  41.74000 0.51000 31.93100
H  42.67900 -1.23400 28.64200
H  42.10800 -1.63800 30.27600
H  42.72300 -0.06700 29.88400
H  36.30800 -0.71900 26.07700
H  34.74100 1.81700 25.72000
H  38.04500 1.15700 25.39300
H  36.73700 2.09400 24.86000
H  36.80500 0.47600 24.20400
H  32.76800 -0.09100 26.30900
H  34.15800 -1.13500 26.15000
H  33.93300 0.74300 23.81500
H  32.55500 -0.38900 24.08300
H  33.99500 -1.11900 23.77900
H  29.94300 2.56500 28.72600
H  31.04400 3.65000 27.94200
H  30.04900 4.32000 29.28900
H  31.82300 2.43500 34.15000
H  30.63600 5.67900 36.70500
H  31.89800 6.41000 35.75800
H  32.25400 5.42800 37.25400
Mg 0.93000 43.19400 25.62000
C  2.95700 42.59200 28.37000
C  -1.77900 42.15700 27.38800
C  -0.90200 43.21200 22.73600
C  3.70000 44.17100 23.78300
N  0.66900 42.26100 27.69200
C  1.61600 42.35600 28.70200
C  0.92100 42.18900 30.00500
C  -0.60900 41.86100 29.71500
C  -0.57600 42.02700 28.19000
C  -1.11300 40.41300 30.10000
C  1.11600 43.36700 30.96900
C  0.68500 43.09200 32.42300
H  0.20200 41.67300 32.77500
N  -1.05300 42.71100 25.17700
C  -2.04500 42.36900 25.98800
C  -3.29400 42.11500 25.34100
C  -3.04300 42.43800 23.97600
C  -1.59300 42.84900 23.94700
C  -4.57800 41.80800 26.04900
C  -4.10800 42.43500 22.88500
O  -3.82800 42.75000 21.76200
C  -5.49200 41.88000 23.10700
N  1.29600 43.71900 23.52800
C  0.36500 43.72100 22.53200
C  0.97000 44.20000 21.24700
C  2.37200 44.74100 21.67200
C  2.50400 44.29800 23.10800
C  1.08800 43.16800 20.14900
C  2.56200 46.27000 21.56000
C  1.47900 47.10100 22.15700
N  2.81900 43.16800 25.94200
C  3.84800 43.50100 25.04400
C  5.10300 43.21000 25.66200
C  4.80300 42.89300 26.95900
C  3.41600 42.87600 27.10300
C  6.41800 43.40000 24.99300
C  5.35400 42.59300 28.26100
O  6.53000 42.43600 28.61100
C  4.16000 42.51900 29.23700
C  4.29800 41.35500 30.24400
O  4.36500 40.10400 30.04900
O  4.22300 41.89400 31.49100
C  4.19700 40.88000 32.58400
H  -2.68000 42.07700 28.00100
H  -1.45300 43.15000 21.79600
H  4.56900 44.62300 23.30100
H  1.43800 41.34000 30.45300
H  -1.29400 42.56000 30.19500
H  -1.95000 40.47400 30.79500
H  -0.33800 39.88100 30.65000
H  -1.49500 39.91700 29.20700
H  0.45100 44.16800 30.64300
H  2.09400 43.82700 30.82300
H  -0.22800 43.67300 32.55400
H  1.43000 43.41200 33.15100
H  -5.36000 42.48400 25.70500
H  -4.41000 41.95600 27.11600
H  -4.89800 40.78500 25.85500
H  -5.95800 42.64200 23.73300
H  -5.53700 40.89300 23.56700
H  -6.00200 41.93600 22.14500
H  0.40600 45.07400 20.92100
H  3.23100 44.43900 21.07300
H  2.11900 43.08100 19.80600
H  0.61800 43.51200 19.22800
H  0.73900 42.16500 20.39400
H  2.74700 46.54100 20.52100
H  3.41900 46.60900 22.14300
H  0.56300 46.57500 22.42500
H  1.12100 47.81500 21.41500
H  1.77300 47.74900 22.98300
H  6.40400 44.27300 24.34100
H  6.67400 42.59900 24.30000
H  7.05200 43.65800 25.84200
H  4.18900 43.48300 29.74400
H  3.89600 39.89700 32.22200
H  3.50700 41.15200 33.38300
H  5.15100 40.74500 33.09400

