158

Mg 0.91700 -1.52200 42.37000
C  4.55100 -1.17300 41.47600
C  0.48100 1.50900 40.93400
C  -2.18300 -2.29400 42.17500
C  1.80000 -4.97800 42.93000
N  2.29800 -0.11000 41.28500
C  3.75100 -0.06600 41.16300
C  4.24300 1.32500 40.82500
C  2.92500 2.19800 41.03200
C  1.78900 1.10000 41.03700
C  2.95400 3.05900 42.31000
C  4.95300 1.52000 39.44700
C  4.39400 0.78800 38.19800
H  5.40100 -0.14400 37.49900
N  -0.72400 -0.37400 41.98200
C  -0.69000 0.86100 41.30300
C  -2.00200 1.32100 41.16400
C  -2.85500 0.14700 41.47100
C  -1.94400 -0.90300 41.93700
C  -2.33300 2.69900 40.63400
C  -4.36800 0.07100 41.25500
O  -5.04500 1.01500 40.84100
C  -5.16400 -1.11800 41.57600
N  -0.02200 -3.35800 42.54300
C  -1.35000 -3.34600 42.55100
C  -1.92200 -4.70500 42.73400
C  -0.65300 -5.54200 43.06200
C  0.48000 -4.53900 42.87800
C  -3.08600 -4.86400 43.74400
C  -0.56000 -6.93000 42.20000
C  -0.36600 -8.26000 43.02600
N  2.82100 -2.86800 42.38200
C  2.94300 -4.21700 42.62900
C  4.31900 -4.56700 42.59100
C  5.01800 -3.40700 42.17400
C  4.01800 -2.40000 42.04900
C  4.84200 -5.92700 42.74000
C  6.32600 -2.80300 41.75800
O  7.40100 -3.29000 41.67700
C  6.03000 -1.37100 41.34700
C  6.89800 -0.48100 42.18900
O  7.76600 0.28300 41.71700
O  6.72500 -0.58700 43.58500
C  7.58300 0.21300 44.40300
H  0.42000 2.51600 40.51600
H  -3.21200 -2.65900 42.16400
H  2.01900 -6.04400 43.02700
H  4.99600 1.50600 41.59200
H  2.66600 2.91300 40.25200
H  2.06900 2.78900 42.88600
H  2.95400 4.12200 42.07100
H  3.88900 2.89600 42.84600
H  5.97800 1.26500 39.71700
H  4.93100 2.56900 39.15200
H  4.16500 1.62100 37.53400
H  3.43900 0.27700 38.31600
H  -3.09800 3.07900 41.31200
H  -2.59600 2.76200 39.57800
H  -1.46500 3.35400 40.70500
H  -6.23600 -0.97100 41.44600
H  -5.00900 -1.55100 42.56400
H  -5.03600 -1.90800 40.83600
H  -2.32400 -5.02200 41.77200
H  -0.75500 -5.80000 44.11600
H  -3.99200 -5.03800 43.16400
H  -3.15500 -3.82500 44.06500
H  -2.92200 -5.59900 44.53100
H  0.36600 -6.85600 41.63000
H  -1.39700 -7.09400 41.52200
H  -1.37000 -8.68500 43.00800
H  -0.10100 -8.06000 44.06400
H  0.38700 -8.90900 42.57900
H  4.37300 -6.29000 43.65400
H  5.92200 -5.98600 42.86700
H  4.66600 -6.45700 41.80300
H  6.39500 -1.34300 40.32000
H  8.06300 -0.37200 45.18900
H  7.00100 1.05600 44.77500
H  8.42400 0.67600 43.88600
Mg 24.39900 -5.09000 46.70000
C  26.21400 -2.40000 45.05500
C  21.57000 -4.00900 45.12200
C  23.07200 -8.04300 47.35100
C  27.49800 -6.21100 47.93400
N  24.00000 -3.48700 45.20500
C  24.87500 -2.49000 44.66900
C  24.09400 -1.70900 43.67000
C  22.63600 -1.95400 44.03600
C  22.70800 -3.25500 44.81900
C  21.99100 -0.80000 44.77900
C  24.62000 -1.96700 42.21800
C  25.12100 -0.77500 41.37100
H  26.03200 -1.04200 40.16600
N  22.50600 -5.91700 46.33400
C  21.48600 -5.34700 45.63600
C  20.38800 -6.26400 45.55900
C  20.76600 -7.44600 46.31800
C  22.11800 -7.16600 46.82700
C  19.05700 -5.85200 44.85200
C  19.90700 -8.64600 46.43900
O  18.82600 -8.78300 45.92800
C  20.28500 -9.77400 47.25900
N  25.19200 -6.86000 47.57300
C  24.41400 -7.98300 47.70900
C  25.22500 -9.11000 48.25400
C  26.53100 -8.45700 48.69700
C  26.47500 -7.10400 48.05100
C  24.42600 -10.04100 49.25500
C  27.77600 -9.30000 48.32100
C  28.73500 -9.46000 49.41200
N  26.44800 -4.46100 46.54000
C  27.54200 -5.00300 47.23100
C  28.71400 -4.06500 47.01700
C  28.25400 -3.08300 46.12900
C  26.86000 -3.37300 45.85900
C  30.03900 -4.27700 47.56800
C  28.73000 -1.86000 45.41800
O  29.77600 -1.26500 45.36800
C  27.35800 -1.37700 44.63300
C  27.04300 -0.01300 44.97900
O  26.22100 0.46000 45.72100
O  27.82900 0.74100 44.21600
C  27.64300 2.19100 44.20100
H  20.63500 -3.71400 44.64000
H  22.73900 -9.08200 47.38700
H  28.38200 -6.54100 48.48400
H  24.41600 -0.68000 43.82700
H  22.05100 -1.99100 43.11800
H  22.74000 -0.08700 45.12100
H  21.49100 -1.23700 45.64400
H  21.26300 -0.29200 44.14700
H  23.90500 -2.62800 41.72800
H  25.42600 -2.70100 42.21100
H  25.45200 0.00100 42.06100
H  24.28000 -0.29300 40.87300
H  19.22400 -5.93000 43.77800
H  18.81600 -4.79500 44.97300
H  18.21200 -6.47300 45.15000
H  19.38000 -10.35000 47.45200
H  20.60400 -9.30600 48.19000
H  20.95400 -10.48000 46.76600
H  25.52300 -9.79000 47.45500
H  26.40900 -8.29500 49.76800
H  24.94200 -10.11000 50.21200
H  24.21600 -10.98600 48.75500
H  23.46000 -9.62700 49.54500
H  28.41600 -8.73200 47.64600
H  27.44400 -10.24900 47.90100
H  29.68400 -9.02100 49.10500
H  28.84400 -10.53800 49.53600
H  28.27900 -9.02700 50.30200
H  30.63300 -4.96800 46.97000
H  30.05300 -4.68900 48.57700
H  30.48600 -3.28800 47.66900
H  27.69700 -1.50300 43.60500
H  27.84000 2.56700 45.20500
H  26.65100 2.59500 44.00300
H  28.28200 2.79500 43.55600

