158

Mg 2.01700 -1.50600 44.49400
C  5.42400 -0.62600 43.75900
C  1.12400 1.11200 42.30900
C  -1.12700 -2.60500 44.72100
C  3.22400 -4.46400 45.78000
N  3.11900 -0.05000 43.05700
C  4.51600 0.12500 43.07300
C  4.89700 1.26800 42.13300
C  3.52500 1.96100 41.93800
C  2.50900 0.99600 42.44000
C  3.48100 3.36200 42.53200
C  5.55100 0.77100 40.88300
C  6.60000 1.85300 40.36300
H  6.55000 2.30300 38.94900
N  0.21100 -0.79600 43.75700
C  0.09000 0.25800 42.86300
C  -1.34900 0.45200 42.66600
C  -2.01700 -0.63800 43.32000
C  -0.93600 -1.43300 44.00400
C  -1.87800 1.42300 41.67900
C  -3.51200 -0.81600 43.34400
O  -4.13600 -0.01000 42.72700
C  -4.17700 -1.97300 44.07700
N  1.14500 -3.33500 45.10500
C  -0.17500 -3.52500 45.12200
C  -0.46700 -4.91300 45.73200
C  0.89200 -5.55300 45.93700
C  1.81400 -4.42200 45.60900
C  -1.32700 -4.84600 47.10100
C  1.19500 -6.80500 44.97100
C  0.62900 -8.25500 45.42400
N  3.88400 -2.33900 44.83800
C  4.23300 -3.55300 45.38800
C  5.64100 -3.71900 45.61000
C  6.17000 -2.58200 45.02300
C  5.05400 -1.77400 44.51200
C  6.29200 -4.88500 46.18400
C  7.37900 -1.83300 44.68400
O  8.50600 -2.09400 45.02000
C  6.96000 -0.57900 43.92200
C  7.54900 0.64200 44.51800
O  7.44100 0.93800 45.69500
O  8.22800 1.40400 43.55900
C  8.76800 2.69400 44.02400
H  0.99300 2.06400 41.79100
H  -2.11300 -3.07400 44.70100
H  3.45100 -5.45900 46.16800
H  5.65200 1.82300 42.69100
H  3.32400 2.12300 40.87900
H  3.68800 4.14500 41.80300
H  4.15100 3.36500 43.39200
H  2.52000 3.68200 42.93500
H  4.77300 0.75900 40.11900
H  5.95900 -0.23800 40.94000
H  7.53600 1.30600 40.47700
H  6.63100 2.75500 40.97500
H  -2.32400 0.85400 40.86200
H  -1.12700 2.04400 41.19100
H  -2.63300 2.03100 42.17800
H  -5.25400 -1.84800 43.96600
H  -3.93400 -1.81400 45.12800
H  -3.87900 -2.92000 43.62800
H  -1.10800 -5.34300 44.96300
H  1.07300 -5.87600 46.96200
H  -1.66000 -5.82800 47.43700
H  -2.17500 -4.26600 46.73800
H  -0.75700 -4.36900 47.89800
H  2.25300 -6.92900 44.74200
H  0.68200 -6.53800 44.04700
H  1.42000 -8.93700 45.73600
H  0.08300 -8.68200 44.58300
H  -0.15700 -8.08000 46.16000
H  5.82700 -5.28000 47.08600
H  7.30900 -4.68100 46.52200
H  6.22400 -5.74100 45.51300
H  7.31900 -0.62600 42.89400
H  9.34100 3.09900 43.18900
H  9.37000 2.51400 44.91500
H  7.97600 3.39700 44.28200
Mg 41.23000 8.64200 29.92300
C  43.07000 9.66100 32.64600
C  39.01300 7.16500 31.99800
C  39.69100 7.24300 27.25800
C  43.85000 9.54600 27.94500
N  41.13600 8.38200 32.09900
C  41.93400 8.90700 33.03300
C  41.34500 8.70100 34.51000
C  40.29200 7.58500 34.20900
C  40.10200 7.74000 32.65600
C  40.53300 6.05300 34.60100
C  40.75500 10.01000 35.21000
C  40.72000 10.04300 36.82000
H  41.27000 11.31300 37.48600
N  39.58800 7.41900 29.68900
C  38.75900 6.95100 30.65800
C  37.64000 6.26300 30.13600
C  37.73500 6.39000 28.72300
C  39.03700 7.07100 28.48300
C  36.68800 5.41600 30.94700
C  36.71600 6.14900 27.62200
O  36.87200 6.44800 26.43900
C  35.31700 5.75600 28.06500
N  41.77600 8.38200 28.00300
C  40.97200 7.80900 27.11600
C  41.44900 7.96100 25.65600
C  42.82500 8.67900 25.81600
C  42.81900 8.94900 27.31300
C  41.58700 6.58500 24.92100
C  43.02600 9.89500 24.95600
C  42.55400 11.28100 25.39100
N  43.01300 9.57100 30.18100
C  43.97600 9.94600 29.25800
C  44.99800 10.75000 29.87400
C  44.69500 10.67200 31.27400
C  43.47300 9.95300 31.35000
C  46.16900 11.46100 29.22800
C  45.15400 11.04900 32.56900
O  46.12300 11.71300 32.87400
C  44.04700 10.47300 33.53200
C  44.85400 9.58100 34.46000
O  45.52800 8.67000 34.07400
O  44.60800 10.00700 35.73000
C  44.92600 8.97900 36.68200
H  38.42500 6.53500 32.66900
H  39.26500 6.96000 26.29300
H  44.69800 9.86100 27.33300
H  42.10300 8.21100 35.12300
H  39.35000 7.97700 34.59400
H  40.40000 5.47700 33.68500
H  39.75400 5.84200 35.33400
H  41.51000 5.84800 35.03900
H  39.73300 10.15600 34.86000
H  41.38900 10.83400 34.88200
H  41.31600 9.21400 37.20100
H  39.66000 9.94600 37.05700
H  36.89500 5.42700 32.01700
H  36.46400 4.39200 30.65000
H  35.70600 5.87500 30.83400
H  35.12100 6.42200 28.90500
H  35.20700 4.80900 28.59400
H  34.49800 6.06500 27.41500
H  40.75700 8.66000 25.18600
H  43.60200 7.98600 25.49200
H  41.27000 5.80500 25.61300
H  42.58000 6.46700 24.48700
H  40.81800 6.68700 24.15600
H  42.56200 9.65500 23.99900
H  44.08800 10.09600 24.81700
H  42.32600 11.99200 24.59700
H  43.17600 11.79300 26.12500
H  41.62300 11.08400 25.92300
H  46.31900 12.43100 29.70300
H  46.01300 11.51900 28.15100
H  47.15900 11.02400 29.35200
H  43.67400 11.28000 34.16300
H  46.00600 8.84500 36.62300
H  44.41300 8.05500 36.41800
H  44.61900 9.32400 37.66900

