158

Mg 9.13800 3.75400 27.45800
C  10.47400 2.21600 30.35300
C  7.56700 5.99600 29.39700
C  7.72800 4.95700 24.79400
C  10.46300 1.08100 25.51900
N  8.89800 3.90300 29.62600
C  9.62600 3.29800 30.61900
C  9.38800 3.93800 32.00200
C  8.20000 4.94900 31.68100
C  8.29200 5.02200 30.12900
C  6.83400 4.51300 32.14600
C  10.66400 4.48900 32.60100
C  11.07500 3.98000 34.02100
H  11.34800 5.05800 35.06100
N  7.92300 5.40700 27.10600
C  7.42500 6.23600 28.11700
C  6.49800 7.21200 27.49200
C  6.60300 6.98700 26.07100
C  7.38700 5.74200 25.93900
C  5.67400 8.26800 28.27200
C  6.07400 7.69200 24.81500
O  6.44900 7.44100 23.66800
C  5.09700 8.78600 24.98800
N  9.17900 3.10300 25.42200
C  8.42700 3.80200 24.51800
C  8.47100 3.24800 23.08500
C  9.37100 1.95600 23.33100
C  9.71300 2.07700 24.86600
C  7.13900 3.06500 22.34200
C  10.61000 1.71600 22.38100
C  10.49100 0.40100 21.68700
N  10.33900 2.06300 27.78100
C  10.82800 1.06200 26.91200
C  11.62900 0.11800 27.62400
C  11.59200 0.57000 29.00800
C  10.75700 1.69100 29.05700
C  12.31400 -0.99000 26.98600
C  11.93500 0.28200 30.31900
O  12.56800 -0.67700 30.75100
C  11.29500 1.35800 31.28400
C  10.34600 0.64800 32.28500
O  9.44700 -0.12700 32.02900
O  10.66900 1.07300 33.57200
C  9.95100 0.39100 34.64600
H  7.01200 6.65500 30.06700
H  7.30800 5.34400 23.86400
H  10.90500 0.30900 24.88600
H  9.02400 3.16400 32.67900
H  8.28700 5.94800 32.10700
H  6.18100 4.80000 31.32100
H  6.55500 5.12900 33.00100
H  6.79200 3.48100 32.49500
H  10.61800 5.56700 32.75400
H  11.47700 4.30500 31.89900
H  11.97700 3.48400 33.66300
H  10.24800 3.45200 34.49600
H  5.82600 8.40600 29.34300
H  4.64000 8.08600 27.98100
H  5.84600 9.25400 27.84200
H  5.70100 9.65700 25.24500
H  4.53900 8.60100 25.90500
H  4.41900 8.91700 24.14400
H  8.99800 4.04100 22.55400
H  8.71800 1.08600 23.38000
H  6.96900 3.78100 21.53800
H  6.25500 3.26100 22.94800
H  7.15100 2.04500 21.95700
H  11.57900 1.67900 22.87900
H  10.63400 2.64800 21.81700
H  9.57000 -0.17400 21.78400
H  11.34000 -0.20400 22.00700
H  10.58100 0.72500 20.65100
H  12.33400 -1.68800 27.82400
H  13.30500 -0.72500 26.61800
H  11.69200 -1.43100 26.20800
H  11.96300 2.04100 31.80900
H  10.68900 -0.04600 35.31800
H  9.33200 -0.45400 34.34500
H  9.35600 1.16700 35.12700
Mg 41.68400 40.34500 26.12200
C  40.70100 42.60500 28.73300
C  42.51600 38.10200 28.49900
C  42.61900 38.24300 23.59200
C  40.97000 42.88700 23.82200
N  41.60900 40.41000 28.37700
C  41.07200 41.33400 29.21900
C  41.04700 40.85300 30.71300
C  41.83300 39.48500 30.55100
C  42.02000 39.33200 29.02400
C  43.14800 39.40500 31.38600
C  39.61300 40.72500 31.28800
C  39.41000 40.20600 32.73400
H  38.98000 41.03500 33.99500
N  42.51900 38.44100 26.09000
C  42.72300 37.61200 27.18500
C  43.22700 36.33400 26.76400
C  43.33800 36.34500 25.35800
C  42.81500 37.71800 24.90300
C  43.66800 35.22900 27.83100
C  43.82500 35.36000 24.30500
O  43.69800 35.40300 23.09000
C  44.49600 34.08100 24.82800
N  41.76800 40.58600 24.03000
C  42.09900 39.53800 23.25200
C  42.05400 39.89400 21.78500
C  41.30200 41.24900 21.79000
C  41.26400 41.61000 23.25500
C  43.44200 39.93700 20.95800
C  39.90200 41.15100 21.17500
C  38.92900 40.10400 21.84600
N  41.05500 42.33000 26.16600
C  40.81500 43.21600 25.14300
C  40.37000 44.49900 25.65900
C  40.34500 44.29300 27.02800
C  40.76200 42.96700 27.31200
C  40.06500 45.71800 24.88000
C  40.10500 44.88500 28.21400
O  39.89600 46.08500 28.43600
C  40.12700 43.80700 29.37100
C  41.02200 44.24000 30.53000
O  42.23100 44.46600 30.45900
O  40.30500 44.43000 31.61900
C  41.02500 44.98700 32.73900
H  42.72800 37.38600 29.29500
H  42.93900 37.56200 22.80100
H  40.77400 43.65400 23.07000
H  41.50400 41.54600 31.41900
H  41.19600 38.66700 30.88800
H  43.24600 40.30600 31.99100
H  43.94000 39.50200 30.64300
H  43.31800 38.47400 31.92700
H  39.11200 40.08200 30.56300
H  39.18800 41.72800 31.27300
H  40.31600 39.73700 33.11800
H  38.67300 39.41800 32.58200
H  43.70500 35.62400 28.84700
H  44.69300 34.93900 27.59800
H  43.02900 34.35800 27.68700
H  45.05600 33.59900 24.02700
H  43.62400 33.47400 25.07100
H  45.03900 34.21900 25.76300
H  41.50100 39.12500 21.24500
H  41.95100 42.00600 21.34900
H  43.73800 40.92600 20.60600
H  43.36300 39.35500 20.03900
H  44.11700 39.44600 21.65900
H  40.00300 40.84500 20.13300
H  39.48600 42.15500 21.09200
H  38.49900 39.54800 21.01300
H  38.03400 40.57600 22.25200
H  39.41300 39.42000 22.54300
H  40.80400 46.51700 24.82100
H  39.20900 46.13200 25.41100
H  39.80700 45.37700 23.87700
H  39.08600 43.68800 29.66900
H  41.48100 44.15100 33.27000
H  40.29900 45.50700 33.36400
H  41.83000 45.70300 32.58000

