158

Mg 40.27500 9.39100 29.28100
C  42.25200 10.28800 32.09100
C  37.91000 8.15800 31.39000
C  38.87300 7.83100 26.55300
C  42.98700 10.25500 27.31300
N  40.13700 9.11000 31.52200
C  41.05200 9.64600 32.40500
C  40.43400 9.58200 33.82400
C  39.12400 8.74300 33.62500
C  38.99500 8.73700 32.11500
C  39.06800 7.32300 34.23000
C  40.16500 10.95800 34.49100
C  39.62900 10.86300 35.95200
H  40.49800 11.52000 37.06600
N  38.70300 8.16700 29.02600
C  37.76600 7.88200 30.01400
C  36.75400 7.00300 29.45500
C  37.01900 6.92800 28.04400
C  38.21400 7.68600 27.80800
C  35.67200 6.39300 30.35200
C  36.26700 6.11700 27.01800
O  36.69300 5.80000 25.92900
C  35.04300 5.47000 27.51500
N  40.94200 8.92000 27.25700
C  40.08900 8.50100 26.29300
C  40.66600 8.73500 24.91500
C  41.84900 9.76600 25.14900
C  41.98800 9.60500 26.68200
C  41.19700 7.36100 24.24500
C  41.58700 11.17600 24.59300
C  40.96800 12.25100 25.43300
N  42.12600 10.26900 29.56900
C  43.13600 10.54800 28.64700
C  44.23300 11.18100 29.36800
C  43.86100 11.19800 30.68000
C  42.64000 10.51300 30.78300
C  45.40900 11.83200 28.68000
C  44.27000 11.60900 32.01600
O  45.24400 12.21600 32.34600
C  43.22900 11.01800 32.98300
C  43.91600 10.10700 33.94500
O  44.12200 8.88900 33.91100
O  44.34600 10.82500 35.04600
C  44.74800 9.96300 36.20000
H  37.18800 7.74200 32.09600
H  38.26300 7.72600 25.65300
H  43.79700 10.59700 26.66600
H  41.13800 9.05100 34.46500
H  38.27300 9.23600 34.09400
H  40.00400 7.25200 34.78400
H  39.02400 6.63900 33.38300
H  38.15900 7.26700 34.83000
H  39.46000 11.47400 33.84000
H  41.12200 11.47500 34.56500
H  39.26600 9.83900 36.03700
H  38.68900 11.39700 35.81500
H  34.79000 6.99500 30.13500
H  35.75600 6.40100 31.43900
H  35.73300 5.35000 30.04000
H  35.34400 4.56100 28.03600
H  34.47100 5.15200 26.64300
H  34.39700 6.11000 28.11500
H  39.85400 9.06400 24.26600
H  42.83400 9.38000 24.88300
H  40.83300 7.27600 23.22100
H  40.75500 6.58500 24.87100
H  42.28600 7.33100 24.24800
H  40.91400 11.10700 23.73900
H  42.54600 11.54100 24.22300
H  40.43700 11.88400 26.31100
H  40.27500 12.77300 24.77300
H  41.78400 12.93100 25.68000
H  45.92200 12.46900 29.40000
H  45.05300 12.43000 27.84100
H  46.15300 11.06600 28.45900
H  42.68000 11.88000 33.36000
H  45.53400 9.26300 35.91500
H  43.90800 9.41700 36.62900
H  45.17100 10.68800 36.89500
Mg 27.30500 51.07600 25.96700
C  25.28600 52.03500 28.72900
C  29.55200 49.89900 28.17100
C  29.17100 50.27500 23.31100
C  24.84900 52.43600 23.90500
N  27.35000 51.09000 28.21300
C  26.39500 51.36700 29.10100
C  26.85100 51.12800 30.43900
C  28.32400 50.56600 30.33500
C  28.40300 50.44800 28.80300
C  29.38900 51.54000 30.83400
C  25.84100 50.26500 31.35600
C  25.41400 50.64200 32.79300
H  26.58700 50.94400 33.73000
N  29.27400 50.35200 25.75200
C  29.99300 49.82900 26.80500
C  31.26700 49.31300 26.26000
C  31.14700 49.37300 24.83700
C  29.88800 50.01600 24.56400
C  32.33300 48.81500 27.16800
C  32.09400 48.85200 23.81700
O  31.88600 48.97400 22.60300
C  33.29100 47.97900 24.28300
N  27.10900 51.58800 23.95000
C  27.91200 50.90900 23.03800
C  27.35300 50.94300 21.59200
C  25.97900 51.60000 21.75400
C  25.95100 51.87300 23.28100
C  28.37500 51.60800 20.62400
C  24.67300 50.92100 21.14900
C  24.32900 49.56900 21.85900
N  25.50200 52.10000 26.22400
C  24.66500 52.64000 25.31200
C  23.62600 53.38200 25.91800
C  23.79400 53.17800 27.24900
C  24.95700 52.41700 27.41700
C  22.54700 54.18300 25.21700
C  23.25300 53.44200 28.59700
O  22.26000 54.10700 29.00900
C  24.19700 52.62100 29.55500
C  24.78800 53.69200 30.46900
O  25.79600 54.37600 30.23800
O  23.85500 53.93200 31.47500
C  24.11800 55.07000 32.30600
H  30.25100 49.57000 28.94200
H  29.57500 49.72100 22.46200
H  24.10000 52.87000 23.24000
H  26.89100 52.12900 30.87000
H  28.37800 49.56700 30.76700
H  30.32400 51.50000 30.27600
H  29.60800 51.29300 31.87300
H  29.05700 52.57300 30.72800
H  26.32500 49.29200 31.43400
H  24.94900 50.01800 30.78000
H  24.90100 49.83600 33.31700
H  24.74600 51.49600 32.91100
H  32.35700 47.75200 27.40800
H  32.23100 49.24700 28.16400
H  33.28500 49.18500 26.78900
H  33.63300 47.33700 23.47100
H  32.92100 47.23100 24.98400
H  34.20900 48.48300 24.58700
H  27.19800 49.95200 21.16500
H  26.05900 52.58500 21.29400
H  29.24900 52.12400 21.02100
H  27.82000 52.31700 20.00900
H  28.72500 50.84900 19.92500
H  24.73000 50.83200 20.06500
H  23.83000 51.59500 21.30000
H  24.83400 49.47000 22.82000
H  24.66800 48.74700 21.22900
H  23.25700 49.46800 22.03000
H  21.95900 54.70600 25.97100
H  21.83900 53.52800 24.70900
H  22.85900 55.05100 24.63600
H  23.70600 51.82100 30.10900
H  24.85700 54.70400 33.01800
H  23.20700 55.37900 32.81800
H  24.44500 55.89100 31.66700

