158

Mg 46.16400 44.93000 43.81500
C  42.73600 44.70800 43.17500
C  46.45400 41.54300 43.14200
C  49.51700 45.29200 43.52100
C  45.89700 48.48900 43.74700
N  44.76300 43.38900 43.08700
C  43.37300 43.46800 42.94500
C  42.79600 42.11400 42.75700
C  43.97600 41.15400 43.04200
C  45.13600 42.07300 43.19400
C  43.71600 40.31200 44.33500
C  41.95500 41.88800 41.37600
C  42.31900 42.61500 40.06900
H  42.48800 41.80200 38.84700
N  47.78900 43.55200 43.40200
C  47.69100 42.19900 43.10300
C  48.94700 41.59300 42.96200
C  49.88000 42.62800 43.15200
C  49.11300 43.88800 43.38800
C  49.18400 40.12600 42.65700
C  51.33200 42.48600 42.98400
O  51.84000 41.46200 42.63000
C  52.18600 43.73800 43.16700
N  47.55200 46.60100 43.93100
C  48.85900 46.45200 43.74100
C  49.66800 47.76900 43.70300
C  48.51300 48.82500 43.80200
C  47.23100 47.94600 43.73300
C  50.83500 47.81100 44.72300
C  48.43200 50.00700 42.73000
C  48.34700 51.42800 43.29500
N  44.67300 46.29800 43.75600
C  44.70300 47.75900 43.72700
C  43.28400 48.20900 43.85000
C  42.58200 47.03100 43.63500
C  43.43400 45.92400 43.55000
C  42.84300 49.65200 43.85600
C  41.16300 46.59600 43.43300
O  40.19000 47.28000 43.30200
C  41.22500 45.03800 43.18000
C  40.42500 44.26500 44.23900
O  39.45000 43.58700 44.06300
O  41.21300 44.33700 45.36000
C  40.95900 43.27800 46.34800
H  46.55000 40.46700 42.98500
H  50.56500 45.52000 43.31300
H  45.78300 49.57400 43.78100
H  42.13400 42.16400 43.62200
H  44.23800 40.49200 42.21700
H  44.13900 39.31700 44.47000
H  42.63300 40.28800 44.45600
H  44.14500 40.85300 45.17900
H  40.87900 41.91200 41.54400
H  41.91400 40.81100 41.21400
H  43.30200 43.08300 40.11100
H  41.59700 43.40600 39.86500
H  50.19400 39.72500 42.57300
H  48.51000 39.58200 41.99600
H  49.13600 39.78600 43.69200
H  52.06900 44.17600 44.15800
H  52.02600 44.37500 42.29700
H  53.20900 43.37300 43.07800
H  50.18600 47.82700 42.74600
H  48.56100 49.27300 44.79400
H  50.61600 48.69800 45.31800
H  51.72100 47.79000 44.08800
H  50.86200 46.87700 45.28600
H  47.58300 49.79600 42.08000
H  49.40500 49.89600 42.25100
H  49.18700 52.00700 42.90900
H  48.41800 51.37400 44.38100
H  47.39800 51.89800 43.03500
H  41.77500 49.69800 43.64600
H  43.39000 50.31700 43.18700
H  42.99400 49.99100 44.88100
H  40.79500 44.76400 42.21700
H  40.09700 42.63700 46.16100
H  40.81000 43.67500 47.35200
H  41.80800 42.61900 46.53000
Mg -9.16800 41.51800 42.47800
C  -8.20600 38.15600 41.61800
C  -6.43200 42.61900 40.66800
C  -10.41900 44.50600 42.72000
C  -12.18800 39.99100 43.50800
N  -7.69000 40.53300 41.21900
C  -7.45400 39.19200 41.03800
C  -6.21600 38.99600 40.12600
C  -5.55300 40.29800 39.94900
C  -6.60900 41.23600 40.63500
C  -4.15200 40.42800 40.64900
C  -6.57800 38.41400 38.72100
C  -5.73000 37.24700 38.29100
H  -4.77400 37.57200 37.17600
N  -8.39500 43.41400 41.90700
C  -7.20700 43.64200 41.29500
C  -7.10700 45.11800 41.18900
C  -8.28300 45.72700 41.66700
C  -9.07600 44.56400 42.17600
C  -5.93500 45.71400 40.55700
C  -8.59900 47.23700 41.63100
O  -7.83400 47.98400 41.09700
C  -9.80700 47.85800 42.39300
N  -11.03800 42.11700 43.14000
C  -11.27900 43.43800 43.14900
C  -12.67700 43.66700 43.59700
C  -13.33400 42.29900 43.79200
C  -12.12000 41.39700 43.41500
C  -12.82500 44.69900 44.74800
C  -14.62900 41.98900 42.92000
C  -15.85000 41.43200 43.66800
N  -9.96300 39.53200 42.79500
C  -11.15600 39.05200 43.23800
C  -11.19000 37.67600 43.31500
C  -10.06600 37.24000 42.59600
C  -9.34800 38.41600 42.35000
C  -12.38000 36.84500 43.69100
C  -9.39900 36.06700 42.13800
O  -9.75900 34.92800 42.18800
C  -8.11000 36.62100 41.44500
C  -7.00700 36.04600 42.11900
O  -6.69200 36.30600 43.26600
O  -6.23900 35.25100 41.25500
C  -5.16000 34.44300 41.98100
H  -5.63700 43.02000 40.03500
H  -10.85700 45.49800 42.84500
H  -13.09500 39.48300 43.84400
H  -5.48900 38.40600 40.68600
H  -5.44700 40.46600 38.87700
H  -4.21300 40.82900 41.66000
H  -3.40600 41.02900 40.12900
H  -3.70500 39.44100 40.76200
H  -6.54000 39.17800 37.94400
H  -7.61700 38.09200 38.79300
H  -6.42800 36.47700 37.96200
H  -5.07700 36.79400 39.03700
H  -6.20000 46.56900 39.93500
H  -5.48300 45.04200 39.82900
H  -5.16700 45.85100 41.31800
H  -9.69600 47.38000 43.36600
H  -10.79200 47.63100 41.98500
H  -9.71100 48.94400 42.39600
H  -13.06600 44.15300 42.70200
H  -13.47900 42.20700 44.86900
H  -11.95000 45.33500 44.88200
H  -13.23100 44.22800 45.64400
H  -13.69800 45.27100 44.43600
H  -14.37800 41.27100 42.13900
H  -14.95400 42.93400 42.48500
H  -15.52900 41.48000 44.70800
H  -16.12300 40.41000 43.40600
H  -16.68600 42.10700 43.48400
H  -12.97600 37.26400 44.50100
H  -11.95500 35.89400 44.01400
H  -13.01900 36.60700 42.84000
H  -7.99300 36.48200 40.37100
H  -5.58900 33.86900 42.80200
H  -4.35800 35.11300 42.29200
H  -4.84800 33.77800 41.17600

