158

Mg 0.40500 7.09400 26.31300
C  1.13600 8.99000 29.05100
C  0.57000 4.28400 28.26000
C  -0.28200 5.25800 23.53100
C  0.72900 9.89800 24.30300
N  0.91200 6.71000 28.42100
C  0.91100 7.60400 29.36200
C  0.67400 7.09700 30.72200
C  0.82000 5.62000 30.49100
C  0.77300 5.46900 28.99500
C  2.16900 5.07500 31.05200
C  -0.62500 7.60200 31.38000
C  -0.63200 8.15800 32.80700
H  0.50800 7.65900 33.71100
N  0.08300 5.06300 25.93500
C  0.13900 4.12100 26.89100
C  -0.29200 2.85800 26.35000
C  -0.53000 3.10700 24.99500
C  -0.23100 4.52100 24.77500
C  -0.40200 1.61000 27.08500
C  -1.06500 2.13500 24.00600
O  -1.13600 2.40600 22.81700
C  -1.42100 0.66100 24.33600
N  0.38000 7.41600 24.19400
C  0.01900 6.53600 23.25700
C  -0.15000 7.18900 21.80500
C  -0.04500 8.68900 22.15600
C  0.40600 8.69000 23.62100
C  0.88500 6.61400 20.79500
C  -1.44700 9.46300 22.06100
C  -1.49000 10.86200 21.50300
N  0.94800 9.09700 26.61800
C  0.96200 10.09000 25.69100
C  1.34200 11.25500 26.33900
C  1.43900 10.92900 27.71400
C  1.14700 9.54000 27.78800
C  1.57500 12.61400 25.67100
C  1.77700 11.47700 29.00300
O  2.24500 12.58700 29.27900
C  1.30600 10.24500 29.97300
C  2.29300 10.13000 31.04000
O  3.25100 9.36100 31.09100
O  1.87200 11.02100 32.00400
C  2.72500 11.09100 33.21900
H  0.63800 3.37400 28.85900
H  -0.81200 4.71500 22.74500
H  0.77700 10.73000 23.59700
H  1.55900 7.44900 31.25100
H  -0.02000 5.06600 30.91100
H  1.93700 4.36900 31.84900
H  2.88700 5.79000 31.45400
H  2.72600 4.62900 30.22800
H  -1.42400 6.87700 31.22800
H  -0.86400 8.42200 30.70200
H  -1.62700 7.97900 33.21500
H  -0.60800 9.24600 32.74300
H  -0.20500 1.76200 28.14700
H  0.24700 0.86200 26.63100
H  -1.42900 1.24600 27.12300
H  -2.19100 0.43200 25.07300
H  -0.49700 0.08500 24.36800
H  -1.88600 0.26700 23.43200
H  -1.14500 6.85700 21.50900
H  0.76400 9.13900 21.58000
H  1.59900 7.41400 20.60300
H  0.28000 6.42600 19.90700
H  1.36200 5.72100 21.20000
H  -1.91400 9.44400 23.04500
H  -2.19300 8.86400 21.53800
H  -2.53600 11.15400 21.41000
H  -0.96800 10.91400 20.54800
H  -1.02900 11.45100 22.29700
H  2.05600 13.36600 26.29600
H  0.63600 12.91000 25.20200
H  2.20600 12.40400 24.80800
H  0.35100 10.62200 30.33800
H  3.57600 10.41100 33.22300
H  2.02200 10.59000 33.88500
H  3.12900 12.05500 33.53100
Mg 9.94000 47.42300 26.76800
C  7.90100 47.47900 29.62100
C  12.33100 49.08900 28.41500
C  11.66300 47.17400 23.97000
C  6.96800 46.61900 24.86400
N  9.99500 48.27400 28.75200
C  9.21300 48.04700 29.82600
C  9.84600 48.44000 31.20400
C  11.05300 49.30100 30.61800
C  11.18900 48.81200 29.18500
C  10.84800 50.83400 30.80300
C  10.30900 47.17200 31.94800
C  9.86300 47.09100 33.38800
H  9.87300 45.81900 34.15300
N  11.77700 47.96900 26.31600
C  12.70300 48.67600 27.12100
C  13.95900 48.68800 26.45200
C  13.81600 47.94000 25.25000
C  12.34300 47.72600 25.13200
C  15.26700 49.12100 27.09100
C  14.81800 47.51900 24.17300
O  14.54600 47.02900 23.08700
C  16.24100 47.78200 24.45600
N  9.32700 47.17100 24.68700
C  10.29200 46.94100 23.77500
C  9.73100 46.44100 22.48900
C  8.17500 46.34200 22.64900
C  8.09600 46.72900 24.20100
C  10.07300 47.28600 21.20200
C  7.63000 44.98200 22.35200
C  6.11400 44.88800 21.90800
N  7.80900 47.14800 27.08300
C  6.76800 46.76500 26.27200
C  5.55900 46.60300 27.03700
C  6.00900 46.71100 28.42400
C  7.34800 47.17800 28.37500
C  4.21900 46.22200 26.47300
C  5.55100 46.64500 29.77800
O  4.42800 46.39600 30.23100
C  6.83200 47.04000 30.64100
C  7.14100 45.81600 31.48200
O  7.99700 44.99700 31.17100
O  6.36100 45.76000 32.62900
C  6.47800 44.64800 33.49900
H  13.03100 49.72200 28.96400
H  12.23700 47.09100 23.04400
H  6.06600 46.45200 24.27300
H  9.18700 49.02400 31.84600
H  12.00700 49.09500 31.10400
H  10.13700 51.20600 31.54100
H  10.66300 51.29700 29.83300
H  11.81300 51.18000 31.17200
H  11.39900 47.20800 31.92300
H  10.04900 46.27600 31.38500
H  8.80600 47.28500 33.20400
H  10.23200 47.97000 33.91600
H  15.69000 48.18000 27.44200
H  14.95500 49.77700 27.90400
H  16.03500 49.68400 26.56100
H  16.78900 47.66000 23.52200
H  16.56900 47.14900 25.28000
H  16.40300 48.81700 24.75700
H  10.16700 45.44600 22.40500
H  7.70400 47.14200 22.07700
H  10.81000 48.02300 21.52100
H  9.23400 47.82000 20.75400
H  10.59700 46.69700 20.44900
H  7.78800 44.43800 23.28300
H  8.31100 44.51200 21.64300
H  5.59500 44.47800 22.77500
H  5.98800 44.18800 21.08300
H  5.59000 45.80800 21.64700
H  3.63300 47.09400 26.18300
H  3.66500 45.77700 27.30000
H  4.36100 45.59900 25.59000
H  6.60800 47.76900 31.42000
H  7.43700 44.13300 33.43800
H  5.72100 43.87400 33.37500
H  6.45000 45.15400 34.46300

