158

Mg 46.95900 25.54200 28.91900
C  47.64900 27.55700 31.66000
C  46.19700 22.90100 31.16600
C  46.95900 23.41900 26.34500
C  48.26500 28.12200 26.85600
N  46.82000 25.34300 31.09200
C  47.05200 26.37700 31.99900
C  46.71500 26.00700 33.38100
C  46.53000 24.47100 33.24000
C  46.55800 24.17800 31.76400
C  47.40500 23.54000 34.03100
C  45.62200 26.74600 34.15800
C  45.73800 26.62100 35.75000
H  44.40300 26.33400 36.50000
N  46.47600 23.50500 28.68200
C  46.10300 22.65400 29.71000
C  45.80100 21.35500 29.07500
C  46.11200 21.47100 27.65700
C  46.53800 22.88300 27.49000
C  45.29200 20.23800 29.90800
C  45.97300 20.41500 26.54900
O  46.36700 20.57100 25.42000
C  45.47800 19.01500 26.90700
N  47.62000 25.73900 26.91200
C  47.41300 24.72500 26.00700
C  47.92500 25.03800 24.55500
C  47.99200 26.56700 24.70700
C  47.95300 26.86100 26.26100
C  49.19800 24.25600 24.23800
C  46.84600 27.26300 23.90900
C  45.49100 27.29000 24.64900
N  47.86800 27.44100 29.15800
C  48.20100 28.44200 28.24000
C  48.60800 29.64500 28.97200
C  48.42000 29.32300 30.29000
C  47.95900 28.02000 30.37400
C  49.19300 30.93000 28.28800
C  48.46200 29.87100 31.62500
O  48.80100 30.95000 32.04300
C  47.97300 28.70300 32.63000
C  49.03800 28.31100 33.57500
O  50.15900 27.95500 33.18300
O  48.59400 28.20300 34.90300
C  49.63500 27.65700 35.72000
H  45.92000 22.16600 31.92500
H  46.93300 22.78100 25.45900
H  48.50000 28.91800 26.14700
H  47.63600 26.10900 33.95500
H  45.50800 24.20200 33.50700
H  48.13700 24.14800 34.56200
H  48.00100 22.84000 33.44600
H  46.86200 22.99900 34.80600
H  44.64700 26.42000 33.79500
H  45.68100 27.82100 33.98800
H  46.16700 27.50500 36.22200
H  46.40300 25.76500 35.85700
H  45.99700 19.40700 29.92400
H  44.32800 19.85700 29.57100
H  45.08200 20.61200 30.91000
H  45.81600 18.60500 27.85800
H  45.70100 18.26600 26.14700
H  44.39300 18.93300 26.85200
H  47.20500 24.79900 23.77200
H  48.97900 26.81500 24.31600
H  49.34000 23.78200 23.26600
H  49.40900 23.56100 25.05100
H  49.97500 25.02000 24.21900
H  46.72000 26.74500 22.95800
H  47.20700 28.28600 23.80200
H  45.34800 28.26900 25.10700
H  45.51100 26.59700 25.49000
H  44.61700 27.16300 24.01000
H  49.71700 30.69000 27.36200
H  49.85100 31.43000 28.99900
H  48.40500 31.62500 27.99800
H  47.07600 29.08300 33.11900
H  50.67000 27.99900 35.73500
H  49.74500 26.62000 35.40300
H  49.20000 27.68700 36.71900
Mg -2.30500 34.14300 26.15300
C  -3.47700 32.74600 29.13700
C  -0.30300 36.22100 27.98000
C  -1.31800 35.60700 23.30900
C  -4.38500 31.97100 24.34700
N  -1.98600 34.46400 28.37200
C  -2.56100 33.78200 29.40500
C  -1.97800 34.28600 30.74400
C  -0.91300 35.34500 30.26400
C  -1.06200 35.32800 28.78800
C  -1.01100 36.75800 31.03400
C  -1.39600 33.19800 31.78200
C  -1.85100 33.39400 33.25100
H  -1.33900 32.39500 34.28400
N  -0.91100 35.66900 25.69500
C  -0.21000 36.41200 26.60200
C  0.55900 37.38300 25.82100
C  0.35700 37.15100 24.48300
C  -0.68300 36.13300 24.39600
C  1.32900 38.50700 26.48600
C  1.14700 37.73500 23.31900
O  0.86100 37.52400 22.13400
C  2.38800 38.57500 23.58700
N  -2.89700 33.95200 24.13900
C  -2.27700 34.62300 23.11200
C  -2.73700 34.10500 21.75900
C  -3.31200 32.69300 22.06100
C  -3.52600 32.82200 23.62100
C  -3.71200 35.00900 21.01100
C  -2.34500 31.53700 21.71500
C  -0.76900 31.75600 21.93300
N  -3.73100 32.80000 26.62500
C  -4.44500 31.91200 25.78500
C  -5.30700 31.04600 26.55200
C  -4.82800 31.29000 27.90700
C  -3.94700 32.39100 27.88000
C  -6.29200 30.10100 26.00000
C  -4.96500 30.76600 29.19300
O  -5.61200 29.85000 29.68500
C  -4.11700 31.65900 30.06300
C  -5.05200 32.42900 30.95800
O  -5.82200 33.30800 30.58600
O  -4.91200 32.00500 32.27500
C  -5.76800 32.53000 33.28100
H  0.28200 36.90700 28.59600
H  -0.92800 35.97500 22.35700
H  -4.89000 31.26100 23.68800
H  -2.80600 34.83300 31.19600
H  0.08300 34.92000 30.39300
H  0.00900 37.11100 31.18600
H  -1.54700 36.72300 31.98300
H  -1.55400 37.33900 30.28900
H  -0.33700 33.45400 31.80000
H  -1.48900 32.22500 31.30100
H  -2.92000 33.54600 33.40100
H  -1.51700 34.38700 33.55300
H  2.40800 38.37400 26.40900
H  1.12400 38.60300 27.55200
H  0.98400 39.44000 26.04000
H  2.08300 39.53700 23.99900
H  2.88700 38.73900 22.63200
H  3.09500 38.03500 24.21700
H  -1.89000 33.92700 21.09600
H  -4.32100 32.49800 21.69500
H  -3.47000 34.92200 19.95200
H  -3.49700 36.04200 21.28600
H  -4.74600 34.68900 21.14500
H  -2.58700 31.34300 20.67000
H  -2.68900 30.59800 22.14900
H  -0.29500 32.10300 21.01500
H  -0.35000 30.78100 22.18400
H  -0.59200 32.52300 22.68700
H  -5.84400 29.11300 26.10500
H  -6.42800 30.38400 24.95600
H  -7.23000 30.07700 26.55500
H  -3.46200 31.07500 30.70900
H  -5.17400 33.08200 34.00800
H  -6.26900 31.65000 33.68500
H  -6.51200 33.29400 33.05700

