158

Mg 10.03900 49.16500 26.11800
C  8.03400 49.04600 28.91100
C  12.52600 50.74400 27.93000
C  11.92500 49.36800 23.24000
C  7.46000 47.86800 24.23900
N  10.18400 49.85500 28.22500
C  9.28300 49.61500 29.16800
C  9.93800 50.10300 30.56100
C  11.32200 50.77700 30.21900
C  11.40800 50.42300 28.71400
C  11.13400 52.38900 30.59600
C  10.13400 48.85000 31.53300
C  9.21800 48.89900 32.83200
H  9.89000 49.72200 34.01900
N  11.93900 49.76600 25.73600
C  12.86000 50.25600 26.62900
C  14.14500 50.32100 25.98700
C  13.97100 50.00200 24.56000
C  12.53300 49.63300 24.43700
C  15.41700 50.68400 26.75900
C  15.01300 49.89400 23.49000
O  14.72600 49.63800 22.31800
C  16.46100 50.28800 23.73200
N  9.70000 48.64500 24.00900
C  10.59900 48.91000 23.03000
C  10.12300 48.35100 21.71300
C  8.70700 47.71500 22.08800
C  8.64600 48.01100 23.56700
C  10.12800 49.46600 20.70800
C  8.61900 46.14200 21.80800
C  9.46400 45.15900 22.64300
N  8.06800 48.81400 26.46000
C  7.15600 48.22500 25.59300
C  5.89000 48.21300 26.28600
C  6.17100 48.37000 27.61500
C  7.57100 48.71900 27.62800
C  4.56700 47.87100 25.63200
C  5.68000 48.44400 29.00400
O  4.57100 48.24600 29.50900
C  6.91800 48.61400 29.87800
C  7.04700 47.36300 30.56900
O  7.79500 46.50600 30.17500
O  6.31800 47.30000 31.78600
C  6.50700 46.22900 32.78600
H  13.27900 51.21400 28.56600
H  12.53500 49.37900 22.33400
H  6.65000 47.45000 23.63800
H  9.18300 50.74400 31.01600
H  12.23600 50.40000 30.67700
H  12.01600 52.76900 31.11200
H  10.19400 52.56300 31.11900
H  11.14300 52.90700 29.63700
H  11.11200 48.67800 31.98300
H  10.10600 47.84800 31.10600
H  9.01000 47.85000 33.04300
H  8.28600 49.45100 32.71500
H  15.37300 50.52800 27.83700
H  15.66200 51.72400 26.54400
H  16.15300 50.00400 26.33100
H  16.82400 49.58300 24.48000
H  16.48100 51.16500 24.37900
H  17.11600 50.29400 22.86100
H  10.73400 47.48000 21.47200
H  7.90300 48.25900 21.59100
H  10.19200 50.48200 21.09800
H  9.17700 49.38500 20.18100
H  10.97700 49.34100 20.03500
H  8.78100 45.97200 20.74400
H  7.56500 45.86800 21.86700
H  10.15600 45.56500 23.38200
H  9.98000 44.56900 21.88600
H  8.76100 44.59000 23.25100
H  3.81400 47.92100 26.41900
H  4.59000 46.89500 25.14800
H  4.35800 48.63200 24.88000
H  6.74200 49.36000 30.65300
H  6.77600 46.57200 33.78500
H  7.37000 45.62200 32.51300
H  5.62600 45.59200 32.85800
Mg -11.83600 16.85700 40.96500
C  -8.67000 15.53400 41.04100
C  -10.38900 19.93000 40.28300
C  -14.85500 18.02000 39.97500
C  -13.14600 13.52700 41.16700
N  -9.70500 17.65300 40.78500
C  -8.57300 16.94700 40.78700
C  -7.30500 17.78800 40.56800
C  -7.92200 19.25900 40.68000
C  -9.42700 18.96700 40.56500
C  -7.43700 19.97000 42.00200
C  -6.48200 17.36000 39.30900
C  -5.04900 16.75200 39.50900
H  -4.80000 15.45900 38.85200
N  -12.55000 18.71000 40.26800
C  -11.80100 19.84700 40.05400
C  -12.62200 20.87200 39.58600
C  -13.93200 20.39100 39.50100
C  -13.83800 18.96500 39.94500
C  -12.12900 22.25800 39.15600
C  -15.19400 21.20100 39.11100
O  -15.00000 22.41100 38.81100
C  -16.63300 20.74700 39.15600
N  -13.72800 15.97900 40.74500
C  -14.83700 16.68000 40.32600
C  -15.96400 15.71000 39.88400
C  -15.49700 14.44000 40.54500
C  -14.00300 14.59400 40.83200
C  -17.31700 16.27200 40.46100
C  -15.89000 13.11800 39.88300
C  -16.98000 12.30600 40.62500
N  -11.12600 14.94700 41.27500
C  -11.75500 13.71000 41.36400
C  -10.73900 12.64700 41.43500
C  -9.50500 13.35200 41.37300
C  -9.85500 14.70100 41.18500
C  -11.02000 11.22800 41.54800
C  -8.10000 13.11300 41.19400
O  -7.41500 12.09700 41.06300
C  -7.51000 14.52600 41.13400
C  -6.69300 14.82000 42.33800
O  -6.97300 15.50700 43.29700
O  -5.50000 14.07400 42.31100
C  -4.66100 14.20200 43.51000
H  -9.84700 20.82400 39.96700
H  -15.78200 18.37600 39.52200
H  -13.52000 12.51500 41.33900
H  -6.66000 17.62100 41.43100
H  -7.76900 19.76800 39.72900
H  -7.41900 21.05100 41.86600
H  -6.42700 19.71200 42.31900
H  -8.20600 19.74200 42.74000
H  -6.39900 18.24100 38.67200
H  -7.03700 16.56100 38.81700
H  -4.87700 16.71100 40.58500
H  -4.28300 17.42400 39.12200
H  -12.54700 22.51900 38.18400
H  -11.04800 22.15200 39.06600
H  -12.26200 23.05900 39.88300
H  -16.75800 19.96200 38.41000
H  -17.32900 21.55400 38.92500
H  -17.00400 20.31800 40.08600
H  -16.03100 15.78000 38.79800
H  -15.95700 14.44900 41.53200
H  -17.97100 16.73000 39.71900
H  -17.03800 17.05700 41.16400
H  -17.80200 15.41200 40.92400
H  -15.01800 12.48200 39.73400
H  -16.40500 13.32700 38.94500
H  -17.88300 12.64300 40.11600
H  -17.14800 12.39900 41.69800
H  -16.71500 11.25500 40.51300
H  -11.51700 10.93900 40.62300
H  -11.61400 10.94700 42.41800
H  -10.08300 10.68400 41.67200
H  -6.86700 14.62700 40.26000
H  -4.67500 15.19700 43.95300
H  -3.66200 13.94000 43.16200
H  -5.01400 13.46700 44.23400

