158

Mg 47.72200 14.86400 28.29600
C  45.59600 14.51600 30.98000
C  49.54600 17.10300 30.12300
C  49.79400 15.18900 25.63800
C  45.68300 12.90000 26.43600
N  47.58100 15.70900 30.34900
C  46.65000 15.34900 31.33200
C  47.01700 15.95000 32.65700
C  47.98700 17.15200 32.20600
C  48.42500 16.63500 30.82900
C  47.53400 18.62100 32.17000
C  47.80800 14.98900 33.60100
C  47.56500 15.27700 35.06300
H  48.81800 15.25600 36.01600
N  49.54100 15.86600 28.06600
C  50.07400 16.79300 28.86400
C  51.31300 17.30400 28.26100
C  51.43500 16.63800 27.06000
C  50.23400 15.85300 26.86400
C  52.02700 18.43900 28.84600
C  52.59400 16.82200 26.02100
O  52.57200 16.24600 24.92100
C  53.77500 17.62800 26.32400
N  47.72000 14.33500 26.24900
C  48.61800 14.50200 25.33900
C  48.34600 13.78800 23.98400
C  46.98100 13.19800 24.23800
C  46.76100 13.43900 25.72000
C  48.47400 14.74000 22.81000
C  46.79200 11.71500 23.80200
C  47.67100 10.64300 24.50900
N  45.93900 13.98400 28.60000
C  45.21400 13.14900 27.75900
C  44.01300 12.64200 28.39100
C  44.10700 13.22900 29.76500
C  45.27300 14.05200 29.73400
C  42.93100 11.91100 27.59100
C  43.52400 13.31300 31.08100
O  42.48600 12.96800 31.57000
C  44.47000 14.18800 31.89600
C  43.69800 15.46900 32.23300
O  43.54300 16.36400 31.44600
O  43.27800 15.49400 33.46900
C  42.51700 16.62500 33.97400
H  50.09300 17.89500 30.63900
H  50.56100 15.23800 24.86200
H  45.01800 12.29700 25.81400
H  46.18400 16.27800 33.27900
H  48.85900 17.10700 32.85800
H  47.47400 19.08100 31.18300
H  48.13900 19.22000 32.85000
H  46.54400 18.51800 32.61600
H  48.87800 14.85900 33.43500
H  47.45000 13.99500 33.33500
H  46.99400 14.45900 35.50200
H  46.89600 16.11300 35.26700
H  51.75200 19.38200 28.37300
H  53.10000 18.38800 28.65800
H  52.04900 18.37500 29.93400
H  54.22400 17.90800 25.37200
H  54.34100 17.16700 27.13400
H  53.39300 18.62400 26.55100
H  49.07800 12.98700 23.88300
H  46.20900 13.71400 23.66600
H  47.87800 14.49700 21.93100
H  49.53600 14.76100 22.56300
H  48.19700 15.72500 23.18500
H  46.99000 11.74300 22.73100
H  45.71900 11.54900 23.89000
H  48.20500 10.99300 25.39300
H  48.41800 10.23300 23.82900
H  46.97500 9.89300 24.88600
H  42.75000 10.91500 27.99400
H  43.06300 11.77400 26.51800
H  42.00000 12.46400 27.71800
H  44.56400 13.54100 32.76800
H  41.77900 16.31700 34.71500
H  42.04300 17.09300 33.11200
H  43.21800 17.30800 34.45300
Mg 45.96400 44.37300 43.33800
C  42.54300 43.52000 42.92600
C  46.75200 41.04200 42.51800
C  49.19100 45.24800 43.16100
C  44.96700 47.78700 43.23700
N  44.75000 42.47600 42.87900
C  43.40500 42.40400 42.72900
C  42.95600 41.01000 42.35600
C  44.31300 40.19600 42.52400
C  45.39500 41.34400 42.66800
C  44.35400 39.18700 43.75000
C  42.42200 40.85400 40.92400
C  42.97800 41.91500 39.86300
H  42.60100 41.69200 38.33000
N  47.75800 43.19100 42.96800
C  47.87300 41.85200 42.68600
C  49.23300 41.50100 42.63600
C  50.02800 42.72700 42.76700
C  49.03400 43.80900 42.95700
C  49.70500 40.06900 42.25500
C  51.52300 42.80500 42.65000
O  52.14400 41.76400 42.41700
C  52.29600 44.02100 42.59700
N  46.94300 46.27900 42.98200
C  48.26000 46.29900 43.28400
C  48.71000 47.76100 43.24400
C  47.45500 48.55300 43.49900
C  46.35000 47.49200 43.22400
C  49.88700 48.07100 44.21500
C  47.32700 49.91200 42.70400
C  47.77100 51.19600 43.38400
N  44.19600 45.44400 43.30000
C  43.98400 46.77100 43.17200
C  42.54800 47.04100 43.07900
C  41.96700 45.78900 43.07200
C  43.01000 44.77800 43.10600
C  41.87000 48.35500 42.96000
C  40.69000 45.09800 43.04100
O  39.54200 45.53400 42.99200
C  41.00200 43.61900 42.93600
C  40.53600 42.90900 44.13700
O  39.84300 41.90800 44.23900
O  40.89500 43.58200 45.26100
C  40.46100 43.07800 46.61700
H  46.92400 39.96600 42.44200
H  50.21600 45.62600 43.16400
H  44.56200 48.80100 43.24600
H  42.25500 40.59900 43.08200
H  44.60300 39.66200 41.61900
H  44.92700 38.29100 43.51000
H  43.31900 38.91300 43.95800
H  44.75000 39.66100 44.64700
H  41.34400 41.01300 40.88600
H  42.69900 39.92500 40.42500
H  44.04600 42.10600 39.96500
H  42.59500 42.87100 40.21900
H  50.41300 39.98800 41.43100
H  48.89600 39.37700 42.01800
H  50.25700 39.74300 43.13700
H  51.84500 44.76800 41.94400
H  53.31200 43.76700 42.29500
H  52.37800 44.31100 43.64500
H  49.07100 47.90700 42.22600
H  47.30000 48.67800 44.57100
H  50.79100 48.03600 43.60700
H  49.95300 47.27800 44.96100
H  49.80500 49.03000 44.72700
H  46.27900 50.09600 42.47000
H  47.94500 49.85900 41.80800
H  46.91200 51.85300 43.24800
H  48.69000 51.64700 43.00800
H  47.98100 50.96800 44.42900
H  42.18800 49.20200 43.56900
H  40.81600 48.28400 43.22900
H  41.76700 48.75900 41.95300
H  40.47200 43.17700 42.09100
H  41.10300 42.25400 46.93000
H  39.40800 42.79600 46.59700
H  40.62300 43.87800 47.33900

