158

Mg -0.15100 6.74300 26.06100
C  1.00800 9.08500 28.53600
C  -0.36100 4.31700 28.56100
C  -1.41900 4.65100 23.82800
C  0.70900 8.97500 23.52500
N  0.12800 6.80400 28.31100
C  0.68000 7.82700 29.12200
C  0.84200 7.39500 30.60600
C  0.73100 5.80600 30.44000
C  0.18300 5.55700 28.98000
C  2.10500 5.06400 30.73800
C  -0.18900 8.28700 31.52600
C  -0.60300 7.53000 32.83800
H  0.34600 7.61700 34.02500
N  -0.98200 4.77700 26.24300
C  -0.89600 3.96200 27.27600
C  -1.70200 2.81100 27.02800
C  -2.06600 2.83800 25.70400
C  -1.47300 4.09400 25.19000
C  -1.95400 1.73300 28.05900
C  -3.04900 1.91100 25.04500
O  -3.40500 2.08300 23.87100
C  -3.55400 0.66700 25.62400
N  -0.15500 6.71900 23.96000
C  -0.86900 5.79700 23.28000
C  -1.04300 6.16700 21.81600
C  -0.27700 7.54500 21.72300
C  0.15000 7.77500 23.14700
C  -0.48700 5.00400 20.90800
C  -1.16600 8.81100 21.18800
C  -0.45400 9.67500 20.14200
N  0.72700 8.57600 26.01400
C  0.91000 9.40700 24.91000
C  1.27100 10.73700 25.40000
C  1.44800 10.62800 26.76100
C  1.01600 9.30400 27.12000
C  1.54500 11.98400 24.47900
C  1.83600 11.31200 28.00200
O  2.28400 12.43600 28.17600
C  1.49600 10.31400 29.19900
C  2.78700 10.13500 29.87300
O  3.69200 9.39400 29.51800
O  2.81300 10.99000 30.97000
C  4.13000 11.23100 31.48500
H  -0.41700 3.53000 29.31600
H  -1.99400 4.04700 23.12400
H  0.90000 9.74000 22.77000
H  1.88100 7.67400 30.77800
H  -0.03300 5.42600 31.11800
H  2.10100 4.62400 31.73500
H  2.95400 5.74500 30.67800
H  2.29800 4.26000 30.02800
H  -1.00800 8.65600 30.90800
H  0.41500 9.14100 31.83300
H  -0.81500 6.46700 32.72300
H  -1.58100 7.94400 33.08600
H  -1.09200 1.59600 28.71100
H  -2.04600 0.75500 27.58700
H  -2.80200 1.93300 28.71300
H  -4.24400 0.21300 24.91300
H  -4.05800 0.79000 26.58300
H  -2.78400 -0.10300 25.67600
H  -2.08700 6.22300 21.50600
H  0.65000 7.42000 21.16400
H  -0.27700 4.10000 21.48000
H  0.45000 5.37000 20.48900
H  -1.12200 4.79800 20.04600
H  -1.46100 9.41300 22.04800
H  -2.02600 8.33500 20.71600
H  -0.98000 9.65600 19.18800
H  0.59700 9.39900 20.05800
H  -0.33500 10.67800 20.55200
H  0.72200 12.46000 23.94600
H  2.20900 11.62800 23.69100
H  2.10800 12.68900 25.09100
H  0.82100 10.86900 29.85100
H  4.92300 10.60900 31.07000
H  4.13000 11.06800 32.56200
H  4.31500 12.26800 31.20400
Mg 0.08800 42.84900 24.84500
C  2.33300 42.38300 27.50700
C  -2.24300 41.07200 26.71600
C  -2.01200 43.18100 22.34900
C  2.81100 43.74800 22.87900
N  0.10400 41.64900 26.81200
C  1.06200 41.91200 27.80300
C  0.49000 41.65100 29.25300
C  -0.92400 41.02100 28.91200
C  -1.07600 41.26400 27.42200
C  -1.21100 39.55000 29.44100
C  0.52200 42.96300 30.12700
C  0.88800 42.78600 31.62100
H  0.70900 41.35600 32.16400
N  -1.86300 42.23600 24.60500
C  -2.65200 41.56000 25.48000
C  -4.03400 41.44000 24.89800
C  -3.93200 42.06300 23.61200
C  -2.49700 42.57100 23.47200
C  -5.14900 40.71900 25.51600
C  -5.07800 42.22300 22.73000
O  -4.87800 42.75700 21.59400
C  -6.40700 41.89300 22.98300
N  0.33500 43.25200 22.88600
C  -0.72900 43.51200 22.06600
C  -0.30800 44.33500 20.81300
C  1.22900 44.42200 20.91100
C  1.49100 43.83800 22.35200
C  -0.93400 43.74500 19.43200
C  1.85400 45.77300 20.78300
C  1.41800 46.92500 21.66700
N  2.16900 43.04600 25.09500
C  3.14300 43.40400 24.20900
C  4.42300 43.37000 24.79000
C  4.15900 43.08700 26.19800
C  2.76100 42.84000 26.26500
C  5.80100 43.59200 24.20900
C  4.67100 43.00400 27.52400
O  5.83400 43.16000 27.89100
C  3.49600 42.58400 28.44600
C  3.99100 41.25800 28.94100
O  4.15000 40.24400 28.23200
O  4.31100 41.28700 30.27000
C  4.78800 40.03000 30.84900
H  -3.04500 40.72000 27.36800
H  -2.71200 43.49500 21.57200
H  3.56200 43.96500 22.11600
H  1.23000 40.93500 29.61100
H  -1.66500 41.65800 29.39500
H  -0.51600 39.23500 30.21900
H  -1.28000 38.80200 28.65100
H  -2.19200 39.61000 29.91100
H  -0.47200 43.41000 30.09700
H  1.20100 43.68800 29.68100
H  0.31800 43.52300 32.18700
H  1.93700 43.07600 31.67700
H  -5.76800 41.42100 26.07500
H  -4.89900 39.97100 26.26800
H  -5.69100 40.06800 24.83000
H  -6.68700 40.84900 22.84600
H  -6.99700 42.40100 22.21900
H  -6.77700 42.02800 23.99900
H  -0.62800 45.36000 21.00100
H  1.62600 43.64600 20.25700
H  -1.56700 44.56700 19.09600
H  -1.48500 42.81700 19.57800
H  -0.12200 43.63100 18.71400
H  1.56700 46.05200 19.76900
H  2.94100 45.84100 20.83400
H  1.19700 47.78100 21.03000
H  2.22700 47.23400 22.33000
H  0.64800 46.68000 22.39800
H  5.92200 44.20200 23.31500
H  6.13700 42.58200 23.97100
H  6.38600 43.99000 25.03800
H  3.30400 43.25300 29.28500
H  3.90900 39.38900 30.91300
H  4.97000 40.13100 31.91900
H  5.59400 39.50200 30.34000

