158

Mg 46.95900 25.54200 28.91900
C  47.64900 27.55700 31.66000
C  46.19700 22.90100 31.16600
C  46.95900 23.41900 26.34500
C  48.26500 28.12200 26.85600
N  46.82000 25.34300 31.09200
C  47.05200 26.37700 31.99900
C  46.71500 26.00700 33.38100
C  46.53000 24.47100 33.24000
C  46.55800 24.17800 31.76400
C  47.40500 23.54000 34.03100
C  45.62200 26.74600 34.15800
C  45.73800 26.62100 35.75000
H  44.40300 26.33400 36.50000
N  46.47600 23.50500 28.68200
C  46.10300 22.65400 29.71000
C  45.80100 21.35500 29.07500
C  46.11200 21.47100 27.65700
C  46.53800 22.88300 27.49000
C  45.29200 20.23800 29.90800
C  45.97300 20.41500 26.54900
O  46.36700 20.57100 25.42000
C  45.47800 19.01500 26.90700
N  47.62000 25.73900 26.91200
C  47.41300 24.72500 26.00700
C  47.92500 25.03800 24.55500
C  47.99200 26.56700 24.70700
C  47.95300 26.86100 26.26100
C  49.19800 24.25600 24.23800
C  46.84600 27.26300 23.90900
C  45.49100 27.29000 24.64900
N  47.86800 27.44100 29.15800
C  48.20100 28.44200 28.24000
C  48.60800 29.64500 28.97200
C  48.42000 29.32300 30.29000
C  47.95900 28.02000 30.37400
C  49.19300 30.93000 28.28800
C  48.46200 29.87100 31.62500
O  48.80100 30.95000 32.04300
C  47.97300 28.70300 32.63000
C  49.03800 28.31100 33.57500
O  50.15900 27.95500 33.18300
O  48.59400 28.20300 34.90300
C  49.63500 27.65700 35.72000
H  45.92000 22.16600 31.92500
H  46.93300 22.78100 25.45900
H  48.50000 28.91800 26.14700
H  47.63600 26.10900 33.95500
H  45.50800 24.20200 33.50700
H  48.13700 24.14800 34.56200
H  48.00100 22.84000 33.44600
H  46.86200 22.99900 34.80600
H  44.64700 26.42000 33.79500
H  45.68100 27.82100 33.98800
H  46.16700 27.50500 36.22200
H  46.40300 25.76500 35.85700
H  45.99700 19.40700 29.92400
H  44.32800 19.85700 29.57100
H  45.08200 20.61200 30.91000
H  45.81600 18.60500 27.85800
H  45.70100 18.26600 26.14700
H  44.39300 18.93300 26.85200
H  47.20500 24.79900 23.77200
H  48.97900 26.81500 24.31600
H  49.34000 23.78200 23.26600
H  49.40900 23.56100 25.05100
H  49.97500 25.02000 24.21900
H  46.72000 26.74500 22.95800
H  47.20700 28.28600 23.80200
H  45.34800 28.26900 25.10700
H  45.51100 26.59700 25.49000
H  44.61700 27.16300 24.01000
H  49.71700 30.69000 27.36200
H  49.85100 31.43000 28.99900
H  48.40500 31.62500 27.99800
H  47.07600 29.08300 33.11900
H  50.67000 27.99900 35.73500
H  49.74500 26.62000 35.40300
H  49.20000 27.68700 36.71900
Mg 8.76500 47.13100 25.28800
C  6.45700 46.92100 28.06800
C  11.18200 47.86800 27.52600
C  10.82400 47.27200 22.69100
C  6.06700 46.89800 23.14300
N  8.81300 47.58600 27.55500
C  7.80200 47.21300 28.46300
C  8.26300 47.56900 29.90200
C  9.77300 47.91900 29.69300
C  9.95100 47.84300 28.16600
C  10.36500 49.21000 30.38000
C  8.04600 46.44700 30.96200
C  8.95800 46.42600 32.21500
H  8.28100 46.02100 33.51200
N  10.72300 47.61700 25.07400
C  11.60500 47.83900 26.13900
C  13.00600 47.97700 25.58500
C  12.90000 47.81900 24.20600
C  11.45400 47.58300 23.89900
C  14.16600 48.28700 26.42600
C  13.94200 47.71900 23.16200
O  13.75200 47.57300 21.91000
C  15.31400 47.58500 23.60800
N  8.44700 47.09700 23.16100
C  9.50000 47.11700 22.32200
C  9.02300 46.91400 20.85000
C  7.47700 46.67500 21.03000
C  7.27100 46.91000 22.51900
C  9.46800 48.06800 19.92200
C  7.00000 45.33600 20.43100
C  5.59800 45.47000 19.85600
N  6.72300 46.91200 25.52800
C  5.78000 46.78400 24.53700
C  4.47600 46.46300 25.11500
C  4.68300 46.47100 26.49600
C  6.07600 46.77500 26.66500
C  3.15700 46.20800 24.36700
C  4.10100 46.37500 27.81600
O  2.90300 46.05300 28.03200
C  5.21700 46.66100 28.89300
C  5.25700 45.44400 29.75000
O  5.83700 44.42500 29.51600
O  4.40000 45.65300 30.78400
C  4.46500 44.60700 31.78600
H  11.99100 48.03500 28.24100
H  11.43500 47.26700 21.78600
H  5.19800 46.97900 22.48600
H  7.77000 48.49800 30.18800
H  10.32600 47.00900 29.92300
H  10.52800 49.91800 29.56700
H  11.24600 49.15700 31.02100
H  9.60400 49.67900 31.00400
H  8.05300 45.45500 30.51200
H  7.04800 46.69600 31.32500
H  9.34600 47.43600 32.34600
H  9.68900 45.63400 32.04900
H  14.98300 47.56800 26.48800
H  13.83000 48.45900 27.44900
H  14.54900 49.26000 26.11800
H  15.78200 48.42300 24.12600
H  15.83500 47.47700 22.65700
H  15.47700 46.68800 24.20600
H  9.41400 45.97100 20.46700
H  6.90800 47.44600 20.51000
H  9.87300 47.61300 19.01800
H  10.29500 48.60100 20.39100
H  8.68200 48.79800 19.72700
H  7.10700 44.54300 21.17000
H  7.54100 45.09500 19.51600
H  5.71700 45.10200 18.83700
H  5.20000 46.48500 19.85800
H  4.89100 44.78600 20.32700
H  2.60300 47.12300 24.15800
H  2.52300 45.57800 24.99100
H  3.28900 45.72200 23.40000
H  4.89800 47.53100 29.46700
H  4.19100 45.17000 32.67800
H  5.47100 44.20500 31.90500
H  3.79300 43.79600 31.50300

