158

Mg 9.06500 2.16200 27.59000
C  10.44500 0.96600 30.63700
C  6.90400 4.13500 29.58000
C  7.50000 2.96500 24.82300
C  10.70600 -0.46500 25.94900
N  8.82600 2.62400 29.91400
C  9.50600 2.02400 30.91200
C  9.13500 2.72600 32.26900
C  8.00900 3.77800 31.92100
C  7.91100 3.53800 30.38100
C  6.74500 3.72200 32.77200
C  10.46700 3.37500 32.81000
C  10.28500 4.46700 33.91600
H  10.96300 4.22600 35.25300
N  7.49300 3.36100 27.26700
C  6.69200 4.06400 28.18100
C  5.79000 4.95200 27.42200
C  6.08300 4.71400 26.04500
C  7.11900 3.67000 26.01600
C  4.76200 5.86900 28.15700
C  5.55100 5.47700 24.86700
O  5.99500 5.47400 23.74500
C  4.38300 6.41900 25.12100
N  9.12600 1.35300 25.66100
C  8.41600 1.91300 24.64700
C  8.84600 1.35800 23.23000
C  9.78500 0.25000 23.62800
C  9.93800 0.37700 25.16400
C  7.70700 1.10000 22.11600
C  11.08100 0.19400 22.96100
C  11.11500 -0.71000 21.67500
N  10.26100 0.54600 28.18800
C  10.91400 -0.34200 27.38800
C  11.86900 -1.13000 28.21600
C  11.64800 -0.71900 29.50900
C  10.73600 0.39300 29.42000
C  12.86700 -2.18600 27.85100
C  12.08400 -0.86200 30.92100
O  12.92600 -1.52800 31.42000
C  11.30800 0.25300 31.69400
C  10.51400 -0.42200 32.70800
O  9.52600 -1.00800 32.47800
O  11.17300 -0.24000 33.93800
C  10.31900 -0.42600 35.10900
H  6.01000 4.49700 30.09200
H  7.04200 3.26400 23.87700
H  11.30200 -1.23300 25.45200
H  8.93800 2.01300 33.07000
H  8.45500 4.77000 31.99100
H  5.85800 3.42300 32.21300
H  6.61500 4.65400 33.32200
H  6.75200 2.96100 33.55300
H  10.99100 3.82900 31.96900
H  11.04300 2.57700 33.27800
H  9.22600 4.61000 34.13200
H  10.70800 5.37900 33.49600
H  4.92600 6.89000 27.81300
H  4.89800 5.97100 29.23400
H  3.69300 5.68600 28.04800
H  4.67800 7.24500 25.76800
H  3.59700 5.83700 25.60100
H  4.14000 6.90400 24.17600
H  9.55100 2.16700 23.03900
H  9.04300 -0.51600 23.40400
H  7.62100 2.02700 21.54900
H  6.72500 0.82600 22.50200
H  7.98300 0.36300 21.36100
H  11.90200 -0.18100 23.57200
H  11.37600 1.18300 22.60800
H  11.17700 -0.11600 20.76400
H  10.29100 -1.40900 21.53200
H  11.98700 -1.34200 21.84700
H  13.61100 -2.32700 28.63500
H  13.40600 -1.82700 26.97400
H  12.35700 -3.11300 27.59000
H  12.02500 1.01200 32.00600
H  10.02000 -1.47200 35.05600
H  9.47400 0.26200 35.13600
H  10.88000 -0.26400 36.03000
Mg 6.95400 54.58500 41.51100
C  6.64500 51.01100 41.30800
C  10.07100 54.30600 40.34300
C  7.02100 57.82200 41.28200
C  3.47700 54.60400 42.19300
N  8.13200 52.81400 40.79700
C  7.96500 51.45900 40.91500
C  9.25000 50.60600 40.58200
C  10.30400 51.75900 40.68900
C  9.42600 53.01900 40.54800
C  10.99800 51.90900 42.14600
C  9.23100 49.89400 39.27700
C  8.89800 50.71400 38.01000
H  7.49700 50.68200 37.46800
N  8.34400 55.90600 40.79100
C  9.61900 55.56000 40.35600
C  10.34700 56.79300 40.08100
C  9.46800 57.90200 40.44300
C  8.23700 57.25900 40.91200
C  11.77200 56.86200 39.58800
C  9.80300 59.36900 40.24100
O  10.79900 59.73200 39.63100
C  8.85900 60.45600 40.78000
N  5.41100 56.02300 41.46800
C  5.76200 57.29800 41.50100
C  4.58600 58.16700 42.00200
C  3.42300 57.10000 41.91600
C  4.11500 55.81400 41.87300
C  4.83600 58.62800 43.51000
C  2.31000 57.22900 40.87300
C  0.87300 57.62900 41.28300
N  5.41500 53.14800 41.90100
C  4.05300 53.27100 42.12400
C  3.49100 52.01400 42.51700
C  4.47700 51.12900 42.16900
C  5.56700 51.86000 41.68900
C  2.08000 51.69900 42.86700
C  4.77300 49.72100 42.17700
O  4.05500 48.82800 42.66000
C  6.15900 49.59500 41.45300
C  5.82700 48.98300 40.15400
O  4.90700 49.29200 39.35400
O  6.54500 47.85100 40.02800
C  5.94600 46.88300 39.03800
H  11.15000 54.24600 40.18900
H  6.95000 58.91100 41.26400
H  2.41700 54.48900 42.42800
H  9.48100 49.90300 41.38300
H  11.12500 51.67900 39.97600
H  10.77800 51.00800 42.72000
H  10.56400 52.79500 42.61000
H  12.07300 52.08400 42.16500
H  8.54200 49.05100 39.23900
H  10.23900 49.48000 39.30800
H  9.61900 50.41400 37.25000
H  9.09300 51.76600 38.21700
H  12.21800 57.84100 39.41300
H  11.77200 56.26400 38.67600
H  12.28800 56.26900 40.34300
H  9.43000 61.37900 40.67600
H  8.62900 60.22400 41.82000
H  7.98800 60.62200 40.14600
H  4.48700 58.97500 41.27600
H  2.83800 57.03700 42.83400
H  5.90500 58.73300 43.69500
H  4.29200 58.05000 44.25700
H  4.38600 59.59900 43.71600
H  2.12000 56.23000 40.48100
H  2.59900 57.94200 40.10100
H  0.84800 57.94900 42.32400
H  0.20900 56.76600 41.31100
H  0.44200 58.42300 40.67200
H  1.36800 52.52400 42.85000
H  2.04000 51.25300 43.86000
H  1.61800 50.92000 42.26000
H  6.80700 48.92600 42.01900
H  6.28500 47.33900 38.10800
H  4.86600 46.74700 39.08700
H  6.29000 45.85100 39.11100

