158

Mg 45.54600 4.95800 48.24600
C  43.89500 7.74600 47.10600
C  42.77200 3.13600 47.26600
C  47.38000 2.11900 48.71100
C  48.43700 6.79300 48.65700
N  43.52500 5.44800 47.30400
C  43.01500 6.67400 46.97200
C  41.60800 6.57700 46.39000
C  41.21600 5.08900 46.76100
C  42.63400 4.51700 47.05000
C  40.15500 5.00900 47.90100
C  41.64200 7.02700 44.85300
C  40.74100 8.23800 44.31900
H  39.71900 7.97300 43.17400
N  45.15600 2.92900 48.09100
C  43.94100 2.35800 47.60700
C  44.03500 0.94200 47.78900
C  45.31900 0.60300 48.05300
C  46.06900 1.89300 48.27800
C  42.82100 0.08600 47.56800
C  45.89900 -0.81700 48.01000
O  45.16000 -1.80700 47.81500
C  47.31100 -1.08800 48.20200
N  47.65000 4.55000 48.43700
C  48.14600 3.33600 48.76800
C  49.62900 3.32600 49.18300
C  50.01300 4.78700 48.84600
C  48.60500 5.45900 48.58800
C  49.89300 2.87400 50.71300
C  50.92200 5.10200 47.64100
C  52.35300 4.33000 47.60000
N  46.08700 6.82900 47.94600
C  47.26700 7.47400 48.30500
C  47.10500 8.87700 48.26300
C  45.79500 9.02800 47.79000
C  45.22200 7.77100 47.64000
C  48.18900 9.93300 48.44000
C  44.84100 10.07000 47.34800
O  44.99000 11.27300 47.29100
C  43.57300 9.22100 46.78700
C  42.25500 9.71000 47.26800
O  41.55600 9.33300 48.22700
O  41.93400 10.74800 46.36000
C  40.55800 11.22600 46.74300
H  41.87900 2.56800 46.99400
H  47.87800 1.17800 48.95400
H  49.39600 7.29300 48.81000
H  40.92900 7.19300 46.98000
H  40.76400 4.59600 45.90000
H  39.95400 5.92900 48.45000
H  40.53500 4.27900 48.61700
H  39.30200 4.55700 47.39600
H  41.24600 6.13300 44.37100
H  42.58900 7.28000 44.37700
H  41.51700 8.93700 44.00600
H  40.15800 8.65200 45.14200
H  42.76500 -0.70700 48.31300
H  42.96800 -0.35800 46.58300
H  41.86200 0.58700 47.44100
H  47.47600 -1.88300 47.47500
H  47.63600 -1.24100 49.23000
H  47.84500 -0.28300 47.69600
H  50.27700 2.72000 48.55100
H  50.50700 5.18200 49.73400
H  50.86900 3.20000 51.07100
H  49.87600 1.78500 50.74900
H  49.20400 3.38500 51.38700
H  51.16600 6.14200 47.85800
H  50.32100 5.05700 46.73200
H  52.54400 3.57400 48.36200
H  53.06700 5.14700 47.70500
H  52.47800 3.83800 46.63500
H  49.16200 9.48200 48.63500
H  47.93000 10.64100 49.22700
H  48.28100 10.40100 47.46000
H  43.57700 9.21700 45.69700
H  40.76700 11.82100 47.63300
H  39.83800 10.40800 46.77300
H  40.10400 11.91300 46.02800
Mg -5.93800 24.98400 26.10800
C  -4.30300 26.28300 29.06800
C  -7.80600 22.95200 28.19400
C  -6.74400 23.28800 23.43500
C  -3.53200 26.76200 24.25300
N  -5.93400 24.63200 28.38900
C  -5.18000 25.24300 29.35700
C  -5.62800 24.92400 30.71300
C  -6.61100 23.70400 30.43100
C  -6.87200 23.78000 28.86500
C  -5.93700 22.27800 30.73600
C  -6.43500 26.14300 31.23900
C  -6.30100 26.45000 32.74600
H  -5.65300 25.34800 33.64200
N  -7.23500 23.47400 25.85700
C  -7.97400 22.84800 26.79000
C  -8.82000 21.91300 26.09500
C  -8.60100 21.99400 24.74700
C  -7.49300 22.89400 24.59900
C  -9.73300 21.02800 26.88100
C  -9.24200 21.19200 23.55000
O  -8.88800 21.34600 22.42200
C  -10.35400 20.25000 23.81200
N  -5.35600 25.17800 24.06900
C  -5.85500 24.31000 23.16100
C  -5.12600 24.49200 21.73600
C  -4.21000 25.72700 22.01200
C  -4.33000 25.86800 23.53500
C  -4.40300 23.21700 21.31900
C  -4.60700 27.01400 21.23700
C  -5.46300 28.02600 21.89100
N  -4.40800 26.33300 26.52100
C  -3.55200 26.95400 25.63900
C  -2.74900 27.90300 26.40800
C  -3.04500 27.69600 27.69400
C  -4.03800 26.68900 27.74900
C  -1.78500 28.87000 25.90900
C  -2.63500 28.04400 28.99000
O  -1.81700 28.86800 29.45300
C  -3.43400 27.17700 29.95700
C  -2.44500 26.46100 30.85200
O  -1.90100 25.35700 30.69200
O  -2.33100 27.16700 32.02400
C  -1.69900 26.68600 33.29200
H  -8.28400 22.25100 28.88200
H  -6.94400 22.65000 22.57200
H  -2.81200 27.34200 23.67200
H  -4.74300 24.63900 31.28100
H  -7.55500 23.89300 30.94300
H  -5.84900 21.58300 29.90100
H  -6.62800 21.86000 31.46800
H  -5.01600 22.34900 31.31400
H  -7.47700 26.04400 30.93500
H  -6.20100 27.07500 30.72300
H  -7.30100 26.57600 33.16100
H  -5.75100 27.38300 32.86800
H  -9.61200 19.96200 26.68400
H  -10.68700 21.27200 26.41400
H  -9.80400 21.23600 27.94800
H  -11.10200 20.55900 24.54300
H  -9.82200 19.36000 24.14600
H  -10.77800 20.02500 22.83300
H  -5.84700 24.82100 20.98700
H  -3.16900 25.50100 21.78100
H  -4.55300 22.39900 22.02400
H  -3.34100 23.41400 21.17100
H  -4.73900 22.90400 20.33100
H  -4.94600 26.80200 20.22300
H  -3.66800 27.50200 20.97600
H  -4.88900 28.92900 22.10100
H  -6.02800 27.73500 22.77700
H  -6.13500 28.40800 21.12200
H  -2.28500 29.83100 25.78100
H  -1.44000 28.60600 24.90900
H  -0.84600 28.87900 26.46200
H  -4.07200 27.85700 30.52100
H  -2.29700 27.11500 34.09700
H  -0.62900 26.88400 33.34800
H  -1.72400 25.59800 33.36000

