158

Mg 8.19500 3.50600 27.81900
C  9.82300 1.98400 30.53300
C  5.98000 5.03200 30.20000
C  6.36400 4.71900 25.38900
C  9.68500 1.33100 25.77900
N  7.86000 3.39400 30.12000
C  8.72800 2.78500 30.96500
C  8.46000 3.28400 32.39200
C  7.29800 4.27500 32.31200
C  6.98100 4.18100 30.76700
C  6.07900 4.16100 33.26300
C  9.70600 3.84400 33.23600
C  9.41700 4.55600 34.56200
H  10.27900 4.33700 35.75600
N  6.45500 4.75200 27.80100
C  5.76200 5.27700 28.81200
C  4.68000 6.12500 28.33200
C  4.73200 6.05500 26.87600
C  5.84200 5.21400 26.58200
C  3.87500 7.00700 29.20900
C  3.86800 6.72100 25.82200
O  4.01900 6.65200 24.62800
C  2.65300 7.54400 26.16000
N  7.95400 3.00100 25.84000
C  7.19300 3.65900 25.02800
C  7.47900 3.36700 23.54200
C  8.71100 2.40000 23.64800
C  8.83600 2.19600 25.16100
C  6.19900 3.04700 22.61700
C  10.06600 2.90500 23.11900
C  10.98200 3.91900 24.01300
N  9.60100 1.96500 28.06400
C  10.13500 1.20200 27.10400
C  11.16700 0.34400 27.66100
C  11.12800 0.75900 29.04700
C  10.09000 1.65300 29.21600
C  12.17700 -0.48400 26.85700
C  11.64500 0.43700 30.30700
O  12.56600 -0.31200 30.60600
C  10.78100 1.11500 31.33500
C  10.03600 0.16500 32.20300
O  9.22000 -0.67200 31.83000
O  10.36400 0.32100 33.51900
C  9.68500 -0.64200 34.38300
H  5.40700 5.63700 30.90600
H  5.94800 5.11200 24.45900
H  10.33800 0.68100 25.19200
H  8.13100 2.31200 32.76000
H  7.67000 5.28400 32.49100
H  5.18600 3.94600 32.67700
H  5.85600 5.00900 33.91100
H  6.13800 3.33100 33.96700
H  10.42400 4.37000 32.60700
H  10.25300 2.95100 33.54100
H  8.35300 4.38000 34.71500
H  9.52100 5.62300 34.36500
H  3.83900 7.93200 28.63300
H  4.34900 7.31600 30.14000
H  2.91200 6.55300 29.44500
H  2.07300 7.00000 26.90500
H  1.96200 7.72500 25.33700
H  3.12900 8.48800 26.42700
H  7.89700 4.27800 23.11300
H  8.36100 1.46400 23.21400
H  5.28700 3.26900 23.17200
H  6.30800 1.99600 22.34800
H  6.25600 3.73000 21.77000
H  9.86900 3.40100 22.16800
H  10.64000 1.99200 22.95600
H  10.30100 4.52300 24.61100
H  11.53400 4.58100 23.34500
H  11.62900 3.33200 24.66500
H  12.79200 -1.02400 27.57600
H  12.66800 0.24800 26.21500
H  11.65900 -1.20500 26.22600
H  11.48200 1.61800 32.00000
H  10.48500 -1.35500 34.58300
H  8.87000 -1.18800 33.90700
H  9.32000 -0.23300 35.32500
Mg 40.88700 8.83600 29.37600
C  42.59500 10.18800 32.18600
C  38.51300 7.72600 31.54900
C  39.27200 7.81200 26.64200
C  43.48700 10.06400 27.39500
N  40.59600 8.97100 31.62200
C  41.34600 9.66700 32.55000
C  40.70700 9.58200 33.90200
C  39.44100 8.67300 33.68400
C  39.51300 8.43900 32.21900
C  39.37900 7.45200 34.59500
C  40.36400 10.99500 34.49600
C  39.87800 10.97300 35.95900
H  40.69600 11.78000 37.05900
N  39.17800 7.80500 29.13700
C  38.33200 7.45000 30.16200
C  37.05600 6.87100 29.48500
C  37.14100 7.01600 28.06300
C  38.55800 7.52600 27.90600
C  36.14500 6.00100 30.26800
C  36.13300 6.68300 27.01800
O  36.39100 6.76400 25.81600
C  34.78800 6.30800 27.46300
N  41.41900 8.62100 27.36100
C  40.54000 8.22900 26.42000
C  41.12100 8.43200 25.00600
C  42.22200 9.46100 25.26800
C  42.43200 9.37500 26.72800
C  41.64400 7.13200 24.39200
C  41.71600 10.84600 24.90000
C  42.10600 11.36400 23.53900
N  42.75600 9.69200 29.70300
C  43.64500 10.20500 28.76500
C  44.81700 10.75800 29.43000
C  44.49900 10.66900 30.79700
C  43.17300 10.14300 30.89200
C  46.07000 11.32700 28.91500
C  44.88500 11.11000 32.12000
O  45.91500 11.64800 32.51700
C  43.63200 10.84800 33.03100
C  44.14600 9.94800 34.08300
O  44.83400 8.96000 33.92000
O  43.78100 10.41900 35.31300
C  44.21500 9.70200 36.47300
H  37.70300 7.47500 32.23800
H  38.69700 7.50700 25.76600
H  44.13900 10.67000 26.76200
H  41.43400 9.14200 34.58400
H  38.48000 9.16000 33.85100
H  38.40600 7.45400 35.08500
H  40.12600 7.38900 35.38600
H  39.41200 6.66600 33.84100
H  39.61300 11.33200 33.78100
H  41.35800 11.42000 34.35500
H  40.02500 9.92300 36.21000
H  38.83600 11.29000 36.01200
H  36.44100 6.09100 31.31400
H  36.12200 4.95400 29.96700
H  35.13000 6.38900 30.36100
H  34.79200 5.34100 27.96600
H  34.11600 6.30800 26.60400
H  34.47700 7.06400 28.18500
H  40.25100 8.74800 24.43000
H  43.17100 9.23900 24.78000
H  42.71600 6.94700 24.45400
H  41.36200 6.95300 23.35400
H  41.17800 6.29000 24.90500
H  42.00600 11.53700 25.69200
H  40.63500 10.92800 25.01600
H  41.17200 11.56900 23.01600
H  42.59800 10.48100 23.12900
H  42.76800 12.22500 23.63000
H  46.81900 11.18700 29.69500
H  45.97000 12.36700 28.60500
H  46.49200 10.69900 28.13100
H  43.23800 11.78900 33.41500
H  45.25100 10.01700 36.59600
H  44.16800 8.63100 36.27700
H  43.56800 10.15200 37.22600

