158

Mg 47.20100 25.55700 28.73500
C  48.16900 27.63100 31.43600
C  46.12700 23.26900 30.95200
C  46.77800 23.53500 26.08900
C  48.70900 27.95000 26.52200
N  47.09300 25.56000 30.88800
C  47.50400 26.47800 31.82500
C  47.15400 26.03300 33.24800
C  46.55200 24.61200 33.08200
C  46.58200 24.45900 31.56100
C  47.16900 23.52300 33.90700
C  46.25200 27.12900 34.00700
C  46.84700 27.74400 35.21100
H  45.76900 28.27700 36.19200
N  46.43100 23.71300 28.53300
C  45.97900 22.95200 29.58900
C  45.40000 21.78600 29.00200
C  45.57100 21.80800 27.57300
C  46.26700 23.06600 27.33800
C  44.98000 20.57900 29.86200
C  45.18000 20.76600 26.56700
O  45.55400 20.90000 25.40300
C  44.35600 19.60300 26.90500
N  47.90500 25.59100 26.62800
C  47.52200 24.62800 25.71400
C  47.82900 25.08600 24.26300
C  48.10500 26.61500 24.45200
C  48.31600 26.72400 25.97400
C  49.04900 24.28300 23.77000
C  46.93000 27.47000 23.95100
C  45.57800 27.36900 24.64400
N  48.33000 27.34800 28.89100
C  48.86400 28.16600 27.94100
C  49.47300 29.35200 28.42700
C  49.22100 29.13900 29.83900
C  48.55300 27.90500 30.07600
C  50.25200 30.43000 27.73400
C  49.49400 29.79100 31.14700
O  50.06100 30.82500 31.39500
C  48.93200 28.71500 32.21900
C  49.96200 28.31500 33.20200
O  50.66000 27.33800 33.11500
O  49.83100 29.07700 34.29200
C  50.64500 28.67100 35.47700
H  45.71900 22.53000 31.64400
H  46.34800 23.02300 25.22600
H  49.08300 28.67000 25.79100
H  48.12000 25.99800 33.75200
H  45.46700 24.67900 33.16900
H  47.84400 23.80400 34.71600
H  47.70300 22.79600 33.29600
H  46.38500 22.93200 34.38000
H  45.32200 26.62700 34.27300
H  46.00200 27.92900 33.31100
H  47.33900 28.69100 34.98900
H  47.45900 27.01600 35.74400
H  43.90400 20.44700 29.98000
H  45.35600 20.57400 30.88500
H  45.41600 19.72600 29.34200
H  44.93700 18.83900 27.42300
H  43.90100 19.30000 25.96200
H  43.61000 19.95000 27.61900
H  46.89100 24.83500 23.76700
H  48.96700 27.04500 23.94300
H  49.32200 23.38000 24.31700
H  49.86600 24.96600 23.53800
H  48.75100 23.89300 22.79600
H  46.64000 27.08000 22.97500
H  47.28400 28.50100 23.92700
H  45.79300 26.85300 25.58000
H  44.88700 26.76000 24.06000
H  45.12100 28.34100 24.83200
H  50.45400 30.09900 26.71500
H  51.15500 30.63000 28.31200
H  49.48400 31.20200 27.69400
H  48.18900 29.22000 32.83600
H  50.13300 27.87500 36.01800
H  50.65100 29.57300 36.09000
H  51.68800 28.38400 35.34700
Mg 30.96600 58.32500 39.96700
C  28.15300 56.50900 39.16100
C  32.97000 55.89100 38.73900
C  33.55200 60.49500 40.08400
C  28.88700 61.08600 40.91000
N  30.61200 56.50200 38.97300
C  29.35100 55.90100 38.78200
C  29.46400 54.64500 37.93400
C  30.96900 54.26900 38.14800
C  31.60300 55.61400 38.66300
C  31.24000 53.05600 39.19000
C  29.19800 54.84200 36.40300
C  27.97900 54.09500 35.81900
H  27.11900 54.92600 34.95200
N  32.94400 58.12600 39.65600
C  33.56300 57.04400 39.17000
C  35.03700 57.26100 39.17900
C  35.24800 58.59800 39.49500
C  33.90000 59.16200 39.72000
C  35.98900 56.23000 38.69900
C  36.65100 59.21000 39.47300
O  37.73100 58.62700 39.23800
C  36.81300 60.59600 40.00300
N  31.18700 60.59200 40.20500
C  32.37700 61.14800 40.33000
C  32.29700 62.56500 40.88800
C  30.82700 62.64000 41.36400
C  30.21500 61.36000 40.81100
C  33.44800 62.89400 41.93900
C  30.02800 63.91100 40.91400
C  29.37800 64.73900 41.99600
N  28.90400 58.78100 40.03100
C  28.21600 59.91000 40.39300
C  26.84900 59.69800 40.12100
C  26.76500 58.38100 39.73600
C  28.05000 57.82900 39.69800
C  25.80000 60.81700 40.05300
C  25.89100 57.35800 39.38100
O  24.70100 57.44200 39.17000
C  26.70200 56.03300 39.05300
C  26.44500 55.02800 40.15600
O  27.28900 54.60900 40.89300
O  25.18100 54.54400 40.06800
C  24.83200 53.42000 40.90500
H  33.56200 55.00200 38.51100
H  34.42600 61.08700 40.36200
H  28.18800 61.86600 41.21900
H  28.78700 53.87700 38.30900
H  31.28200 53.84900 37.19100
H  30.26600 52.62200 39.41900
H  31.72900 53.37200 40.11200
H  31.85700 52.25100 38.79300
H  30.01800 54.47000 35.78800
H  29.02600 55.87200 36.09200
H  27.38000 53.72800 36.65300
H  28.42500 53.28100 35.24900
H  36.97300 56.59700 38.40900
H  35.58000 55.67100 37.85800
H  36.13900 55.51500 39.50800
H  36.22700 61.37300 39.51100
H  37.83600 60.97500 40.00700
H  36.48600 60.63300 41.04200
H  32.37700 63.25300 40.04600
H  30.89700 62.68500 42.45100
H  33.67900 61.99500 42.51000
H  32.98500 63.65300 42.57000
H  34.37300 63.21200 41.45900
H  29.25800 63.65000 40.18800
H  30.65300 64.66500 40.43600
H  28.34300 64.94000 41.71900
H  29.84100 65.72000 42.10100
H  29.26200 64.25200 42.96500
H  25.40700 61.08200 41.03400
H  25.05000 60.51400 39.32200
H  26.22900 61.76400 39.72400
H  26.57100 55.71200 38.02000
H  25.57200 52.66900 40.62400
H  23.82000 53.10400 40.65300
H  24.87600 53.71600 41.95300

