158

Mg -2.25900 17.36900 25.86400
C  -2.80200 15.17900 28.65000
C  -2.61100 20.00800 28.12800
C  -2.04700 19.41900 23.32700
C  -2.81400 14.61100 23.70600
N  -2.83500 17.53600 28.21300
C  -2.83300 16.50800 29.13500
C  -2.94500 17.03900 30.55200
C  -3.08000 18.61400 30.31100
C  -2.80200 18.76500 28.81800
C  -4.47100 19.11200 30.74000
C  -1.72600 16.54800 31.41300
C  -1.02500 17.37500 32.47000
H  -0.64500 16.58100 33.74800
N  -2.23500 19.40700 25.72800
C  -2.34500 20.33200 26.79200
C  -2.22400 21.70200 26.19400
C  -1.98300 21.60800 24.78400
C  -2.09800 20.05600 24.53800
C  -2.30700 22.94800 27.00800
C  -1.80600 22.62800 23.72700
O  -1.90100 22.39700 22.55500
C  -1.77200 24.03600 24.02200
N  -2.40500 17.08700 23.80400
C  -2.17100 18.11000 22.94000
C  -2.11500 17.65000 21.50300
C  -2.58200 16.14500 21.64700
C  -2.54500 15.87200 23.15000
C  -3.04200 18.47100 20.55700
C  -1.75300 15.10700 20.81000
C  -1.40100 15.45600 19.43700
N  -2.51600 15.26800 26.09800
C  -2.77400 14.32200 25.08600
C  -2.91100 12.98200 25.80900
C  -2.90700 13.30900 27.13400
C  -2.76900 14.70300 27.30800
C  -2.95800 11.67300 25.26100
C  -2.96100 12.75500 28.45500
O  -3.11600 11.57500 28.80100
C  -2.83900 13.92900 29.45500
C  -1.54300 13.71500 30.11700
O  -0.48400 14.15900 29.74100
O  -1.63100 12.97200 31.26300
C  -0.56100 12.73800 32.19700
H  -2.71300 20.88500 28.77000
H  -1.78100 20.13700 22.54900
H  -2.97100 13.70700 23.11400
H  -3.84800 16.56400 30.93700
H  -2.43000 19.28600 30.87100
H  -5.03500 18.33200 31.25000
H  -4.94800 19.29000 29.77600
H  -4.45700 20.00500 31.36500
H  -0.92000 16.42300 30.69000
H  -1.99600 15.58600 31.84700
H  -1.60200 18.26100 32.73400
H  -0.05300 17.79600 32.21000
H  -2.65300 22.72000 28.01700
H  -3.05300 23.64400 26.62400
H  -1.27700 23.30400 26.99200
H  -1.74100 24.72200 23.17600
H  -0.84800 24.14100 24.59000
H  -2.61300 24.29300 24.66600
H  -1.10100 17.63100 21.10300
H  -3.63700 15.98200 21.42300
H  -3.49500 19.38000 20.95400
H  -3.75100 17.81700 20.04800
H  -2.37700 18.84200 19.77700
H  -2.34100 14.19900 20.67700
H  -0.81300 14.86800 21.30800
H  -2.24400 15.95500 18.96000
H  -1.05300 14.64200 18.80100
H  -0.68100 16.27400 19.47500
H  -2.17500 11.08100 25.73300
H  -2.54800 11.65000 24.25100
H  -3.90500 11.13400 25.28700
H  -3.55900 13.89700 30.27300
H  -0.76000 13.16600 33.17900
H  0.39500 13.03200 31.76400
H  -0.58700 11.68000 32.45700
Mg 25.70900 1.63500 29.54800
C  27.76600 1.21700 32.35000
C  23.00700 1.82000 31.68300
C  23.72000 1.76800 26.88000
C  28.39700 0.57300 27.52700
N  25.49200 1.48000 31.76700
C  26.42900 1.36700 32.70600
C  25.77400 1.59200 34.12400
C  24.28000 1.69500 33.81200
C  24.24400 1.66700 32.30200
C  23.41100 0.62100 34.54700
C  26.32500 2.86200 34.85600
C  25.60500 3.10600 36.23400
H  26.48600 3.41800 37.44400
N  23.60400 1.70800 29.30900
C  22.70600 1.78100 30.32500
C  21.34600 1.93600 29.71400
C  21.60300 1.95800 28.29500
C  23.01700 1.86400 28.09200
C  20.12800 2.12000 30.59200
C  20.55300 2.01900 27.19400
O  20.76100 2.11700 25.96100
C  19.11700 2.13400 27.64000
N  26.05300 1.34200 27.45700
C  25.08800 1.55900 26.59400
C  25.72200 1.61100 25.16700
C  27.15800 1.18700 25.41500
C  27.23700 1.00000 26.91700
C  24.93100 0.83400 24.05200
C  28.21600 2.24900 24.85900
C  29.57700 1.53800 24.52100
N  27.71700 1.03300 29.80000
C  28.65000 0.63600 28.87100
C  29.87900 0.35500 29.54700
C  29.61100 0.56200 30.89600
C  28.30200 1.01300 31.01700
C  31.21400 0.03200 28.98900
C  30.17700 0.44100 32.22200
O  31.26300 0.11400 32.69700
C  28.96900 0.88500 33.17500
C  28.65500 -0.23200 34.04400
O  28.19600 -1.29000 33.66700
O  28.95300 0.08200 35.35000
C  28.72400 -0.93800 36.33700
H  22.21200 2.00000 32.41000
H  23.10400 1.99300 26.00700
H  29.24400 0.41500 26.85700
H  26.02100 0.66800 34.64600
H  23.96900 2.69800 34.10400
H  22.50400 1.16200 34.81600
H  23.87100 0.21700 35.44900
H  23.03500 -0.18600 33.91900
H  26.16700 3.67100 34.14300
H  27.40200 2.77100 34.99900
H  25.08800 2.18000 36.48500
H  24.95900 3.89400 35.84700
H  19.55300 1.21900 30.37500
H  19.66400 3.10000 30.48300
H  20.34900 2.01100 31.65300
H  19.01800 2.99100 28.30700
H  18.95300 1.21700 28.20500
H  18.47800 2.28500 26.77000
H  25.70900 2.64700 24.82900
H  27.34200 0.20200 24.98400
H  24.60900 1.51400 23.26300
H  24.11500 0.20000 24.39800
H  25.53900 0.12400 23.49200
H  28.24500 3.08000 25.56300
H  27.90300 2.62400 23.88400
H  29.70500 1.73100 23.45600
H  29.53300 0.45200 24.44300
H  30.47000 1.95400 24.98800
H  31.52200 0.69000 28.17600
H  31.16900 -0.97500 28.57600
H  31.95400 0.05200 29.78800
H  29.27900 1.79700 33.68400
H  29.59700 -1.01900 36.98400
H  28.51900 -1.98500 36.11500
H  27.92500 -0.53500 36.95900

