158

Mg 24.09300 -5.73500 45.76200
C  26.34100 -3.39600 44.48100
C  21.70400 -4.70200 43.44600
C  22.34400 -8.75500 46.12900
C  26.74900 -7.18700 47.52600
N  24.11500 -4.32000 44.08100
C  25.16900 -3.42900 43.73200
C  24.75400 -2.48500 42.57400
C  23.18900 -2.73000 42.53600
C  22.97000 -3.97400 43.44600
C  22.26500 -1.52700 42.84400
C  25.51400 -2.86900 41.19700
C  26.22000 -1.78800 40.43100
H  25.61200 -1.30000 39.21500
N  22.23500 -6.55500 44.96900
C  21.42200 -5.91700 44.09200
C  20.21200 -6.66500 43.96100
C  20.33600 -7.87000 44.75700
C  21.69400 -7.77700 45.41000
C  19.05900 -6.16200 43.11100
C  19.38800 -9.02400 44.84700
O  18.34200 -9.08900 44.24900
C  19.50700 -10.14900 45.85600
N  24.44100 -7.65900 46.69300
C  23.62300 -8.69700 46.66900
C  24.22100 -9.96500 47.33700
C  25.58300 -9.45300 47.92400
C  25.64700 -8.04700 47.28500
C  23.23800 -10.72300 48.39300
C  26.79700 -10.40200 47.49800
C  27.64400 -10.81100 48.72900
N  26.13300 -5.40800 46.04500
C  27.07000 -6.01900 46.83800
C  28.31500 -5.30400 46.85100
C  28.06700 -4.19700 45.97900
C  26.76500 -4.38100 45.45600
C  29.63200 -5.71600 47.48500
C  28.66400 -2.99900 45.38500
O  29.74800 -2.52500 45.50100
C  27.57000 -2.46800 44.39200
C  27.14100 -1.03000 44.75700
O  26.10800 -0.65400 45.30700
O  28.14400 -0.13900 44.26400
C  28.05400 1.33600 44.68000
H  20.97200 -4.05900 42.95400
H  21.83100 -9.68900 46.36700
H  27.47400 -7.60200 48.22900
H  25.06800 -1.50400 42.92900
H  22.95000 -3.04600 41.52000
H  22.86400 -0.62700 42.98300
H  21.73700 -1.72000 43.77800
H  21.59800 -1.25300 42.02700
H  24.79500 -3.30700 40.50400
H  26.22200 -3.63900 41.50300
H  27.25300 -2.12200 40.33600
H  26.14700 -0.93900 41.11100
H  19.22100 -6.36600 42.05200
H  18.68600 -5.14000 43.17500
H  18.17400 -6.76800 43.30300
H  19.78900 -9.58100 46.74200
H  20.27800 -10.87100 45.58800
H  18.62100 -10.68600 46.19600
H  24.41900 -10.71100 46.56800
H  25.46900 -9.38400 49.00600
H  23.74500 -11.04100 49.30400
H  22.61800 -11.54600 48.03500
H  22.46700 -9.99600 48.64800
H  27.42100 -9.95700 46.72300
H  26.42600 -11.26800 46.94900
H  28.32800 -9.98500 48.92900
H  28.10700 -11.79100 48.61200
H  27.05000 -10.92400 49.63600
H  29.84700 -6.69600 47.06000
H  29.64300 -6.09800 48.50600
H  30.39600 -4.95800 47.31000
H  28.00100 -2.46600 43.39100
H  28.33300 1.93000 43.81000
H  28.78700 1.54500 45.46000
H  27.01700 1.57200 44.91900
Mg 50.68100 45.29200 42.34700
C  47.79900 47.03000 41.03900
C  49.54600 42.39100 40.98000
C  53.74600 44.03200 42.58000
C  51.94400 48.55600 42.98000
N  48.95900 44.83700 41.11300
C  47.82200 45.65500 40.81300
C  46.67400 44.82400 40.15300
C  47.08800 43.31600 40.36000
C  48.65600 43.52100 40.84800
C  46.31200 42.49800 41.45700
C  46.44000 45.08600 38.65500
C  44.99700 45.02800 38.16200
H  44.63700 43.86500 37.27100
N  51.53400 43.40200 41.90000
C  50.83200 42.34700 41.42500
C  51.76700 41.25900 41.38400
C  53.01700 41.72600 41.77500
C  52.83400 43.12500 42.03600
C  51.41400 39.94800 40.83600
C  54.26100 40.93600 41.81100
O  54.23000 39.70300 41.68100
C  55.63200 41.48300 41.93800
N  52.49800 46.14700 42.81800
C  53.66900 45.38100 42.93700
C  54.89400 46.18400 43.36500
C  54.28300 47.59500 43.67000
C  52.85300 47.44400 43.08900
C  55.59400 45.51500 44.52300
C  55.01300 48.81500 42.97300
C  55.13700 50.06300 43.78600
N  49.96800 47.37600 42.23800
C  50.62600 48.56000 42.52100
C  49.82900 49.68800 42.23900
C  48.62500 49.12100 41.76200
C  48.80400 47.76300 41.74100
C  50.28900 51.18100 42.33600
C  47.44100 49.45800 41.05700
O  47.05400 50.61100 40.80200
C  46.82800 48.11500 40.55400
C  45.52100 48.11600 41.22000
O  45.28600 48.38800 42.41800
O  44.53700 47.99000 40.26400
C  43.17300 48.12000 40.67500
H  49.06700 41.43300 40.77000
H  54.79400 43.72700 42.60300
H  52.37100 49.50900 43.29800
H  45.83500 45.03200 40.81700
H  47.11900 42.68800 39.47000
H  45.34900 42.94200 41.70700
H  46.82400 42.43000 42.41700
H  46.01300 41.53400 41.04300
H  46.99000 44.33300 38.09000
H  46.86300 46.00900 38.25800
H  44.83300 45.95300 37.60900
H  44.32400 44.92900 39.01400
H  52.00700 39.63000 39.97900
H  50.37900 39.90100 40.49900
H  51.36100 39.09000 41.50600
H  55.61900 41.98500 42.90500
H  55.74900 42.24300 41.16600
H  56.48700 40.81300 41.84600
H  55.58300 46.21700 42.52100
H  54.06500 47.65500 44.73600
H  55.84100 46.28800 45.25200
H  56.51700 45.02400 44.21900
H  54.94800 44.78600 45.01300
H  54.43100 49.10100 42.09700
H  56.04400 48.52300 42.77200
H  56.11200 50.11900 44.27100
H  54.30100 49.98300 44.48000
H  54.91000 50.90600 43.13300
H  50.47600 51.49300 43.36400
H  49.55300 51.80500 41.83000
H  51.24900 51.19700 41.82000
H  46.77800 48.10500 39.46600
H  42.87400 47.16100 41.09700
H  42.52100 48.30800 39.82200
H  43.00600 48.97900 41.32500

