158

Mg 50.18700 46.70700 42.86500
C  46.94500 47.26300 41.53900
C  50.25200 43.78200 41.21000
C  53.23500 46.45900 43.83700
C  50.18200 50.18300 43.75800
N  48.81800 45.69600 41.43100
C  47.50600 45.98800 41.20600
C  46.75500 44.98700 40.40200
C  47.67500 43.77500 40.60800
C  48.99700 44.41500 41.11000
C  47.16600 42.63100 41.55200
C  46.61800 45.45100 38.89000
C  45.27100 45.74400 38.34100
H  44.70500 44.63300 37.39200
N  51.58700 45.30200 42.51100
C  51.46000 44.12200 41.81800
C  52.64700 43.27700 42.07400
C  53.53400 44.04300 42.87200
C  52.83400 45.32200 43.08800
C  52.88900 41.89400 41.51900
C  54.92800 43.59700 43.41200
O  55.32900 42.46700 43.21100
C  55.73000 44.48200 44.36400
N  51.54800 48.21400 43.48300
C  52.76300 47.75700 43.90100
C  53.72700 48.84500 44.42300
C  52.64900 50.05600 44.47200
C  51.35800 49.47100 43.88800
C  54.52400 48.43200 45.71200
C  53.15900 51.30400 43.60500
C  53.43100 52.59100 44.33500
N  48.84900 48.42200 42.67500
C  49.00400 49.76200 43.06300
C  47.83200 50.52200 42.76300
C  46.92600 49.59400 42.22500
C  47.64800 48.33600 42.11700
C  47.63900 51.92800 43.03800
C  45.65300 49.42100 41.57900
O  44.66200 50.11800 41.36800
C  45.58200 47.85600 41.20600
C  44.42500 47.23200 41.80500
O  44.25400 46.93300 42.99500
O  43.39600 47.15600 40.86100
C  42.10100 46.77400 41.32500
H  50.30800 42.77400 40.79400
H  54.30300 46.44600 44.06300
H  50.19000 51.20800 44.13400
H  45.81800 44.70200 40.88100
H  47.91500 43.35200 39.63300
H  46.17800 42.85400 41.95300
H  47.87100 42.52100 42.37700
H  46.96200 41.80100 40.87600
H  47.22900 44.70100 38.38700
H  47.18600 46.37500 38.77900
H  45.35700 46.71900 37.86100
H  44.44800 45.84600 39.04800
H  53.95100 41.78200 41.29700
H  52.36800 41.61300 40.60400
H  52.64200 41.16000 42.28600
H  55.20800 44.79300 45.26900
H  55.89500 45.37800 43.76600
H  56.69900 44.08200 44.66300
H  54.49200 48.97500 43.65800
H  52.51200 50.34600 45.51400
H  54.39600 49.25500 46.41500
H  55.58900 48.37900 45.48500
H  54.19800 47.51800 46.20800
H  52.44900 51.58100 42.82500
H  54.14500 51.11300 43.18100
H  54.48600 52.85500 44.26400
H  53.13200 52.44400 45.37300
H  52.80300 53.40700 43.97800
H  48.46400 52.30600 43.64000
H  46.78800 52.04900 43.70800
H  47.52400 52.44300 42.08400
H  45.51300 47.86200 40.11800
H  42.24400 45.87100 41.91800
H  41.50500 46.62700 40.42400
H  41.48600 47.44700 41.92300
Mg 0.73500 42.98900 25.73100
C  2.35900 43.77500 28.82400
C  -2.15000 42.13400 27.49300
C  -0.50300 41.99900 22.94300
C  3.88800 43.60700 24.21700
N  0.19600 42.96900 27.95000
C  0.96700 43.35000 29.01100
C  0.25500 43.02600 30.33500
C  -1.12200 42.38000 29.85400
C  -1.04400 42.57500 28.31800
C  -1.24700 40.88600 30.20900
C  0.18000 44.38900 31.10700
C  0.65600 44.44400 32.62600
H  0.12800 43.30900 33.61800
N  -1.09400 42.19900 25.31500
C  -2.22600 41.92700 26.11700
C  -3.33900 41.32600 25.35500
C  -2.75900 41.22800 24.01100
C  -1.39900 41.83000 24.03500
C  -4.64800 40.78500 25.87500
C  -3.38200 40.64500 22.82000
O  -2.75300 40.57400 21.78100
C  -4.81300 40.20200 22.72000
N  1.58600 42.77800 23.86300
C  0.79600 42.46200 22.81400
C  1.54500 42.57400 21.46400
C  2.91600 43.15600 21.89600
C  2.82900 43.23800 23.40400
C  1.70500 41.21100 20.82300
C  3.27200 44.53000 21.26600
C  2.87900 45.86200 21.88700
N  2.70600 43.66400 26.37600
C  3.86700 43.85800 25.60100
C  4.98200 44.34900 26.49800
C  4.44100 44.24700 27.76000
C  3.08800 43.96800 27.59900
C  6.40800 44.54700 26.06100
C  4.75500 44.29700 29.16800
O  5.82900 44.47000 29.78000
C  3.39300 43.94300 29.88200
C  3.68200 42.73000 30.66200
O  3.88900 41.61100 30.21500
O  3.65900 42.98000 32.03200
C  3.92300 41.73700 32.80400
H  -2.99400 41.72300 28.05000
H  -0.83400 41.79800 21.92200
H  4.81500 43.91000 23.72500
H  0.87100 42.29300 30.85500
H  -2.01200 42.88000 30.23600
H  -2.09100 40.61900 30.84500
H  -0.40200 40.62200 30.84400
H  -1.34800 40.31100 29.28900
H  -0.88400 44.61800 31.05000
H  0.67800 45.21800 30.60400
H  0.31800 45.36700 33.09700
H  1.74000 44.44900 32.73200
H  -4.68000 39.70600 25.72900
H  -5.51100 41.32000 25.47900
H  -4.75400 40.90100 26.95400
H  -4.92800 39.69600 21.76200
H  -5.40100 41.11900 22.67100
H  -5.05400 39.36400 23.37400
H  0.88900 43.14100 20.80500
H  3.71900 42.42800 21.78400
H  0.94600 41.05400 20.05700
H  1.67000 40.44100 21.59400
H  2.66600 41.20500 20.31000
H  2.98000 44.40900 20.22300
H  4.35900 44.51100 21.19000
H  2.13300 45.71400 22.66800
H  2.44500 46.46000 21.08600
H  3.77700 46.39400 22.20100
H  6.57700 45.62400 26.05300
H  6.68100 44.01200 25.15200
H  7.02100 44.14100 26.86500
H  3.15900 44.62500 30.69900
H  4.90100 41.37000 32.49400
H  3.23500 40.91400 32.61100
H  3.94500 42.03700 33.85200

