158

Mg 0.51600 7.94300 26.34100
C  1.36800 9.85500 28.97500
C  0.26000 5.15400 28.49200
C  -0.12600 5.97600 23.54900
C  0.91400 10.68100 24.20500
N  0.69300 7.56500 28.41700
C  0.98900 8.53900 29.33400
C  0.86800 8.08000 30.78600
C  0.72700 6.51400 30.61200
C  0.55200 6.40000 29.04900
C  2.04500 5.64100 31.06800
C  -0.45400 8.64200 31.40900
C  -0.80900 8.27800 32.87800
H  0.44400 7.92400 33.75300
N  0.22500 5.83600 26.01000
C  0.00200 4.91600 27.06700
C  -0.38500 3.66700 26.53000
C  -0.44000 3.82800 25.08500
C  -0.14500 5.27600 24.80100
C  -0.69500 2.45600 27.45300
C  -0.76500 2.78400 24.06100
O  -0.85300 2.99300 22.84200
C  -0.81000 1.36900 24.48600
N  0.28200 8.25900 24.24000
C  0.00900 7.32500 23.29400
C  -0.19800 7.97400 21.93600
C  -0.04700 9.55300 22.16200
C  0.35400 9.55400 23.62300
C  0.89600 7.44600 20.97500
C  -1.32300 10.36500 21.91000
C  -1.23500 11.58200 21.02200
N  1.02800 9.92400 26.49400
C  1.22900 10.93100 25.57100
C  1.78700 12.13400 26.22400
C  1.79400 11.78000 27.62100
C  1.36300 10.44900 27.70400
C  2.04900 13.50600 25.59300
C  2.18500 12.31100 28.95500
O  2.65900 13.40600 29.29400
C  1.76700 11.11700 29.83700
C  2.85200 10.75500 30.81100
O  3.70000 9.95700 30.59900
O  2.70700 11.50400 31.90800
C  3.91900 11.49000 32.73700
H  0.25800 4.32800 29.20500
H  -0.26200 5.39800 22.63200
H  1.05100 11.58700 23.61200
H  1.71700 8.41600 31.38200
H  -0.19200 6.23900 31.12900
H  2.45700 6.23700 31.88200
H  2.80200 5.42800 30.31400
H  1.74700 4.72000 31.56900
H  -1.31700 8.33500 30.81800
H  -0.38800 9.72900 31.36100
H  -1.50300 7.44200 32.96200
H  -1.27700 9.21500 33.17800
H  -1.48900 1.86300 27.00000
H  -1.07500 2.80400 28.41400
H  0.15300 1.80800 27.67300
H  0.02700 1.17700 25.15800
H  -0.71000 0.72900 23.60900
H  -1.76700 1.09400 24.92900
H  -1.22800 7.84800 21.60300
H  0.79900 9.91300 21.57600
H  1.24800 8.22900 20.30200
H  0.55000 6.56400 20.43600
H  1.75800 7.09000 21.53900
H  -1.83800 10.56200 22.85000
H  -2.00400 9.65800 21.43800
H  -0.31300 11.47100 20.45200
H  -1.06900 12.44900 21.66100
H  -2.02000 11.69000 20.27300
H  1.10700 13.84000 25.15800
H  2.72200 13.42400 24.73900
H  2.40100 14.24100 26.31700
H  0.95400 11.37900 30.51500
H  4.80800 11.85400 32.22100
H  4.10300 10.53000 33.22000
H  3.68100 12.09500 33.61100
Mg -11.72000 37.08700 42.26000
C  -9.52300 34.49400 41.27800
C  -9.54100 39.40300 40.89800
C  -14.06700 39.48400 42.43200
C  -13.91400 34.77000 43.39800
N  -9.73900 36.83000 41.09700
C  -9.07900 35.75400 40.71800
C  -7.92100 36.04400 39.86300
C  -7.73700 37.59500 39.98700
C  -9.10000 38.02200 40.71600
C  -6.54000 38.09800 40.82700
C  -8.23000 35.48200 38.47300
C  -7.27800 34.37600 37.93700
H  -6.16300 34.75800 37.00800
N  -11.78200 39.12500 41.69700
C  -10.75200 39.92000 41.36700
C  -11.20400 41.24300 41.28900
C  -12.54400 41.25900 41.51200
C  -12.88100 39.87900 41.86100
C  -10.24500 42.34700 41.04700
C  -13.55100 42.46900 41.27400
O  -13.09300 43.52700 40.94300
C  -15.08400 42.44000 41.28500
N  -13.85500 37.05900 42.54700
C  -14.48500 38.19900 42.82900
C  -15.88400 37.88000 43.44000
C  -15.81800 36.35800 43.67600
C  -14.45000 36.01400 43.19500
C  -16.13600 38.64700 44.78800
C  -16.91200 35.52000 42.91600
C  -17.73000 34.51000 43.86500
N  -11.72800 35.05400 42.43900
C  -12.64700 34.28600 43.09000
C  -12.04300 32.93300 43.21000
C  -10.89000 32.94800 42.44600
C  -10.70900 34.27800 41.98600
C  -12.60400 31.65300 43.94200
C  -9.75100 32.13800 41.96000
O  -9.57200 30.89500 42.08100
C  -8.82900 33.12200 41.13700
C  -7.51300 33.02000 41.86200
O  -6.92200 31.91900 42.09400
O  -7.11000 34.16500 42.44900
C  -5.94100 34.06500 43.26800
H  -8.89400 40.18600 40.49800
H  -14.72700 40.33300 42.62600
H  -14.56100 34.10600 43.97600
H  -7.05500 35.51400 40.26100
H  -7.71600 38.01900 38.98300
H  -6.04600 37.33500 41.42900
H  -6.78100 38.87100 41.55700
H  -5.76400 38.51100 40.18200
H  -8.20100 36.34600 37.80800
H  -9.14300 34.88700 38.48600
H  -7.90600 33.67300 37.39000
H  -6.82000 33.79100 38.73400
H  -9.19600 42.14000 41.25900
H  -10.50000 43.05400 41.83600
H  -10.34000 42.84300 40.08100
H  -15.41800 41.53200 40.78400
H  -15.46400 43.40400 40.94500
H  -15.51000 42.39900 42.28700
H  -16.63800 38.18000 42.71300
H  -15.77600 36.06000 44.72300
H  -15.38100 39.40200 45.01000
H  -16.15200 37.94300 45.62100
H  -17.06600 39.17900 44.59000
H  -16.61600 35.18300 41.92200
H  -17.66900 36.28700 42.75200
H  -18.43600 35.20300 44.32400
H  -17.14600 34.07400 44.67500
H  -18.26900 33.79200 43.24600
H  -11.78500 31.24400 44.53400
H  -12.91400 30.86600 43.25400
H  -13.29500 31.95100 44.73100
H  -8.65600 32.78600 40.11500
H  -5.13700 33.65400 42.65700
H  -6.11700 33.28200 44.00500
H  -5.70400 34.97500 43.82000

