158

Mg 25.30800 1.30200 29.92600
C  27.29600 0.90500 32.87500
C  22.62400 1.54400 31.79900
C  23.54900 1.46100 27.01200
C  28.15200 0.68900 28.05400
N  25.04300 1.16000 32.04300
C  25.94600 1.09800 33.09600
C  25.29800 1.34000 34.49900
C  23.75100 1.40500 34.07100
C  23.79500 1.31500 32.51700
C  22.85700 0.33900 34.70500
C  25.88200 2.60500 35.22300
C  26.31200 2.41700 36.73600
H  25.61700 3.25700 37.82300
N  23.29800 1.41700 29.48000
C  22.35100 1.59200 30.42600
C  21.07700 1.90600 29.73900
C  21.36200 1.71300 28.34800
C  22.80300 1.58100 28.26200
C  19.78200 2.30300 30.52400
C  20.36500 1.61800 27.18900
O  20.78800 1.50500 26.01400
C  18.88400 1.72100 27.44100
N  25.77200 1.01100 27.81400
C  24.90900 1.23100 26.85900
C  25.59500 1.28900 25.43800
C  27.03100 1.33000 25.78600
C  27.03000 0.93300 27.27500
C  25.12400 0.21400 24.35400
C  27.74600 2.60600 25.30700
C  27.58300 3.89500 26.17200
N  27.29900 0.77000 30.31500
C  28.29800 0.54700 29.42800
C  29.52300 0.23000 30.18100
C  29.19800 0.36500 31.53200
C  27.82300 0.67400 31.57200
C  30.84000 -0.25800 29.62100
C  29.63200 0.32500 32.92300
O  30.76100 0.08900 33.33800
C  28.44100 0.75600 33.85100
C  28.09600 -0.30500 34.82400
O  27.31700 -1.16900 34.67700
O  28.88900 -0.11700 35.92800
C  28.62800 -1.05200 36.99500
H  21.72400 1.58300 32.41700
H  23.13300 1.57300 26.00800
H  29.09400 0.62800 27.50400
H  25.52900 0.48600 35.13500
H  23.28300 2.35100 34.34100
H  23.51100 -0.52200 34.84500
H  22.05900 0.02600 34.03200
H  22.52000 0.66300 35.69000
H  25.07300 3.33300 35.27300
H  26.73800 3.12400 34.79100
H  27.36200 2.70300 36.80000
H  26.22300 1.37600 37.04800
H  19.38300 3.21800 30.08700
H  19.96700 2.46000 31.58700
H  19.09900 1.47100 30.35700
H  18.54200 1.37400 28.41600
H  18.44200 1.12100 26.64600
H  18.58700 2.76000 27.29800
H  25.43100 2.19800 24.86000
H  27.47800 0.43900 25.34400
H  24.46700 -0.46500 24.89800
H  25.91300 -0.37100 23.88200
H  24.48500 0.72600 23.63400
H  27.47000 2.80100 24.27100
H  28.78400 2.27300 25.34500
H  28.53600 4.19100 26.61200
H  26.99700 3.68000 27.06600
H  27.18500 4.70500 25.56200
H  31.52700 -0.19000 30.46400
H  30.98400 0.37500 28.74500
H  30.80100 -1.26900 29.21500
H  28.68900 1.60200 34.49100
H  29.06100 -0.80600 37.96500
H  28.90900 -2.06200 36.69800
H  27.57200 -1.11900 37.25900
Mg 9.81200 47.83700 25.61400
C  7.49200 47.84300 28.17700
C  12.19600 49.01800 27.89100
C  12.16900 48.11300 23.04200
C  7.24300 47.63300 23.28000
N  9.90600 48.24500 27.82100
C  8.79000 48.12200 28.66600
C  9.23600 48.43200 30.12400
C  10.59100 49.17500 29.90700
C  10.95000 48.73600 28.48700
C  10.56000 50.72500 30.07900
C  9.44400 47.15800 31.09000
C  9.85200 47.57100 32.51500
H  9.19100 46.80600 33.72900
N  11.86700 48.37000 25.46500
C  12.65600 48.88300 26.52600
C  14.06600 48.96300 26.04800
C  14.11200 48.51000 24.69900
C  12.67400 48.33600 24.29500
C  15.17100 49.40000 26.97700
C  15.29900 48.23700 23.77800
O  15.19000 47.82000 22.63700
C  16.70600 48.40800 24.40500
N  9.72700 47.96700 23.43500
C  10.81400 47.85900 22.64400
C  10.33600 47.59000 21.24500
C  8.87700 47.42500 21.35900
C  8.53200 47.69000 22.79300
C  10.72800 48.72200 20.23900
C  8.31800 46.03600 20.85600
C  8.31300 44.81900 21.79800
N  7.80400 47.61500 25.70800
C  6.84600 47.59900 24.65700
C  5.53100 47.44400 25.19600
C  5.72000 47.52200 26.59600
C  7.09800 47.67900 26.83000
C  4.26000 47.35000 24.44500
C  4.99000 47.63200 27.85700
O  3.81800 47.66700 28.12900
C  6.18400 47.73800 28.91000
C  6.23700 46.50200 29.68100
O  6.90500 45.51800 29.33700
O  5.42000 46.58600 30.75100
C  5.12300 45.34200 31.50400
H  12.87100 49.38300 28.66800
H  12.88200 48.14400 22.21600
H  6.49200 47.53700 22.49300
H  8.49200 49.14900 30.47100
H  11.31900 48.73400 30.58800
H  10.61400 51.23200 29.11600
H  11.46300 51.00400 30.62200
H  9.70700 51.06600 30.66700
H  10.21300 46.56500 30.59400
H  8.45000 46.74400 31.26000
H  9.70800 48.65000 32.58200
H  10.91700 47.33700 32.52700
H  14.91900 49.63300 28.01100
H  15.48100 50.27500 26.40600
H  15.96600 48.65500 27.00800
H  17.45300 47.97200 23.74100
H  16.80700 47.76900 25.28300
H  16.85900 49.46000 24.64300
H  10.77300 46.64200 20.93300
H  8.38100 48.12600 20.68900
H  10.39500 49.65200 20.70000
H  10.24100 48.61500 19.27000
H  11.80000 48.65800 20.05000
H  8.89900 45.69400 19.99900
H  7.29600 46.15700 20.49700
H  8.50600 45.07300 22.84000
H  9.12000 44.11100 21.61100
H  7.40000 44.22400 21.78300
H  3.41900 47.53700 25.11200
H  4.10600 46.42700 23.88600
H  4.42100 48.13300 23.70400
H  6.03700 48.55100 29.62000
H  4.05400 45.17600 31.36700
H  5.44300 45.55200 32.52500
H  5.66800 44.46600 31.15300

