158

Mg 0.86900 7.96300 26.13700
C  1.56400 9.84300 29.06900
C  0.86300 5.17800 27.96600
C  0.42000 6.34500 23.31000
C  1.02400 11.02000 24.38000
N  1.20500 7.62500 28.33100
C  1.36700 8.47300 29.35500
C  1.31700 7.80100 30.76700
C  1.21700 6.29000 30.34800
C  1.10900 6.38200 28.76400
C  2.29700 5.41800 30.94700
C  0.25900 8.44000 31.84600
C  0.79100 8.44500 33.28300
H  1.73600 7.38600 33.75000
N  0.56200 6.04400 25.70800
C  0.68600 4.95800 26.55800
C  0.42900 3.71200 25.93300
C  0.26500 4.08200 24.53600
C  0.43800 5.54300 24.49600
C  0.66000 2.37400 26.65200
C  -0.10800 3.16100 23.40500
O  -0.22700 3.59500 22.28600
C  -0.51000 1.76400 23.58200
N  0.85800 8.60600 24.12900
C  0.75500 7.67500 23.16800
C  1.17500 8.35500 21.81300
C  0.93200 9.87800 22.12000
C  0.90800 9.87300 23.62300
C  2.73600 8.16500 21.56900
C  -0.39900 10.35800 21.50100
C  -1.78800 9.77400 22.08500
N  1.19700 10.03700 26.58100
C  1.26500 11.14100 25.75300
C  1.66000 12.25800 26.44400
C  1.71800 11.87300 27.79100
C  1.51700 10.47800 27.82000
C  2.10000 13.61800 25.91700
C  1.91300 12.31700 29.13100
O  2.30300 13.46800 29.43100
C  1.66300 11.08300 30.04800
C  2.73800 10.94600 31.00200
O  3.76600 10.28600 30.82500
O  2.49000 11.77400 32.04800
C  3.46800 11.99700 33.04800
H  0.85300 4.25300 28.54700
H  0.27200 5.78600 22.38400
H  0.97100 11.99100 23.88400
H  2.36100 7.81500 31.07900
H  0.23300 5.93300 30.65200
H  1.85200 4.42800 31.04900
H  2.64600 5.71200 31.93700
H  3.16100 5.41700 30.28200
H  -0.59000 7.75600 31.87400
H  -0.03500 9.41100 31.44800
H  -0.01100 8.18300 33.97200
H  1.05400 9.47700 33.51500
H  0.80500 1.64800 25.85200
H  -0.16100 2.01200 27.27000
H  1.49600 2.42400 27.35000
H  -1.22900 1.77000 24.40100
H  0.36500 1.13200 23.73600
H  -1.04700 1.37900 22.71500
H  0.59700 8.03100 20.94700
H  1.74400 10.57000 21.89700
H  3.16400 7.32100 22.11000
H  3.37900 9.02800 21.74000
H  2.79400 7.95200 20.50200
H  -0.47700 10.25200 20.41900
H  -0.42000 11.42800 21.70400
H  -2.63000 9.60600 21.41300
H  -2.14400 10.47200 22.84300
H  -1.61200 8.90500 22.71900
H  1.24000 14.28400 25.98500
H  2.34400 13.64400 24.85500
H  2.87400 14.02200 26.57000
H  0.71200 11.29800 30.53500
H  4.39500 12.45900 32.70700
H  3.74700 11.01500 33.43100
H  3.05200 12.52600 33.90500
Mg 8.77900 3.78100 28.00600
C  10.04200 2.02000 30.80600
C  6.76700 5.55500 30.06500
C  7.25700 5.01600 25.33300
C  10.33200 1.39300 26.02600
N  8.44900 3.76000 30.16100
C  9.23900 3.10300 31.08700
C  8.97000 3.70500 32.51800
C  7.72700 4.65500 32.30500
C  7.65900 4.67700 30.74800
C  6.34900 4.14800 32.83700
C  10.24400 4.45700 33.02600
C  10.81800 4.08800 34.44400
H  10.74000 5.18100 35.54100
N  7.35600 5.22000 27.75000
C  6.65400 5.85400 28.74700
C  5.89000 6.88800 28.15800
C  6.12100 6.86900 26.76600
C  6.91900 5.65200 26.52300
C  5.05700 7.92100 28.99900
C  5.60700 7.87200 25.73400
O  5.74600 7.63200 24.53000
C  4.91300 9.08400 26.05800
N  8.69000 3.18600 25.93000
C  7.99900 3.83700 24.96400
C  8.21400 3.29200 23.54400
C  9.30200 2.19000 23.83900
C  9.47700 2.28900 25.36500
C  6.89600 2.67800 22.84100
C  10.67300 2.46000 23.17200
C  11.25000 1.34000 22.34200
N  9.95400 2.07800 28.24400
C  10.56900 1.25400 27.34800
C  11.49300 0.30700 28.07700
C  11.21100 0.55900 29.42100
C  10.37000 1.64300 29.44400
C  12.46500 -0.56100 27.35800
C  11.66000 0.16700 30.76500
O  12.53200 -0.64800 31.03000
C  10.90000 1.11800 31.75500
C  10.06600 0.33200 32.69400
O  8.93500 -0.04800 32.54000
O  10.72100 0.25700 33.88200
C  10.14500 -0.20800 35.16000
H  6.14100 6.18500 30.70100
H  6.68900 5.43200 24.49800
H  10.84700 0.72800 25.33000
H  8.65400 2.90600 33.19000
H  7.83500 5.66000 32.71300
H  5.69300 4.97300 33.11500
H  6.55200 3.52400 33.70700
H  5.84700 3.46700 32.14900
H  10.07900 5.53000 32.93200
H  11.08700 4.21700 32.37800
H  11.86200 3.78500 34.36700
H  10.37300 3.16000 34.80300
H  4.72700 7.52800 29.96000
H  4.15300 8.25000 28.48700
H  5.60400 8.86300 28.98600
H  5.40100 9.62500 26.86900
H  3.89800 8.90500 26.41300
H  4.82000 9.70500 25.16700
H  8.67000 4.03000 22.88400
H  8.89700 1.22300 23.54200
H  6.02400 2.90800 23.45300
H  6.93000 1.59700 22.69900
H  6.71400 3.22900 21.91900
H  11.46500 2.65300 23.89500
H  10.54700 3.29000 22.47600
H  11.95700 0.79900 22.97100
H  11.82200 1.67400 21.47800
H  10.45100 0.66400 22.03600
H  12.65600 -0.30900 26.31500
H  12.11600 -1.59200 27.30200
H  13.38300 -0.50600 27.94400
H  11.49000 1.74700 32.42200
H  9.26400 -0.80900 34.93300
H  9.91200 0.70600 35.70700
H  10.87400 -0.71900 35.78900

