158

Mg 1.22100 -1.33900 45.20400
C  4.38000 -0.28800 44.19900
C  -0.10800 1.49100 43.49500
C  -1.83700 -2.61800 45.42200
C  2.70100 -4.42700 46.26700
N  1.93900 0.41400 44.09300
C  3.34900 0.61800 43.86800
C  3.61400 2.02000 43.09800
C  2.17200 2.73500 43.15000
C  1.26100 1.50800 43.56500
C  2.10700 3.95000 43.98300
C  4.16300 1.71600 41.58600
C  5.44100 2.46500 41.06800
H  6.80400 1.77700 40.64200
N  -0.74600 -0.67300 44.57600
C  -1.07300 0.50900 43.91200
C  -2.44900 0.62100 43.93800
C  -3.03500 -0.58900 44.36900
C  -1.85100 -1.33000 44.88900
C  -2.95900 1.88700 43.25900
C  -4.49000 -0.90700 44.42600
O  -5.32100 -0.04300 44.07400
C  -5.02700 -2.29400 44.68600
N  0.53300 -3.27100 45.57300
C  -0.81700 -3.49200 45.75400
C  -1.07500 -4.90000 46.41400
C  0.35900 -5.26400 46.83600
C  1.29300 -4.27700 46.12600
C  -2.21000 -5.20000 47.46200
C  0.78300 -6.81300 46.58900
C  0.84000 -7.77300 47.81800
N  3.19400 -2.18800 45.30200
C  3.63100 -3.45200 45.77300
C  5.03200 -3.45900 45.75600
C  5.40800 -2.26400 45.12000
C  4.22100 -1.55500 44.82500
C  5.94200 -4.44000 46.39100
C  6.49100 -1.42600 44.71400
O  7.69000 -1.52700 44.74200
C  5.91900 -0.10100 44.13000
C  6.29400 1.09800 44.96700
O  6.21500 1.18900 46.19300
O  6.76400 2.07700 44.15900
C  7.40700 3.27500 44.77000
H  -0.47700 2.41000 43.03400
H  -2.83800 -3.05200 45.47400
H  3.12400 -5.31700 46.73800
H  4.22400 2.71900 43.66900
H  1.81400 3.03500 42.16500
H  3.04500 4.48400 44.13300
H  1.77600 3.71400 44.99500
H  1.31400 4.57000 43.56600
H  3.35700 1.99100 40.90700
H  4.33400 0.64200 41.51600
H  5.70500 3.26700 41.75700
H  5.15100 2.90000 40.11100
H  -4.02700 1.96800 43.46100
H  -3.04600 1.82900 42.17400
H  -2.40500 2.77100 43.57500
H  -4.33200 -3.02200 44.26800
H  -5.93400 -2.41800 44.09400
H  -5.25700 -2.48600 45.73500
H  -1.27100 -5.47200 45.50700
H  0.51300 -5.15300 47.91000
H  -3.12200 -5.66000 47.08200
H  -2.52600 -4.24000 47.86900
H  -1.84500 -5.87100 48.24000
H  1.74000 -6.98400 46.09600
H  0.02800 -7.18300 45.89500
H  1.33200 -8.72600 47.62300
H  -0.15800 -8.12300 48.08000
H  1.30300 -7.30500 48.68700
H  5.53000 -5.41300 46.12300
H  5.90900 -4.34200 47.47600
H  6.93700 -4.37200 45.95000
H  6.35400 -0.13200 43.13100
H  6.87200 4.22500 44.74700
H  8.33000 3.46700 44.22400
H  7.66300 3.18200 45.82600
Mg -11.00900 38.05500 41.99600
C  -9.29500 35.03400 41.49600
C  -8.54000 39.69500 40.27800
C  -12.99900 40.71400 41.90200
C  -13.72900 36.13100 43.25800
N  -9.25100 37.45400 40.99400
C  -8.67800 36.17800 40.92700
C  -7.46200 36.15900 40.00200
C  -7.10700 37.64500 39.84200
C  -8.36700 38.34500 40.40000
C  -5.74100 38.14400 40.44700
C  -7.87400 35.36400 38.70100
C  -7.19200 34.08000 38.34500
H  -6.53900 34.07500 36.99000
N  -10.77300 39.92500 41.25900
C  -9.65500 40.48000 40.69200
C  -9.91900 41.85000 40.29300
C  -11.20800 42.17600 40.71500
C  -11.70200 40.90000 41.31500
C  -8.97000 42.74400 39.53100
C  -11.83600 43.54700 40.53500
O  -11.25900 44.45800 39.93200
C  -13.16700 43.91600 41.08800
N  -13.08200 38.33900 42.58300
C  -13.64200 39.54000 42.37200
C  -15.09300 39.55500 42.76300
C  -15.34400 38.12500 43.25900
C  -13.95100 37.51700 43.03600
C  -15.51100 40.78500 43.60100
C  -16.49800 37.33600 42.66200
C  -17.29300 36.39300 43.57700
N  -11.36800 36.01600 42.50900
C  -12.47000 35.43100 43.17200
C  -12.11400 34.06200 43.47300
C  -10.87600 33.86500 42.80100
C  -10.45900 35.09000 42.30900
C  -12.97600 33.08100 44.32900
C  -9.89200 32.89100 42.53100
O  -9.94900 31.69600 42.78600
C  -8.78400 33.58600 41.59600
C  -7.44000 33.51000 42.17000
O  -6.52700 32.76700 41.74500
O  -7.33700 34.27800 43.31600
C  -6.05200 34.04900 43.98600
H  -7.74000 40.30200 39.85000
H  -13.65800 41.58500 41.90700
H  -14.59800 35.60200 43.65400
H  -6.64000 35.61000 40.46000
H  -7.14700 37.83400 38.76900
H  -5.17400 37.26300 40.74900
H  -5.87400 38.89100 41.22900
H  -5.13700 38.66700 39.70600
H  -7.88200 36.05600 37.85800
H  -8.89600 35.02800 38.87500
H  -7.82500 33.19600 38.26900
H  -6.37700 33.88900 39.04400
H  -9.19400 43.01900 38.50000
H  -8.02900 42.19400 39.54900
H  -8.65500 43.64800 40.05200
H  -13.83000 43.27700 40.50500
H  -13.23600 45.00100 41.01200
H  -13.32100 43.62400 42.12700
H  -15.64600 39.63100 41.82700
H  -15.46500 38.30200 44.32700
H  -14.65700 41.40000 43.88600
H  -16.16400 40.52500 44.43400
H  -16.03500 41.42100 42.88700
H  -16.08700 36.72900 41.85600
H  -17.24100 38.01400 42.24100
H  -18.33800 36.69600 43.65300
H  -16.85700 36.41600 44.57500
H  -17.20900 35.38300 43.17500
H  -12.29100 32.59000 45.02000
H  -13.34000 32.25700 43.71400
H  -13.76300 33.58600 44.88900
H  -8.78800 33.07000 40.63600
H  -5.87600 34.71300 44.83300
H  -5.17200 34.05700 43.34300
H  -6.10200 33.06000 44.44100

