158

Mg -1.23200 17.26600 26.73000
C  -1.64400 15.09100 29.38600
C  -1.73800 19.93100 28.93600
C  -1.17100 19.36400 24.15700
C  -1.43000 14.65400 24.53900
N  -1.65700 17.44000 28.89300
C  -1.75500 16.41500 29.83200
C  -1.90200 16.96300 31.29400
C  -2.18900 18.48200 31.01900
C  -1.88000 18.67900 29.53100
C  -3.60200 19.02000 31.46500
C  -0.70900 16.68700 32.28600
C  -0.68300 17.60000 33.54900
H  -0.58400 16.95200 34.94000
N  -1.29500 19.31300 26.58400
C  -1.37300 20.25800 27.62400
C  -1.23100 21.52700 27.07600
C  -1.07100 21.43000 25.65100
C  -1.08000 19.97600 25.41600
C  -1.36200 22.80200 27.94200
C  -1.01000 22.58500 24.66800
O  -0.97500 22.41700 23.46700
C  -0.78200 24.02200 25.07600
N  -1.25700 17.11300 24.67700
C  -1.30500 18.10900 23.79700
C  -1.52500 17.64100 22.35500
C  -1.24100 16.07100 22.48300
C  -1.29100 15.91700 24.00300
C  -2.87500 17.96700 21.83600
C  0.15600 15.61900 22.01400
C  0.41900 15.81300 20.52300
N  -1.34100 15.28700 26.81900
C  -1.38100 14.36500 25.94400
C  -1.36700 13.04100 26.51800
C  -1.47200 13.24900 27.84800
C  -1.55000 14.67900 28.01500
C  -1.35900 11.84000 25.65400
C  -1.63600 12.61000 29.12200
O  -1.74800 11.40600 29.37800
C  -1.82500 13.79900 30.17100
C  -0.93200 13.43300 31.24500
O  0.25700 13.64500 31.34100
O  -1.69700 12.85300 32.28900
C  -0.80600 12.41500 33.43200
H  -1.98900 20.77700 29.58000
H  -1.13700 20.08500 23.33700
H  -1.41600 13.78400 23.87900
H  -2.83800 16.70600 31.79000
H  -1.55600 19.19800 31.54500
H  -3.94600 19.67900 30.66800
H  -3.43800 19.59800 32.37400
H  -4.38500 18.33100 31.78000
H  0.18300 16.85500 31.68200
H  -0.73100 15.68700 32.71700
H  -1.58200 18.20500 33.66600
H  0.18400 18.25800 33.48900
H  -2.28100 23.28400 27.60700
H  -0.47300 23.41000 27.77600
H  -1.35600 22.62900 29.01900
H  0.03500 24.15100 25.78500
H  -1.74700 24.33600 25.47300
H  -0.40300 24.47500 24.16000
H  -0.69700 18.11700 21.83100
H  -1.92100 15.37000 21.99900
H  -3.10200 18.95600 22.23400
H  -3.56500 17.14700 22.03600
H  -2.81200 18.11200 20.75700
H  0.31700 14.57200 22.27300
H  0.80100 16.31100 22.55500
H  0.62500 14.87900 19.99900
H  1.28000 16.44900 20.31800
H  -0.41900 16.26900 19.99500
H  -2.30900 11.78600 25.12100
H  -1.28900 11.03800 26.38800
H  -0.58800 11.65200 24.90600
H  -2.86100 13.60500 30.45000
H  -0.42700 13.21700 34.06600
H  0.04300 11.77300 33.20000
H  -1.47600 11.94700 34.15200
Mg 8.65800 48.46200 24.72700
C  6.66100 48.70600 27.38900
C  11.28600 49.83200 26.47600
C  10.51400 48.35800 21.94900
C  5.82000 47.90200 22.68900
N  8.97800 49.05700 26.69000
C  7.97400 49.08800 27.65300
C  8.53300 49.59900 28.94500
C  9.77800 50.28900 28.46000
C  10.06600 49.62700 27.12400
C  9.54600 51.81900 28.28000
C  8.94300 48.42100 29.87400
C  9.00900 48.65900 31.32200
H  8.40900 47.60500 32.23800
N  10.69200 48.77300 24.34100
C  11.60800 49.31400 25.22600
C  12.91900 49.25700 24.68400
C  12.77800 48.82900 23.26700
C  11.30200 48.57700 23.13400
C  14.16700 49.66400 25.52600
C  13.82000 48.61400 22.13700
O  13.46600 48.33900 20.95000
C  15.33200 48.78800 22.44800
N  8.14600 48.29000 22.54700
C  9.12200 48.34700 21.65700
C  8.60400 48.07700 20.23800
C  7.14100 47.62600 20.59900
C  7.00200 48.00200 21.97600
C  8.70200 49.27900 19.25600
C  6.81100 46.11800 20.29600
C  5.44000 45.97600 19.68100
N  6.60600 48.24700 24.94300
C  5.63100 48.02100 24.06300
C  4.34400 47.99200 24.76100
C  4.71700 48.19800 26.12400
C  6.08500 48.33600 26.15700
C  3.02400 47.89300 24.14200
C  4.28200 48.22100 27.44600
O  3.21200 47.87200 27.96700
C  5.45300 48.80500 28.33900
C  5.45000 48.07200 29.69900
O  5.54000 46.85100 29.85500
O  5.19500 49.03000 30.61300
C  4.91500 48.51400 32.00700
H  12.11500 50.30500 27.00600
H  11.02200 48.44500 20.98600
H  4.95800 47.78700 22.02700
H  7.85600 50.30200 29.42900
H  10.65900 50.19300 29.09500
H  8.53200 52.10100 27.99600
H  10.24600 52.10100 27.49300
H  9.67600 52.18400 29.29900
H  9.91600 47.99400 29.63400
H  8.25300 47.61000 29.64100
H  8.56200 49.61800 31.58300
H  10.04900 48.76200 31.63200
H  13.89300 49.77400 26.57500
H  14.50400 50.66900 25.27000
H  14.97700 48.93400 25.50000
H  15.89000 48.27100 21.66700
H  15.50500 48.36800 23.43900
H  15.48900 49.86500 22.50200
H  9.19300 47.25600 19.82900
H  6.37000 48.04100 19.95000
H  9.14600 50.11000 19.80400
H  7.67400 49.41900 18.92200
H  9.27800 49.00600 18.37200
H  6.86000 45.52300 21.20800
H  7.58600 45.73300 19.63300
H  5.27700 44.90000 19.61600
H  5.41100 46.43100 18.69100
H  4.61600 46.32300 20.30500
H  2.28800 47.61900 24.89700
H  3.12400 47.04700 23.46300
H  2.70700 48.79800 23.62400
H  5.33700 49.87400 28.51200
H  4.87100 49.32700 32.73100
H  5.67800 47.82100 32.36300
H  3.99400 47.93300 31.95100

