158

Mg 25.12200 -0.04000 29.10300
C  27.02500 -0.37800 32.04500
C  22.33900 0.43300 31.04500
C  23.38500 -0.10000 26.28700
C  27.95200 -1.12400 27.28600
N  24.72800 0.03500 31.32900
C  25.71600 0.02700 32.29800
C  25.14500 0.44700 33.69700
C  23.66700 0.61200 33.34000
C  23.52700 0.29600 31.82200
C  22.71900 -0.15400 34.24200
C  25.94900 1.58400 34.36700
C  25.21900 2.61000 35.27900
H  25.66900 2.69200 36.75900
N  23.17100 0.11900 28.71800
C  22.17500 0.27400 29.62100
C  20.96600 0.52600 28.88900
C  21.18900 0.38100 27.52500
C  22.62500 0.14700 27.45000
C  19.68600 0.94100 29.58900
C  20.28600 0.53600 26.32700
O  20.64900 0.61200 25.12300
C  18.76600 0.69700 26.66200
N  25.61700 -0.79500 27.15400
C  24.68700 -0.55800 26.15800
C  25.29900 -0.78100 24.77500
C  26.88700 -0.94700 25.02900
C  26.84300 -0.94900 26.56400
C  24.77500 -2.00400 23.99700
C  27.76300 0.15600 24.52500
C  27.54400 1.68200 24.87400
N  27.12800 -0.49200 29.49900
C  28.11700 -0.90200 28.66800
C  29.31200 -0.88600 29.40800
C  28.96900 -0.70700 30.68000
C  27.56500 -0.51100 30.75800
C  30.73800 -1.22700 28.85000
C  29.47400 -0.59300 32.02100
O  30.64700 -0.62600 32.42100
C  28.25400 -0.44200 32.97300
C  28.21100 -1.48100 33.99200
O  27.84900 -2.68800 33.90700
O  28.56800 -0.89200 35.11100
C  28.66400 -1.77000 36.27400
H  21.45600 0.66800 31.64300
H  22.90300 0.02900 25.31600
H  28.88800 -1.29600 26.75200
H  25.26500 -0.44600 34.31100
H  23.40500 1.66900 33.31500
H  23.07500 -0.17300 35.27200
H  22.54500 -1.15900 33.85800
H  21.73500 0.30000 34.12800
H  26.33500 2.13000 33.50600
H  26.76300 1.14000 34.94000
H  24.14200 2.44500 35.23900
H  25.37600 3.61900 34.89800
H  19.86900 1.56600 30.46300
H  19.21400 0.02600 29.94500
H  19.04000 1.54500 28.95200
H  18.53400 1.73200 26.90800
H  18.41600 0.00800 27.43100
H  18.18500 0.45800 25.77100
H  25.17400 0.13100 24.19200
H  27.18600 -1.93500 24.68100
H  23.93000 -2.36500 24.58400
H  25.40400 -2.89400 24.00300
H  24.41300 -1.69700 23.01600
H  27.64800 0.25700 23.44500
H  28.79100 -0.15400 24.71300
H  27.04000 1.66200 25.84000
H  26.90200 2.12600 24.11400
H  28.52000 2.16700 24.86600
H  31.02100 -0.49700 28.09200
H  30.73300 -2.07900 28.17000
H  31.51100 -1.17900 29.61700
H  28.40500 0.56700 33.35900
H  27.75300 -1.61400 36.85100
H  29.45000 -1.30500 36.87000
H  28.90000 -2.82600 36.14100
Mg 9.72000 47.45200 27.23500
C  7.59100 46.73800 29.96000
C  12.32800 47.66200 29.47700
C  11.67000 48.19800 24.67500
C  6.87300 47.43900 25.21200
N  9.93000 47.03100 29.48500
C  8.93300 46.85700 30.35800
C  9.52100 46.92300 31.78700
C  11.00300 47.41000 31.63100
C  11.12700 47.32700 30.10400
C  11.26700 48.83400 32.24500
C  9.12200 45.80300 32.86000
C  10.18000 45.52200 34.02900
H  9.81300 44.89600 35.31900
N  11.73800 47.74400 27.06900
C  12.65800 47.75100 28.10200
C  14.01400 47.96300 27.57300
C  13.77800 48.20600 26.17500
C  12.39500 48.00400 25.93100
C  15.27800 48.05800 28.43600
C  14.77800 48.56500 25.14600
O  14.52500 48.75700 23.93200
C  16.30800 48.49900 25.40900
N  9.36700 47.89900 25.23800
C  10.31000 48.18900 24.33000
C  9.80200 48.25300 22.87300
C  8.29500 47.97100 23.08700
C  8.16500 47.80500 24.62300
C  10.09300 49.68400 22.30400
C  7.96000 46.62700 22.43900
C  7.28500 46.60500 21.05500
N  7.61200 47.29600 27.46500
C  6.60900 47.21300 26.56200
C  5.28900 47.06900 27.21400
C  5.58400 46.82400 28.58000
C  7.03800 47.03100 28.65700
C  3.89100 47.14200 26.62800
C  5.07400 46.64200 29.96000
O  3.93600 46.66900 30.43400
C  6.35400 46.55200 30.84800
C  6.35100 45.22700 31.44500
O  6.86100 44.20800 30.93200
O  5.59300 45.26600 32.63300
C  5.62600 43.97300 33.32100
H  13.20800 47.84100 30.09800
H  12.17500 48.42800 23.73500
H  6.01000 47.43300 24.54300
H  8.88100 47.74000 32.11900
H  11.75200 46.68200 31.94500
H  10.48200 49.06900 32.96400
H  11.16800 49.50200 31.38900
H  12.27900 48.97400 32.62800
H  8.89500 44.84100 32.40100
H  8.25900 46.11000 33.45000
H  10.64100 46.44400 34.38300
H  11.03200 44.91300 33.72700
H  15.88200 47.33600 27.88700
H  15.05400 47.78400 29.46700
H  15.79900 49.01500 28.41100
H  16.86400 48.73200 24.50100
H  16.52900 47.52900 25.85500
H  16.41600 49.34700 26.08600
H  10.33100 47.48100 22.31500
H  7.63000 48.72400 22.66600
H  9.44500 50.37900 22.83700
H  9.98400 49.74500 21.22100
H  11.13400 49.93600 22.50600
H  7.18400 46.12600 23.01800
H  8.81000 45.94600 22.42700
H  7.78000 45.87100 20.41800
H  7.18000 47.60200 20.62700
H  6.24400 46.30700 21.17500
H  3.81500 46.70900 25.63100
H  3.69200 48.20800 26.51800
H  3.05300 46.72100 27.18400
H  6.32200 47.34100 31.60000
H  4.83000 43.32800 32.95100
H  5.50300 44.16600 34.38700
H  6.55400 43.40700 33.24100

