158

Mg -1.24400 17.61300 26.87300
C  -1.92400 15.35000 29.54200
C  -2.38100 20.08800 29.01300
C  -1.10400 19.74700 24.31000
C  -0.90100 14.97000 24.85600
N  -1.88200 17.70900 29.06400
C  -1.95400 16.68600 30.00800
C  -2.43700 17.22700 31.42000
C  -2.78900 18.75900 31.07000
C  -2.30400 18.84800 29.62800
C  -4.26600 19.08800 31.26500
C  -1.37900 17.01900 32.57000
C  -1.82300 16.32400 33.85100
H  -0.79100 16.15500 34.93700
N  -1.57400 19.64800 26.73900
C  -1.98100 20.50600 27.69100
C  -1.92900 21.81400 27.16800
C  -1.54700 21.70200 25.78200
C  -1.36400 20.29700 25.56500
C  -2.29300 23.13800 27.96700
C  -1.27900 22.83900 24.77300
O  -0.99000 22.69800 23.57900
C  -1.43000 24.29200 25.23200
N  -0.93200 17.47800 24.83400
C  -0.80600 18.40500 23.92100
C  -0.61400 17.91200 22.48400
C  -0.33700 16.37700 22.80600
C  -0.69900 16.26600 24.30900
C  -1.71700 18.29200 21.47100
C  1.13600 15.87000 22.56200
C  1.30400 14.39500 22.45300
N  -1.28700 15.58000 27.14600
C  -1.20300 14.61300 26.17800
C  -1.53400 13.29400 26.68500
C  -1.69400 13.51600 28.09700
C  -1.61500 14.91500 28.29400
C  -1.69400 12.09300 25.96700
C  -2.04300 12.97200 29.36800
O  -2.21500 11.83300 29.69200
C  -2.04000 14.11800 30.37900
C  -0.84500 13.91700 31.27300
O  0.30000 14.24200 30.92400
O  -1.24600 13.48700 32.51700
C  -0.14600 13.26200 33.52100
H  -2.83000 20.92100 29.55800
H  -0.99100 20.42100 23.45800
H  -0.79500 14.19000 24.09900
H  -3.29700 16.57800 31.58200
H  -2.27000 19.41600 31.76800
H  -4.82000 18.24700 31.68200
H  -4.77000 19.34100 30.33200
H  -4.42500 19.92800 31.94100
H  -1.01700 18.01100 32.83800
H  -0.52700 16.39700 32.29400
H  -2.31600 15.36800 33.67400
H  -2.56800 16.99900 34.27200
H  -2.91800 23.73900 27.30700
H  -1.39000 23.71400 28.16500
H  -2.80400 22.88600 28.89600
H  -1.19400 24.91600 24.37100
H  -0.77200 24.54200 26.06400
H  -2.48100 24.54200 25.38100
H  0.32800 18.31000 22.10700
H  -1.05200 15.83700 22.18500
H  -2.28700 19.10200 21.92600
H  -2.31800 17.40200 21.28300
H  -1.32500 18.61700 20.50700
H  1.63100 16.08400 23.51000
H  1.58300 16.50000 21.79400
H  1.95900 14.27700 21.59000
H  0.41300 13.79200 22.27900
H  1.89000 13.97300 23.26900
H  -1.76800 12.36500 24.91400
H  -2.59500 11.54700 26.24600
H  -0.78900 11.50000 26.09600
H  -2.99800 14.14200 30.89900
H  0.51200 12.43100 33.26900
H  -0.56500 12.94500 34.47600
H  0.45900 14.16800 33.57200
Mg -10.14700 39.34000 40.75200
C  -8.82200 36.31300 39.88100
C  -7.19700 40.92800 39.86000
C  -11.71000 42.35100 40.81900
C  -13.27500 37.77100 41.43100
N  -8.32500 38.74100 39.56900
C  -8.00100 37.43700 39.48200
C  -6.58400 37.34800 38.81400
C  -5.93900 38.68500 39.42000
C  -7.20500 39.53600 39.69800
C  -5.21700 38.51300 40.77000
C  -6.74800 37.38100 37.20800
C  -6.03100 36.26000 36.51700
H  -6.78000 35.70100 35.29700
N  -9.53200 41.30200 40.38400
C  -8.26100 41.75100 40.06600
C  -8.25400 43.15400 39.94600
C  -9.59800 43.58100 40.20800
C  -10.34400 42.41100 40.57100
C  -6.96800 43.88300 39.62100
C  -10.09900 44.96500 40.29000
O  -9.29100 45.82100 39.96700
C  -11.43400 45.42400 40.81500
N  -12.30800 39.97200 40.99300
C  -12.60400 41.27400 41.04800
C  -14.06700 41.50300 41.07000
C  -14.64300 40.02400 41.19700
C  -13.34700 39.17500 41.27200
C  -14.65800 42.44600 42.20400
C  -15.51700 39.54300 40.00700
C  -16.95600 39.49500 40.21200
N  -10.90400 37.37800 40.81300
C  -12.14100 36.86700 41.21900
C  -12.03600 35.42300 41.24000
C  -10.71100 35.18600 40.73200
C  -10.16300 36.35900 40.38900
C  -13.01100 34.42800 41.75500
C  -9.73700 34.11800 40.41000
O  -9.86700 32.89500 40.44200
C  -8.47400 34.84000 39.67200
C  -7.21400 34.33500 40.32700
O  -6.87500 34.50100 41.45200
O  -6.54200 33.54800 39.39000
C  -5.35400 32.80200 39.76200
H  -6.23900 41.42200 39.68600
H  -12.31200 43.25800 40.73300
H  -14.23600 37.28800 41.61800
H  -6.06900 36.43000 39.09600
H  -5.30700 39.19500 38.69300
H  -4.26300 39.04000 40.78500
H  -4.94600 37.47700 40.97400
H  -5.89300 38.87600 41.54500
H  -6.29100 38.28400 36.80500
H  -7.81500 37.35600 36.98700
H  -5.77400 35.40900 37.14800
H  -5.09200 36.68800 36.16500
H  -6.92400 44.36400 38.64400
H  -6.04700 43.33900 39.83200
H  -7.06300 44.74100 40.28600
H  -12.18100 45.53300 40.02900
H  -11.40600 46.44900 41.18600
H  -11.75700 44.85000 41.68300
H  -14.48600 42.09200 40.25300
H  -15.13400 39.97000 42.16900
H  -14.53900 43.47800 41.87300
H  -14.00300 42.31900 43.06600
H  -15.70900 42.27800 42.44100
H  -15.24300 38.53000 39.71200
H  -15.39800 40.20900 39.15200
H  -17.25800 39.79200 41.21600
H  -17.27100 38.45100 40.20500
H  -17.41900 39.92500 39.32300
H  -12.61700 33.41900 41.63400
H  -13.86900 34.50100 41.08700
H  -13.22500 34.51300 42.82000
H  -8.41000 34.66500 38.59800
H  -4.69400 32.78900 38.89500
H  -5.55200 31.80600 40.15700
H  -4.84800 33.27200 40.60500

