158

Mg 0.18600 7.93300 26.12700
C  1.16400 9.83800 29.07400
C  -0.06100 5.18200 28.14400
C  -0.41400 6.23300 23.32200
C  0.96000 10.76900 24.28200
N  0.58500 7.60900 28.38500
C  0.80900 8.50100 29.41100
C  0.56900 7.89800 30.80700
C  0.35600 6.36700 30.50500
C  0.29800 6.33900 28.89800
C  1.36900 5.40600 31.12500
C  -0.64900 8.50600 31.52700
C  -0.38700 8.72500 33.04400
H  0.75000 8.27500 33.95900
N  -0.10500 5.94700 25.78500
C  -0.31000 4.98900 26.74000
C  -0.77100 3.72700 26.09800
C  -0.71700 3.96800 24.69700
C  -0.40300 5.45400 24.52200
C  -1.24800 2.42300 26.82900
C  -1.16500 3.07100 23.49600
O  -1.09400 3.37900 22.31700
C  -1.67600 1.66100 23.78000
N  0.28800 8.39700 24.08100
C  -0.10700 7.57200 23.07200
C  -0.12500 8.27200 21.73600
C  0.16800 9.77100 22.06700
C  0.41700 9.67600 23.63900
C  0.85200 7.64400 20.79400
C  -0.79100 10.89000 21.63900
C  -1.63600 10.76200 20.34500
N  0.97300 9.79500 26.47500
C  1.24900 10.83300 25.60400
C  1.67500 11.93900 26.36800
C  1.58800 11.62900 27.69000
C  1.20000 10.30600 27.71500
C  2.30500 13.25400 25.81400
C  1.80300 12.08600 29.02800
O  2.19500 13.19500 29.35200
C  1.49800 10.96400 30.00500
C  2.65700 10.67800 30.95800
O  3.75600 10.29800 30.63400
O  2.34700 11.15000 32.19300
C  3.46500 11.23300 33.11300
H  -0.20100 4.42700 28.92000
H  -0.64600 5.63200 22.44000
H  1.10300 11.70800 23.74400
H  1.44500 8.00700 31.44600
H  -0.61000 6.01200 30.86500
H  2.03000 5.94800 31.80100
H  1.93600 4.96100 30.30700
H  0.99300 4.54600 31.68000
H  -1.42800 7.74400 31.50800
H  -1.10300 9.42500 31.15700
H  -1.30000 8.35800 33.51300
H  -0.41500 9.81100 33.13200
H  -1.40100 2.60500 27.89200
H  -0.53700 1.61500 26.65500
H  -2.24600 2.16400 26.47500
H  -0.84500 1.04000 24.11700
H  -1.94300 1.25700 22.80400
H  -2.60400 1.74700 24.34500
H  -1.14300 8.17600 21.36000
H  1.15800 10.04300 21.70100
H  1.86300 7.79500 21.17300
H  0.76800 8.00300 19.76800
H  0.69000 6.56800 20.86200
H  -0.05200 11.67500 21.48100
H  -1.41200 11.27300 22.44900
H  -1.28000 10.05300 19.59700
H  -1.63500 11.72800 19.84100
H  -2.63300 10.38000 20.56400
H  2.90000 12.94700 24.95400
H  3.02500 13.64400 26.53300
H  1.64100 14.07600 25.54700
H  0.57400 11.29800 30.47800
H  4.02000 12.03900 32.63400
H  4.14000 10.38100 33.18600
H  3.08600 11.53700 34.08900
Mg -0.96600 34.29900 27.92900
C  -2.44200 31.99000 30.12500
C  0.34300 35.85000 30.56700
C  -0.03200 36.50900 25.78200
C  -2.64600 32.49000 25.23900
N  -1.19500 34.07200 30.10100
C  -1.73500 33.01300 30.82000
C  -1.78100 33.35900 32.33300
C  -0.95300 34.71900 32.40000
C  -0.59000 34.88000 30.90300
C  -1.77200 35.95000 33.01800
C  -1.12900 32.20800 33.21600
C  -1.95300 31.77700 34.43500
H  -1.32300 31.72100 35.83100
N  0.10200 35.89000 28.18200
C  0.65900 36.33700 29.29100
C  1.46600 37.47400 29.00200
C  1.42700 37.59700 27.56200
C  0.53500 36.57600 27.08500
C  2.15100 38.21800 30.04400
C  2.20700 38.53800 26.71600
O  2.08300 38.55500 25.53800
C  3.09400 39.52600 27.31600
N  -1.68500 34.68400 25.87300
C  -1.00800 35.63600 25.28500
C  -1.20700 35.53600 23.72900
C  -1.77900 34.15300 23.51800
C  -2.06500 33.73100 24.97700
C  -2.10600 36.67600 23.25800
C  -0.91200 33.22000 22.62600
C  0.16800 32.30000 23.40800
N  -2.28200 32.52600 27.69800
C  -2.81600 31.94900 26.54500
C  -3.64600 30.81300 26.94500
C  -3.61500 30.80500 28.35600
C  -2.80100 31.89200 28.73700
C  -4.42500 29.84100 26.14600
C  -3.95300 30.09200 29.52300
O  -4.65400 29.08400 29.66100
C  -3.30300 30.89900 30.75000
C  -4.45100 31.41400 31.60800
O  -5.24900 32.19800 31.19800
O  -4.54300 30.69600 32.74800
C  -5.52100 31.10000 33.77000
H  0.94000 36.17800 31.42100
H  0.34900 37.25600 25.08300
H  -2.87100 31.85400 24.38000
H  -2.78200 33.58400 32.70300
H  -0.10900 34.70800 33.09000
H  -1.14100 36.51800 33.70200
H  -2.67000 35.60600 33.53300
H  -2.16200 36.72200 32.35400
H  -0.15400 32.50300 33.60600
H  -0.98200 31.26700 32.68600
H  -2.36500 30.77800 34.29600
H  -2.78600 32.47300 34.52600
H  3.21100 38.11000 29.81600
H  1.98000 37.81000 31.04000
H  2.00100 39.29700 29.98700
H  2.70100 40.19100 28.08500
H  3.41000 40.10000 26.44500
H  3.97300 39.04400 27.74300
H  -0.23100 35.64200 23.25600
H  -2.76700 34.20900 23.06100
H  -3.14100 36.37600 23.42600
H  -1.88900 36.94900 22.22500
H  -1.96400 37.44800 24.01400
H  -0.39800 33.70500 21.79600
H  -1.61300 32.61400 22.05000
H  0.19100 32.59300 24.45800
H  1.16100 32.60300 23.07800
H  -0.14900 31.25900 23.34800
H  -3.94100 29.87200 25.17100
H  -5.42200 30.27000 26.04300
H  -4.44900 28.90900 26.71100
H  -2.62600 30.23900 31.29300
H  -5.96000 30.16400 34.11500
H  -6.37100 31.68200 33.41300
H  -4.97900 31.43400 34.65500

