158

Mg -8.45400 40.63300 42.45100
C  -7.56400 37.31100 41.48400
C  -5.61700 41.77600 40.68200
C  -9.74500 43.71500 42.50600
C  -11.64300 39.20300 43.27400
N  -6.80500 39.58300 41.23200
C  -6.68300 38.26700 40.91900
C  -5.40700 37.99400 40.03500
C  -4.71100 39.45600 39.95600
C  -5.78100 40.37700 40.64800
C  -3.30400 39.54700 40.51900
C  -5.76000 37.32000 38.66000
C  -5.16500 35.94700 38.42200
H  -3.98900 35.93500 37.34700
N  -7.69800 42.52000 41.93200
C  -6.51200 42.77800 41.20400
C  -6.29300 44.22500 41.14000
C  -7.54500 44.78700 41.65200
C  -8.40000 43.63800 42.09400
C  -5.20600 44.98000 40.47400
C  -7.75000 46.30900 41.72100
O  -6.94200 47.11400 41.27900
C  -8.95000 46.87500 42.34900
N  -10.37900 41.32800 43.08200
C  -10.63900 42.69300 42.92200
C  -12.18900 42.98700 43.04900
C  -12.76200 41.51000 43.31300
C  -11.52000 40.60000 43.16500
C  -12.55200 44.04600 44.18400
C  -13.90200 41.14900 42.34800
C  -15.13900 40.52500 42.93100
N  -9.35800 38.61900 42.54500
C  -10.62800 38.24100 42.91500
C  -10.69400 36.81800 43.06800
C  -9.44400 36.36000 42.51400
C  -8.74600 37.50100 42.18800
C  -11.86600 36.02700 43.62000
C  -8.56100 35.21800 42.25700
O  -8.77900 34.02100 42.43500
C  -7.30500 35.78400 41.58700
C  -6.10500 35.52000 42.36300
O  -5.71900 36.17100 43.36200
O  -5.39800 34.43900 41.80100
C  -4.27500 33.96200 42.52000
H  -4.80400 42.16400 40.06400
H  -10.38200 44.56100 42.23800
H  -12.64000 38.86900 43.56900
H  -4.76600 37.32300 40.60600
H  -4.69100 39.70900 38.89600
H  -3.17800 38.70800 41.20300
H  -3.11100 40.53500 40.93900
H  -2.55800 39.44100 39.73100
H  -5.48900 37.95700 37.81900
H  -6.83800 37.17300 38.59300
H  -5.91300 35.23200 38.07900
H  -4.86300 35.51100 39.37400
H  -4.65600 45.52600 41.24000
H  -5.60600 45.59000 39.66300
H  -4.42800 44.30300 40.12000
H  -8.92100 47.90400 42.70500
H  -9.05700 46.36800 43.30800
H  -9.77700 46.76200 41.64700
H  -12.69800 43.30900 42.14000
H  -13.12100 41.50900 44.34200
H  -11.56500 44.39900 44.48400
H  -13.18200 43.71900 45.01100
H  -12.97900 44.96300 43.77600
H  -13.30400 40.63100 41.59900
H  -14.30500 42.05100 41.88800
H  -15.51600 40.96300 43.85500
H  -15.03200 39.45300 43.09900
H  -16.01800 40.57600 42.28900
H  -12.18700 36.20200 44.64600
H  -11.53800 34.98800 43.65600
H  -12.71700 36.08400 42.94100
H  -7.22000 35.44200 40.55500
H  -4.31800 32.87300 42.55300
H  -4.35200 34.26300 43.56500
H  -3.37600 34.19000 41.94800
Mg -4.75500 24.87900 25.85700
C  -3.03800 26.58200 28.35400
C  -6.18000 22.90000 28.27000
C  -6.51100 23.37900 23.41500
C  -3.10500 26.92500 23.53500
N  -4.52500 24.65500 28.07000
C  -3.84300 25.54500 28.88900
C  -4.11800 25.24400 30.35200
C  -5.17100 24.04100 30.29400
C  -5.31300 23.84200 28.80700
C  -4.75100 22.71700 31.08200
C  -4.67700 26.50100 31.07100
C  -4.18000 26.74500 32.44900
H  -3.95000 25.51600 33.34300
N  -6.17100 23.33300 25.86100
C  -6.54200 22.60900 26.93400
C  -7.48000 21.53100 26.50900
C  -7.57300 21.70400 25.12400
C  -6.77600 22.87700 24.69600
C  -8.09900 20.54200 27.50400
C  -8.44800 20.92700 24.12900
O  -8.39000 21.16500 22.92600
C  -9.52100 19.86600 24.60600
N  -4.44400 24.87200 23.67300
C  -5.58900 24.39000 23.03400
C  -5.76500 25.00500 21.67200
C  -4.61700 26.08600 21.59600
C  -3.98100 25.96100 23.00800
C  -5.70200 23.91200 20.51500
C  -5.16500 27.49300 21.31900
C  -4.65100 28.18700 20.02600
N  -3.24100 26.23800 25.83800
C  -2.72600 27.10100 24.85700
C  -1.97600 28.19500 25.37600
C  -1.97700 27.92100 26.76100
C  -2.77800 26.83700 27.00400
C  -1.28300 29.29500 24.65800
C  -1.38600 28.39000 28.00200
O  -0.53100 29.20500 28.29300
C  -2.14600 27.55000 29.08100
C  -1.15800 26.79600 29.97900
O  -0.45400 25.89500 29.61600
O  -1.10300 27.28000 31.29400
C  -0.23300 26.64400 32.24600
H  -6.79800 22.42700 29.03600
H  -7.23800 23.15100 22.63300
H  -2.79900 27.71700 22.84800
H  -3.17000 25.00800 30.83600
H  -6.15900 24.32200 30.65700
H  -4.54500 21.93500 30.35200
H  -5.56200 22.28900 31.67000
H  -3.92600 22.92200 31.76400
H  -5.75400 26.37400 31.18200
H  -4.49500 27.27200 30.32200
H  -4.91000 27.25800 33.07500
H  -3.37600 27.45800 32.26400
H  -7.57400 20.57700 28.45800
H  -8.02000 19.53200 27.10100
H  -9.14100 20.82000 27.66300
H  -9.03500 19.08200 25.18700
H  -9.82100 19.39600 23.67000
H  -10.27500 20.44200 25.14300
H  -6.79600 25.35800 21.69100
H  -4.04200 25.83000 20.70600
H  -5.35400 22.96200 20.92100
H  -5.12800 24.12200 19.61200
H  -6.71300 23.65000 20.20100
H  -5.08100 28.17500 22.16500
H  -6.23700 27.48300 21.12100
H  -5.39900 28.14100 19.23400
H  -3.67200 27.85700 19.68000
H  -4.46100 29.25400 20.14300
H  -1.10800 30.14100 25.32200
H  -1.91600 29.69000 23.86300
H  -0.30000 29.17300 24.20300
H  -2.81000 28.20800 29.64100
H  0.78000 27.04600 32.28200
H  -0.23900 25.55700 32.17100
H  -0.46300 27.02000 33.24300

