158

Mg 34.78400 3.04200 29.38200
C  33.11900 4.22000 32.12900
C  37.58700 2.51400 31.24300
C  36.49200 2.13300 26.52300
C  32.15900 4.06500 27.28000
N  35.31800 3.34300 31.47800
C  34.42700 3.83100 32.39600
C  35.17900 3.86300 33.78600
C  36.66600 3.53000 33.44800
C  36.53700 3.11700 31.99000
C  37.68500 4.72800 33.48800
C  34.51300 2.98600 34.86300
C  34.01800 3.74700 36.14100
H  35.00600 4.67700 36.82900
N  36.72500 2.40700 28.92700
C  37.67700 2.20700 29.87200
C  38.93400 1.78700 29.24100
C  38.63800 1.67100 27.86100
C  37.23700 2.03700 27.73500
C  40.15400 1.46500 30.03600
C  39.49500 1.18300 26.63800
O  39.02600 0.97400 25.56200
C  40.91700 0.84300 26.84500
N  34.36300 2.99900 27.19700
C  35.33200 2.72300 26.29100
C  34.73300 2.94900 24.81400
C  33.28500 3.44200 25.09100
C  33.22500 3.49700 26.61200
C  35.58700 4.02900 24.03000
C  32.16500 2.53000 24.36900
C  31.45500 1.44100 25.17300
N  33.02200 3.84200 29.61700
C  32.06600 4.22400 28.72200
C  30.92100 4.58600 29.42300
C  31.26700 4.54500 30.71400
C  32.60000 4.12300 30.81400
C  29.58100 4.96100 28.95500
C  30.80400 4.83300 32.05300
O  29.69000 5.25300 32.43500
C  32.00400 4.68200 33.06800
C  32.27800 6.10200 33.52800
O  33.02500 6.88400 33.02100
O  31.58400 6.30300 34.68300
C  31.98700 7.50000 35.47800
H  38.45700 2.51800 31.90400
H  36.99800 1.92500 25.57800
H  31.27300 4.32200 26.69600
H  35.05300 4.91300 34.05200
H  36.90800 2.62700 34.00800
H  37.09800 5.64500 33.43700
H  38.24400 4.74400 32.55200
H  38.30100 4.68900 34.38600
H  35.15000 2.18900 35.24600
H  33.67300 2.54000 34.32900
H  33.59200 2.98500 36.79500
H  33.15700 4.39300 35.96500
H  41.04400 2.04200 29.78400
H  40.34700 0.40500 29.87600
H  40.01800 1.51500 31.11700
H  41.42500 1.73100 27.22100
H  41.36900 0.49300 25.91700
H  40.98600 0.01000 27.54400
H  34.84700 1.96900 24.35100
H  33.13300 4.49000 24.83400
H  36.66300 3.96500 24.18800
H  35.26700 4.99100 24.43100
H  35.39400 3.93200 22.96100
H  32.56100 2.10900 23.44500
H  31.41100 3.17100 23.91200
H  30.42900 1.70900 25.42400
H  31.97200 1.18900 26.09900
H  31.38000 0.49600 24.63400
H  29.86400 5.65500 28.16300
H  28.95300 5.47100 29.68500
H  29.18700 4.00600 28.60600
H  31.95200 3.94600 33.87000
H  32.31700 8.24600 34.75400
H  32.72800 7.44500 36.27600
H  31.10400 8.00000 35.87500
Mg -5.11800 25.59400 26.58800
C  -3.65500 26.82600 29.64000
C  -7.26100 23.64300 28.48800
C  -6.18300 24.21100 23.70300
C  -2.98300 27.50300 24.81900
N  -5.27200 25.18000 28.74400
C  -4.62900 25.84400 29.77400
C  -5.24100 25.38900 31.11900
C  -6.22000 24.22500 30.71900
C  -6.29200 24.32400 29.22000
C  -5.70400 22.86800 31.22900
C  -5.98100 26.58600 31.91800
C  -7.04100 26.31500 33.03000
H  -6.70400 25.24500 34.10000
N  -6.51500 24.26200 26.15200
C  -7.31600 23.58100 27.08800
C  -8.25300 22.76700 26.38300
C  -7.96000 22.87700 25.00800
C  -6.81600 23.79200 24.90500
C  -9.32100 22.06300 27.15200
C  -8.60500 22.22700 23.81700
O  -8.30400 22.50500 22.63700
C  -9.55200 21.06700 24.13500
N  -4.62400 25.77300 24.55100
C  -5.18000 25.11700 23.53100
C  -4.46700 25.39100 22.27000
C  -3.63300 26.68300 22.52400
C  -3.79300 26.76200 24.04900
C  -3.64400 24.16800 21.72400
C  -4.09100 27.96100 21.77300
C  -3.10200 28.41500 20.72800
N  -3.56600 26.87300 27.03500
C  -2.84900 27.65400 26.17500
C  -1.89300 28.50500 26.97200
C  -2.24400 28.26000 28.34000
C  -3.25500 27.28200 28.29400
C  -0.83400 29.38600 26.41000
C  -1.97300 28.64200 29.72900
O  -1.24900 29.53900 30.20500
C  -2.93600 27.70400 30.65900
C  -2.13200 27.01200 31.70500
O  -1.45300 26.00100 31.63100
O  -2.27600 27.71400 32.88100
C  -2.21000 26.93700 34.13200
H  -7.87400 22.91400 29.02100
H  -6.47800 23.90900 22.69600
H  -2.18500 27.98300 24.24800
H  -4.48400 25.09900 31.84700
H  -7.22200 24.32100 31.13900
H  -4.98100 22.99100 32.03600
H  -5.21100 22.42300 30.36400
H  -6.54900 22.27500 31.57800
H  -6.40500 27.09500 31.05200
H  -5.26000 27.28000 32.34900
H  -7.86400 25.97900 32.39900
H  -7.32300 27.27400 33.46600
H  -9.01000 21.07400 27.49000
H  -10.20000 21.76000 26.58300
H  -9.68900 22.65800 27.98800
H  -9.87100 20.63600 23.18600
H  -10.48200 21.36400 24.61900
H  -9.05200 20.30400 24.73200
H  -5.28900 25.68100 21.61500
H  -2.56700 26.51500 22.36700
H  -3.38300 23.45600 22.50700
H  -2.77900 24.56100 21.19000
H  -4.27700 23.68000 20.98300
H  -4.25400 28.81200 22.43500
H  -5.04200 27.81900 21.26000
H  -3.42400 28.09100 19.73800
H  -2.07700 28.09100 20.90200
H  -3.09100 29.50500 20.68800
H  -0.43700 28.98800 25.47600
H  -0.03600 29.58600 27.12500
H  -1.30600 30.35600 26.25700
H  -3.73700 28.28500 31.11600
H  -1.29600 27.22200 34.65400
H  -2.32800 25.86700 33.96200
H  -3.08500 27.20800 34.72300

