158

Mg 25.73600 1.89900 29.29100
C  27.50700 1.59000 32.13000
C  22.78700 2.00300 31.04500
C  24.03700 1.76000 26.25900
C  28.62200 1.09900 27.46500
N  25.28100 1.93200 31.41500
C  26.16500 1.81300 32.40800
C  25.47900 2.04200 33.76800
C  23.86800 2.11200 33.39900
C  23.92200 2.09400 31.86900
C  22.97300 1.10500 34.04900
C  26.10200 3.17600 34.63100
C  26.55800 2.91600 36.16000
H  25.96700 3.81100 37.25600
N  23.68200 1.93300 28.75700
C  22.67700 2.07400 29.59200
C  21.46300 2.23100 28.82600
C  21.80400 1.98900 27.46800
C  23.22500 1.91400 27.44000
C  20.09000 2.41600 29.45100
C  20.91400 1.80700 26.27200
O  21.30200 1.50400 25.14400
C  19.38400 1.90000 26.29900
N  26.36200 1.79400 27.17900
C  25.45300 1.69600 26.14700
C  26.10300 1.59500 24.77100
C  27.63100 1.40100 25.17100
C  27.55900 1.49800 26.65800
C  25.51300 0.51600 23.85900
C  28.57600 2.46500 24.49900
C  29.64300 1.87000 23.55500
N  27.76400 1.43200 29.62600
C  28.81400 1.00100 28.82900
C  29.96900 0.75700 29.61200
C  29.50400 0.90700 30.92600
C  28.20500 1.32800 30.85700
C  31.36200 0.51500 29.09700
C  29.88000 1.02900 32.34600
O  30.98400 0.89100 32.90100
C  28.66500 1.49700 33.18900
C  28.38700 0.56800 34.31100
O  27.78400 -0.45800 34.21100
O  29.02800 0.83500 35.47600
C  28.89300 -0.13000 36.57600
H  21.91200 2.06500 31.69500
H  23.49300 1.74000 25.31300
H  29.53700 1.02400 26.87300
H  25.62900 1.11100 34.31400
H  23.51700 3.10800 33.66800
H  22.57700 0.30000 33.42900
H  22.13100 1.63300 34.49600
H  23.47500 0.54300 34.83600
H  25.43900 4.03800 34.69800
H  26.96100 3.47100 34.02800
H  27.62900 3.02200 36.33300
H  26.24200 1.91200 36.44300
H  19.47400 3.02000 28.78500
H  20.10100 2.82800 30.46000
H  19.77900 1.37100 29.47500
H  19.11300 1.56700 25.29700
H  19.04300 2.93500 26.31400
H  18.87400 1.33400 27.07800
H  25.99300 2.56400 24.28400
H  28.06000 0.41500 24.99300
H  24.87100 -0.13700 24.45000
H  26.29000 -0.13700 23.46100
H  24.90800 1.05100 23.12700
H  29.13100 2.99300 25.27500
H  28.04800 3.24500 23.95100
H  30.45600 1.26300 23.95300
H  30.21300 2.67700 23.09400
H  29.15000 1.23600 22.81800
H  31.43800 0.74400 28.03400
H  31.59300 -0.53200 29.28900
H  32.00200 1.16800 29.69000
H  28.89000 2.48000 33.60200
H  28.90800 -1.18400 36.29500
H  28.10800 0.07700 37.30300
H  29.85600 0.07800 37.04200
Mg 43.85100 4.21000 47.57900
C  41.52400 6.93100 47.25200
C  41.26200 2.08000 47.26800
C  45.94700 1.64600 47.55100
C  46.44500 6.53900 47.49900
N  41.60800 4.46800 47.36100
C  40.91400 5.64900 47.16800
C  39.45800 5.34000 47.21300
C  39.36900 3.82800 47.51300
C  40.86500 3.39800 47.50700
C  38.67600 3.49200 48.90000
C  38.51900 5.94700 46.04000
C  38.68900 5.34600 44.64500
H  39.51300 6.15600 43.63400
N  43.55400 2.07700 47.20500
C  42.46900 1.37800 47.14000
C  42.68000 -0.04300 46.85900
C  44.15600 -0.13900 46.83200
C  44.64600 1.24800 47.12200
C  41.77900 -1.06800 46.54300
C  44.91700 -1.39400 46.61000
O  44.29800 -2.38600 46.38200
C  46.39000 -1.55900 46.57000
N  45.92200 4.11200 47.36000
C  46.56800 2.93200 47.66600
C  48.05800 3.16400 47.93600
C  48.18400 4.69900 47.82700
C  46.78300 5.15700 47.42800
C  48.58200 2.48400 49.25600
C  49.34100 5.24800 46.86200
C  50.68300 5.63900 47.57300
N  43.97800 6.34100 47.36300
C  45.15500 7.11400 47.46000
C  44.67700 8.50500 47.55100
C  43.23900 8.44600 47.56700
C  42.87600 7.16300 47.34600
C  45.50900 9.73300 47.57900
C  42.07600 9.31200 47.63300
O  41.92500 10.49000 47.81300
C  40.88300 8.26200 47.35800
C  39.96700 8.41200 48.56100
O  40.07600 7.77700 49.56000
O  38.99900 9.40200 48.27500
C  37.87800 9.51600 49.20300
H  40.33300 1.51300 47.35300
H  46.58300 0.80400 47.83400
H  47.26200 7.23400 47.70600
H  39.09300 5.75500 48.15300
H  38.85600 3.27700 46.72500
H  39.47600 3.22500 49.59100
H  38.07900 2.60700 48.68100
H  38.00300 4.25000 49.29900
H  38.80900 6.99700 46.07800
H  37.47800 5.90200 46.36100
H  37.68600 5.25800 44.22700
H  39.12700 4.35100 44.73300
H  41.79400 -1.07500 45.45300
H  40.77900 -0.78400 46.87000
H  42.01400 -2.02400 47.00900
H  46.85100 -1.13900 47.46300
H  46.72900 -1.04500 45.67100
H  46.72600 -2.59600 46.57900
H  48.63600 2.71600 47.12700
H  48.35800 5.16800 48.79600
H  49.57600 2.08100 49.06000
H  47.80700 1.89100 49.74300
H  48.92100 3.23600 49.96800
H  48.89500 6.09100 46.33500
H  49.45000 4.44700 46.13200
H  50.52400 6.61000 48.04300
H  51.45800 5.73300 46.81200
H  50.97100 4.86700 48.28600
H  46.50600 9.50200 47.20300
H  45.68700 10.12600 48.58000
H  44.98900 10.52800 47.04400
H  40.30200 8.50400 46.46800
H  37.18300 10.30800 48.92600
H  38.21100 9.78600 50.20500
H  37.22400 8.65000 49.09900

