158

Mg 1.66900 7.99800 27.04500
C  1.66400 10.33200 29.57500
C  2.25600 5.45400 29.28000
C  2.20300 5.89100 24.46500
C  1.59900 10.64900 24.70300
N  1.67600 7.91200 29.17900
C  1.65300 8.98100 30.05900
C  1.56600 8.50000 31.48500
C  1.86800 6.90500 31.35100
C  1.92700 6.69300 29.82400
C  3.15300 6.43500 32.08900
C  0.17600 8.83200 32.19900
C  0.29400 9.07600 33.67700
H  1.43800 8.39600 34.45700
N  2.20300 6.00300 26.92600
C  2.39900 5.11100 27.95500
C  2.95600 3.92800 27.41800
C  2.91100 3.99000 26.01500
C  2.43300 5.33200 25.73800
C  3.42300 2.82600 28.31600
C  3.26900 2.94300 24.97800
O  2.98700 3.18800 23.80000
C  3.79000 1.59400 25.34800
N  1.82300 8.28000 24.85100
C  1.89000 7.21100 24.07100
C  1.88200 7.63800 22.57700
C  1.47700 9.09000 22.61000
C  1.60000 9.38800 24.13900
C  3.22500 7.42800 21.82300
C  0.06800 9.39800 22.11800
C  -0.11600 10.58200 21.22000
N  1.72700 10.04100 27.06700
C  1.73800 11.01000 26.03900
C  1.86200 12.30400 26.66000
C  1.87000 12.05800 28.05900
C  1.66700 10.71400 28.23900
C  1.93300 13.68400 26.01400
C  1.88400 12.69700 29.35200
O  1.93400 13.82300 29.76200
C  1.80200 11.57900 30.42400
C  3.17200 11.65100 31.06200
O  4.20800 11.57500 30.46000
O  3.01800 11.80800 32.45100
C  4.28400 11.82400 33.15300
H  2.32400 4.65100 30.01700
H  2.28100 5.24500 23.58800
H  1.58200 11.45200 23.96400
H  2.42200 8.98700 31.95200
H  0.99400 6.41100 31.77500
H  3.61200 5.56100 31.62700
H  3.21800 6.26500 33.16400
H  3.97400 7.13500 31.93300
H  -0.58800 8.06100 32.10400
H  -0.26400 9.68500 31.68200
H  -0.57800 8.52600 34.03100
H  0.31600 10.14200 33.90600
H  4.49100 2.73500 28.11900
H  2.98300 1.83200 28.24100
H  3.41900 3.09700 29.37200
H  2.97200 1.07000 25.84200
H  4.74700 1.56000 25.86800
H  3.99000 1.09500 24.40000
H  1.12500 7.12300 21.98500
H  2.12700 9.68600 21.96900
H  3.87200 7.28500 22.68800
H  3.55000 8.32600 21.29700
H  3.31100 6.61400 21.10400
H  -0.45300 9.66800 23.03600
H  -0.41100 8.49500 21.73800
H  -0.40500 10.28100 20.21300
H  0.78100 11.20000 21.17800
H  -0.92300 11.18300 21.63900
H  0.96600 14.15100 25.82800
H  2.04000 13.47400 24.94900
H  2.72700 14.36200 26.32600
H  1.03600 11.74100 31.18300
H  4.63900 12.85400 33.20700
H  5.16800 11.30600 32.78200
H  4.00100 11.47500 34.14600
Mg 25.48400 -0.73000 29.49300
C  27.76000 -0.81200 32.26100
C  22.96400 -0.48600 31.65100
C  23.49400 -0.65400 26.81900
C  28.24300 -1.43300 27.48200
N  25.51700 -0.73500 31.74400
C  26.50900 -0.49600 32.61800
C  25.90700 -0.30700 34.02600
C  24.34600 -0.29800 33.75200
C  24.24700 -0.57300 32.27700
C  23.53600 -1.39500 34.58200
C  26.38600 1.01900 34.71100
C  26.14900 1.07800 36.23900
H  27.33100 1.02600 37.19800
N  23.48400 -0.55400 29.28900
C  22.59900 -0.50000 30.28000
C  21.26500 -0.31500 29.72000
C  21.45300 -0.35600 28.27700
C  22.90200 -0.61500 28.06700
C  20.07900 -0.21300 30.65300
C  20.41700 -0.35500 27.14700
O  20.67500 -0.43700 25.97800
C  18.96700 -0.28300 27.62400
N  25.79600 -1.23300 27.38700
C  24.83400 -0.98000 26.46600
C  25.42200 -0.97500 25.06600
C  26.89600 -1.15600 25.26000
C  27.04200 -1.24800 26.81300
C  24.72800 -2.03600 24.09300
C  27.82100 -0.03700 24.61700
C  29.06800 -0.43100 23.89900
N  27.57100 -1.20400 29.80600
C  28.56000 -1.49900 28.82900
C  29.83700 -1.65100 29.48500
C  29.56300 -1.43700 30.86100
C  28.17300 -1.11200 30.98000
C  31.11100 -1.90600 28.84700
C  30.10900 -1.37400 32.19800
O  31.22900 -1.60500 32.61300
C  28.97400 -0.94400 33.15400
C  28.79900 -1.94200 34.20400
O  28.12600 -3.01700 34.03000
O  29.28700 -1.46000 35.44700
C  28.82500 -2.36500 36.57900
H  22.12300 -0.35700 32.33600
H  22.91500 -0.42300 25.92200
H  28.99400 -1.55200 26.69800
H  26.13200 -1.11600 34.72000
H  23.91200 0.68100 33.95800
H  23.99900 -1.71900 35.51400
H  23.42800 -2.35200 34.07100
H  22.49800 -1.07100 34.66000
H  25.83800 1.89800 34.36900
H  27.43200 1.08900 34.41500
H  25.47000 0.27200 36.51800
H  25.44900 1.89600 36.40500
H  19.22600 0.34000 30.26000
H  20.33500 0.32200 31.56800
H  19.80600 -1.22600 30.94900
H  18.28500 -0.47000 26.79400
H  18.68900 0.61600 28.17400
H  18.93700 -1.08400 28.36300
H  25.24600 -0.02400 24.56200
H  27.17500 -2.16000 24.94200
H  25.49400 -2.77100 23.84400
H  24.24700 -1.66000 23.19000
H  23.93900 -2.69100 24.46300
H  28.18200 0.58100 25.44000
H  27.25700 0.55700 23.89800
H  29.00400 -1.41000 23.42400
H  29.88900 -0.35200 24.61100
H  29.26700 0.27700 23.09400
H  30.96200 -1.80700 27.77200
H  31.46700 -2.91800 29.04500
H  31.89700 -1.24900 29.21900
H  29.24700 -0.01100 33.64700
H  29.22400 -1.94100 37.50100
H  29.25500 -3.36300 36.49300
H  27.75800 -2.58600 36.62300

