158

Mg 26.46600 0.88800 29.27200
C  28.34700 0.33900 32.06400
C  23.61700 1.04800 31.30900
C  24.70500 1.36900 26.53000
C  29.26000 -0.11300 27.23400
N  25.96000 0.57700 31.44900
C  27.01600 0.53600 32.35300
C  26.43500 0.58700 33.81900
C  24.91300 0.55200 33.56800
C  24.82300 0.77000 32.04800
C  24.07800 -0.59000 34.11300
C  26.96800 1.78900 34.60200
C  27.57600 1.51900 35.97900
H  27.04400 2.46700 37.01600
N  24.48600 1.12600 28.94100
C  23.46700 1.21200 29.85300
C  22.21100 1.47300 29.21800
C  22.46600 1.49800 27.82900
C  23.95900 1.31800 27.70400
C  20.90400 1.60700 30.01200
C  21.55900 1.63700 26.60200
O  21.86900 1.66300 25.40800
C  20.04300 1.57100 26.82300
N  26.88100 0.56200 27.10400
C  26.01100 1.00100 26.22800
C  26.62300 1.07700 24.84200
C  28.09800 0.62000 25.02000
C  28.12800 0.33400 26.51900
C  25.92000 0.31500 23.73800
C  29.12600 1.68400 24.65400
C  30.38200 1.21400 24.08700
N  28.43600 0.31100 29.58300
C  29.44400 -0.12100 28.71000
C  30.60200 -0.50500 29.42000
C  30.35600 -0.19500 30.79400
C  28.92800 0.17700 30.83300
C  31.76800 -1.14600 28.71000
C  30.78600 -0.22100 32.21800
O  31.81400 -0.58100 32.78800
C  29.47000 0.10500 33.03700
C  29.29400 -1.06700 33.95600
O  28.95500 -2.19900 33.57000
O  29.67600 -0.65000 35.18400
C  29.92100 -1.69400 36.16400
H  22.89300 1.31200 32.08200
H  24.31700 1.81900 25.61400
H  30.02500 -0.48200 26.54700
H  26.63100 -0.41300 34.20400
H  24.52800 1.50900 33.92000
H  23.49400 -0.13500 34.91300
H  24.74800 -1.26800 34.64300
H  23.48400 -1.13500 33.37900
H  26.15100 2.50800 34.66400
H  27.70800 2.29500 33.98400
H  28.65000 1.63500 35.83500
H  27.45200 0.49100 36.31800
H  20.50100 2.51200 29.55800
H  20.91200 1.89100 31.06500
H  20.34200 0.67700 29.92900
H  19.87100 0.74300 27.51100
H  19.55700 1.18700 25.92600
H  19.67000 2.47700 27.30000
H  26.55800 2.15200 24.67500
H  28.27200 -0.30400 24.46800
H  24.98800 -0.18100 24.00800
H  26.63200 -0.24300 23.13000
H  25.57000 1.10600 23.07400
H  29.41000 2.19100 25.57600
H  28.63900 2.48400 24.09600
H  30.22500 0.21900 23.67200
H  31.13500 1.03900 24.85600
H  30.75200 1.86600 23.29600
H  32.64900 -1.06000 29.34500
H  31.89900 -0.69900 27.72400
H  31.65900 -2.20000 28.45200
H  29.55000 1.01700 33.62900
H  29.73400 -2.72800 35.87500
H  29.26600 -1.49900 37.01300
H  30.94400 -1.57200 36.51900
Mg 35.56400 49.56500 26.71700
C  35.53100 47.05700 29.09900
C  34.69600 51.88600 29.13600
C  35.12000 51.73700 24.25000
C  36.13800 46.94800 24.36300
N  35.13100 49.46300 28.85500
C  35.24200 48.33800 29.59400
C  35.29300 48.69000 31.09300
C  34.58200 50.09100 31.16900
C  34.90300 50.55700 29.65500
C  33.04000 50.06300 31.36800
C  36.75500 48.62200 31.68200
C  36.89900 47.92900 33.07700
H  36.92100 48.91900 34.33900
N  35.15300 51.62600 26.70100
C  34.77200 52.38000 27.78800
C  34.55000 53.70500 27.28600
C  34.64100 53.73300 25.86500
C  34.98400 52.33100 25.51200
C  34.09300 54.79700 28.20700
C  34.51700 54.88100 24.85300
O  34.75500 54.66400 23.62100
C  34.03600 56.21000 25.26100
N  35.52100 49.39200 24.64400
C  35.30600 50.42900 23.83500
C  35.45500 49.99100 22.35900
C  35.79300 48.48000 22.35700
C  35.85700 48.27100 23.88900
C  34.24200 50.42400 21.39900
C  37.00600 47.95600 21.54300
C  36.81000 46.72900 20.68000
N  35.80300 47.46000 26.67300
C  36.06100 46.53100 25.66900
C  36.11900 45.14900 26.20800
C  35.93600 45.36300 27.56500
C  35.69600 46.73400 27.77700
C  36.45000 43.87400 25.42700
C  35.83700 44.66100 28.74400
O  35.93100 43.45300 28.91100
C  35.60600 45.75500 29.86100
C  34.43800 45.40900 30.63100
O  33.26100 45.57000 30.35600
O  34.82300 44.94000 31.82900
C  34.01400 45.00100 33.00400
H  34.35500 52.50000 29.97100
H  34.90600 52.35000 23.37200
H  36.35500 46.25000 23.55100
H  34.59700 48.03000 31.61000
H  35.14600 50.84000 31.72600
H  32.61500 50.90900 30.82900
H  32.69000 50.26400 32.38000
H  32.60500 49.15500 30.94800
H  37.07200 49.64500 31.88500
H  37.44300 48.14900 30.98100
H  37.81300 47.33500 33.11100
H  36.07600 47.23800 33.25800
H  34.60900 55.74200 28.03800
H  34.20300 54.56400 29.26600
H  33.00700 54.81800 28.11700
H  33.84600 56.78600 24.35500
H  34.79200 56.83400 25.73800
H  33.19300 56.12000 25.94600
H  36.22200 50.58900 21.86600
H  34.88900 47.92300 22.11000
H  34.64200 51.08200 20.62700
H  33.50500 51.04400 21.91100
H  33.70100 49.57700 20.97800
H  37.70300 47.70800 22.34400
H  37.31900 48.83100 20.97400
H  37.11000 46.92300 19.65000
H  35.80400 46.31100 20.68600
H  37.47000 46.00900 21.16500
H  37.39500 43.50500 25.82600
H  36.59100 44.21600 24.40200
H  35.61500 43.17300 25.43600
H  36.44000 45.80300 30.56200
H  33.13500 45.61500 32.80600
H  34.49900 45.48100 33.85400
H  33.65000 44.04300 33.37700

