158

Mg 41.52800 41.88900 26.84100
C  40.45800 44.23400 29.30900
C  42.22800 39.86600 29.26100
C  42.84900 39.90700 24.51900
C  41.23000 44.44900 24.51600
N  41.31000 42.11900 29.03300
C  40.75000 43.01000 29.87200
C  40.72200 42.63700 31.37500
C  41.61600 41.30800 31.36100
C  41.75000 41.04700 29.80100
C  42.97500 41.34900 32.03200
C  39.27600 42.52600 31.97100
C  39.00300 43.29900 33.28700
H  38.56700 42.46600 34.48000
N  42.34600 40.09800 26.85600
C  42.54500 39.41200 27.98600
C  43.10500 38.12700 27.68400
C  43.27500 38.07900 26.24400
C  42.79400 39.40500 25.80000
C  43.26400 37.02000 28.72000
C  43.75600 37.00000 25.30800
O  43.85100 37.18200 24.12300
C  44.07000 35.65500 25.86600
N  41.73000 42.12500 24.65200
C  42.42600 41.17800 24.00300
C  42.77200 41.68600 22.56000
C  41.97200 43.02800 22.45800
C  41.66500 43.21800 23.97400
C  44.23300 41.74000 22.20100
C  40.66300 42.92100 21.66400
C  40.27800 44.29100 21.27100
N  40.90100 43.85000 26.83400
C  40.87000 44.78900 25.84400
C  40.46300 46.10100 26.36000
C  40.20000 45.87500 27.71100
C  40.54100 44.54300 27.95800
C  40.35800 47.52100 25.72400
C  39.64600 46.52400 28.92900
O  39.23500 47.64500 29.22600
C  39.87200 45.40500 29.98800
C  40.78900 45.97600 30.99200
O  41.98300 46.03900 30.85700
O  40.13500 46.38900 32.10800
C  40.96500 46.62800 33.34000
H  42.45100 39.17700 30.07900
H  43.32600 39.27300 23.76900
H  41.19900 45.24400 23.76900
H  41.30200 43.38900 31.90900
H  41.18000 40.50100 31.95000
H  43.00700 41.92900 32.95400
H  43.67800 41.88400 31.39400
H  43.39800 40.34400 32.03200
H  38.95500 41.48900 32.06200
H  38.64700 43.02400 31.23200
H  38.23400 44.05600 33.13300
H  39.94400 43.79600 33.52500
H  43.57400 37.50500 29.64600
H  44.18700 36.51500 28.43700
H  42.46900 36.27500 28.73000
H  43.20500 35.23900 26.38200
H  44.87900 35.87500 26.56200
H  44.45500 35.02000 25.06800
H  42.40200 40.92000 21.87900
H  42.66100 43.86200 22.32200
H  44.56100 42.69300 22.61700
H  44.42400 41.66300 21.13000
H  44.68800 40.91200 22.74500
H  39.88700 42.47200 22.28400
H  40.77100 42.39700 20.71400
H  39.67600 44.64500 22.10800
H  39.71400 44.37000 20.34200
H  41.08800 45.01800 21.21700
H  40.89700 48.21200 26.37200
H  39.28300 47.62600 25.58000
H  40.86000 47.61000 24.76100
H  38.91900 45.15900 30.45800
H  42.00200 46.29400 33.31800
H  40.55500 46.16500 34.23700
H  40.98500 47.69300 33.56900
Mg -1.82200 33.84300 27.22400
C  -3.45600 31.91300 29.66500
C  -0.77900 35.97100 29.92200
C  -0.62600 35.97400 25.01300
C  -3.20000 31.92700 24.71500
N  -2.11500 33.92700 29.60900
C  -2.75800 32.97300 30.33700
C  -2.58900 33.28400 31.81200
C  -1.82300 34.67100 31.85900
C  -1.52500 34.89100 30.36900
C  -2.48600 35.91900 32.56100
C  -1.90800 32.18100 32.59400
C  -2.58300 31.68600 33.90300
H  -1.81700 31.96300 35.22600
N  -0.77200 35.58400 27.41100
C  -0.29400 36.20600 28.57300
C  0.65500 37.21600 28.17700
C  0.68300 37.22600 26.68500
C  -0.28900 36.23500 26.32800
C  1.50400 38.06900 29.15800
C  1.35800 38.15600 25.78200
O  1.05800 38.29400 24.58100
C  2.23100 39.20700 26.36900
N  -1.99300 34.10200 25.20000
C  -1.33400 34.96600 24.44600
C  -1.46600 34.71000 22.92500
C  -1.86200 33.22000 22.91700
C  -2.50200 33.10000 24.33700
C  -2.51600 35.65500 22.32400
C  -0.76400 32.13400 22.62400
C  -1.21100 30.71700 22.25600
N  -3.22300 32.37300 27.10700
C  -3.59700 31.65500 26.01400
C  -4.35600 30.50500 26.45300
C  -4.41700 30.60000 27.87700
C  -3.65200 31.75700 28.23800
C  -4.90800 29.42000 25.51400
C  -4.90800 29.91900 29.00400
O  -5.52500 28.89900 29.13300
C  -4.31800 30.78900 30.27200
C  -5.34100 31.29600 31.19600
O  -6.14600 32.19700 30.93400
O  -5.18000 30.64800 32.37100
C  -6.27800 30.76500 33.32100
H  -0.31300 36.59800 30.68500
H  -0.17000 36.56900 24.21900
H  -3.49300 31.20500 23.94900
H  -3.59200 33.36000 32.23200
H  -0.81400 34.66800 32.27100
H  -2.98900 36.50800 31.79400
H  -1.73000 36.56700 33.00500
H  -3.22800 35.59800 33.29300
H  -0.90800 32.48900 32.90100
H  -1.72000 31.31900 31.95400
H  -2.73100 30.61200 33.78900
H  -3.54900 32.18900 33.95400
H  2.56200 37.98700 28.90900
H  1.28200 37.83900 30.20000
H  1.24900 39.12400 29.05800
H  3.07900 38.65400 26.77100
H  1.75400 39.80300 27.14700
H  2.50800 39.82600 25.51600
H  -0.53500 34.81100 22.36700
H  -2.74400 33.13300 22.28200
H  -3.33100 35.18700 21.77300
H  -2.01900 36.31000 21.60800
H  -2.83000 36.38600 23.07000
H  -0.26200 32.01400 23.58400
H  0.02600 32.47100 21.95400
H  -0.99100 30.15800 23.16500
H  -0.70100 30.26500 21.40500
H  -2.29100 30.65100 22.12400
H  -4.15000 29.21800 24.75700
H  -5.83700 29.73600 25.03800
H  -5.14700 28.60800 26.20000
H  -3.74100 30.09600 30.88500
H  -7.02700 31.50900 33.04900
H  -5.86700 31.14600 34.25600
H  -6.77800 29.81300 33.49700

