158

Mg 16.48300 -2.57000 28.15900
C  15.89500 -0.44200 30.90300
C  17.83400 -4.81300 30.41900
C  17.66000 -4.42200 25.50700
C  15.29600 -0.35000 26.07500
N  16.91400 -2.61200 30.48300
C  16.52200 -1.63900 31.27900
C  16.86000 -2.04600 32.75000
C  17.77900 -3.32500 32.55000
C  17.46300 -3.65900 31.09200
C  19.29900 -2.96700 32.77600
C  15.61900 -2.45400 33.56900
C  15.36800 -1.65500 34.87600
H  16.66800 -1.19400 35.64700
N  17.51000 -4.44500 27.97300
C  17.84500 -5.22300 29.01700
C  18.38200 -6.47800 28.48500
C  18.24400 -6.42200 27.04400
C  17.77200 -5.03900 26.77300
C  18.88300 -7.57600 29.36200
C  18.58600 -7.47600 25.97500
O  18.38000 -7.27800 24.74700
C  19.24500 -8.77700 26.51900
N  16.55400 -2.33400 26.08700
C  17.07600 -3.22800 25.19000
C  16.95300 -2.72600 23.77400
C  15.88000 -1.62600 23.97800
C  15.80700 -1.46500 25.48400
C  18.27100 -2.18000 23.21400
C  14.40000 -1.77800 23.38300
C  13.11300 -1.97100 24.22000
N  15.71900 -0.76700 28.34100
C  15.26600 0.03800 27.38400
C  14.67600 1.17300 27.93800
C  14.87900 1.08200 29.34900
C  15.57500 -0.13900 29.48000
C  13.99300 2.29800 27.22800
C  14.68600 1.59300 30.67700
O  14.16800 2.63700 31.04500
C  15.37800 0.63600 31.72800
C  16.41700 1.48600 32.33200
O  17.58900 1.41800 32.03300
O  15.85300 2.42600 33.13500
C  16.70400 3.48900 33.67500
H  18.26400 -5.46800 31.17900
H  18.05000 -5.05300 24.70600
H  14.90400 0.44700 25.44000
H  17.39300 -1.20400 33.19200
H  17.74700 -4.13100 33.28400
H  19.51500 -1.96500 33.14600
H  19.86200 -3.15900 31.86200
H  19.66000 -3.54700 33.62400
H  15.46200 -3.53200 33.58700
H  14.88900 -2.05900 32.86200
H  14.91600 -2.25500 35.66500
H  14.69300 -0.88400 34.50600
H  18.50500 -8.58400 29.19600
H  18.42000 -7.44000 30.33900
H  19.95700 -7.51800 29.54300
H  20.04200 -8.52600 27.21900
H  19.72400 -9.31900 25.70400
H  18.50000 -9.43100 26.97300
H  16.51100 -3.54600 23.20800
H  16.16400 -0.67400 23.52700
H  18.95800 -1.83000 23.98500
H  18.10800 -1.30600 22.58300
H  19.01400 -2.77100 22.67800
H  14.38400 -2.57100 22.63400
H  14.19300 -0.84500 22.85900
H  12.74200 -1.02900 24.62500
H  13.31900 -2.51800 25.14000
H  12.44400 -2.55000 23.58400
H  12.98600 1.93900 27.01300
H  14.56400 2.51300 26.32500
H  13.95700 3.25100 27.75500
H  14.69800 0.28000 32.50200
H  16.09500 4.05200 34.38200
H  17.01800 4.17400 32.88700
H  17.59000 3.02200 34.10500
Mg -4.65000 25.23100 26.24200
C  -3.59000 26.75500 29.14600
C  -6.27700 22.87400 28.40900
C  -5.88000 23.65500 23.60000
C  -2.93200 27.46100 24.38900
N  -4.94000 24.89000 28.58700
C  -4.41900 25.72900 29.49900
C  -4.98000 25.42600 30.87100
C  -5.59800 23.98200 30.69800
C  -5.69500 23.93100 29.10700
C  -4.74700 22.89100 31.21200
C  -6.03800 26.49900 31.35200
C  -6.04800 26.86500 32.80700
H  -5.57400 25.80400 33.79300
N  -5.85400 23.45400 26.08900
C  -6.41700 22.66000 27.06500
C  -7.31300 21.64500 26.38900
C  -7.18100 21.87500 24.97200
C  -6.30300 23.01800 24.85400
C  -7.93600 20.46900 27.07000
C  -7.81300 21.11500 23.81000
O  -7.71600 21.42200 22.64300
C  -8.56000 19.81000 24.07800
N  -4.40500 25.45700 24.21100
C  -5.06700 24.75700 23.29200
C  -4.77700 25.32600 21.88700
C  -3.66300 26.38200 22.12600
C  -3.76700 26.50400 23.65500
C  -4.27900 24.33300 20.82800
C  -3.85400 27.63100 21.28000
C  -4.76600 28.63300 21.95700
N  -3.42700 26.72100 26.61300
C  -2.75100 27.60600 25.78700
C  -1.84800 28.47500 26.45900
C  -2.25600 28.15600 27.77300
C  -3.22100 27.14800 27.82100
C  -1.01300 29.62000 25.94200
C  -2.03500 28.63200 29.07800
O  -1.21600 29.49200 29.41100
C  -2.94300 27.73000 30.06400
C  -2.03900 27.11400 31.00900
O  -1.36100 26.07100 30.78800
O  -2.06800 27.89600 32.15900
C  -1.32700 27.21300 33.24900
H  -6.75700 22.20400 29.12600
H  -6.20600 23.14600 22.69000
H  -2.35800 28.01200 23.64100
H  -4.24000 25.34300 31.66600
H  -6.59200 23.89200 31.13600
H  -4.05700 23.22400 31.98700
H  -4.01900 22.42800 30.54600
H  -5.27000 22.12400 31.78400
H  -7.09300 26.28500 31.17900
H  -5.85200 27.47000 30.89400
H  -7.07800 27.03600 33.12200
H  -5.55700 27.83000 32.93500
H  -8.91300 20.26600 26.62900
H  -8.12500 20.69200 28.12000
H  -7.33600 19.56000 27.05700
H  -9.43600 20.05100 24.68000
H  -7.85500 19.10600 24.52100
H  -8.82000 19.18600 23.22300
H  -5.64000 25.88600 21.52800
H  -2.69100 25.93200 21.92600
H  -4.96500 24.25500 19.98500
H  -4.23600 23.31100 21.20600
H  -3.26700 24.56900 20.50000
H  -4.02300 27.32600 20.24700
H  -2.90900 28.17500 21.26600
H  -4.19600 29.27400 22.62900
H  -5.50700 27.99000 22.43200
H  -5.24800 29.26600 21.21200
H  0.03900 29.47400 26.18600
H  -1.30000 30.55900 26.41600
H  -1.01900 29.73200 24.85700
H  -3.82700 28.21000 30.48400
H  -0.28500 27.05600 32.97000
H  -1.63900 26.20800 33.53500
H  -1.29700 27.81400 34.15800

