158

Mg 30.64600 58.06200 40.74700
C  27.89600 55.80100 39.89200
C  32.71200 55.59700 39.67700
C  32.92500 60.36200 40.84700
C  28.05400 60.43100 41.38900
N  30.34900 55.96100 39.80600
C  29.15800 55.26300 39.56000
C  29.50300 54.07900 38.66900
C  30.97500 53.88200 38.95700
C  31.37900 55.22600 39.51600
C  31.43400 52.65100 39.86000
C  29.11200 54.32600 37.17700
C  28.13500 53.33100 36.56100
H  27.01800 53.81600 35.61900
N  32.67500 57.92500 40.43500
C  33.35900 56.80000 40.08600
C  34.75500 57.11000 40.10900
C  34.89400 58.52300 40.32100
C  33.47000 59.05400 40.46900
C  35.88100 56.14200 39.68600
C  36.13000 59.36800 40.27300
O  37.24000 58.90800 40.17800
C  35.97400 60.85700 40.39600
N  30.48000 60.16300 41.01000
C  31.64100 60.84000 41.09600
C  31.27400 62.37800 41.42900
C  29.72600 62.30300 41.73200
C  29.37800 60.87600 41.32300
C  32.09600 63.07000 42.55600
C  28.90800 63.46500 40.99700
C  27.73300 64.05100 41.78100
N  28.43600 58.18900 40.61400
C  27.59800 59.16300 40.94200
C  26.22500 58.72100 40.85500
C  26.28700 57.39700 40.44600
C  27.63600 57.08300 40.36600
C  25.03800 59.64500 41.06100
C  25.53700 56.20100 40.11800
O  24.31900 55.94300 40.14900
C  26.54300 55.11400 39.61700
C  26.34400 53.91400 40.40400
O  26.39300 53.74800 41.62200
O  26.23100 52.82100 39.56700
C  25.67100 51.61600 40.27400
H  33.41500 54.88800 39.23500
H  33.62900 61.18800 40.96600
H  27.31800 61.22600 41.52700
H  28.94900 53.24400 39.09900
H  31.50400 53.83100 38.00500
H  30.61100 52.07100 40.27800
H  32.00000 53.02800 40.71200
H  32.02300 51.94600 39.27400
H  30.03100 54.25500 36.59300
H  28.73400 55.34700 37.13300
H  27.66300 52.81000 37.39500
H  28.64000 52.46700 36.13000
H  36.66400 56.67300 39.14400
H  35.52800 55.35300 39.02200
H  36.28800 55.65100 40.56900
H  35.51100 61.12800 41.34500
H  35.45800 61.16400 39.48600
H  36.94400 61.32700 40.23200
H  31.33000 62.91800 40.48400
H  29.44600 62.43400 42.77700
H  32.65900 63.91200 42.15200
H  32.86500 62.41500 42.96500
H  31.41500 63.50100 43.29000
H  28.56500 63.13400 40.01600
H  29.52900 64.32600 40.74600
H  28.09600 65.00800 42.15700
H  27.39300 63.48600 42.64900
H  26.91100 64.17300 41.07600
H  25.25900 60.71200 41.09500
H  24.69100 59.50900 42.08500
H  24.22000 59.55400 40.34700
H  26.45600 54.78800 38.58000
H  26.59500 51.09300 40.52300
H  25.06400 51.04700 39.57000
H  25.11600 51.78500 41.19700
Mg 0.14300 43.11400 26.58600
C  2.56400 42.85000 29.20900
C  -2.12500 41.79700 28.74600
C  -1.91600 43.01000 23.98200
C  2.93200 43.66800 24.37800
N  0.20800 42.40800 28.78800
C  1.24400 42.44700 29.64800
C  0.68000 42.49400 31.03400
C  -0.78800 41.77700 30.92600
C  -0.90000 41.95100 29.39000
C  -0.79900 40.26400 31.23400
C  0.70100 43.95300 31.63200
C  1.20600 44.03100 33.11100
H  0.88700 42.81500 34.04300
N  -1.75400 42.62400 26.44700
C  -2.57400 42.05600 27.42000
C  -3.84900 41.83100 26.88900
C  -3.86800 42.32200 25.54900
C  -2.41000 42.67600 25.27200
C  -4.93600 41.32600 27.80100
C  -5.10900 42.37600 24.55900
O  -4.96400 42.89400 23.47100
C  -6.49300 41.84600 24.95200
N  0.52400 43.04500 24.40700
C  -0.57000 43.23500 23.64800
C  -0.14900 43.86400 22.33200
C  1.30100 44.25800 22.49800
C  1.60300 43.63700 23.86200
C  -0.47000 42.90100 21.13400
C  1.55600 45.78600 22.41800
C  1.80800 46.39400 21.03800
N  2.25900 43.13100 26.68800
C  3.22400 43.33800 25.73700
C  4.58200 43.30000 26.37500
C  4.32600 43.12000 27.72500
C  2.94600 43.08100 27.84100
C  5.93200 43.30300 25.69300
C  4.98000 43.03700 29.05200
O  6.17800 43.10500 29.25400
C  3.84300 42.97800 30.05800
C  4.00400 41.83300 31.03400
O  3.97700 40.61200 30.72100
O  4.34800 42.26800 32.27100
C  4.36900 41.27700 33.32400
H  -2.92300 41.46800 29.41400
H  -2.68300 43.20000 23.22900
H  3.71900 43.91800 23.66300
H  1.38600 41.94000 31.65300
H  -1.54600 42.32000 31.49100
H  -1.06400 39.64100 30.38000
H  -1.49600 39.84800 31.96100
H  0.17800 39.95700 31.60700
H  -0.34600 44.24400 31.72700
H  1.28700 44.68400 31.07600
H  0.64200 44.81500 33.61600
H  2.26600 44.28100 33.08600
H  -5.29800 40.45900 27.24900
H  -5.77500 42.02000 27.85700
H  -4.69300 41.00500 28.81400
H  -7.22100 42.05200 24.16800
H  -6.73600 42.43200 25.83800
H  -6.36300 40.77800 25.12700
H  -0.76000 44.75000 22.16000
H  1.88600 43.74000 21.73800
H  0.39200 42.59900 20.54000
H  -1.25100 43.38800 20.55000
H  -0.90400 41.96000 21.47400
H  2.40700 46.07300 23.03700
H  0.77300 46.31000 22.96700
H  0.90000 46.83800 20.62800
H  2.25500 45.71700 20.31100
H  2.56100 47.13000 21.32100
H  6.12700 44.29200 25.27900
H  5.90300 42.47400 24.98600
H  6.70900 43.05500 26.41600
H  3.89100 43.76600 30.80900
H  5.31500 40.73700 33.34500
H  3.46000 40.67600 33.29800
H  4.26200 41.81900 34.26400

