158

Mg 25.52900 0.08700 29.27100
C  27.28900 -0.12400 32.26300
C  22.68600 0.14900 31.09500
C  23.86900 0.54400 26.26900
C  28.46800 -0.06400 27.47500
N  25.08600 -0.05500 31.42700
C  25.94600 0.00600 32.50000
C  25.24400 0.06900 33.88100
C  23.72600 -0.14400 33.43500
C  23.81500 0.00700 31.91600
C  23.03600 -1.43000 33.96100
C  25.57700 1.33900 34.77800
C  26.11900 1.06200 36.19600
H  25.07400 0.64200 37.27400
N  23.54100 0.25900 28.80000
C  22.50100 0.20300 29.68500
C  21.28700 0.24800 28.92500
C  21.60900 0.39600 27.49900
C  23.07000 0.45500 27.46200
C  19.85400 0.17200 29.60800
C  20.70700 0.46500 26.24100
O  21.15600 0.62400 25.08800
C  19.24300 0.36000 26.51300
N  26.08200 -0.07000 27.11800
C  25.25100 0.25300 26.10100
C  25.95400 0.37000 24.72000
C  27.46900 0.18700 25.16900
C  27.33400 0.06300 26.71200
C  25.38700 -0.55000 23.65200
C  28.45700 1.35100 24.80600
C  29.87100 0.95100 24.28800
N  27.49400 -0.09500 29.74000
C  28.61100 -0.13300 28.88700
C  29.79700 -0.40300 29.70600
C  29.33700 -0.38800 31.04000
C  27.92100 -0.24100 31.04000
C  31.16600 -0.59300 29.17300
C  29.80300 -0.49800 32.40300
O  30.92200 -0.66700 32.83100
C  28.51500 -0.17600 33.28300
C  28.42300 -1.29600 34.26900
O  27.69900 -2.28400 34.15500
O  29.22600 -1.11200 35.33500
C  28.99900 -2.02500 36.41700
H  21.88900 0.18500 31.84100
H  23.27400 0.80500 25.39200
H  29.32200 -0.14400 26.79900
H  25.43400 -0.81400 34.49100
H  23.02800 0.62100 33.77800
H  23.64400 -2.07200 34.59900
H  22.62800 -2.08500 33.19200
H  22.24600 -1.09600 34.63300
H  24.70600 1.98900 34.86900
H  26.29800 1.93300 34.21800
H  26.65800 1.89700 36.64300
H  26.72200 0.15500 36.15700
H  19.92300 0.10700 30.69400
H  19.41700 -0.79600 29.36600
H  19.18300 0.96300 29.27200
H  18.80200 1.27900 26.89900
H  19.15300 -0.46900 27.21500
H  18.78000 0.08300 25.56600
H  25.80900 1.34500 24.25500
H  27.83700 -0.80300 24.90300
H  25.52500 -0.14100 22.65100
H  24.31500 -0.42700 23.80900
H  25.69200 -1.59500 23.69900
H  28.61100 1.92000 25.72300
H  28.03500 2.06100 24.09600
H  29.84900 -0.10600 24.02500
H  30.52500 1.11100 25.14500
H  30.12300 1.55700 23.41800
H  31.79400 -0.56300 30.06300
H  31.31700 0.09400 28.34000
H  31.24500 -1.64100 28.88400
H  28.64700 0.73800 33.86100
H  28.02900 -1.61700 36.69800
H  29.78300 -1.86200 37.15600
H  28.71500 -3.05100 36.18000
Mg 46.86400 24.80000 28.53800
C  47.24600 27.03100 31.27900
C  45.32200 22.62100 30.60100
C  47.47200 22.31000 26.29600
C  48.83100 27.03100 26.55400
N  46.40700 24.82700 30.70300
C  46.63900 25.84700 31.58500
C  46.11900 25.53700 33.01700
C  45.46700 24.06600 32.76000
C  45.74400 23.78000 31.32100
C  46.15000 22.92200 33.58300
C  45.24900 26.61300 33.69700
C  45.65600 27.02500 35.06100
H  44.65900 26.80100 36.27400
N  46.30100 22.84500 28.35600
C  45.50600 22.15600 29.25300
C  45.06200 20.88400 28.74500
C  45.80100 20.78600 27.48200
C  46.55500 22.00700 27.31600
C  44.32700 19.82200 29.59500
C  45.75100 19.68200 26.57200
O  46.35500 19.63800 25.52500
C  44.85400 18.45600 26.81800
N  47.96700 24.70600 26.70400
C  48.04600 23.54500 25.97000
C  48.73700 23.81000 24.65400
C  49.21100 25.30800 24.71600
C  48.64300 25.74400 26.03800
C  49.79100 22.73600 24.29100
C  48.59200 26.14900 23.52900
C  47.12700 26.67000 23.58500
N  47.78500 26.69300 28.77700
C  48.48800 27.44000 27.87400
C  48.85800 28.70800 28.47500
C  48.36500 28.61900 29.86100
C  47.73200 27.36100 29.96200
C  49.77100 29.76200 27.88200
C  48.30000 29.22100 31.17400
O  48.66400 30.32400 31.60500
C  47.58900 28.13500 32.12400
C  48.56900 27.70100 33.22000
O  49.46100 26.86300 33.09500
O  48.39900 28.54700 34.23600
C  49.23000 28.41400 35.49900
H  44.68000 22.00200 31.23100
H  47.65000 21.55100 25.53100
H  49.20800 27.81100 25.89000
H  46.91000 25.36600 33.74800
H  44.43300 23.96200 33.09000
H  46.45900 23.27700 34.56600
H  47.04700 22.52400 33.10900
H  45.47100 22.11400 33.85700
H  44.28100 26.16900 33.92900
H  45.02400 27.53300 33.15800
H  45.95100 28.07400 35.02100
H  46.57800 26.56100 35.41400
H  43.52000 19.36300 29.02400
H  43.97300 20.26800 30.52400
H  45.06100 19.09500 29.94000
H  45.07300 18.16000 27.84300
H  45.06500 17.65600 26.10800
H  43.80900 18.71800 26.65100
H  48.08300 23.66500 23.79400
H  50.29900 25.28200 24.78200
H  50.11000 22.29100 25.23400
H  50.60300 23.11300 23.66800
H  49.45100 21.87400 23.71800
H  48.69600 25.46000 22.69200
H  49.16400 27.03400 23.24900
H  46.56000 26.05700 22.88400
H  47.04900 27.74900 23.45500
H  46.77400 26.48700 24.60000
H  50.42600 29.45600 27.06700
H  50.40000 30.22900 28.64000
H  49.10700 30.51600 27.46000
H  46.78500 28.71600 32.57600
H  49.83100 29.32100 35.56400
H  49.82500 27.50200 35.55600
H  48.59300 28.42400 36.38400

