158

Mg 1.72000 -2.48900 43.99000
C  5.07900 -1.49900 43.52900
C  0.76300 0.36100 42.31500
C  -1.37700 -3.71100 44.05700
C  2.91000 -5.45500 45.36900
N  2.85200 -0.88700 42.88700
C  4.17900 -0.65200 42.85100
C  4.48600 0.64500 42.04900
C  3.08500 1.36400 42.16100
C  2.16100 0.22100 42.42500
C  2.95600 2.56700 43.07300
C  5.05600 0.49100 40.62000
C  6.33800 1.21200 40.31300
H  6.24100 2.22500 39.21400
N  -0.12600 -1.79100 43.21000
C  -0.31900 -0.58800 42.56300
C  -1.75000 -0.34700 42.36500
C  -2.44300 -1.45400 43.01600
C  -1.36000 -2.39500 43.49800
C  -2.28700 0.74300 41.54200
C  -3.90300 -1.64400 43.15600
O  -4.68900 -0.88300 42.69300
C  -4.57000 -2.80000 43.73700
N  0.84700 -4.40500 44.55100
C  -0.50800 -4.67400 44.53900
C  -0.86000 -5.96500 45.23000
C  0.57200 -6.57700 45.34000
C  1.52600 -5.47200 45.13000
C  -1.70700 -5.77100 46.44800
C  0.92200 -7.67800 44.33100
C  0.12700 -8.99000 44.46200
N  3.57600 -3.25500 44.54800
C  3.90000 -4.45900 45.11100
C  5.30300 -4.50500 45.37600
C  5.83000 -3.32200 44.82300
C  4.74500 -2.62600 44.31700
C  6.08700 -5.60300 46.00700
C  7.04300 -2.59000 44.47500
O  8.18900 -2.89300 44.78600
C  6.52500 -1.32300 43.71600
C  6.90800 -0.10300 44.48600
O  6.99800 0.01000 45.68400
O  7.46700 0.88500 43.69500
C  7.85300 2.17800 44.35700
H  0.50300 1.38700 42.04600
H  -2.43100 -3.94300 44.22400
H  3.29700 -6.32900 45.89600
H  5.20300 1.26600 42.58700
H  2.69800 1.78000 41.23100
H  2.43500 3.28900 42.44400
H  3.94500 2.94200 43.33600
H  2.44200 2.31200 44.00100
H  4.27300 0.92800 40.00000
H  5.07000 -0.59600 40.54500
H  6.99900 0.38700 40.04800
H  6.82200 1.66500 41.17800
H  -1.90100 0.90000 40.53500
H  -2.31000 1.71500 42.03500
H  -3.35900 0.59800 41.41500
H  -5.64200 -2.74300 43.92200
H  -4.11300 -2.89800 44.72200
H  -4.32300 -3.69000 43.15900
H  -1.52600 -6.45500 44.52000
H  0.73600 -6.99100 46.33500
H  -2.71000 -6.19100 46.36900
H  -1.74600 -4.69900 46.64600
H  -1.18500 -6.16300 47.32100
H  2.00200 -7.78000 44.44100
H  0.77100 -7.29500 43.32200
H  -0.52500 -9.10400 43.59600
H  -0.62100 -8.94300 45.25400
H  0.70100 -9.90500 44.31400
H  6.21300 -6.51900 45.43000
H  5.63800 -5.80200 46.98000
H  7.06200 -5.11600 45.98800
H  7.01900 -1.27700 42.74600
H  7.37600 2.54700 45.26500
H  7.65200 2.87400 43.54200
H  8.93800 2.23500 44.44300
Mg 35.55400 2.73800 29.94600
C  32.93500 3.45700 32.17300
C  37.73200 2.89800 32.56700
C  37.97200 2.27800 27.69900
C  33.24000 3.13200 27.33300
N  35.33600 3.03800 32.14400
C  34.15900 3.28000 32.79700
C  34.39700 3.39700 34.32500
C  36.05100 3.60200 34.36100
C  36.44300 3.06200 32.95500
C  36.52800 5.05700 34.57400
C  33.97300 2.16000 35.13500
C  33.42900 2.27800 36.58400
H  33.98500 3.55100 37.24600
N  37.58200 2.56500 30.13500
C  38.32000 2.64800 31.28900
C  39.76800 2.53800 30.90800
C  39.82800 2.24100 29.49500
C  38.43400 2.31400 29.00500
C  40.87600 2.78400 31.95000
C  41.05300 2.04300 28.67700
O  41.00500 1.88300 27.45200
C  42.43000 1.60500 29.18100
N  35.54200 2.74700 27.81600
C  36.71100 2.44300 27.14500
C  36.44200 2.36500 25.64200
C  34.90800 2.57200 25.46000
C  34.51800 2.81600 26.93300
C  37.34600 3.29000 24.83500
C  34.09100 1.41400 24.81000
C  33.94800 0.04300 25.48900
N  33.52400 3.26400 29.76600
C  32.76200 3.40100 28.60000
C  31.39100 3.75400 28.99100
C  31.42000 3.67800 30.38300
C  32.75200 3.43000 30.77800
C  30.17200 3.88800 28.17100
C  30.65900 3.86800 31.56100
O  29.48300 4.24700 31.66800
C  31.57600 3.69500 32.83300
C  31.48400 4.93900 33.68800
O  31.72900 6.03500 33.27700
O  31.07300 4.70400 34.91400
C  30.94100 5.82400 35.84800
H  38.40700 3.06200 33.40900
H  38.77100 2.26200 26.95600
H  32.46800 3.16800 26.56200
H  33.90000 4.31500 34.64000
H  36.49500 2.98100 35.13900
H  35.66300 5.71700 34.63300
H  37.07700 5.41300 33.70200
H  37.16100 5.19700 35.45000
H  34.83900 1.54100 35.37000
H  33.32700 1.59200 34.46600
H  33.72500 1.40600 37.16600
H  32.34000 2.27100 36.52900
H  41.83300 2.91900 31.44600
H  40.95800 1.96100 32.66000
H  40.51800 3.67400 32.46800
H  42.90800 1.11000 28.33600
H  42.31500 0.95500 30.04800
H  43.06900 2.45500 29.42300
H  36.74000 1.33700 25.44000
H  34.64800 3.55200 25.05800
H  36.78400 4.01200 24.24200
H  38.04300 2.75100 24.19400
H  37.86200 4.09100 25.36500
H  34.47900 1.31400 23.79600
H  33.04400 1.68300 24.67600
H  32.90300 -0.18400 25.70000
H  34.58400 -0.05800 26.36800
H  34.36200 -0.77000 24.89200
H  29.22200 3.95600 28.70200
H  30.18600 3.02300 27.50800
H  30.28900 4.74400 27.50600
H  31.22200 2.76300 33.27300
H  30.51000 6.72100 35.40300
H  31.90700 6.12300 36.25600
H  30.30300 5.56000 36.69100

