158

Mg 42.09600 40.76200 25.77300
C  41.19400 43.13700 28.22400
C  43.03000 38.62200 28.21600
C  43.21400 38.75500 23.36800
C  41.29000 43.14200 23.31300
N  42.11700 40.90900 27.98800
C  41.56600 41.90700 28.83100
C  41.64300 41.50100 30.35600
C  42.41400 40.08600 30.26900
C  42.53100 39.86100 28.72600
C  43.78500 39.98000 30.97900
C  40.20900 41.47200 31.01400
C  40.16700 40.78500 32.32900
H  39.74300 41.60700 33.53100
N  42.90000 38.86300 25.80800
C  43.14500 38.12400 26.93200
C  43.67000 36.82000 26.53600
C  43.77900 36.84800 25.16700
C  43.35600 38.23500 24.71300
C  44.08600 35.72500 27.57100
C  44.19700 35.72400 24.14500
O  44.27600 35.91000 22.92400
C  44.50200 34.27400 24.60400
N  42.33900 41.03700 23.59800
C  42.69000 39.92700 22.82100
C  42.45700 40.20500 21.38700
C  41.60200 41.45300 21.46500
C  41.59300 41.87100 22.91100
C  43.74200 40.21000 20.54400
C  40.13600 41.39800 20.94600
C  39.00400 40.63000 21.70300
N  41.56800 42.75300 25.75200
C  41.28200 43.55500 24.65900
C  41.06100 44.92200 25.13000
C  40.94700 44.75200 26.52700
C  41.21100 43.37800 26.87200
C  40.66000 46.15600 24.31800
C  40.71000 45.56200 27.74600
O  40.55500 46.73500 27.93400
C  40.73800 44.48000 28.87900
C  41.71200 44.90200 29.85800
O  42.87700 45.07100 29.60100
O  41.01600 45.30500 31.02800
C  41.93800 45.81100 32.06300
H  43.24000 37.89200 29.00000
H  43.46700 38.19300 22.46700
H  40.86700 43.80700 22.55700
H  42.30200 42.27400 30.75100
H  41.78600 39.32300 30.72800
H  44.60100 39.52200 30.42000
H  43.62700 39.42300 31.90200
H  44.09500 40.94900 31.37000
H  39.49400 41.08600 30.28800
H  39.90000 42.49600 31.22600
H  41.13900 40.33000 32.52300
H  39.41600 39.99500 32.35000
H  43.49800 34.82900 27.37600
H  43.94300 36.01500 28.61200
H  45.15900 35.54900 27.49500
H  43.64000 33.93400 25.17900
H  45.35800 34.14600 25.26600
H  44.76000 33.75100 23.68400
H  41.88400 39.35200 21.02300
H  42.03500 42.23900 20.84700
H  43.81400 41.16700 20.02700
H  43.60000 39.49600 19.73200
H  44.63700 39.90300 21.08500
H  40.20900 40.97000 19.94600
H  39.82500 42.41900 20.72500
H  38.46200 39.93600 21.06000
H  38.36900 41.27900 22.30700
H  39.52400 40.02300 22.44400
H  39.65000 46.00200 23.93900
H  41.44500 46.36300 23.59000
H  40.68100 46.93700 25.07800
H  39.72500 44.36200 29.26600
H  42.42300 45.15800 32.78900
H  41.16800 46.32700 32.63600
H  42.59300 46.59800 31.69000
Mg -1.38800 34.62600 26.04400
C  -3.08700 32.84200 28.54800
C  -0.11000 36.79800 28.39400
C  -0.34000 36.74200 23.63100
C  -2.97100 32.59000 23.61700
N  -1.51500 34.69000 28.22200
C  -2.16800 33.77800 29.06300
C  -1.71300 34.07800 30.56300
C  -0.89600 35.44200 30.43500
C  -0.82300 35.68200 28.92900
C  -1.43200 36.57100 31.32000
C  -0.99000 32.91100 31.30400
C  -1.65000 32.48000 32.64500
H  -0.77000 32.60700 33.95900
N  -0.26100 36.52000 25.98500
C  0.06200 37.19100 27.09600
C  0.72200 38.45700 26.66000
C  0.63600 38.50100 25.26500
C  -0.01200 37.24200 24.88200
C  1.24300 39.55200 27.65600
C  1.33700 39.47200 24.32800
O  1.46100 39.23000 23.09900
C  1.94700 40.72400 24.87300
N  -1.56300 34.62400 23.93200
C  -1.03100 35.57200 23.18700
C  -1.18700 35.28400 21.66300
C  -1.87600 33.85600 21.64600
C  -2.14800 33.66700 23.16700
C  -2.00000 36.30200 20.85600
C  -0.94700 32.76300 21.11300
C  0.30800 32.44900 21.86200
N  -2.85000 33.17600 25.98600
C  -3.36400 32.38200 24.93000
C  -4.23500 31.43900 25.44700
C  -4.12600 31.51000 26.88700
C  -3.30000 32.61700 27.12600
C  -5.13500 30.49000 24.61300
C  -4.71200 31.01700 28.07600
O  -5.35600 30.00900 28.25700
C  -3.90700 31.75300 29.15700
C  -4.92000 32.16700 30.23400
O  -6.05500 32.68300 30.09300
O  -4.49200 31.66500 31.40500
C  -5.45400 31.61000 32.53700
H  0.28500 37.43900 29.18500
H  -0.10800 37.50100 22.88000
H  -3.35100 31.95900 22.81100
H  -2.54000 34.33500 31.22400
H  0.07700 35.09100 30.77800
H  -2.23400 36.19600 31.95700
H  -1.80500 37.38900 30.70500
H  -0.65800 37.04100 31.92700
H  0.02000 33.26000 31.52100
H  -1.00400 32.08700 30.59000
H  -2.20000 31.53900 32.63700
H  -2.39900 33.21200 32.94700
H  2.30800 39.52700 27.42700
H  1.10800 39.24600 28.69400
H  0.65900 40.44400 27.42900
H  2.77200 40.44800 25.53100
H  1.07600 41.22900 25.29000
H  2.32400 41.22400 23.98100
H  -0.20600 35.28600 21.18800
H  -2.75800 33.89700 21.00600
H  -3.03800 36.07400 20.61300
H  -1.55700 36.47000 19.87400
H  -2.00800 37.21700 21.44800
H  -0.58000 33.03600 20.12300
H  -1.52500 31.84600 21.00000
H  0.43600 33.04800 22.76400
H  1.19100 32.74700 21.29700
H  0.34000 31.38400 22.09400
H  -5.29600 30.93900 23.63300
H  -6.08700 30.37300 25.13000
H  -4.76100 29.46900 24.54100
H  -3.18200 31.03200 29.53600
H  -4.91300 31.95200 33.41900
H  -5.90300 30.64300 32.76200
H  -6.16400 32.42200 32.38400

