158

Mg 2.37100 -1.55600 44.97200
C  5.80600 -1.15000 44.06200
C  1.65500 1.07600 42.82800
C  -0.78900 -2.48900 44.93400
C  3.25800 -4.69900 46.35200
N  3.59000 -0.18000 43.71900
C  5.00600 -0.19600 43.49300
C  5.34300 0.80900 42.43900
C  4.06100 1.71400 42.37000
C  3.03000 0.81400 43.03100
C  4.18400 3.10200 43.08900
C  5.82100 0.12000 41.11200
C  5.02000 -0.18000 39.83000
H  5.17100 0.79500 38.61900
N  0.60900 -0.70000 44.16600
C  0.53100 0.38000 43.34400
C  -0.87700 0.64100 43.06000
C  -1.72000 -0.34500 43.73200
C  -0.64500 -1.24600 44.30500
C  -1.32100 1.83700 42.26000
C  -3.27700 -0.35500 43.69600
O  -3.98100 0.56600 43.21500
C  -3.90100 -1.56400 44.23300
N  1.34900 -3.33300 45.41600
C  0.04000 -3.44800 45.43600
C  -0.58000 -4.76500 45.97000
C  0.77100 -5.45800 46.49800
C  1.86700 -4.48000 46.07200
C  -1.51300 -4.55600 47.13400
C  1.04200 -6.87700 45.92600
C  0.72800 -7.96500 46.92800
N  4.15800 -2.69200 45.30800
C  4.32300 -3.88800 45.95400
C  5.79900 -4.22300 46.01000
C  6.37000 -3.08100 45.33200
C  5.32000 -2.21400 44.94100
C  6.46000 -5.47600 46.55500
C  7.62000 -2.56400 44.90200
O  8.75800 -2.93300 45.11800
C  7.34100 -1.23200 44.12200
C  8.07300 -0.13000 44.87200
O  7.89800 0.21200 45.98700
O  8.78000 0.63500 43.93000
C  9.46600 1.79600 44.56600
H  1.45600 2.06600 42.41400
H  -1.73800 -3.00600 44.78300
H  3.46600 -5.66200 46.82300
H  6.12400 1.37700 42.94500
H  3.79100 1.85400 41.32300
H  5.20400 3.44500 43.26400
H  3.57800 3.19700 43.99000
H  3.66000 3.66200 42.31600
H  6.13600 -0.89900 41.33500
H  6.63900 0.75400 40.76900
H  3.98400 -0.18700 40.16900
H  5.21100 -1.21400 39.53900
H  -1.68700 1.70500 41.24200
H  -0.48900 2.54200 42.25200
H  -2.03200 2.35500 42.90300
H  -3.49400 -2.40900 43.67800
H  -4.98200 -1.41900 44.22300
H  -3.65300 -1.67700 45.28900
H  -1.08900 -5.40500 45.24900
H  0.76800 -5.45200 47.58800
H  -0.98800 -4.34400 48.06500
H  -2.12000 -5.44800 47.29200
H  -2.18800 -3.71700 46.96800
H  2.06100 -6.87100 45.54000
H  0.28500 -6.98200 45.14900
H  0.40800 -7.54000 47.88000
H  1.58100 -8.62600 47.07800
H  -0.05400 -8.60000 46.51300
H  7.21600 -5.83600 45.85800
H  5.67100 -6.21600 46.69200
H  6.92300 -5.33000 47.53000
H  7.86000 -1.35000 43.17100
H  8.87400 2.44600 45.21100
H  9.93500 2.36000 43.75900
H  10.19600 1.51500 45.32500
Mg 46.32000 24.83500 28.23500
C  47.32400 26.91300 30.95900
C  45.57900 22.42900 30.55800
C  46.36100 22.65900 25.76500
C  47.38200 27.43400 26.10800
N  46.32400 24.77400 30.47900
C  46.71300 25.74100 31.34600
C  46.25800 25.35600 32.81600
C  45.88500 23.83900 32.68000
C  45.92300 23.65200 31.14200
C  46.88000 22.81300 33.32700
C  45.22700 26.32900 33.48600
C  45.54800 27.01100 34.80500
H  44.49800 27.08700 35.92900
N  45.94100 22.87700 28.20700
C  45.57800 22.03600 29.22300
C  45.18300 20.77900 28.67600
C  45.45600 20.76700 27.26600
C  46.00200 22.16800 27.00500
C  44.53600 19.66200 29.44400
C  45.11600 19.69000 26.19500
O  45.32200 19.85300 25.02400
C  44.59400 18.41000 26.58600
N  46.77600 25.02500 26.23700
C  46.72600 23.97200 25.37300
C  47.23900 24.36200 23.95800
C  47.21300 25.92500 24.05300
C  47.14600 26.16900 25.53500
C  48.57300 23.81400 23.39400
C  46.06600 26.61100 23.24000
C  46.46700 27.59800 22.18600
N  47.17300 26.74400 28.37100
C  47.53300 27.74600 27.46800
C  48.17800 28.85200 28.06100
C  47.97300 28.57800 29.47300
C  47.47200 27.24700 29.60700
C  48.91600 29.91200 27.38400
C  48.26800 29.14600 30.77300
O  48.86600 30.18600 30.99400
C  47.73900 28.10800 31.90700
C  48.95100 27.77100 32.75200
O  50.12900 27.63700 32.37000
O  48.59400 27.64800 34.08900
C  49.52500 27.29200 35.12500
H  45.29100 21.66700 31.28600
H  46.34900 21.90500 24.97500
H  47.65200 28.14200 25.32200
H  47.12000 25.36900 33.48200
H  44.85300 23.67300 32.99000
H  47.02000 23.18800 34.34100
H  47.82200 22.87700 32.78300
H  46.56700 21.77600 33.45000
H  44.31600 25.73900 33.58900
H  45.06500 27.12900 32.76400
H  45.77600 28.07000 34.68200
H  46.38400 26.48200 35.26300
H  45.04900 18.70900 29.31600
H  43.48100 19.52500 29.20600
H  44.51600 19.93000 30.50000
H  45.26000 17.88200 27.26800
H  44.31500 17.75600 25.76000
H  43.69800 18.71300 27.12800
H  46.57500 24.07600 23.14300
H  48.09800 26.47100 23.72600
H  48.42200 23.49800 22.36200
H  49.01000 23.03300 24.01500
H  49.34200 24.58600 23.36800
H  45.29900 27.04600 23.88100
H  45.55700 25.85600 22.64200
H  47.51000 27.53300 21.87700
H  46.26100 28.57200 22.63200
H  45.84900 27.46500 21.29800
H  49.11200 29.72000 26.32900
H  49.92800 30.02500 27.77200
H  48.39300 30.86100 27.50400
H  46.90600 28.49800 32.49200
H  49.62500 28.16300 35.77200
H  50.51000 27.12500 34.68900
H  49.17900 26.44100 35.71100

