158

Mg 47.95300 24.99000 29.76100
C  48.53200 27.47000 32.26000
C  47.04100 22.73900 32.24900
C  47.72600 22.52000 27.50900
C  49.36300 27.19700 27.38100
N  47.67100 25.17200 31.95500
C  47.86100 26.25900 32.75100
C  47.38200 25.99100 34.09800
C  47.00100 24.41200 34.18200
C  47.29500 24.08200 32.72400
C  47.80200 23.59500 35.16500
C  46.33500 26.98700 34.66400
C  46.29200 27.51800 36.10600
H  47.01100 26.97100 37.34300
N  47.37600 22.91500 29.87100
C  47.02400 22.22700 30.94800
C  46.79400 20.82500 30.60600
C  46.93700 20.73400 29.23700
C  47.41200 22.06400 28.80800
C  46.39600 19.71800 31.59400
C  46.73400 19.55700 28.30300
O  46.77200 19.63900 27.08000
C  46.25400 18.30500 28.86000
N  48.61900 24.86200 27.72400
C  48.21700 23.79800 27.00000
C  48.47500 24.08000 25.45800
C  48.91400 25.60200 25.45700
C  49.01000 25.91000 26.87600
C  49.55600 23.23800 24.88100
C  47.88900 26.60800 24.77900
C  46.46300 26.75500 25.36400
N  48.81700 26.94800 29.72500
C  49.43800 27.69400 28.73200
C  49.85300 28.94800 29.25900
C  49.39400 28.90600 30.58400
C  48.87300 27.64200 30.86200
C  50.57800 30.00800 28.50700
C  49.47700 29.71300 31.82700
O  49.89100 30.79100 32.06500
C  48.88000 28.78500 32.99600
C  49.98500 28.55100 33.99200
O  50.87800 27.69900 33.88800
O  49.89900 29.41200 35.03200
C  51.01000 29.29400 36.04700
H  46.69600 22.00500 32.98000
H  47.67300 21.65100 26.85000
H  49.65500 27.95900 26.65600
H  48.31300 26.16400 34.63800
H  45.92900 24.30800 34.35000
H  48.56300 23.05700 34.59900
H  47.11700 22.93800 35.70100
H  48.38900 24.16800 35.88200
H  45.32700 26.58900 34.54300
H  46.30300 27.80400 33.94200
H  45.26200 27.44200 36.45500
H  46.60200 28.55900 36.02000
H  47.23200 19.04200 31.41400
H  45.48300 19.21200 31.28300
H  46.33600 19.99500 32.64700
H  47.02600 17.80800 29.44800
H  46.02500 17.62100 28.04400
H  45.28700 18.49900 29.32400
H  47.52500 23.98400 24.93400
H  49.90400 25.68600 25.00800
H  50.44300 23.79800 24.58500
H  49.22900 22.73400 23.97200
H  49.94700 22.52600 25.60800
H  47.80100 26.31400 23.73300
H  48.31600 27.60500 24.67000
H  46.44400 26.52200 26.42900
H  45.78000 26.03200 24.91600
H  46.07200 27.75600 25.18600
H  50.96600 29.54700 27.59800
H  51.45000 30.42100 29.01400
H  49.93700 30.83300 28.19600
H  47.97800 29.28700 33.34500
H  50.76600 28.47100 36.71900
H  50.89900 30.24300 36.57100
H  52.05500 29.16000 35.76700
Mg 30.21400 58.95200 39.60500
C  27.76200 56.53000 39.16700
C  32.54200 56.61800 38.64500
C  32.53900 61.39300 39.59000
C  27.71800 61.27400 40.24300
N  30.09200 56.80100 39.01000
C  28.98500 56.00600 38.86500
C  29.29600 54.71700 38.34200
C  30.90400 54.66300 38.39300
C  31.19300 56.11700 38.74000
C  31.51000 53.71100 39.37300
C  28.75500 54.78500 36.86500
C  27.93500 53.54800 36.55100
H  27.41500 53.48100 35.09800
N  32.30400 58.95200 39.27100
C  33.07300 57.91400 38.89500
C  34.45000 58.27100 38.64800
C  34.46300 59.70700 38.76300
C  33.11700 60.06800 39.29500
C  35.51500 57.20900 38.29400
C  35.63700 60.50300 38.41800
O  36.68000 59.98800 37.91900
C  35.63300 61.97300 38.69400
N  30.14800 60.94700 39.88300
C  31.25600 61.73800 39.90200
C  30.88900 63.22900 40.10900
C  29.39300 63.17600 40.38800
C  29.05800 61.68500 40.07600
C  31.58200 63.96700 41.26400
C  28.58300 64.26000 39.51700
C  27.94900 65.37000 40.34100
N  28.11400 58.98600 39.79500
C  27.26600 59.96900 40.08800
C  25.94100 59.44300 40.29700
C  26.08300 58.09300 39.85400
C  27.41800 57.87500 39.55300
C  24.74000 60.26200 40.61900
C  25.34200 56.88200 39.49700
O  24.19300 56.60400 39.51300
C  26.43700 55.82300 39.14100
C  26.51000 54.84500 40.25700
O  26.81100 55.13500 41.38800
O  25.99500 53.66600 39.82400
C  26.07100 52.63700 40.87200
H  33.15300 55.89200 38.10400
H  33.36500 62.10400 39.65200
H  26.97000 62.04400 40.44100
H  28.88400 53.90100 38.93600
H  31.37600 54.48900 37.42600
H  30.79900 52.88400 39.36500
H  31.69600 54.15100 40.35200
H  32.45900 53.45600 38.90200
H  29.59500 54.67000 36.17900
H  28.15200 55.65200 36.59600
H  27.00300 53.41300 37.09900
H  28.52900 52.64600 36.70000
H  35.27600 56.23200 38.71300
H  36.54700 57.38500 38.59900
H  35.39400 57.04100 37.22400
H  34.83000 62.43600 38.12100
H  36.56600 62.47500 38.43600
H  35.50400 62.22500 39.74700
H  31.12700 63.67500 39.14300
H  29.16200 63.25500 41.45000
H  31.78700 63.29300 42.09600
H  31.09900 64.88100 41.60900
H  32.58800 64.31000 41.02100
H  27.84700 63.72300 38.91800
H  29.20600 64.80100 38.80400
H  28.12300 65.19300 41.40200
H  26.87900 65.39900 40.13400
H  28.29900 66.31100 39.91400
H  24.68200 61.09600 39.91900
H  24.70400 60.71700 41.60900
H  23.91400 59.57300 40.44800
H  26.17600 55.41100 38.16600
H  25.16200 52.80200 41.45000
H  26.97400 52.71500 41.47800
H  26.05700 51.61900 40.48300

