158

Mg 2.81400 -0.35500 43.74900
C  6.27100 -0.17400 43.13000
C  2.43400 2.71200 42.09700
C  -0.45000 -1.08200 43.32600
C  3.31100 -3.58800 44.83900
N  4.23000 0.98700 42.73300
C  5.54900 0.90100 42.66000
C  6.13300 2.27000 42.13100
C  4.93900 3.18700 42.07000
C  3.76800 2.17400 42.23700
C  4.86100 4.26800 43.20300
C  6.85000 2.07700 40.74000
C  6.03800 1.32500 39.63800
H  5.97000 1.99700 38.26400
N  1.17100 0.83400 42.96300
C  1.21700 2.05800 42.39400
C  -0.17800 2.42700 42.05300
C  -0.99100 1.26500 42.35100
C  -0.07200 0.24100 42.87600
C  -0.59300 3.73900 41.42600
C  -2.44700 1.13100 42.00600
O  -2.99300 2.19000 41.72800
C  -3.26300 -0.15000 42.11200
N  1.66500 -2.02400 43.93200
C  0.32800 -2.13600 43.85000
C  -0.25500 -3.53400 44.09400
C  0.99100 -4.29800 44.61900
C  2.07100 -3.22800 44.45500
C  -1.53500 -3.51500 44.99100
C  1.33100 -5.74900 44.11800
C  1.46100 -6.88300 45.24100
N  4.43000 -1.64000 44.08500
C  4.44200 -2.86900 44.62700
C  5.84500 -3.31700 44.80700
C  6.62000 -2.29200 44.28600
C  5.71700 -1.28800 43.82700
C  6.35100 -4.60900 45.23100
C  7.99800 -1.76700 43.92100
O  9.09200 -2.24900 44.19200
C  7.82800 -0.44300 43.10800
C  8.66500 0.73900 43.69000
O  9.77800 1.07200 43.26800
O  8.05900 1.26200 44.70100
C  8.74800 2.34800 45.41800
H  2.15300 3.68200 41.68100
H  -1.49400 -1.36800 43.18200
H  3.48700 -4.53500 45.35300
H  6.88200 2.56800 42.86500
H  4.84500 3.59900 41.06500
H  4.49100 3.92500 44.16900
H  4.44900 5.14300 42.70100
H  5.89800 4.53400 43.40900
H  7.81700 1.63000 40.97200
H  7.06300 3.06700 40.33600
H  5.00900 1.16500 39.95800
H  6.40000 0.31600 39.44100
H  -0.66100 3.65700 40.34100
H  0.09900 4.53900 41.68900
H  -1.49900 4.05200 41.94500
H  -3.32000 -0.34700 43.18200
H  -2.67200 -0.86800 41.54300
H  -4.27600 -0.12500 41.70900
H  -0.58300 -3.98700 43.15800
H  1.11400 -4.28300 45.70200
H  -1.58600 -2.65100 45.65400
H  -1.51600 -4.41200 45.61000
H  -2.43600 -3.51000 44.37600
H  2.28300 -5.70000 43.59000
H  0.59800 -6.02900 43.36100
H  0.49800 -7.38700 45.32700
H  1.57000 -6.30200 46.15700
H  2.29800 -7.55900 45.07200
H  5.70600 -5.12700 45.94000
H  7.36300 -4.55200 45.63100
H  6.39200 -5.30100 44.39000
H  8.20000 -0.42200 42.08300
H  8.89900 3.18800 44.74000
H  9.76500 2.11100 45.73100
H  8.04100 2.80100 46.11300
Mg 1.49800 7.84100 25.82800
C  2.17200 9.96800 28.51300
C  2.03100 5.21700 27.96200
C  1.04600 5.71700 23.24600
C  1.20000 10.57500 23.66400
N  1.92700 7.63700 27.98200
C  2.11100 8.64200 28.92100
C  2.25900 8.07000 30.38800
C  2.40400 6.54500 30.17000
C  2.15100 6.43600 28.61400
C  3.79800 5.86400 30.55100
C  0.99900 8.47200 31.23400
C  1.16900 9.28000 32.53200
H  2.34100 8.80800 33.41300
N  1.46100 5.70700 25.62000
C  1.79300 4.83100 26.59700
C  1.76100 3.45900 26.09300
C  1.30500 3.52000 24.75600
C  1.21600 5.01300 24.48000
C  2.12000 2.28400 27.02600
C  0.97700 2.47300 23.69400
O  0.51700 2.70400 22.61200
C  1.18100 0.94500 24.13600
N  1.42200 8.16300 23.70900
C  1.03700 7.10600 22.91900
C  0.65400 7.47600 21.46500
C  0.70100 9.05100 21.58600
C  1.05600 9.31800 23.09400
C  1.52200 6.79900 20.33300
C  -0.59500 9.76200 21.19600
C  -0.58400 10.58800 19.90800
N  1.67600 9.85300 25.98200
C  1.50700 10.86900 25.04700
C  1.65400 12.14300 25.73900
C  2.03200 11.84200 27.10200
C  1.97800 10.43800 27.19900
C  1.40900 13.54800 25.18600
C  2.39000 12.47200 28.31300
O  2.67900 13.64400 28.52300
C  2.31700 11.24700 29.34700
C  3.56600 11.27800 30.14000
O  4.65200 10.88300 29.77400
O  3.32400 11.95500 31.29100
C  4.50900 12.31100 32.06000
H  2.20200 4.45000 28.72000
H  0.89200 4.98900 22.44700
H  1.02600 11.39700 22.96700
H  3.18900 8.46100 30.79800
H  1.66500 5.95000 30.70500
H  4.25400 5.97200 31.53500
H  4.57500 6.18000 29.85500
H  3.66600 4.78200 30.51900
H  0.47700 7.56900 31.55400
H  0.36400 9.01500 30.53400
H  0.25100 9.22300 33.11700
H  1.29700 10.35200 32.38400
H  1.36800 1.50000 26.93400
H  2.33200 2.39900 28.08900
H  3.04500 1.81000 26.69700
H  0.94300 0.24400 23.33700
H  0.56400 0.74000 25.01100
H  2.17100 0.74200 24.54500
H  -0.38900 7.19300 21.32600
H  1.48200 9.45100 20.93900
H  2.53300 6.56600 20.66600
H  1.55700 7.53900 19.53300
H  1.04500 5.92300 19.89100
H  -0.82800 10.53700 21.92700
H  -1.42400 9.05600 21.23700
H  -0.02500 10.09700 19.11200
H  -0.19200 11.58200 20.12100
H  -1.64800 10.60400 19.67300
H  2.39700 13.97100 25.00200
H  0.97000 14.06500 26.03900
H  0.78000 13.45900 24.30000
H  1.45500 11.47300 29.97400
H  5.02600 11.40400 32.37100
H  4.21800 12.77500 33.00200
H  5.05100 13.04000 31.45700

