158

Mg 25.50500 1.17900 28.99400
C  27.41100 0.80500 32.04700
C  22.66100 1.51800 31.09400
C  23.56300 1.13500 26.37400
C  28.30300 0.31300 27.22800
N  25.16300 1.19900 31.31100
C  26.08000 1.12000 32.30800
C  25.43300 1.35500 33.67100
C  23.95700 1.38300 33.26700
C  23.90100 1.32300 31.80400
C  22.89500 0.31400 33.85900
C  25.99800 2.55500 34.41400
C  26.73900 2.31800 35.78400
H  26.43900 3.22300 36.96500
N  23.40600 1.29400 28.75500
C  22.44400 1.50500 29.70600
C  21.17500 1.75000 29.01300
C  21.48200 1.81100 27.59900
C  22.83900 1.38700 27.49900
C  19.90100 1.90500 29.74600
C  20.56800 2.18100 26.40100
O  20.91600 2.07100 25.27400
C  19.24600 2.70200 26.69100
N  25.87900 0.57500 27.08700
C  24.92900 0.85500 26.13500
C  25.51700 0.80500 24.69600
C  27.04400 0.42000 25.02600
C  27.08700 0.47100 26.53100
C  24.90100 -0.23600 23.74300
C  28.09100 1.37700 24.39700
C  28.77100 0.85300 23.11100
N  27.48200 0.63400 29.49200
C  28.52000 0.36200 28.60900
C  29.71500 0.19200 29.35900
C  29.37600 0.39400 30.76900
C  27.93900 0.56300 30.73700
C  31.11900 0.02600 28.75000
C  29.85000 0.48000 32.18300
O  30.99300 0.29100 32.62400
C  28.59300 0.83700 33.06700
C  28.48400 -0.28500 34.07700
O  28.10700 -1.37800 33.76200
O  28.94200 0.18300 35.31500
C  28.84300 -0.74000 36.46200
H  21.77300 1.59100 31.72600
H  23.03200 0.96300 25.43600
H  29.24000 0.00700 26.75700
H  25.63500 0.43100 34.21200
H  23.50900 2.35700 33.46500
H  23.22000 0.15700 34.88800
H  22.87300 -0.58400 33.24100
H  21.92200 0.79200 33.97400
H  25.13600 3.14600 34.72100
H  26.44900 3.26100 33.71700
H  27.75100 2.64400 35.54400
H  26.63300 1.25000 35.97800
H  19.80000 1.16400 30.54000
H  18.97500 1.59700 29.26100
H  19.71300 2.85900 30.23800
H  18.78800 3.14000 25.80500
H  19.38400 3.41100 27.50700
H  18.58400 1.93200 27.08800
H  25.49400 1.78600 24.22000
H  27.49800 -0.53100 24.74800
H  25.67300 -0.96500 23.49500
H  24.62300 0.36600 22.87800
H  24.04100 -0.67700 24.24600
H  28.89400 1.68700 25.06600
H  27.68900 2.36300 24.16300
H  28.53200 -0.16900 22.81800
H  29.85900 0.84000 23.17100
H  28.45500 1.47500 22.27300
H  31.25000 0.49300 27.77400
H  31.22900 -1.05300 28.64100
H  31.80700 0.32700 29.54100
H  28.79800 1.76900 33.59500
H  29.12300 -1.73000 36.10100
H  27.87500 -0.82000 36.95600
H  29.45500 -0.46500 37.32000
Mg 48.33300 34.64900 27.17900
C  46.33200 33.33800 29.63700
C  48.90800 37.47600 29.06400
C  50.08400 35.91100 24.52600
C  47.32600 31.89200 25.04200
N  47.82700 35.22800 29.11900
C  47.05700 34.47900 30.07100
C  47.06900 35.13000 31.43700
C  47.38900 36.63000 31.00100
C  48.14300 36.51400 29.66700
C  46.25800 37.65400 30.97000
C  48.07600 34.53100 32.40600
C  47.67500 34.53600 33.91600
H  46.68200 35.62000 34.51700
N  49.50300 36.38700 26.90900
C  49.61500 37.38800 27.85800
C  50.60500 38.37900 27.34000
C  50.97000 37.94500 25.99800
C  50.18200 36.71300 25.72300
C  51.05100 39.50700 28.10900
C  51.87700 38.61500 24.95800
O  52.06200 38.13800 23.85200
C  52.70300 39.80600 25.34600
N  48.53800 34.08300 24.97700
C  49.35900 34.74400 24.12000
C  49.43000 34.03600 22.79300
C  48.62000 32.75700 23.02500
C  48.04200 32.93100 24.44400
C  49.09800 34.89200 21.60900
C  49.39300 31.41200 22.84800
C  49.39100 30.96100 21.41900
N  47.08900 32.98000 27.21800
C  46.85500 31.95700 26.38400
C  46.02400 31.02700 27.03600
C  45.63700 31.59700 28.23900
C  46.42300 32.71100 28.34800
C  45.37700 29.81900 26.39900
C  44.84800 31.41800 29.43300
O  43.91000 30.62100 29.60200
C  45.18700 32.62400 30.37200
C  45.52500 32.10700 31.66600
O  46.22100 31.09700 31.75200
O  44.70700 32.63300 32.63900
C  44.46400 31.85000 33.82700
H  48.94700 38.43100 29.59300
H  50.72100 36.24600 23.70500
H  47.07200 30.92300 24.60800
H  46.12100 35.27900 31.95300
H  48.20100 37.12400 31.53300
H  46.07900 38.06900 29.97800
H  46.60700 38.51900 31.53300
H  45.28100 37.32600 31.32400
H  49.06600 34.91000 32.14800
H  48.02700 33.47800 32.12800
H  48.55300 34.60000 34.55800
H  47.31400 33.57600 34.28500
H  50.35000 39.81700 28.88400
H  51.28500 40.40500 27.53600
H  51.95600 39.15500 28.60500
H  53.25000 39.58000 26.26100
H  52.14100 40.70200 25.61000
H  53.35800 39.96800 24.49000
H  50.49500 33.83000 22.68800
H  47.79700 32.83700 22.31600
H  48.52000 35.75200 21.95000
H  48.62500 34.28900 20.83400
H  50.05000 35.22200 21.19300
H  48.95900 30.63800 23.47900
H  50.41900 31.56500 23.18100
H  49.12800 31.78100 20.75100
H  48.73800 30.09500 21.30400
H  50.40800 30.59700 21.27300
H  46.06700 29.09400 25.96800
H  44.80800 30.06800 25.50400
H  44.64800 29.34300 27.05500
H  44.40000 33.37700 30.34100
H  43.85100 32.55400 34.38900
H  45.32000 31.52800 34.42000
H  43.81400 31.01400 33.56800

