158

Mg 46.57500 15.56900 28.14100
C  44.56200 15.66900 31.04600
C  48.81000 17.67800 29.90300
C  48.47500 15.89400 25.43900
C  44.08300 14.03000 26.41100
N  46.60600 16.68000 30.20000
C  45.68500 16.46700 31.26100
C  46.22100 17.03500 32.63200
C  47.47100 17.85000 32.08000
C  47.66400 17.30100 30.62500
C  47.42800 19.34500 32.31600
C  46.52700 15.97900 33.73800
C  45.74500 16.24800 35.01000
H  45.85300 17.58400 35.68400
N  48.49200 16.46600 27.77300
C  49.24800 17.28900 28.56600
C  50.44800 17.70800 27.92400
C  50.42400 17.08300 26.65100
C  49.08700 16.43000 26.57300
C  51.62500 18.34500 28.64300
C  51.56300 17.00400 25.60900
O  51.50600 16.24700 24.64500
C  52.76200 17.76900 25.80500
N  46.30300 15.06400 26.30000
C  47.23100 15.23300 25.31600
C  46.78800 14.62400 23.96600
C  45.41700 13.98000 24.32900
C  45.21000 14.47700 25.79500
C  46.81500 15.63200 22.79000
C  45.39200 12.40000 24.00500
C  46.02600 11.44500 25.00100
N  44.71500 14.88300 28.57800
C  43.77000 14.28300 27.76600
C  42.56200 14.07100 28.50100
C  42.87400 14.53300 29.85800
C  44.15100 15.04800 29.83300
C  41.33700 13.43900 27.77600
C  42.33300 14.73500 31.22100
O  41.22100 14.31300 31.73900
C  43.47400 15.40400 32.03500
C  42.90400 16.62400 32.75200
O  43.00100 17.79800 32.42500
O  42.29600 16.23900 33.92300
C  41.62900 17.36300 34.61700
H  49.54700 18.32800 30.37800
H  49.03800 16.04400 24.51500
H  43.28300 13.65400 25.77000
H  45.48500 17.77500 32.94600
H  48.36900 17.55200 32.62200
H  46.70500 19.62600 33.08200
H  47.25000 19.85900 31.37100
H  48.39400 19.71000 32.66300
H  47.57800 16.12400 33.98700
H  46.30600 14.94300 33.47900
H  46.10000 15.46800 35.68400
H  44.72500 16.02600 34.69500
H  52.40800 17.59100 28.56400
H  51.48800 18.55900 29.70300
H  51.91000 19.24900 28.10400
H  52.27900 18.66500 26.19400
H  53.28000 18.11700 24.91100
H  53.27200 17.07900 26.47600
H  47.42600 13.78000 23.70400
H  44.61500 14.47500 23.78100
H  47.40800 16.51000 23.04700
H  45.89100 15.98200 22.33100
H  47.49300 15.19100 22.06000
H  45.87200 12.21400 23.04400
H  44.32400 12.22500 23.87100
H  46.31900 11.95200 25.92100
H  46.85500 10.92400 24.52200
H  45.28600 10.67500 25.21600
H  41.73100 12.59000 27.21800
H  40.83300 14.19200 27.17000
H  40.60700 13.00000 28.45600
H  43.76500 14.70400 32.81800
H  42.31400 18.04600 35.11900
H  40.97300 16.95200 35.38400
H  41.01300 17.79000 33.82600
Mg 27.00600 50.43900 25.71800
C  25.13000 51.76600 28.33400
C  29.35100 49.51400 28.15400
C  29.17200 49.73400 23.25200
C  24.89000 51.97500 23.40400
N  27.25200 50.67300 27.99300
C  26.33100 51.20300 28.83400
C  26.60200 50.87300 30.36000
C  28.15000 50.50700 30.30400
C  28.27100 50.20100 28.74600
C  29.16000 51.49700 30.87300
C  25.68700 49.74700 30.83500
C  24.62500 50.17800 31.90900
H  24.68300 49.52300 33.30700
N  28.87400 49.59000 25.76300
C  29.67700 49.26500 26.84400
C  30.93600 48.72800 26.37200
C  30.88700 48.82500 24.93900
C  29.58400 49.35400 24.60300
C  32.01100 48.18000 27.26000
C  31.96100 48.51800 23.96700
O  31.85100 48.55600 22.73800
C  33.29300 48.17700 24.36900
N  27.06500 50.81700 23.56900
C  28.04800 50.43800 22.77600
C  27.69500 50.57900 21.31400
C  26.27200 51.29000 21.34200
C  26.08800 51.46400 22.87400
C  28.85400 51.33700 20.58900
C  25.10100 50.45800 20.60900
C  24.58000 49.07000 21.15700
N  25.33600 51.58800 25.76600
C  24.51400 52.06600 24.71900
C  23.35300 52.72200 25.30800
C  23.65000 52.66200 26.68400
C  24.83800 51.97700 26.98400
C  22.26800 53.31000 24.55300
C  23.06000 53.04200 27.96100
O  21.96800 53.56200 28.20600
C  23.98900 52.42100 29.17200
C  24.40600 53.58600 30.11700
O  25.37900 54.28700 29.96100
O  23.49300 53.73600 31.14000
C  23.84900 54.68800 32.17500
H  30.02600 48.93400 28.78600
H  29.78500 49.50200 22.37900
H  24.21500 52.31600 22.61600
H  26.45500 51.84500 30.83200
H  28.23500 49.53300 30.78500
H  28.59600 52.29500 31.35600
H  29.74200 51.84100 30.01800
H  29.68700 51.00500 31.69000
H  26.29900 48.98400 31.31600
H  25.08700 49.27900 30.05500
H  23.62100 49.99200 31.52800
H  24.83500 51.23600 32.06900
H  32.81700 48.86600 27.00000
H  32.30700 47.15700 27.02600
H  31.90100 48.15600 28.34400
H  34.00500 47.92100 23.58500
H  33.30500 47.35000 25.07900
H  33.65700 49.13300 24.74800
H  27.52800 49.55900 20.96800
H  26.39700 52.25300 20.84700
H  29.66900 51.62400 21.25400
H  28.44300 52.21200 20.08600
H  29.31000 50.63600 19.89100
H  25.54500 50.26300 19.63300
H  24.33500 51.21000 20.41700
H  24.81500 49.05200 22.22100
H  24.94000 48.21700 20.58100
H  23.49800 49.13200 21.04100
H  21.34200 52.86000 24.91100
H  22.34700 53.25200 23.46700
H  22.23000 54.37500 24.78100
H  23.36700 51.69700 29.69800
H  22.98600 54.93800 32.79200
H  24.27100 55.63900 31.85000
H  24.60300 54.14800 32.74800

