158

Mg 9.36300 3.30000 27.70200
C  10.38000 1.67100 30.50100
C  7.73500 5.59600 29.78000
C  8.45100 5.01700 24.89400
C  10.71100 0.70600 25.67300
N  9.00200 3.54600 29.88000
C  9.74400 2.89200 30.75800
C  9.56700 3.48000 32.23500
C  8.43600 4.59400 31.95400
C  8.28600 4.54900 30.42000
C  7.14100 4.22700 32.72000
C  10.84500 4.04100 32.91800
C  10.68500 4.19200 34.44200
H  11.41500 3.19200 35.37500
N  8.19600 5.08200 27.37000
C  7.65900 5.92500 28.36400
C  6.95400 7.02000 27.67000
C  7.08900 6.89400 26.27300
C  7.98300 5.65400 26.12400
C  6.16500 8.08200 28.43100
C  6.55800 7.73100 25.14800
O  6.81700 7.54600 23.94500
C  5.75300 8.92000 25.44400
N  9.43200 2.79400 25.59100
C  9.13200 3.75700 24.69200
C  9.43500 3.24800 23.27000
C  10.27900 1.99600 23.51100
C  10.14100 1.77500 25.01300
C  8.25700 3.05600 22.27700
C  11.75500 2.20900 23.09300
C  11.97000 2.37300 21.61400
N  10.20800 1.37300 28.02600
C  10.86200 0.57700 27.10300
C  11.51500 -0.46900 27.90100
C  11.43900 -0.08300 29.23400
C  10.56500 1.05500 29.24100
C  12.22000 -1.65400 27.22800
C  11.88000 -0.36200 30.61600
O  12.53600 -1.31700 31.05200
C  11.26300 0.77400 31.45600
C  10.50300 0.14700 32.55600
O  9.50300 -0.50800 32.30700
O  11.06100 0.46300 33.78700
C  10.43000 -0.13400 34.99000
H  7.27700 6.37700 30.39200
H  8.22700 5.38000 23.88900
H  11.22800 -0.08500 25.12500
H  9.16700 2.63400 32.79300
H  8.83900 5.56700 32.23800
H  6.38400 3.83900 32.03800
H  6.75900 5.10300 33.24500
H  7.25000 3.50700 33.53100
H  11.03100 5.02200 32.48000
H  11.65100 3.38900 32.58100
H  9.62900 4.05700 34.67800
H  10.97100 5.20800 34.71400
H  6.68200 8.99600 28.72400
H  5.83700 7.58800 29.34600
H  5.30400 8.30100 27.79900
H  4.71300 8.61200 25.55400
H  5.62100 9.52800 24.54900
H  6.04600 9.61100 26.23500
H  10.08700 4.04000 22.89900
H  9.93600 1.06300 23.06600
H  7.32900 3.39800 22.73600
H  8.22100 2.01500 21.95500
H  8.61200 3.73100 21.49900
H  12.24400 1.28300 23.39500
H  12.11200 3.00700 23.74300
H  12.11100 3.39200 21.25200
H  11.04200 1.97300 21.20600
H  12.78900 1.79900 21.18100
H  11.52700 -2.43000 26.90500
H  12.83100 -2.17300 27.96700
H  12.74000 -1.42600 26.29800
H  12.10500 1.41300 31.72100
H  9.39500 -0.35700 34.73400
H  10.46800 0.43500 35.91900
H  10.92700 -1.06800 35.25100
Mg -8.45400 40.63300 42.45100
C  -7.56400 37.31100 41.48400
C  -5.61700 41.77600 40.68200
C  -9.74500 43.71500 42.50600
C  -11.64300 39.20300 43.27400
N  -6.80500 39.58300 41.23200
C  -6.68300 38.26700 40.91900
C  -5.40700 37.99400 40.03500
C  -4.71100 39.45600 39.95600
C  -5.78100 40.37700 40.64800
C  -3.30400 39.54700 40.51900
C  -5.76000 37.32000 38.66000
C  -5.16500 35.94700 38.42200
H  -3.98900 35.93500 37.34700
N  -7.69800 42.52000 41.93200
C  -6.51200 42.77800 41.20400
C  -6.29300 44.22500 41.14000
C  -7.54500 44.78700 41.65200
C  -8.40000 43.63800 42.09400
C  -5.20600 44.98000 40.47400
C  -7.75000 46.30900 41.72100
O  -6.94200 47.11400 41.27900
C  -8.95000 46.87500 42.34900
N  -10.37900 41.32800 43.08200
C  -10.63900 42.69300 42.92200
C  -12.18900 42.98700 43.04900
C  -12.76200 41.51000 43.31300
C  -11.52000 40.60000 43.16500
C  -12.55200 44.04600 44.18400
C  -13.90200 41.14900 42.34800
C  -15.13900 40.52500 42.93100
N  -9.35800 38.61900 42.54500
C  -10.62800 38.24100 42.91500
C  -10.69400 36.81800 43.06800
C  -9.44400 36.36000 42.51400
C  -8.74600 37.50100 42.18800
C  -11.86600 36.02700 43.62000
C  -8.56100 35.21800 42.25700
O  -8.77900 34.02100 42.43500
C  -7.30500 35.78400 41.58700
C  -6.10500 35.52000 42.36300
O  -5.71900 36.17100 43.36200
O  -5.39800 34.43900 41.80100
C  -4.27500 33.96200 42.52000
H  -4.80400 42.16400 40.06400
H  -10.38200 44.56100 42.23800
H  -12.64000 38.86900 43.56900
H  -4.76600 37.32300 40.60600
H  -4.69100 39.70900 38.89600
H  -3.17800 38.70800 41.20300
H  -3.11100 40.53500 40.93900
H  -2.55800 39.44100 39.73100
H  -5.48900 37.95700 37.81900
H  -6.83800 37.17300 38.59300
H  -5.91300 35.23200 38.07900
H  -4.86300 35.51100 39.37400
H  -4.65600 45.52600 41.24000
H  -5.60600 45.59000 39.66300
H  -4.42800 44.30300 40.12000
H  -8.92100 47.90400 42.70500
H  -9.05700 46.36800 43.30800
H  -9.77700 46.76200 41.64700
H  -12.69800 43.30900 42.14000
H  -13.12100 41.50900 44.34200
H  -11.56500 44.39900 44.48400
H  -13.18200 43.71900 45.01100
H  -12.97900 44.96300 43.77600
H  -13.30400 40.63100 41.59900
H  -14.30500 42.05100 41.88800
H  -15.51600 40.96300 43.85500
H  -15.03200 39.45300 43.09900
H  -16.01800 40.57600 42.28900
H  -12.18700 36.20200 44.64600
H  -11.53800 34.98800 43.65600
H  -12.71700 36.08400 42.94100
H  -7.22000 35.44200 40.55500
H  -4.31800 32.87300 42.55300
H  -4.35200 34.26300 43.56500
H  -3.37600 34.19000 41.94800

