158

Mg 53.06100 24.67800 45.43400
C  50.47400 26.71000 44.36500
C  51.45500 22.01300 43.83900
C  55.80200 22.76100 45.80400
C  54.81300 27.43600 46.52800
N  51.31100 24.39500 44.21900
C  50.41000 25.36700 43.91500
C  49.37600 24.94900 42.90200
C  49.41800 23.35600 43.12300
C  50.83300 23.22900 43.78900
C  48.33100 22.94300 44.07100
C  49.79200 25.48100 41.51900
C  48.68900 25.96400 40.57000
H  48.33300 24.98500 39.45200
N  53.59500 22.65800 44.95800
C  52.75800 21.73100 44.34400
C  53.42100 20.45800 44.28500
C  54.66000 20.63400 44.90300
C  54.74300 22.01700 45.31300
C  52.82300 19.17000 43.79300
C  55.69100 19.53200 45.08000
O  55.50700 18.37100 44.68300
C  57.03000 19.75200 45.79200
N  55.12300 25.01200 45.91500
C  56.01500 24.07000 46.09900
C  57.35400 24.75100 46.60200
C  57.04100 26.28600 46.65900
C  55.56300 26.20800 46.39100
C  57.95200 24.22700 47.92700
C  57.79600 26.97400 45.52700
C  59.28100 27.28700 45.73200
N  52.72600 26.70300 45.65300
C  53.43900 27.70900 46.13300
C  52.63200 28.91200 46.16200
C  51.42100 28.50300 45.60100
C  51.60000 27.22400 45.10900
C  53.04500 30.18700 46.78800
C  50.02100 28.92800 45.28300
O  49.35500 29.88200 45.74300
C  49.34900 27.72800 44.34400
C  49.04800 28.21200 43.02100
O  49.78000 28.74900 42.20000
O  47.65500 28.23800 42.91600
C  47.11500 29.04000 41.79100
H  50.83200 21.17800 43.51300
H  56.70000 22.15400 45.93600
H  55.36500 28.30200 46.90200
H  48.48000 25.48800 43.21000
H  49.43200 22.90500 42.13100
H  48.79600 22.94900 45.05600
H  47.98100 21.96500 43.74000
H  47.43600 23.56500 44.08600
H  50.24700 24.60900 41.04900
H  50.53600 26.26900 41.63400
H  48.87600 26.91200 40.06600
H  47.74100 26.01400 41.10600
H  51.74600 19.25900 43.65400
H  52.94300 18.30500 44.44600
H  53.51200 18.87100 43.00200
H  57.78700 20.25500 45.19200
H  57.50700 18.79200 45.99200
H  56.77000 20.32700 46.68100
H  58.09300 24.54400 45.82900
H  57.14000 26.65000 47.68200
H  57.91400 24.91000 48.77500
H  58.95100 23.82100 47.76500
H  57.36300 23.44400 48.40500
H  57.34800 27.93900 45.28900
H  57.48500 26.41800 44.64300
H  59.62200 27.20200 46.76400
H  59.44300 28.26600 45.28100
H  59.86800 26.64100 45.07900
H  53.42200 30.17600 47.81100
H  52.28700 30.95900 46.91800
H  53.87300 30.62400 46.23000
H  48.47300 27.36100 44.87800
H  47.72500 29.66500 41.13900
H  46.20100 29.58100 42.03700
H  46.76600 28.28800 41.08400
Mg 7.23800 54.11600 40.64400
C  6.67900 50.55400 40.52400
C  10.42100 53.55700 39.72500
C  7.34900 57.20400 39.79000
C  3.55300 54.49800 41.28900
N  8.39100 52.28200 40.31000
C  8.00900 50.96200 40.33900
C  9.20300 49.99400 40.02900
C  10.40800 51.01700 40.04200
C  9.72100 52.37700 40.07100
C  11.44000 50.87200 41.20600
C  9.20100 49.11200 38.76700
C  9.02500 49.92900 37.51100
H  7.65000 50.01900 36.76200
N  8.68800 55.20300 39.86600
C  9.92200 54.80300 39.61600
C  10.67100 55.95400 39.11400
C  9.88100 57.09700 39.13500
C  8.56100 56.51900 39.61500
C  12.08700 55.83600 38.69900
C  10.17800 58.63000 38.82300
O  11.23900 58.89800 38.34700
C  9.16900 59.76100 38.81800
N  5.57300 55.66200 40.46500
C  6.03000 56.85700 40.25300
C  4.90500 57.93600 40.52500
C  3.62600 57.04300 40.84700
C  4.32100 55.63900 40.95400
C  5.34000 58.97300 41.57300
C  2.52100 57.03100 39.75300
C  2.04400 58.34200 39.23700
N  5.49100 52.90500 40.93700
C  4.08000 53.20400 41.19900
C  3.43800 51.91400 41.55300
C  4.39600 50.97400 41.17000
C  5.63200 51.55600 40.88700
C  2.04000 51.64700 41.86300
C  4.56200 49.55900 41.08000
O  3.75100 48.70000 41.28400
C  6.04400 49.17000 40.68500
C  6.00300 48.27800 39.41600
O  5.54300 48.63000 38.33600
O  6.50400 47.03300 39.69800
C  6.44600 46.02200 38.66600
H  11.45300 53.43300 39.39100
H  7.31600 58.29500 39.75700
H  2.49500 54.58300 41.54500
H  9.26000 49.31400 40.87900
H  10.90700 50.83500 39.09000
H  11.63700 51.82800 41.69200
H  12.32100 50.44700 40.72500
H  10.96800 50.26900 41.98200
H  8.42600 48.34900 38.83500
H  10.12300 48.53000 38.75900
H  9.82500 49.59500 36.85000
H  9.13100 50.99700 37.69900
H  12.35800 54.93700 38.14600
H  12.70200 55.87000 39.59900
H  12.38900 56.61700 38.00200
H  8.43700 59.44200 38.07700
H  9.42100 60.76100 38.46500
H  8.65100 60.00500 39.74600
H  4.76800 58.37500 39.53700
H  3.33500 57.33000 41.85700
H  5.68400 59.88000 41.07500
H  6.17100 58.61000 42.17600
H  4.50900 59.21800 42.23400
H  1.65400 56.42400 40.01100
H  3.13000 56.47400 39.04100
H  2.55300 59.20600 39.66600
H  0.96400 58.48800 39.27200
H  2.26500 58.32700 38.17000
H  1.56400 51.39700 40.91500
H  1.49500 52.47900 42.31000
H  1.95000 50.74100 42.46200
H  6.53700 48.66500 41.51500
H  6.94500 45.14600 39.07900
H  7.00300 46.25500 37.75900
H  5.39200 45.83300 38.46300

