158

Mg 54.88000 23.09100 44.62000
C  52.73300 25.66900 43.75700
C  52.70800 20.86900 43.55000
C  57.19700 20.65400 45.23200
C  57.24200 25.49300 45.57000
N  53.03400 23.33300 43.52100
C  52.30100 24.47200 43.32900
C  51.03900 24.12100 42.52400
C  50.89800 22.60700 42.94700
C  52.30800 22.21400 43.33700
C  49.88300 22.15700 44.01200
C  51.32000 24.31400 41.04300
C  50.38400 25.32400 40.23000
H  50.97300 26.02500 38.94900
N  54.95100 21.11100 44.25000
C  53.88300 20.31800 43.96700
C  54.24500 18.90200 43.96100
C  55.58100 18.84900 44.52000
C  55.96800 20.26300 44.69900
C  53.37600 17.80300 43.41700
C  56.33700 17.59500 44.77500
O  55.73100 16.54200 44.55100
C  57.71100 17.50100 45.18000
N  57.04900 23.09700 44.98400
C  57.75100 21.96200 45.36400
C  59.20900 22.30300 45.86100
C  59.20400 23.87700 45.82700
C  57.78600 24.20800 45.44100
C  59.66800 21.63600 47.25900
C  60.25200 24.47000 44.88200
C  61.24400 25.48900 45.53100
N  55.07100 25.12600 44.64500
C  55.99800 25.95200 45.21300
C  55.44100 27.26700 45.52800
C  54.14000 27.20400 44.96500
C  53.96500 25.87400 44.45000
C  56.18500 28.50300 46.11000
C  52.94800 27.94700 44.69200
O  52.64700 29.09700 44.89100
C  51.99800 27.01300 43.83200
C  51.63700 27.69300 42.57000
O  52.27200 27.51000 41.52600
O  50.54800 28.43100 42.79600
C  50.09200 29.26800 41.73100
H  51.87900 20.16800 43.42700
H  57.98200 20.05100 45.69400
H  57.96500 26.20300 45.97700
H  50.26800 24.78100 42.92200
H  50.66900 22.01100 42.06300
H  49.27400 21.33200 43.64200
H  49.30400 23.01100 44.36400
H  50.43000 22.03000 44.94600
H  51.22700 23.34900 40.54500
H  52.38100 24.50900 40.89100
H  50.01400 26.10000 40.90000
H  49.50000 24.76700 39.91800
H  53.87900 17.17200 42.68400
H  52.50500 18.24700 42.93500
H  52.95200 17.28500 44.27700
H  57.73800 17.91100 46.18900
H  58.23200 18.12200 44.45100
H  57.99300 16.45700 45.04100
H  59.92600 21.96800 45.11100
H  59.50400 24.07200 46.85600
H  60.30900 20.75400 47.26800
H  58.71900 21.30600 47.68400
H  60.11900 22.45000 47.82600
H  59.78200 24.94800 44.02300
H  60.86400 23.68200 44.44300
H  60.79300 26.38300 45.96100
H  62.01200 25.73100 44.79600
H  61.79200 24.95900 46.31000
H  55.44200 29.23500 46.42600
H  56.92500 28.78700 45.36100
H  56.78400 28.32100 47.00200
H  51.06600 26.83500 44.36800
H  50.12200 28.70600 40.79800
H  50.67300 30.18700 41.80400
H  49.04800 29.55500 41.86000
Mg -0.04300 43.76600 26.06700
C  2.09500 43.15500 28.79800
C  -2.65500 42.75700 28.09900
C  -2.07800 43.98600 23.39600
C  2.83800 44.02300 24.05100
N  -0.23900 42.95000 28.17200
C  0.76200 42.92100 29.10400
C  0.19000 42.72800 30.54700
C  -1.31000 42.27700 30.19100
C  -1.40700 42.60800 28.71500
C  -1.63500 40.75600 30.58500
C  0.28700 44.05900 31.33600
C  0.49100 43.98900 32.88200
H  0.39100 42.62300 33.64100
N  -2.12500 43.57800 25.82600
C  -3.05100 43.20100 26.79000
C  -4.41800 43.32800 26.28800
C  -4.22100 43.62400 24.90900
C  -2.72700 43.69900 24.63500
C  -5.67700 43.20800 27.07900
C  -5.31300 43.88100 23.87700
O  -4.97200 44.03700 22.68700
C  -6.79500 43.92200 24.23000
N  0.29400 43.89800 23.99600
C  -0.70500 44.08400 23.11800
C  -0.10200 44.37600 21.71300
C  1.41400 44.56000 22.00700
C  1.55900 44.13600 23.43500
C  -0.49700 43.26000 20.68000
C  1.98200 45.99400 21.82500
C  1.83100 46.99000 22.97300
N  2.07700 43.55800 26.34800
C  3.08900 43.76400 25.40700
C  4.40300 43.75200 26.09100
C  4.08700 43.53400 27.44200
C  2.65200 43.36900 27.52000
C  5.77300 44.00700 25.49100
C  4.60000 43.44300 28.77500
O  5.80300 43.49700 29.14700
C  3.31500 43.24800 29.73800
C  3.63200 42.01900 30.44500
O  3.54500 40.91400 29.99600
O  3.76800 42.22800 31.79600
C  4.12300 41.07300 32.60300
H  -3.46000 42.54600 28.80500
H  -2.83700 44.13100 22.62400
H  3.67700 44.07400 23.35500
H  0.67700 41.84100 30.95300
H  -2.07300 42.96600 30.55500
H  -1.21300 40.16100 29.77500
H  -2.71000 40.66700 30.42900
H  -1.33900 40.37300 31.56200
H  -0.64400 44.58000 31.11200
H  1.05100 44.62400 30.80300
H  -0.26200 44.68200 33.25700
H  1.40000 44.52000 33.16600
H  -5.48300 42.65700 28.00000
H  -6.48200 42.67000 26.57900
H  -6.08600 44.15800 27.42200
H  -7.18400 44.23000 23.26000
H  -7.03300 44.62600 25.02800
H  -7.08100 42.90800 24.50800
H  -0.47600 45.36200 21.43600
H  1.95300 43.85100 21.38000
H  0.38600 43.04700 20.07800
H  -1.20700 43.71800 19.99200
H  -0.83800 42.33600 21.14600
H  1.40300 46.51300 21.06000
H  3.04400 45.98000 21.58100
H  1.64600 46.63900 23.98900
H  1.11100 47.79100 22.80400
H  2.78900 47.46000 23.19900
H  5.85900 45.01900 25.09500
H  6.01500 43.30000 24.69700
H  6.56300 44.05200 26.24100
H  3.22000 43.94900 30.56800
H  5.19400 41.12300 32.79700
H  3.87700 40.14700 32.08300
H  3.54400 41.10400 33.52600

