158

Mg 47.55800 16.39800 28.62100
C  45.68500 16.26100 31.52100
C  49.87800 18.40600 30.28500
C  49.06600 17.14600 25.62500
C  44.76700 15.23900 26.82800
N  47.67100 17.48100 30.60800
C  46.83700 17.10900 31.67300
C  47.45700 17.55900 33.02000
C  48.72500 18.45700 32.57700
C  48.77500 18.17500 31.05400
C  48.60900 19.99600 32.92500
C  47.82900 16.32600 33.97500
C  47.12800 16.28500 35.33400
H  47.20300 17.62800 36.11000
N  49.31000 17.49200 28.03400
C  50.18700 18.12400 28.88200
C  51.33300 18.70600 28.14000
C  51.14700 18.26300 26.79000
C  49.81500 17.61600 26.76500
C  52.49800 19.37700 28.76600
C  52.06700 18.32000 25.61600
O  51.84300 17.98700 24.45300
C  53.44100 18.65100 25.80000
N  47.12600 16.00600 26.48100
C  47.79100 16.56400 25.48300
C  47.07400 16.40200 24.21200
C  45.88200 15.47100 24.51700
C  45.88700 15.58300 26.04300
C  46.57200 17.64400 23.37600
C  46.02000 13.97900 24.00500
C  44.96700 13.60600 22.90200
N  45.74600 15.68200 29.08100
C  44.65300 15.22600 28.21200
C  43.53600 14.85200 29.00700
C  43.95200 15.10200 30.34800
C  45.22500 15.76400 30.30400
C  42.30600 14.16100 28.58300
C  43.51500 15.09200 31.68200
O  42.41200 14.77300 32.12800
C  44.67700 15.73900 32.53100
C  43.93800 16.89000 33.20800
O  43.95500 18.05000 32.72000
O  43.30200 16.43200 34.40200
C  42.22700 17.34600 34.76600
H  50.65300 18.98800 30.78800
H  49.53800 17.28100 24.64900
H  43.84900 14.99900 26.28800
H  46.65000 18.15800 33.44300
H  49.64600 18.10300 33.04100
H  48.44800 20.46000 31.95200
H  49.48200 20.39200 33.44400
H  47.71100 20.27500 33.47600
H  48.91200 16.36300 34.09200
H  47.60500 15.39600 33.45300
H  47.62500 15.53700 35.95200
H  46.09300 15.95300 35.25200
H  53.19500 18.54300 28.85700
H  52.22000 19.80200 29.73100
H  52.91400 20.19400 28.17800
H  54.08900 18.45200 24.94600
H  53.73100 18.01000 26.63200
H  53.49700 19.72900 25.95200
H  47.79500 15.96900 23.51900
H  44.88700 15.78700 24.20300
H  45.48300 17.68600 23.36000
H  46.92600 17.56600 22.34800
H  46.93700 18.57800 23.80200
H  45.83500 13.30700 24.84300
H  47.03700 13.83200 23.64000
H  45.13200 12.62700 22.45400
H  44.95000 14.36800 22.12200
H  43.99900 13.54300 23.39900
H  41.47800 14.41400 29.24600
H  42.36600 13.08000 28.46200
H  42.07500 14.47100 27.56400
H  45.10700 14.99000 33.19600
H  41.38900 17.11200 34.10800
H  42.41600 18.41400 34.87300
H  41.76300 17.12900 35.72800
Mg 1.19900 42.42300 25.70800
C  1.91200 42.74100 29.15600
C  -1.99300 41.26100 26.59100
C  0.66900 41.84500 22.49300
C  4.39500 43.77400 24.97900
N  -0.01000 42.15100 27.69600
C  0.57100 42.26200 28.99400
C  -0.49500 41.92900 30.05200
C  -1.65200 41.26100 29.15700
C  -1.22300 41.55900 27.74300
C  -1.92600 39.80300 29.50000
C  -1.02900 43.24600 30.76100
C  -1.09800 43.11900 32.32500
H  -1.42600 41.80800 33.06700
N  -0.43000 41.73100 24.69300
C  -1.68300 41.27400 25.17000
C  -2.49100 40.86800 24.07900
C  -1.74200 41.10300 22.88700
C  -0.51900 41.61000 23.28600
C  -3.94900 40.58800 24.19000
C  -2.21500 40.78700 21.47700
O  -1.56700 41.10100 20.53000
C  -3.39100 39.92500 21.20800
N  2.42100 42.83400 24.00600
C  1.93900 42.37500 22.83100
C  2.98100 42.61600 21.75500
C  3.98300 43.67500 22.38300
C  3.62700 43.43700 23.90000
C  3.75700 41.40700 21.34300
C  3.69700 45.15700 21.96700
C  4.16700 45.59800 20.59700
N  2.85700 42.94400 26.78700
C  4.13300 43.44200 26.36100
C  4.96500 43.66200 27.51700
C  4.11600 43.46200 28.61400
C  2.85600 42.96100 28.13200
C  6.42200 44.25200 27.44600
C  3.96900 43.58100 30.03400
O  4.64800 44.07900 30.89100
C  2.64100 42.87800 30.42200
C  2.82600 41.58100 30.97900
O  3.38800 40.63900 30.44000
O  2.13600 41.46800 32.12600
C  2.39100 40.24000 32.86800
H  -2.92900 40.76900 26.86300
H  0.60400 41.79400 21.40400
H  5.26900 44.40700 24.81500
H  -0.01000 41.32200 30.81600
H  -2.57400 41.77400 29.43000
H  -1.76500 39.14700 28.64400
H  -2.92300 39.58500 29.88100
H  -1.21200 39.45100 30.24500
H  -2.08500 43.41200 30.54500
H  -0.50300 44.14300 30.43400
H  -1.78600 43.83700 32.77200
H  -0.08000 43.38300 32.61000
H  -4.34600 40.75700 25.19100
H  -4.13800 39.55900 23.88500
H  -4.44300 41.27300 23.50100
H  -3.31600 39.55500 20.18600
H  -4.28300 40.50100 21.45300
H  -3.37400 39.05600 21.86600
H  2.44100 42.97800 20.88000
H  5.04100 43.43700 22.27600
H  3.73500 40.73500 22.20200
H  4.73400 41.63100 20.91600
H  3.21900 40.98500 20.49400
H  4.28500 45.82700 22.59300
H  2.63100 45.37500 22.04100
H  3.26600 45.66500 19.98700
H  4.93200 45.01000 20.09000
H  4.56400 46.60400 20.73600
H  7.11000 43.61400 27.99900
H  6.43800 45.29400 27.76600
H  6.77200 44.11800 26.42300
H  2.12200 43.55400 31.10100
H  1.69000 39.43400 32.65100
H  2.28500 40.45300 33.93200
H  3.42500 39.89900 32.82300

