158

Mg 42.71000 40.76100 26.47500
C  41.43100 43.00500 28.99400
C  43.76200 38.69400 28.90000
C  43.76500 38.75600 24.04000
C  41.88700 43.10100 24.07500
N  42.58600 40.85300 28.74000
C  41.95200 41.74800 29.55500
C  42.07800 41.43400 30.99900
C  42.92400 40.09500 30.88800
C  43.15400 39.85400 29.45400
C  44.13400 39.98700 31.79300
C  40.70600 41.23800 31.68800
C  40.64700 40.73600 33.18500
H  40.39300 41.72500 34.30900
N  43.49200 38.96000 26.47800
C  43.87300 38.24700 27.59000
C  44.34700 36.98600 27.22200
C  44.24700 36.95600 25.77600
C  43.88200 38.31300 25.34700
C  44.91500 35.90100 28.20600
C  44.51000 35.88000 24.70400
O  44.34900 35.94000 23.47000
C  45.00200 34.59600 25.34000
N  42.81300 40.92900 24.35800
C  43.32000 39.98800 23.57800
C  43.30600 40.38400 22.05900
C  42.74600 41.80500 22.06300
C  42.42400 42.00900 23.55200
C  44.65600 40.21400 21.25300
C  41.50600 41.92200 21.14300
C  40.23100 41.31200 21.70200
N  41.98000 42.67600 26.52600
C  41.63900 43.45600 25.47000
C  41.07400 44.73300 25.88500
C  40.96600 44.51700 27.28100
C  41.56200 43.28100 27.61200
C  40.93800 45.96000 25.02600
C  40.44300 45.21100 28.50900
O  40.02700 46.36800 28.68600
C  40.72800 44.13300 29.65900
C  41.63100 44.71700 30.66900
O  42.79600 45.04600 30.41800
O  40.96600 44.90800 31.86100
C  41.77000 45.56800 32.87000
H  44.02900 38.04400 29.73600
H  44.05600 38.18700 23.15500
H  41.61600 43.85800 23.33600
H  42.68000 42.20300 31.48400
H  42.34300 39.23500 31.22000
H  44.36100 40.84500 32.42700
H  44.98000 39.86100 31.11700
H  44.07100 39.12800 32.46100
H  39.96500 40.77500 31.03600
H  40.31700 42.25400 31.75800
H  41.61000 40.24600 33.32800
H  39.91700 39.93200 33.27700
H  44.41000 34.94200 28.09200
H  44.69800 36.17300 29.23900
H  45.98300 35.81400 28.00300
H  44.26400 34.19200 26.03400
H  45.90800 34.77200 25.91900
H  45.12100 33.88600 24.52100
H  42.53800 39.79900 21.55300
H  43.47900 42.53600 21.72300
H  45.41800 39.82500 21.92900
H  45.10300 41.06400 20.73800
H  44.38400 39.50400 20.47300
H  41.53600 41.42800 20.17100
H  41.44200 42.99300 20.95300
H  39.61600 41.01200 20.85400
H  39.68800 42.05300 22.29000
H  40.43300 40.49500 22.39500
H  39.89100 46.22200 24.87600
H  41.28000 45.77800 24.00700
H  41.49400 46.80500 25.43200
H  39.83100 43.69400 30.09500
H  42.72700 45.08100 33.05500
H  41.26200 45.51300 33.83300
H  41.87500 46.62300 32.62000
Mg -12.32600 39.04600 42.25300
C  -10.54600 36.20600 41.34800
C  -9.90800 40.96600 40.83200
C  -14.36200 41.73900 42.84100
C  -15.02100 36.88400 43.10600
N  -10.56900 38.58600 40.92400
C  -10.00600 37.34600 40.81200
C  -8.71100 37.48400 39.96000
C  -8.28900 38.99700 40.15600
C  -9.63400 39.58400 40.59500
C  -7.18000 39.16000 41.23100
C  -8.96700 37.09000 38.38900
C  -7.92900 36.09700 37.78900
H  -6.72000 36.66800 37.14400
N  -12.11700 41.13000 41.97600
C  -11.02000 41.67900 41.43700
C  -11.07400 43.07700 41.67400
C  -12.39700 43.38400 42.08900
C  -13.05200 42.08900 42.31500
C  -9.88600 43.96300 41.31300
C  -12.93900 44.78700 42.25700
O  -12.26300 45.73700 41.86700
C  -14.38400 45.06200 42.83800
N  -14.37000 39.26400 43.02000
C  -14.99900 40.48000 43.02300
C  -16.47100 40.33900 43.51100
C  -16.60700 38.77700 43.78800
C  -15.29500 38.28400 43.23600
C  -16.77600 41.18500 44.76000
C  -17.88200 38.06100 43.19700
C  -18.44000 36.85000 43.95200
N  -12.70100 36.96300 42.34800
C  -13.87800 36.24300 42.67900
C  -13.61300 34.84500 42.53500
C  -12.28600 34.77000 42.16900
C  -11.78700 36.07000 42.01500
C  -14.66100 33.80400 42.76300
C  -11.22500 33.88200 41.79800
O  -11.13700 32.64700 41.85500
C  -10.01200 34.76800 41.22000
C  -8.73100 34.44500 42.07300
O  -8.48000 34.89900 43.21800
O  -7.91100 33.62400 41.40400
C  -6.84200 33.12500 42.18700
H  -8.99400 41.41000 40.43200
H  -15.03100 42.58100 43.02500
H  -15.86500 36.19700 43.20200
H  -7.96700 36.81500 40.39300
H  -8.00700 39.39700 39.18200
H  -7.42300 40.03700 41.83100
H  -6.16200 39.16100 40.84200
H  -7.33100 38.31400 41.90100
H  -8.97800 37.95000 37.71900
H  -9.95200 36.63100 38.29600
H  -8.42000 35.54100 36.99000
H  -7.55400 35.52200 38.63500
H  -10.14900 44.28100 40.30400
H  -8.96000 43.40500 41.17600
H  -9.74700 44.80900 41.98600
H  -14.98800 44.56600 42.07900
H  -14.58400 46.13300 42.86800
H  -14.47400 44.55700 43.80000
H  -17.05300 40.66800 42.65000
H  -16.47900 38.35600 44.78600
H  -16.81500 42.23100 44.45400
H  -15.98400 41.11400 45.50400
H  -17.67200 40.75400 45.20600
H  -17.52800 37.76800 42.20900
H  -18.77600 38.63400 42.95100
H  -19.47400 36.71200 43.63500
H  -18.49000 36.99700 45.03100
H  -17.99700 35.90000 43.65400
H  -14.41900 32.81100 42.38300
H  -15.50500 34.24800 42.23500
H  -14.76300 33.67700 43.84100
H  -9.95900 34.63200 40.13900
H  -7.25100 32.78900 43.14000
H  -5.98300 33.77100 42.37300
H  -6.55000 32.17000 41.75200

