158

Mg 47.99800 14.62700 28.42400
C  45.89100 14.71700 31.10700
C  50.20000 16.59700 30.29200
C  50.09200 14.89300 25.73900
C  45.54400 13.27600 26.41200
N  48.06300 15.41100 30.55600
C  47.07400 15.34800 31.47000
C  47.48600 15.91600 32.82900
C  48.74600 16.74700 32.44700
C  49.08600 16.21100 31.01200
C  48.50300 18.28400 32.47400
C  47.88400 14.64600 33.72800
C  46.89300 14.51200 35.00000
H  47.60700 14.78800 36.33400
N  49.96100 15.47000 28.15300
C  50.66200 16.24800 29.00000
C  52.03000 16.52300 28.39600
C  52.07900 15.81800 27.12700
C  50.68700 15.32600 26.95100
C  53.08000 17.29800 29.13000
C  53.16900 15.70500 26.00000
O  52.98900 15.25400 24.82500
C  54.48800 16.32200 26.27000
N  47.83400 14.25100 26.37400
C  48.83900 14.42900 25.48700
C  48.33100 14.14000 24.05900
C  46.95100 13.36000 24.27000
C  46.74000 13.62100 25.76000
C  48.43900 15.40300 23.07800
C  46.86700 11.83000 23.93500
C  47.52900 10.87500 25.02900
N  46.09000 14.07800 28.60200
C  45.20700 13.46800 27.75400
C  44.00500 13.22800 28.42600
C  44.22000 13.70400 29.77100
C  45.53400 14.20600 29.82100
C  42.71800 12.69800 27.93400
C  43.53200 13.87500 31.06000
O  42.35800 13.74500 31.46100
C  44.55200 14.62300 31.86900
C  44.05000 15.97000 32.26900
O  43.88200 16.95100 31.50700
O  43.58200 15.97200 33.54800
C  42.93900 17.18700 34.08300
H  50.96900 17.12400 30.86100
H  50.69400 14.89000 24.82800
H  44.75200 12.86300 25.78300
H  46.60500 16.38200 33.27100
H  49.54900 16.65900 33.17900
H  47.45400 18.46400 32.23900
H  49.12200 18.81900 31.75400
H  48.63600 18.44700 33.54400
H  48.90100 14.81500 34.08200
H  47.91800 13.73900 33.12400
H  46.47700 13.50800 34.91000
H  46.04300 15.17300 34.83500
H  53.63100 16.62800 29.78900
H  52.48400 18.01900 29.69000
H  53.69800 17.80600 28.39000
H  54.86000 15.99600 27.24200
H  54.22900 17.37600 26.17300
H  55.24100 16.10900 25.51200
H  48.98400 13.36900 23.65000
H  46.13500 13.79700 23.69300
H  47.96300 16.28000 23.51400
H  48.03100 15.22600 22.08300
H  49.51800 15.53600 22.99900
H  47.32800 11.60700 22.97300
H  45.83000 11.49300 23.95700
H  46.89500 10.83200 25.91500
H  48.54700 11.21200 25.22300
H  47.52400 9.85000 24.65900
H  42.36300 13.17800 27.02100
H  41.97600 13.04400 28.65300
H  42.65800 11.61600 27.81700
H  44.67200 14.06200 32.79600
H  42.97500 18.03900 33.40300
H  43.39200 17.46100 35.03600
H  42.01800 16.74900 34.46800
Mg 16.43700 51.46100 25.15200
C  18.08100 50.54500 28.03400
C  13.76600 52.49000 27.06500
C  14.63400 51.75300 22.35300
C  19.04900 49.76900 23.32500
N  16.01300 51.50300 27.35400
C  16.87200 51.14200 28.33900
C  16.26000 51.61200 29.72000
C  14.77700 52.02200 29.36300
C  14.81000 51.98800 27.83700
C  13.61600 51.29100 30.11200
C  17.30200 52.61700 30.40900
C  17.80300 52.33500 31.84600
H  16.94300 51.60300 32.81200
N  14.50400 52.14600 24.80200
C  13.58200 52.53600 25.69800
C  12.32700 53.01700 25.06600
C  12.55700 52.71000 23.66100
C  13.94200 52.12200 23.52000
C  11.06200 53.63000 25.63500
C  11.65300 52.92500 22.48000
O  11.96400 52.71100 21.31800
C  10.22700 53.41600 22.63000
N  16.82000 50.92600 23.10100
C  15.91300 51.17200 22.11600
C  16.44700 50.78700 20.62000
C  17.92800 50.39000 21.02900
C  17.91000 50.31900 22.57300
C  15.62700 49.66600 19.92200
C  19.08500 51.21400 20.45700
C  19.35000 52.65700 20.97100
N  18.27400 50.41700 25.49500
C  19.22300 49.77800 24.69300
C  20.19400 49.18300 25.57300
C  19.85400 49.54700 26.86100
C  18.64400 50.23600 26.77800
C  21.28800 48.23000 25.08100
C  20.18100 49.37700 28.25900
O  21.11100 48.80400 28.77800
C  19.05400 50.01900 29.03300
C  18.48500 48.86700 29.89300
O  17.67700 48.03600 29.49200
O  19.13600 48.86900 31.10300
C  18.64800 47.85500 32.00800
H  12.90500 52.73700 27.68900
H  14.15100 51.83300 21.37600
H  19.97700 49.32100 22.96200
H  16.20300 50.71700 30.33900
H  14.52800 53.07300 29.51100
H  13.98600 50.77300 30.99700
H  12.99200 50.61000 29.53500
H  12.94600 52.04900 30.51900
H  16.74700 53.55100 30.31200
H  18.14400 52.83500 29.75200
H  18.18300 53.20400 32.38300
H  18.71000 51.75200 31.69100
H  11.26600 53.79300 26.69300
H  10.19900 52.97900 25.50000
H  10.79100 54.65800 25.39400
H  10.40400 54.45000 22.92700
H  9.73100 52.68000 23.26300
H  9.73100 53.32700 21.66400
H  16.37300 51.60900 19.90800
H  18.17100 49.36600 20.74600
H  15.11000 50.17000 19.10500
H  14.82600 49.31200 20.57100
H  16.25400 48.80300 19.69300
H  18.89900 51.19500 19.38300
H  19.88900 50.52000 20.70000
H  20.28500 52.64000 21.53200
H  18.44400 52.98700 21.48000
H  19.44000 53.35100 20.13500
H  21.12700 47.79300 24.09500
H  21.26900 47.41500 25.80300
H  22.20100 48.81900 25.16500
H  19.47600 50.74300 29.73000
H  17.64000 47.45400 31.90500
H  18.63700 48.32100 32.99400
H  19.36300 47.03200 32.03400

