158

Mg 16.53600 -2.69000 28.20200
C  15.47300 -0.45500 30.77700
C  18.18000 -4.56900 30.46200
C  18.21300 -4.25400 25.62200
C  15.02700 -0.50500 25.87300
N  16.79100 -2.41400 30.34400
C  16.17600 -1.56800 31.24400
C  16.41000 -1.99900 32.68700
C  17.39100 -3.19200 32.52500
C  17.45700 -3.47300 30.98700
C  18.80000 -3.07100 33.09700
C  15.12900 -2.26900 33.51000
C  14.97800 -1.89300 34.98600
H  16.19600 -1.30700 35.63300
N  17.97700 -4.24400 28.06100
C  18.47900 -4.92800 29.11300
C  19.25300 -6.08000 28.60700
C  19.42300 -5.91100 27.17400
C  18.54000 -4.75500 26.91400
C  19.83400 -7.09900 29.50500
C  20.06500 -6.83800 26.14500
O  19.88900 -6.81100 24.91700
C  21.05500 -7.83100 26.60200
N  16.70400 -2.35000 26.07800
C  17.34300 -3.24100 25.23900
C  17.14500 -2.83100 23.77200
C  16.11400 -1.65900 23.88300
C  15.86500 -1.56400 25.39300
C  18.51000 -2.60500 23.06200
C  14.80000 -1.88200 23.11400
C  14.62200 -1.08400 21.86900
N  15.50400 -0.90600 28.26500
C  14.91200 -0.19100 27.20500
C  14.40400 1.06800 27.73500
C  14.51800 0.99500 29.14300
C  15.20700 -0.25800 29.40900
C  13.75100 2.12700 26.91200
C  14.23100 1.62200 30.37400
O  13.48700 2.59700 30.63100
C  14.91500 0.75200 31.47600
C  15.95800 1.57700 32.16000
O  16.98400 1.93300 31.58700
O  15.59500 1.94500 33.40300
C  16.53300 2.91600 34.07100
H  18.68000 -5.14900 31.24100
H  18.75400 -4.70300 24.78700
H  14.43000 0.14900 25.23400
H  16.92500 -1.15800 33.15200
H  16.99100 -4.10400 32.96800
H  18.77300 -2.31100 33.87700
H  19.59100 -2.94800 32.35600
H  19.06400 -3.99500 33.61300
H  14.93200 -3.32900 33.35200
H  14.38400 -1.67800 32.97800
H  14.72800 -2.84000 35.46500
H  14.09800 -1.26300 35.11900
H  19.52200 -8.03800 29.04900
H  19.58400 -6.93400 30.55300
H  20.92200 -7.02500 29.50700
H  21.45800 -7.47700 27.55100
H  21.79300 -8.09000 25.84300
H  20.45500 -8.70200 26.86900
H  16.65100 -3.67100 23.28400
H  16.58900 -0.75100 23.51200
H  19.21100 -2.60800 23.89700
H  18.46800 -1.66300 22.51500
H  18.66600 -3.46200 22.40700
H  13.94900 -1.59500 23.73200
H  14.62700 -2.91400 22.80600
H  13.92400 -0.24700 21.85000
H  14.35600 -1.79100 21.08300
H  15.52400 -0.51800 21.63600
H  12.78400 1.81600 26.51600
H  14.27900 2.30600 25.97500
H  13.68700 3.02900 27.52100
H  14.03400 0.50600 32.06900
H  16.08600 3.41500 34.93100
H  16.77100 3.73200 33.38900
H  17.42200 2.41000 34.44900
Mg -5.11500 25.51400 25.25400
C  -3.43600 27.20000 27.82800
C  -6.49100 23.42700 27.45700
C  -6.28300 23.65400 22.70400
C  -2.77900 27.06800 23.08600
N  -4.79300 25.25100 27.41400
C  -4.26200 26.15900 28.31600
C  -4.74400 25.85000 29.71100
C  -5.44200 24.48900 29.58300
C  -5.63000 24.39800 28.02100
C  -4.71400 23.23200 30.10500
C  -5.66600 26.97200 30.43400
C  -5.09700 27.34200 31.79000
H  -4.74200 26.08500 32.65700
N  -6.26800 23.78400 25.07300
C  -6.81800 23.12000 26.12500
C  -7.76000 22.12900 25.65300
C  -7.68000 22.10200 24.26200
C  -6.78000 23.26500 23.95900
C  -8.56500 21.34700 26.71000
C  -8.42000 21.19200 23.24900
O  -8.21100 21.25200 22.07500
C  -9.45000 20.10900 23.68000
N  -4.60300 25.35600 23.29100
C  -5.25800 24.56500 22.37800
C  -4.68100 24.69200 20.96800
C  -3.58700 25.77000 21.06300
C  -3.60500 26.01200 22.57300
C  -4.09800 23.32000 20.36300
C  -3.82700 27.05200 20.21600
C  -3.58400 27.03500 18.72900
N  -3.57100 27.00400 25.35000
C  -2.74800 27.60300 24.40600
C  -1.91700 28.63300 24.98100
C  -2.11400 28.46700 26.37500
C  -3.11800 27.49500 26.49800
C  -1.01400 29.53200 24.28700
C  -1.73200 28.91400 27.68400
O  -0.84100 29.72000 27.98400
C  -2.54500 28.08700 28.71700
C  -1.48000 27.39200 29.48300
O  -0.71900 26.51700 29.03800
O  -1.49500 27.81900 30.77500
C  -0.71200 27.17300 31.79700
H  -7.02000 23.00900 28.31600
H  -6.85000 23.20100 21.88800
H  -2.10600 27.63800 22.44300
H  -3.85200 25.61300 30.29100
H  -6.45300 24.39000 29.97700
H  -3.87600 23.35900 30.79000
H  -4.33700 22.70600 29.22800
H  -5.52700 22.65700 30.54800
H  -6.71300 26.70500 30.58100
H  -5.69500 27.86900 29.81600
H  -5.83900 27.99400 32.25200
H  -4.26800 28.02100 31.58700
H  -9.48600 21.91600 26.83300
H  -8.10400 21.37600 27.69700
H  -8.75900 20.33000 26.36800
H  -9.97100 19.94000 22.73700
H  -10.08800 20.52000 24.46300
H  -8.97700 19.21100 24.07700
H  -5.49400 25.03200 20.32700
H  -2.59100 25.39300 20.83200
H  -4.46800 23.27100 19.33900
H  -4.52000 22.47400 20.90600
H  -3.01100 23.35300 20.30000
H  -3.28100 27.91700 20.59300
H  -4.84800 27.33900 20.46900
H  -2.85000 27.78700 18.44100
H  -4.52300 27.30200 18.24400
H  -3.20300 26.07200 18.38900
H  -1.06200 30.57600 24.59600
H  -1.25200 29.40700 23.23000
H  -0.01100 29.19000 24.53900
H  -3.02100 28.83900 29.34600
H  -1.43100 27.27000 32.61000
H  0.24500 27.66900 31.96200
H  -0.64700 26.12100 31.51800

