158

Mg 48.42000 15.50800 28.41000
C  46.33400 15.00700 31.37000
C  50.45500 17.26400 30.33900
C  50.19200 16.21400 25.61700
C  45.77700 14.12300 26.49900
N  48.32800 16.01800 30.61200
C  47.45100 15.74200 31.65200
C  47.90800 16.28500 32.92400
C  49.18800 17.13900 32.56000
C  49.38600 16.79200 31.02200
C  48.98000 18.73700 32.68600
C  48.31200 15.13900 33.91300
C  47.87200 15.17700 35.40100
H  47.55300 16.49200 35.91200
N  50.17500 16.57000 28.05200
C  50.87400 17.21400 28.97400
C  52.07900 17.76100 28.41600
C  52.08900 17.30600 27.05700
C  50.79800 16.63400 26.82300
C  53.11100 18.44800 29.28900
C  53.20600 17.40300 26.03800
O  53.16200 16.70600 25.00300
C  54.46100 18.24500 26.28100
N  48.01600 15.22500 26.36700
C  48.99100 15.51900 25.40800
C  48.39200 15.27000 24.03000
C  46.96500 14.58000 24.27900
C  46.87700 14.71600 25.80500
C  48.23200 16.58600 23.20200
C  46.92700 13.09000 23.73200
C  47.80600 12.11600 24.51800
N  46.46300 14.64200 28.82000
C  45.54700 14.01200 27.94600
C  44.45000 13.57800 28.75900
C  44.69300 13.88300 30.09900
C  45.94600 14.51600 30.07100
C  43.22100 12.93800 28.25500
C  44.27200 13.73500 31.46400
O  43.19200 13.29200 31.91000
C  45.26600 14.48400 32.32400
C  44.44900 15.36800 33.21200
O  44.02600 16.45700 33.00700
O  44.20800 14.65700 34.36000
C  43.41600 15.39400 35.36000
H  51.12300 17.85400 30.96900
H  50.82700 16.41300 24.75100
H  45.05800 13.52900 25.93100
H  47.13700 16.99900 33.21200
H  50.15000 16.89400 33.00900
H  49.72800 19.13300 33.37200
H  47.99600 19.01900 33.06300
H  49.06300 19.35700 31.79300
H  49.37300 15.05300 34.14700
H  48.07000 14.22300 33.37500
H  48.65300 14.84500 36.08400
H  47.03500 14.48300 35.47600
H  53.54400 17.65100 29.89500
H  52.72900 19.18700 29.99300
H  53.81100 18.89400 28.58300
H  54.20000 19.27400 26.52600
H  55.03200 18.21600 25.35300
H  54.95200 17.73900 27.11300
H  49.02000 14.46600 23.64800
H  46.08100 15.18600 24.08300
H  47.74600 17.24900 23.91800
H  47.67400 16.46600 22.27400
H  49.26800 16.83300 22.96900
H  47.36200 13.05700 22.73300
H  45.87300 12.81600 23.69000
H  48.23500 11.48000 23.74400
H  47.22200 11.48100 25.18300
H  48.64900 12.59600 25.01600
H  43.09700 11.91100 28.59900
H  42.96000 13.10100 27.20900
H  42.43700 13.53900 28.71500
H  45.71100 13.69200 32.92600
H  42.55800 15.83500 34.85400
H  43.90900 16.18100 35.93000
H  42.90300 14.62700 35.94000
Mg 9.27400 48.15500 25.54000
C  6.70700 48.85700 27.97400
C  11.58000 49.07000 27.86800
C  11.66700 47.67400 23.25300
C  6.71500 47.91600 23.18000
N  9.06800 48.85000 27.69900
C  7.98100 48.89200 28.50900
C  8.51800 48.88300 29.99200
C  10.00700 49.33200 29.78800
C  10.25100 49.03100 28.35100
C  10.40700 50.79400 30.14800
C  8.29200 47.54000 30.87600
C  7.79700 47.64300 32.35400
H  8.76100 47.23200 33.48500
N  11.32400 48.47400 25.54500
C  12.09100 48.88100 26.57500
C  13.50600 48.89600 26.10400
C  13.46200 48.23800 24.87700
C  12.09700 48.05400 24.49600
C  14.60200 49.30600 27.04200
C  14.63400 47.65700 24.09600
O  14.49100 47.00900 23.13600
C  16.03900 47.87600 24.59200
N  9.19500 47.97600 23.42900
C  10.31200 47.53700 22.75100
C  9.85800 47.06300 21.39400
C  8.29600 47.47600 21.29800
C  8.04200 47.81500 22.71900
C  10.60800 47.55700 20.23400
C  7.43500 46.30700 20.67700
C  6.81200 46.73600 19.39700
N  7.15300 48.18000 25.53600
C  6.26200 48.09000 24.48400
C  4.85500 48.23000 24.94800
C  5.02600 48.40000 26.36000
C  6.41100 48.50100 26.64200
C  3.54800 48.23800 24.24400
C  4.24600 48.67300 27.58100
O  3.04000 48.72000 27.77100
C  5.34200 49.21600 28.64100
C  5.07000 48.66100 29.98200
O  4.98100 47.44800 30.27900
O  4.79100 49.73200 30.90200
C  4.25900 49.34900 32.22400
H  12.38500 49.31000 28.56600
H  12.32200 47.33200 22.44900
H  5.92600 47.79300 22.43500
H  7.90600 49.55500 30.59300
H  10.69100 48.76800 30.42100
H  11.22100 50.81000 30.87200
H  9.65300 51.28800 30.76100
H  10.67600 51.43000 29.30400
H  9.25400 47.03300 30.94200
H  7.63700 46.90400 30.28100
H  6.82500 47.16400 32.47300
H  7.56600 48.70400 32.45400
H  15.34800 48.55800 27.30900
H  14.34700 49.74300 28.00800
H  15.03600 50.11300 26.45000
H  16.11700 48.93800 24.82300
H  16.67300 47.48100 23.79900
H  16.16000 47.25700 25.48200
H  10.16600 46.03700 21.59300
H  8.10000 48.34100 20.66500
H  9.90800 47.52100 19.39900
H  11.46700 46.93300 19.98900
H  11.05400 48.54700 20.32400
H  6.63900 46.02200 21.36400
H  8.11900 45.48800 20.45500
H  6.60400 45.85600 18.78800
H  7.49000 47.38000 18.83700
H  5.85500 47.25800 19.40600
H  2.70200 47.68400 24.64900
H  3.61800 47.76300 23.26500
H  3.16400 49.25700 24.30300
H  5.44100 50.30000 28.71000
H  5.16400 49.07700 32.76700
H  3.52600 48.55800 32.06100
H  3.69800 50.14000 32.72300

