158

Mg -1.06300 7.74500 25.83200
C  -0.30100 9.75300 28.57800
C  -0.98500 4.95000 27.89000
C  -1.94800 5.77100 23.23800
C  -1.06000 10.53900 23.74500
N  -0.66900 7.36800 28.04700
C  -0.50600 8.36100 28.97100
C  -0.52800 7.79500 30.34500
C  -0.73700 6.24800 30.14200
C  -0.87600 6.14400 28.63600
C  0.43100 5.38000 30.75200
C  -1.58500 8.36200 31.27300
C  -1.57500 7.95300 32.79200
H  -0.18400 7.80100 33.56100
N  -1.33000 5.61200 25.54600
C  -1.24500 4.65700 26.50000
C  -1.35000 3.40600 25.89000
C  -1.57100 3.61200 24.45900
C  -1.60300 5.05000 24.34500
C  -1.16900 2.20600 26.71500
C  -1.54200 2.63700 23.35300
O  -1.59500 2.88300 22.12000
C  -1.44000 1.15600 23.70700
N  -1.46700 8.13500 23.82500
C  -1.84800 7.11600 22.98100
C  -2.20400 7.65800 21.59900
C  -1.91900 9.25100 21.74900
C  -1.57000 9.32300 23.23900
C  -1.40700 7.01100 20.44500
C  -3.21800 10.12200 21.41100
C  -3.02500 11.58100 20.96900
N  -0.69800 9.69100 26.08700
C  -0.76700 10.72700 25.14100
C  -0.34400 11.97500 25.77300
C  -0.16700 11.62000 27.10200
C  -0.46400 10.24100 27.26900
C  -0.22100 13.30100 25.09400
C  0.19800 12.01200 28.41200
O  0.63500 13.09900 28.75200
C  -0.01500 10.88900 29.49500
C  1.24500 10.81200 30.27200
O  2.25300 10.40600 29.81300
O  1.04200 11.44600 31.45200
C  2.24600 11.63200 32.27800
H  -1.16700 4.12700 28.58400
H  -2.35300 5.23600 22.37700
H  -0.90800 11.38300 23.07000
H  0.45300 8.09600 30.71300
H  -1.61200 5.84800 30.65200
H  1.13400 6.13300 31.10900
H  0.97600 4.81500 29.99500
H  0.07900 4.68700 31.51600
H  -2.59100 8.18700 30.89100
H  -1.46100 9.44500 31.24000
H  -2.32700 7.17200 32.90300
H  -1.91000 8.87500 33.26700
H  -1.46400 1.25600 26.26900
H  -1.88100 2.29500 27.53500
H  -0.15200 2.18700 27.10600
H  -0.55000 1.05800 24.32800
H  -1.26500 0.65700 22.75400
H  -2.25500 0.61600 24.18900
H  -3.27800 7.60400 21.42300
H  -1.00000 9.55600 21.24800
H  -1.19100 7.71800 19.64400
H  -2.20000 6.33700 20.12100
H  -0.55200 6.46600 20.84600
H  -3.91200 10.17900 22.25000
H  -3.77400 9.67200 20.58800
H  -3.58100 11.73300 20.04400
H  -1.99500 11.92800 20.88000
H  -3.44200 12.22700 21.74200
H  0.46400 13.26000 24.24800
H  0.23500 13.99400 25.80200
H  -1.20000 13.73700 24.89400
H  -0.86000 11.18200 30.11900
H  2.33600 10.89500 33.07600
H  2.10000 12.60200 32.75400
H  3.17900 11.65400 31.71500
Mg 49.66100 35.20800 28.01000
C  47.68100 33.65500 30.53600
C  49.86800 37.98900 30.01700
C  51.41900 36.70600 25.50400
C  48.98900 32.46800 25.90500
N  48.89200 35.64700 30.13100
C  48.27700 34.86500 31.00600
C  48.37200 35.41300 32.42400
C  48.78300 36.91900 32.13900
C  49.24800 36.87300 30.67300
C  47.75900 38.05900 32.63000
C  49.51500 34.58400 33.10700
C  49.48800 34.36800 34.61600
H  48.56800 35.21600 35.48700
N  50.57000 37.06600 27.86600
C  50.44700 38.08900 28.75100
C  51.12300 39.32200 28.19400
C  51.71400 38.92800 26.95100
C  51.20700 37.50000 26.67500
C  51.23500 40.66100 29.06500
C  52.73900 39.62700 26.03800
O  53.33800 39.08700 25.14100
C  53.28200 41.00200 26.43300
N  49.89000 34.75700 25.87000
C  50.90000 35.42700 25.17700
C  51.50100 34.57700 24.01100
C  50.68200 33.26700 24.04700
C  49.78900 33.45900 25.32000
C  51.45200 35.40500 22.66600
C  51.57400 31.98500 24.07900
C  50.98000 30.78900 23.36700
N  48.57500 33.44000 28.11000
C  48.35800 32.46900 27.16400
C  47.37200 31.59900 27.68000
C  47.08800 32.03300 29.02600
C  47.86100 33.15400 29.18100
C  46.91900 30.29600 26.95300
C  46.30400 31.71800 30.13400
O  45.50000 30.81100 30.30300
C  46.72800 32.73700 31.24300
C  47.48000 32.04600 32.34100
O  48.38600 31.25800 32.05700
O  47.02600 32.26400 33.57500
C  47.37500 31.21200 34.58000
H  49.93600 38.86600 30.66500
H  51.97700 37.13000 24.66600
H  48.78800 31.59200 25.28500
H  47.43300 35.25100 32.95400
H  49.66800 37.15500 32.73100
H  48.08700 38.43000 33.60100
H  46.74800 37.66200 32.73200
H  47.80800 38.88500 31.92100
H  50.40800 35.20600 33.04700
H  49.60600 33.63900 32.57200
H  50.49400 34.51100 35.01200
H  49.17500 33.34200 34.81200
H  50.65300 40.72200 29.98400
H  50.81100 41.41400 28.40000
H  52.26700 40.84600 29.36300
H  52.50700 41.71100 26.72400
H  53.78700 41.39600 25.55100
H  53.80300 40.70300 27.34200
H  52.54300 34.49400 24.32000
H  50.02800 33.21100 23.17600
H  50.88300 34.78800 21.97000
H  52.48500 35.60500 22.38100
H  50.98000 36.38200 22.76600
H  51.68200 31.75900 25.14000
H  52.58300 32.10400 23.68400
H  51.75700 30.24700 22.82900
H  50.11700 31.09200 22.77300
H  50.60100 30.16400 24.17500
H  47.72100 29.93200 26.31100
H  45.97000 30.53000 26.46900
H  46.74800 29.56700 27.74400
H  45.85000 33.28700 31.58300
H  47.08100 30.21100 34.26500
H  46.99200 31.47200 35.56800
H  48.45400 31.14200 34.71300

