158

Mg 41.72000 40.36500 27.39900
C  41.10700 42.96900 29.80800
C  42.91800 38.38400 29.98500
C  42.86000 38.32800 25.07200
C  41.04500 42.82100 24.93200
N  42.04700 40.78200 29.61900
C  41.51300 41.76500 30.38900
C  41.51400 41.41000 31.92600
C  42.21700 40.00500 31.93100
C  42.46800 39.67200 30.40200
C  43.51300 39.93500 32.83100
C  40.13100 41.56600 32.76800
C  40.26400 42.19300 34.24300
H  39.25600 41.73800 35.24600
N  42.61000 38.50200 27.57400
C  42.94700 37.85300 28.67400
C  43.39500 36.53000 28.28300
C  43.46400 36.52100 26.83100
C  42.94100 37.78500 26.42700
C  43.74200 35.46700 29.34800
C  44.00000 35.41100 25.99100
O  44.12300 35.55200 24.79800
C  44.48600 34.18300 26.59600
N  41.76900 40.47400 25.23000
C  42.41000 39.53100 24.54800
C  42.51000 39.93100 23.08900
C  41.68200 41.27900 22.99100
C  41.50300 41.58900 24.44600
C  44.00000 39.94700 22.47000
C  40.42200 41.18900 22.09200
C  39.23100 40.25600 22.64800
N  41.20900 42.37800 27.30000
C  40.92200 43.26700 26.20300
C  40.40900 44.50100 26.70800
C  40.61400 44.43000 28.02700
C  41.01600 43.11100 28.39500
C  39.84500 45.71600 25.97000
C  40.42700 45.28000 29.17900
O  39.98100 46.38900 29.23600
C  40.68500 44.33700 30.42500
C  41.78500 44.83700 31.26200
O  42.93300 44.95900 30.87900
O  41.37800 45.05200 32.55500
C  42.43700 45.36800 33.55600
H  43.18500 37.76300 30.84300
H  43.21500 37.74800 24.21700
H  40.75200 43.52600 24.15200
H  42.18900 42.15200 32.35300
H  41.41800 39.33000 32.23900
H  44.41600 39.75700 32.24700
H  43.46300 39.28200 33.70300
H  43.72000 40.96900 33.10800
H  39.52100 40.66600 32.69200
H  39.70500 42.32200 32.10800
H  40.10800 43.26100 34.08600
H  41.27200 42.05600 34.63300
H  43.42300 34.46900 29.04700
H  43.22700 35.50400 30.30800
H  44.78400 35.51400 29.66400
H  43.59500 33.63600 26.90500
H  45.20900 34.43300 27.37300
H  45.00100 33.67400 25.78200
H  41.97800 39.16500 22.52500
H  42.27900 42.11600 22.62800
H  44.46900 40.91800 22.30800
H  44.02600 39.51100 21.47100
H  44.78100 39.37500 22.97000
H  40.73400 40.65300 21.19500
H  40.10300 42.15500 21.70100
H  39.12500 39.28500 22.16400
H  38.27500 40.77200 22.56300
H  39.43600 39.96600 23.67900
H  39.30100 45.50400 25.05000
H  40.71100 46.29400 25.64700
H  39.23200 46.27200 26.68000
H  39.77400 44.12300 30.98400
H  42.55800 44.56800 34.28600
H  42.24300 46.26500 34.14400
H  43.46700 45.47700 33.21800
Mg -9.56300 17.67400 41.62300
C  -5.98700 17.53800 41.52200
C  -9.18400 21.05400 40.59900
C  -12.73000 17.71800 40.99900
C  -9.61300 14.26100 42.45700
N  -7.78000 19.08000 40.96100
C  -6.43600 18.77100 40.98800
C  -5.60000 19.90800 40.50000
C  -6.65500 21.12300 40.66500
C  -7.96700 20.40000 40.68300
C  -6.35800 21.97400 41.94700
C  -5.18800 19.64100 39.05600
C  -3.77400 19.12600 38.93200
H  -3.50300 17.62500 38.51900
N  -10.80000 19.17100 41.00400
C  -10.47700 20.52700 40.60900
C  -11.68000 21.21500 40.29900
C  -12.72900 20.32800 40.47100
C  -12.11900 18.99200 40.74300
C  -11.58300 22.74700 39.85700
C  -14.15900 20.64700 40.08400
O  -14.55200 21.73800 39.87400
C  -15.15800 19.59100 39.85900
N  -10.90300 16.15400 41.51700
C  -12.18500 16.45600 41.35900
C  -13.01000 15.20200 41.46100
C  -12.08400 14.15000 42.06200
C  -10.78300 14.83600 41.86500
C  -14.32200 15.40600 42.31900
C  -12.18800 12.72500 41.38100
C  -12.40900 11.50500 42.25800
N  -8.15200 16.20200 42.01300
C  -8.31800 14.87900 42.46300
C  -7.03600 14.32200 42.77500
C  -6.10200 15.40100 42.43100
C  -6.83800 16.45300 41.98900
C  -6.81200 13.01500 43.25300
C  -4.71900 15.73100 42.36600
O  -3.73400 15.04800 42.60600
C  -4.56400 17.21300 41.91300
C  -4.07400 18.07100 43.05100
O  -4.87600 18.74100 43.70000
O  -2.73100 18.00600 43.22700
C  -2.08700 18.82500 44.21800
H  -9.02100 22.13200 40.66000
H  -13.80100 17.67500 40.78800
H  -9.81700 13.22500 42.73500
H  -4.71300 20.08500 41.10800
H  -6.74600 21.81800 39.83000
H  -6.73400 21.63600 42.91300
H  -6.76100 22.95900 41.71000
H  -5.27100 22.00800 42.01800
H  -5.25800 20.57700 38.50100
H  -5.89200 18.90800 38.66300
H  -3.19400 19.26600 39.84500
H  -3.28900 19.86300 38.29200
H  -12.32100 22.81200 39.05700
H  -10.61000 22.96500 39.41700
H  -11.94600 23.38800 40.66100
H  -16.04300 19.97000 39.34800
H  -15.51600 19.28500 40.84200
H  -14.83700 18.74700 39.24800
H  -13.34100 14.90600 40.46600
H  -12.27800 14.21900 43.13200
H  -14.04300 16.12100 43.09200
H  -14.43200 14.43600 42.80500
H  -15.07800 15.67800 41.58200
H  -11.18700 12.62600 40.96300
H  -12.83100 12.75700 40.50100
H  -11.49400 10.92800 42.39000
H  -13.15100 10.90500 41.73200
H  -12.65900 11.70600 43.30000
H  -6.51500 12.43700 42.37800
H  -7.70200 12.65100 43.76600
H  -5.95800 13.04300 43.93000
H  -3.91200 17.26300 41.04100
H  -1.53600 18.23800 44.95300
H  -2.76300 19.50600 44.73600
H  -1.49800 19.57900 43.69500

