158

Mg 40.45900 9.51000 29.38400
C  42.31100 10.80200 32.07700
C  38.26400 8.16100 31.67600
C  38.92200 8.07600 26.83000
C  43.29700 10.32600 27.36800
N  40.36300 9.45000 31.62900
C  41.10500 10.20200 32.48400
C  40.50600 10.25900 33.93600
C  39.48300 9.08600 33.74100
C  39.28100 8.92700 32.21600
C  39.75900 7.73300 34.39900
C  39.79700 11.62100 34.30400
C  39.60400 11.70300 35.86700
H  40.29000 12.90400 36.61100
N  38.73800 8.43400 29.23600
C  37.94500 8.00300 30.31800
C  36.72400 7.33200 29.76200
C  36.86600 7.47900 28.31500
C  38.23100 8.02000 28.04800
C  35.63900 6.71400 30.63800
C  35.94000 7.15600 27.20100
O  36.09900 7.51500 26.03500
C  34.68800 6.40100 27.55100
N  40.99400 9.23600 27.42500
C  40.24000 8.54300 26.52200
C  40.96000 8.49500 25.16500
C  42.27800 9.18500 25.38000
C  42.15100 9.62800 26.81400
C  41.02700 7.11300 24.38900
C  42.70200 10.22800 24.34600
C  42.24900 11.70800 24.62800
N  42.35800 10.42300 29.59200
C  43.40100 10.68900 28.72100
C  44.48000 11.37400 29.40600
C  44.04100 11.46100 30.72400
C  42.77000 10.81100 30.76000
C  45.81100 11.72000 28.93200
C  44.47800 11.93300 31.97600
O  45.49300 12.50500 32.25400
C  43.35800 11.56900 32.89700
C  43.74400 10.79300 34.11000
O  43.67000 9.55600 34.27200
O  44.12100 11.70500 35.09900
C  44.31900 11.19800 36.45100
H  37.56700 7.68600 32.37000
H  38.49400 7.72500 25.88800
H  44.09200 10.62900 26.68400
H  41.24100 9.98400 34.69200
H  38.49800 9.35000 34.12600
H  39.03700 7.62100 35.20800
H  40.78000 7.72300 34.78000
H  39.63300 6.86400 33.75300
H  38.77700 11.60400 33.92000
H  40.33600 12.53000 34.03500
H  40.01200 10.81500 36.35000
H  38.52200 11.82400 35.91500
H  34.75800 7.33900 30.78600
H  36.00200 6.37000 31.60600
H  35.42400 5.77600 30.12400
H  34.99800 5.36500 27.69100
H  34.00700 6.43400 26.70100
H  34.13800 6.85800 28.37300
H  40.33500 9.11000 24.51800
H  43.04200 8.41300 25.47100
H  41.98600 6.59900 24.32700
H  40.53100 7.09800 23.41800
H  40.29800 6.50900 24.93000
H  42.25600 9.98200 23.38200
H  43.77300 10.23000 24.14500
H  41.66400 11.81800 25.54100
H  41.73300 12.12500 23.76300
H  43.17500 12.26000 24.79100
H  46.05500 11.27200 27.96900
H  46.46000 11.54800 29.79100
H  45.95000 12.80000 28.87800
H  42.72800 12.37000 33.28300
H  45.26500 11.62700 36.78000
H  44.43600 10.11800 36.54100
H  43.47900 11.50500 37.07400
Mg 9.58200 47.19100 25.33600
C  7.48700 47.57900 28.24800
C  12.03500 48.57500 27.15000
C  11.27900 47.08700 22.45900
C  6.55800 46.60000 23.53100
N  9.70700 47.86600 27.41500
C  8.76900 48.03400 28.40400
C  9.41200 48.65800 29.67300
C  10.77700 49.27600 29.13900
C  10.81200 48.50200 27.81200
C  10.76600 50.86700 29.04400
C  9.66000 47.54800 30.75600
C  9.05200 47.70400 32.17300
H  9.16800 46.51800 33.13100
N  11.42900 47.54400 24.86200
C  12.32600 48.10200 25.84100
C  13.61200 47.90600 25.28200
C  13.47600 47.55700 23.86600
C  12.02200 47.41000 23.62300
C  14.88500 48.29300 26.11300
C  14.54400 47.43600 22.85700
O  14.31800 47.18900 21.68900
C  15.99500 47.50900 23.31200
N  9.01400 46.91100 23.30000
C  9.92900 46.85400 22.26500
C  9.29400 46.57300 20.94400
C  7.79300 46.29200 21.34700
C  7.77600 46.56200 22.80100
C  9.40400 47.57000 19.78200
C  7.26800 44.91500 20.96100
C  7.66600 43.76300 21.87400
N  7.39500 47.17200 25.71900
C  6.35900 46.88800 24.91500
C  5.08900 46.83700 25.72200
C  5.51400 47.01900 27.05900
C  6.93700 47.34700 26.98700
C  3.80000 46.51600 25.19400
C  5.12700 47.12500 28.48000
O  4.05700 46.92700 29.04200
C  6.44500 47.46100 29.31900
C  6.73700 46.19200 30.14600
O  7.47900 45.26800 29.90600
O  5.96500 46.31200 31.24500
C  5.95400 45.12900 32.14600
H  12.83500 49.13200 27.64200
H  11.88000 47.05700 21.54700
H  5.62800 46.39300 22.99600
H  8.73100 49.44300 30.00000
H  11.63100 49.03300 29.77100
H  11.69200 51.25700 29.46800
H  9.82000 51.15900 29.50000
H  10.63400 51.26800 28.03900
H  10.73700 47.42700 30.86800
H  9.46000 46.61200 30.23300
H  8.00100 47.94500 32.01300
H  9.45500 48.59800 32.64800
H  14.70000 48.30000 27.18800
H  15.44800 49.16400 25.78000
H  15.60500 47.47600 26.06800
H  16.12000 48.50000 23.74800
H  16.74300 47.38300 22.53000
H  16.08600 46.71700 24.05500
H  9.76300 45.65700 20.58600
H  7.17500 47.03200 20.83800
H  9.88100 48.49500 20.10700
H  8.45200 47.89400 19.36200
H  10.03700 47.01000 19.09400
H  7.62700 44.70000 19.95400
H  6.18400 45.02800 20.94000
H  8.34400 43.10100 21.33500
H  6.72900 43.22300 22.00900
H  8.15000 44.10300 22.78900
H  3.37700 47.44200 24.80400
H  3.19700 46.19600 26.04400
H  3.87300 45.77800 24.39600
H  6.31600 48.27300 30.03400
H  6.82100 45.20400 32.80300
H  5.83000 44.18100 31.62400
H  5.00900 45.11400 32.68900

