158

Mg 0.19800 44.20800 25.34500
C  2.14500 43.91600 28.27100
C  -2.53100 43.13100 27.16900
C  -1.51800 43.87800 22.46200
C  3.12800 44.64000 23.57700
N  -0.14700 43.65900 27.45600
C  0.77000 43.70800 28.46500
C  0.10200 43.39200 29.81700
C  -1.41700 43.22500 29.42600
C  -1.36500 43.31800 27.93700
C  -2.10600 41.86000 29.98100
C  0.26200 44.71200 30.71400
C  1.05500 44.60900 32.06200
H  0.55800 43.43400 33.01100
N  -1.79500 43.59100 24.86500
C  -2.74700 43.22900 25.78200
C  -3.93800 43.01900 25.03800
C  -3.67700 43.00100 23.69500
C  -2.28900 43.52100 23.58800
C  -5.25600 42.67600 25.74200
C  -4.63500 42.72700 22.50500
O  -4.20900 42.92500 21.33900
C  -6.12000 42.44100 22.74900
N  0.69800 44.51400 23.27400
C  -0.13900 44.19500 22.29100
C  0.54200 44.20800 20.94600
C  1.99800 44.69700 21.34300
C  1.96600 44.63400 22.84200
C  0.51400 42.94100 20.12000
C  2.32800 46.08300 20.59000
C  1.62600 47.33600 21.13500
N  2.24600 44.34000 25.73400
C  3.31300 44.53800 24.91500
C  4.53900 44.66300 25.69400
C  4.10300 44.38000 26.97900
C  2.69200 44.22000 27.03500
C  5.99100 44.88200 25.26100
C  4.61600 44.15000 28.30100
O  5.72700 44.20200 28.75100
C  3.33500 43.97000 29.24500
C  3.54500 42.69100 29.99800
O  3.58600 41.56100 29.51400
O  3.80600 43.00600 31.29000
C  4.44700 41.98300 32.07200
H  -3.42000 42.86200 27.74300
H  -1.98500 43.78600 21.47900
H  4.06100 44.78200 23.02700
H  0.48200 42.49100 30.29700
H  -2.07300 44.00300 29.81500
H  -2.93800 42.17700 30.61000
H  -1.44700 41.21500 30.56100
H  -2.52300 41.27700 29.16000
H  -0.69300 45.15300 31.00200
H  0.66900 45.43900 30.01200
H  0.84300 45.54900 32.57100
H  2.13800 44.56600 31.95000
H  -5.53000 41.62900 25.61800
H  -6.00100 43.27900 25.22400
H  -5.21900 42.95800 26.79500
H  -6.60700 43.31600 23.18100
H  -6.08700 41.55600 23.38500
H  -6.69100 42.14600 21.86800
H  0.03100 44.94900 20.33200
H  2.69700 43.93500 20.99800
H  0.19800 42.14600 20.79700
H  1.49000 42.58600 19.79000
H  -0.23300 42.97400 19.32700
H  2.12000 46.09600 19.52000
H  3.41400 46.13200 20.65900
H  0.67300 47.12400 21.61900
H  1.44200 47.99500 20.28700
H  2.31100 47.87400 21.79000
H  6.49600 45.42200 26.06200
H  6.13000 45.45300 24.34300
H  6.43400 43.89500 25.12700
H  3.05900 44.76800 29.93500
H  5.26400 41.49400 31.54100
H  3.69700 41.23600 32.33400
H  4.72600 42.43800 33.02200
Mg -10.01500 16.81500 40.98400
C  -6.49300 16.65200 40.94900
C  -9.83100 20.12300 40.66100
C  -13.21500 16.74000 39.87900
C  -9.89400 13.22400 40.78100
N  -8.35300 18.24700 40.78200
C  -6.97300 17.97200 40.69300
C  -6.12800 19.23800 40.60700
C  -7.28100 20.24000 41.00100
C  -8.59400 19.52500 40.80400
C  -7.15000 21.02400 42.33800
C  -5.45300 19.42300 39.20900
C  -3.95100 19.01100 39.09100
H  -3.52300 18.19900 37.83900
N  -11.46300 18.23600 40.57700
C  -11.12800 19.58600 40.51400
C  -12.29200 20.33400 40.24600
C  -13.34600 19.40600 39.96300
C  -12.77000 18.06300 40.14200
C  -12.25200 21.75300 39.93700
C  -14.69900 19.73000 39.60900
O  -15.05600 20.92600 39.61200
C  -15.79100 18.66300 39.37300
N  -11.37200 15.21400 40.57800
C  -12.61600 15.47600 40.05200
C  -13.36500 14.16400 39.62800
C  -12.30500 13.12500 39.92900
C  -11.09300 13.87900 40.42000
C  -14.76500 14.03100 40.29600
C  -12.04200 11.99800 38.80700
C  -13.29900 11.46000 38.08000
N  -8.55600 15.24000 41.02600
C  -8.71200 13.86900 41.01400
C  -7.36400 13.23500 41.23600
C  -6.48800 14.29200 41.20800
C  -7.24100 15.47500 41.06300
C  -7.00100 11.89200 41.44000
C  -5.11700 14.69700 41.26300
O  -4.12600 14.00500 41.46700
C  -5.02000 16.22000 41.04500
C  -4.30500 16.69100 42.27000
O  -3.10300 16.80300 42.43200
O  -5.18700 17.23200 43.16400
C  -4.66800 17.72300 44.42000
H  -9.68400 21.20400 40.60800
H  -14.21600 16.64000 39.45400
H  -9.93400 12.13400 40.72100
H  -5.38500 19.13900 41.39900
H  -7.21000 20.94800 40.17500
H  -8.07100 20.89500 42.90700
H  -7.07100 22.09700 42.16500
H  -6.36400 20.62300 42.97800
H  -5.42500 20.45900 38.87200
H  -5.93800 18.73700 38.51500
H  -3.77900 18.56500 40.07000
H  -3.31100 19.89300 39.08600
H  -12.36200 21.91600 38.86500
H  -11.34200 22.33700 40.07600
H  -13.06200 22.26200 40.45900
H  -16.75800 19.16300 39.30500
H  -15.65900 18.04700 40.26200
H  -15.67900 18.02600 38.49600
H  -13.73500 14.19900 38.60300
H  -12.53800 12.49900 40.79100
H  -14.71500 13.16900 40.96000
H  -15.62900 13.83400 39.66100
H  -14.96800 14.87200 40.95900
H  -11.63800 11.15400 39.36500
H  -11.39900 12.52500 38.10200
H  -13.31500 11.60900 37.00000
H  -14.11200 12.07900 38.45800
H  -13.57800 10.46600 38.43000
H  -6.98900 11.68100 42.50900
H  -5.94800 11.82500 41.16600
H  -7.64600 11.20200 40.89700
H  -4.41700 16.44900 40.16600
H  -4.07900 18.62200 44.23400
H  -4.14200 16.99500 45.03700
H  -5.54200 17.95500 45.02900

