158

Mg 17.97000 -1.85900 27.60300
C  17.18900 0.23000 30.32000
C  19.88600 -3.77300 29.70500
C  18.94000 -3.54100 24.92500
C  16.08300 0.45800 25.54800
N  18.42700 -1.76500 29.80700
C  17.98100 -0.83100 30.67100
C  18.41400 -1.17400 32.06200
C  19.49100 -2.30500 31.95800
C  19.33100 -2.61000 30.40000
C  20.93100 -2.08100 32.30100
C  17.20100 -1.70300 32.95400
C  17.08000 -1.10800 34.38600
H  18.31400 -0.43300 35.04300
N  19.22400 -3.49700 27.37100
C  19.79700 -4.19400 28.34600
C  20.40200 -5.41700 27.75700
C  20.30200 -5.25400 26.38700
C  19.49300 -4.06700 26.14800
C  21.00700 -6.36800 28.68200
C  20.79900 -6.23800 25.23600
O  20.66200 -5.98100 24.04600
C  21.45500 -7.55300 25.46600
N  17.55400 -1.59100 25.57200
C  18.12300 -2.36900 24.63700
C  17.67900 -1.97200 23.23100
C  16.57500 -0.85900 23.50800
C  16.75400 -0.62800 25.01600
C  18.80200 -1.56100 22.31400
C  15.13800 -1.14400 23.03000
C  14.55600 -0.10700 22.03500
N  16.89500 -0.05600 27.83300
C  16.12700 0.71900 26.93300
C  15.45500 1.85100 27.56700
C  15.91700 1.71100 28.90800
C  16.74100 0.55100 29.03300
C  14.61400 3.01100 27.01800
C  15.78900 2.16500 30.22600
O  15.23800 3.17000 30.58200
C  16.48700 1.25800 31.21100
C  17.45500 1.99700 32.06200
O  18.46100 2.57300 31.61900
O  16.82900 2.26200 33.26000
C  17.52500 3.28500 34.05600
H  20.60100 -4.33200 30.31300
H  19.32000 -4.04000 24.03100
H  15.42700 1.02700 24.88400
H  18.82500 -0.30100 32.56900
H  19.09600 -3.20100 32.43600
H  21.56000 -2.07400 31.41100
H  21.20300 -2.94300 32.91100
H  20.92200 -1.20900 32.95400
H  17.29500 -2.78000 33.09700
H  16.20300 -1.57100 32.53700
H  16.63900 -1.78300 35.11900
H  16.26000 -0.39200 34.43100
H  22.07500 -6.15800 28.74100
H  20.79400 -7.37700 28.33000
H  20.48300 -6.26900 29.63200
H  22.37100 -7.43000 26.04400
H  21.68100 -7.94400 24.47400
H  20.76000 -8.21500 25.98300
H  17.24200 -2.82800 22.71600
H  16.90000 0.07000 23.04000
H  18.75600 -0.48100 22.17400
H  18.69000 -2.08700 21.36600
H  19.77200 -1.83800 22.72600
H  14.40400 -1.23000 23.83200
H  15.28300 -2.13600 22.60300
H  15.08200 -0.42900 21.13600
H  14.93300 0.90700 22.16300
H  13.46900 -0.14200 21.95700
H  14.57500 3.05200 25.93000
H  15.01800 3.88500 27.52900
H  13.58500 2.92000 27.36700
H  15.72500 0.75800 31.80800
H  16.97400 4.22400 34.11300
H  18.56000 3.53000 33.81600
H  17.56700 2.86900 35.06200
Mg 8.23300 47.70300 26.11800
C  5.93300 47.61000 28.79200
C  10.68200 48.44200 28.37500
C  10.37200 48.45900 23.56800
C  5.51600 47.85100 23.92600
N  8.25800 48.11600 28.39300
C  7.22900 47.96900 29.28700
C  7.77600 48.11600 30.71900
C  9.29800 48.69900 30.53500
C  9.45400 48.47500 29.02500
C  9.52900 50.23600 31.00500
C  7.56300 46.93300 31.74300
C  8.69600 46.66100 32.82300
H  8.18700 45.95200 34.10800
N  10.28900 48.08100 25.98300
C  11.08300 48.29900 27.03100
C  12.50200 48.32500 26.51100
C  12.41300 48.22500 25.05400
C  10.97500 48.29700 24.82000
C  13.71400 48.61500 27.35300
C  13.47100 48.13000 23.98500
O  13.33500 48.20300 22.71400
C  14.89200 48.02400 24.46100
N  7.98300 48.25700 24.07600
C  9.04200 48.46100 23.28400
C  8.59400 48.53200 21.88400
C  7.03900 48.30200 21.93700
C  6.79800 48.04300 23.39000
C  9.08700 49.78200 21.18000
C  6.50900 47.25700 20.93500
C  6.53100 47.64200 19.49600
N  6.07500 47.77200 26.30100
C  5.16700 47.71200 25.29200
C  3.88900 47.51400 25.91200
C  4.14000 47.47200 27.31100
C  5.49900 47.63600 27.47100
C  2.62500 47.45200 25.18500
C  3.48600 47.25700 28.56400
O  2.28900 46.99300 28.91900
C  4.65500 47.47900 29.66700
C  4.69100 46.26900 30.43800
O  5.09100 45.15800 30.12700
O  4.25600 46.66700 31.66200
C  4.22100 45.54100 32.68900
H  11.44100 48.76900 29.08800
H  11.04500 48.79900 22.77800
H  4.72600 47.91100 23.17500
H  7.11300 48.91100 31.05800
H  10.15400 48.11500 30.87300
H  8.64900 50.61400 31.52500
H  9.77200 50.75800 30.07900
H  10.45100 50.23900 31.58600
H  7.38000 46.00000 31.20900
H  6.63900 47.05600 32.30800
H  9.34600 47.52600 32.95400
H  9.30800 45.86400 32.40000
H  14.24400 49.51800 27.05100
H  14.40300 47.77100 27.31500
H  13.53100 48.76300 28.41700
H  15.52100 47.80200 23.59900
H  14.96900 47.21700 25.18900
H  15.18700 49.00800 24.82400
H  9.03500 47.65400 21.41400
H  6.60300 49.25800 21.64600
H  8.24600 50.22800 20.64900
H  9.85600 49.48800 20.46600
H  9.63000 50.47500 21.82400
H  5.54100 46.88300 21.27100
H  7.21100 46.44200 21.11200
H  7.39000 47.21700 18.97700
H  6.62700 48.72300 19.39600
H  5.58900 47.38100 19.01400
H  2.23400 48.46600 25.27100
H  2.01800 46.66500 25.63100
H  2.72000 47.32600 24.10600
H  4.41500 48.38400 30.22300
H  4.76400 45.95700 33.53800
H  4.67500 44.60500 32.36400
H  3.18500 45.31400 32.94100

