158

Mg 24.21500 -4.90200 45.87500
C  26.45200 -2.86100 44.39900
C  21.65200 -3.48300 44.07200
C  22.23800 -7.48700 46.76900
C  26.93300 -6.48200 47.69700
N  24.08700 -3.42100 44.24800
C  25.17000 -2.58400 43.90100
C  24.66000 -1.50100 42.87500
C  23.07400 -1.52600 43.07500
C  22.87200 -2.83400 43.88300
C  22.51800 -0.31900 44.02600
C  25.13800 -1.95100 41.43000
C  25.66100 -0.90000 40.44500
H  25.12000 -0.85000 39.00500
N  22.19000 -5.26600 45.63100
C  21.32300 -4.62500 44.71900
C  20.00000 -5.30400 44.66900
C  20.15900 -6.49800 45.51200
C  21.57000 -6.47600 46.00900
C  18.81600 -4.79900 43.87100
C  18.96200 -7.55700 45.73100
O  17.85300 -7.30000 45.31600
C  19.11400 -8.70500 46.69100
N  24.69600 -6.94800 46.92700
C  23.56700 -7.58700 47.33000
C  24.14300 -8.87500 48.07600
C  25.45800 -8.41400 48.62800
C  25.74800 -7.22600 47.69000
C  23.19000 -9.43600 49.07700
C  26.59200 -9.52400 48.57700
C  27.11800 -9.95200 49.95300
N  26.28200 -4.85000 46.00400
C  27.30500 -5.38900 46.79700
C  28.56400 -4.70300 46.58300
C  28.20800 -3.70300 45.68700
C  26.87100 -3.87700 45.32400
C  29.86600 -5.01800 47.22000
C  28.76200 -2.56000 44.97700
O  29.90300 -2.10900 44.96700
C  27.68900 -2.04700 44.03800
C  27.58800 -0.60800 44.42800
O  27.01300 -0.15200 45.41700
O  28.37600 0.20200 43.58500
C  28.34300 1.64800 43.90800
H  20.89200 -3.10900 43.38300
H  21.56500 -8.31700 46.99400
H  27.73500 -6.83300 48.35000
H  25.02400 -0.51500 43.16400
H  22.57300 -1.57900 42.10900
H  23.19400 0.49000 44.30400
H  22.03800 -0.75900 44.90000
H  21.69500 0.20600 43.54100
H  24.36300 -2.54500 40.94600
H  25.99200 -2.61700 41.55700
H  26.74500 -1.02000 40.42900
H  25.42800 0.01100 40.99500
H  18.26500 -5.63300 43.43800
H  19.06000 -3.97800 43.19600
H  18.20800 -4.34900 44.65600
H  18.19500 -9.28700 46.76300
H  19.49900 -8.39500 47.66300
H  19.83500 -9.37400 46.22100
H  24.26800 -9.69600 47.37000
H  25.24200 -8.12700 49.65700
H  23.61200 -9.50600 50.08000
H  22.96700 -10.44200 48.72100
H  22.21500 -8.95400 49.01200
H  27.44900 -9.19600 47.98900
H  26.17200 -10.45700 48.20100
H  28.08100 -9.52300 50.22700
H  27.05700 -11.02800 50.11500
H  26.45400 -9.49200 50.68500
H  29.64500 -4.94600 48.28500
H  30.58200 -4.26800 46.88300
H  30.14500 -6.05100 47.01600
H  28.04700 -2.13000 43.01200
H  27.37000 2.10700 43.73500
H  29.21500 2.00700 43.36200
H  28.62700 1.67300 44.96000
Mg 42.18800 42.17000 27.23900
C  41.11500 44.37200 29.83100
C  43.21100 39.99000 29.61800
C  43.15300 40.16500 24.77700
C  41.18900 44.54700 24.95500
N  42.39900 42.29700 29.47300
C  41.80800 43.22200 30.30200
C  42.20400 42.87600 31.78100
C  43.02700 41.55200 31.64300
C  42.85100 41.21000 30.14700
C  44.52000 41.57800 32.07000
C  40.97900 42.74400 32.75300
C  41.09300 43.32200 34.19200
H  40.31100 42.59300 35.32900
N  43.06400 40.29800 27.19800
C  43.33800 39.54700 28.27800
C  43.70300 38.21000 27.91600
C  43.62700 38.22700 26.48500
C  43.24800 39.60200 26.05700
C  44.22800 37.11700 28.87600
C  43.89100 37.07300 25.47000
O  43.81500 37.30200 24.27500
C  44.08700 35.64700 25.95100
N  42.33800 42.40100 25.17600
C  42.73500 41.39600 24.33500
C  42.59000 41.80400 22.89700
C  41.79900 43.12100 22.97500
C  41.77400 43.42700 24.45400
C  43.88700 41.97800 22.17600
C  40.40700 43.21200 22.23200
C  39.13500 42.93200 23.00200
N  41.41200 44.14600 27.33300
C  41.07100 44.98000 26.29500
C  40.36400 46.16900 26.85900
C  40.32000 45.91800 28.25200
C  40.98300 44.72900 28.47800
C  39.87600 47.35800 26.05300
C  39.89700 46.44300 29.55900
O  39.20000 47.45700 29.78600
C  40.34700 45.47400 30.65400
C  41.20600 46.19300 31.60700
O  42.38000 46.41900 31.57300
O  40.53600 46.51700 32.77600
C  41.31800 47.08500 33.88000
H  43.40300 39.17500 30.32000
H  43.47400 39.54000 23.94100
H  40.67100 45.26200 24.31300
H  42.92100 43.52000 32.29000
H  42.66400 40.76100 32.29900
H  45.12100 41.07800 31.31000
H  44.42500 41.09500 33.04300
H  44.82100 42.62500 32.08100
H  40.90700 41.67600 32.96100
H  40.04600 43.11100 32.32700
H  40.62600 44.30700 34.20100
H  42.15700 43.43800 34.39600
H  44.62400 37.57700 29.78200
H  45.09800 36.58100 28.49500
H  43.45100 36.36700 29.02000
H  45.16100 35.55300 26.10800
H  43.74700 34.94800 25.18700
H  43.52900 35.40800 26.85700
H  41.92700 41.04300 22.48600
H  42.40600 43.87800 22.47800
H  43.95700 42.97200 21.73300
H  44.13200 41.24000 21.41200
H  44.67400 41.87700 22.92300
H  40.60400 42.55700 21.38300
H  40.27400 44.18000 21.74900
H  39.27200 42.48900 23.98900
H  38.52600 42.21400 22.45200
H  38.49500 43.80500 23.12800
H  40.29500 47.40100 25.04800
H  40.33900 48.14200 26.65200
H  38.79300 47.47800 26.01400
H  39.43200 45.04500 31.06200
H  41.64400 46.26300 34.51600
H  40.71000 47.66600 34.57300
H  42.15900 47.71800 33.59600

