158

Mg -1.60500 17.78300 27.48400
C  -1.84900 15.75400 30.33000
C  -1.93600 20.53800 29.64900
C  -1.95100 19.79200 24.81100
C  -1.71700 14.89100 25.50200
N  -1.78000 18.14100 29.79800
C  -1.80400 17.09000 30.67100
C  -1.93000 17.70700 32.07900
C  -1.95100 19.26000 31.85000
C  -1.77000 19.33900 30.32600
C  -3.19700 19.89600 32.51500
C  -0.85400 17.21100 33.12300
C  -0.17600 18.20500 34.07800
H  0.05700 17.66900 35.53600
N  -1.86800 19.87100 27.24800
C  -1.97200 20.82700 28.24900
C  -1.98000 22.12700 27.59300
C  -2.18100 21.93800 26.14900
C  -1.99400 20.45500 26.05800
C  -2.02200 23.45300 28.34800
C  -2.41500 22.93500 24.99000
O  -2.51000 22.58000 23.78500
C  -2.35100 24.46400 25.33200
N  -1.69600 17.40100 25.44400
C  -1.89500 18.36500 24.57400
C  -1.77600 17.76600 23.13800
C  -1.61100 16.23600 23.34700
C  -1.75100 16.14800 24.91500
C  -2.89400 18.21100 22.11400
C  -0.39500 15.55200 22.58700
C  0.99700 16.23100 22.84600
N  -1.84200 15.76800 27.83800
C  -1.84600 14.68200 26.94000
C  -2.00400 13.43700 27.61200
C  -2.01300 13.78900 28.96100
C  -1.83200 15.22000 29.02200
C  -2.04900 12.05600 27.02000
C  -2.26500 13.35700 30.39300
O  -2.44100 12.26600 30.84900
C  -1.91900 14.55500 31.26700
C  -0.61300 14.20100 31.95200
O  0.42000 13.87000 31.42900
O  -0.84100 14.02700 33.31200
C  0.27900 13.45700 34.13600
H  -1.95300 21.39900 30.32000
H  -2.07100 20.31100 23.85700
H  -1.65000 14.08200 24.77200
H  -2.83400 17.26500 32.49800
H  -1.07500 19.75100 32.27300
H  -3.73600 20.36700 31.69300
H  -2.78200 20.55300 33.27900
H  -3.77700 19.12400 33.02300
H  -0.03200 16.69100 32.63100
H  -1.22300 16.44300 33.80300
H  -0.71200 19.15300 34.13400
H  0.84800 18.28900 33.71400
H  -1.61400 23.28300 29.34400
H  -3.03800 23.84000 28.42900
H  -1.39800 24.18000 27.82800
H  -2.57000 25.06400 24.44800
H  -1.34400 24.68300 25.68800
H  -3.08600 24.86400 26.03000
H  -0.84100 18.21800 22.80800
H  -2.54900 15.86200 22.93800
H  -2.38800 18.68800 21.27400
H  -3.67000 18.82200 22.57400
H  -3.49800 17.43300 21.64600
H  -0.63500 15.77400 21.54700
H  -0.47500 14.46900 22.68500
H  0.89000 17.21600 23.30000
H  1.63700 16.21700 21.96300
H  1.50400 15.60900 23.58400
H  -1.16400 12.07200 26.38400
H  -2.98000 11.95100 26.46200
H  -1.77000 11.30500 27.75800
H  -2.60200 14.69900 32.10400
H  1.26400 13.69900 33.73700
H  0.05400 12.39000 34.15600
H  0.23700 13.81200 35.16600
Mg -5.55300 26.18100 25.61000
C  -3.81200 27.59900 28.33300
C  -7.12700 24.04100 27.76900
C  -6.63500 24.59900 22.95000
C  -3.69900 28.44100 23.46700
N  -5.52800 25.95700 27.78900
C  -4.72200 26.60500 28.69200
C  -5.14600 26.30400 30.09800
C  -5.96800 24.94200 29.92700
C  -6.29400 25.01600 28.40900
C  -5.20900 23.62900 30.27300
C  -6.09000 27.37800 30.65400
C  -5.70600 27.92800 32.06200
H  -4.97000 27.06400 33.08700
N  -6.65900 24.49000 25.41800
C  -7.28500 23.79900 26.38400
C  -8.10600 22.71500 25.83700
C  -7.96800 22.83600 24.42700
C  -7.07400 24.01300 24.20400
C  -8.96000 21.74900 26.65700
C  -8.65000 22.00000 23.35400
O  -8.44500 22.23500 22.18400
C  -9.64700 20.88900 23.66900
N  -5.15700 26.49400 23.46400
C  -5.83300 25.72900 22.58000
C  -5.56800 26.17300 21.07800
C  -4.70300 27.43400 21.33900
C  -4.52500 27.51000 22.82500
C  -4.83600 25.04500 20.34300
C  -5.29500 28.74000 20.67200
C  -4.37000 29.49500 19.72700
N  -3.97700 27.64900 25.82900
C  -3.37600 28.47900 24.81900
C  -2.46400 29.45000 25.46800
C  -2.55200 29.07200 26.82600
C  -3.50800 28.05100 27.02200
C  -1.67000 30.52200 24.74100
C  -2.01800 29.34000 28.14900
O  -1.22200 30.16300 28.59800
C  -2.80000 28.38900 29.16500
C  -1.75200 27.55000 29.80700
O  -1.26200 26.50900 29.38600
O  -1.24500 28.18600 30.90000
C  -0.40100 27.43000 31.74100
H  -7.75000 23.48900 28.47600
H  -7.15400 24.19800 22.07700
H  -3.32800 29.16500 22.73900
H  -4.27000 26.16000 30.73200
H  -6.89400 24.99100 30.50000
H  -4.21300 23.91900 30.61000
H  -5.17600 22.93600 29.43200
H  -5.73000 23.05200 31.03700
H  -7.14500 27.13400 30.78200
H  -6.01200 28.21700 29.96300
H  -6.56200 28.40600 32.53900
H  -5.16500 28.86700 31.94800
H  -8.62300 20.79200 26.25900
H  -10.02500 21.87800 26.46300
H  -8.78300 21.84800 27.72800
H  -10.23500 20.52200 22.82800
H  -10.38300 21.31900 24.34800
H  -9.09600 20.10100 24.18300
H  -6.49700 26.42300 20.56600
H  -3.73200 27.22500 20.89200
H  -4.39600 24.22100 20.90400
H  -4.14200 25.36500 19.56600
H  -5.68300 24.65300 19.77900
H  -5.61100 29.46700 21.42000
H  -6.21900 28.59000 20.11500
H  -5.00600 30.21300 19.20800
H  -3.90200 28.90900 18.93600
H  -3.60800 30.02800 20.29600
H  -2.02400 30.61900 23.71500
H  -0.60200 30.30800 24.71400
H  -1.71300 31.56000 25.07200
H  -3.36600 28.90600 29.94000
H  -0.42200 26.36000 31.53500
H  -0.75600 27.54300 32.76500
H  0.61100 27.76200 31.50900

