158

Mg 17.22700 52.67400 25.26400
C  18.99300 51.53000 28.17100
C  14.60600 53.21600 27.37600
C  15.47200 53.37600 22.55800
C  19.92600 51.52800 23.30800
N  16.88900 52.50600 27.58900
C  17.74900 52.00500 28.51000
C  17.26300 52.34100 29.90700
C  15.72800 52.62300 29.66400
C  15.69800 52.76300 28.14100
C  14.73700 51.54500 30.10300
C  18.03800 53.51100 30.51900
C  17.95900 53.84000 31.96400
H  17.00900 53.01100 32.84500
N  15.46600 53.39900 25.00600
C  14.46400 53.55300 25.97800
C  13.23200 53.98800 25.38500
C  13.47200 54.10900 23.99600
C  14.85800 53.63600 23.80100
C  12.02300 54.45700 26.14700
C  12.49100 54.65700 22.90800
O  12.90300 54.81900 21.78400
C  11.05500 55.07900 23.21300
N  17.72400 52.57400 23.17200
C  16.81300 52.96100 22.25200
C  17.38100 52.93600 20.82000
C  18.89400 52.42900 21.09800
C  18.83400 52.00600 22.60100
C  16.58300 51.93200 19.98100
C  19.96400 53.51200 20.89400
C  21.33700 52.91900 20.43200
N  18.92100 51.51100 25.60500
C  19.91600 51.17500 24.68800
C  21.02000 50.54700 25.43800
C  20.67600 50.74000 26.78300
C  19.41600 51.29700 26.82700
C  22.26500 49.97500 24.86100
C  21.19400 50.47800 28.15000
O  22.30500 50.08600 28.54300
C  20.09200 51.01300 29.09400
C  19.62200 49.84800 29.99000
O  18.94200 48.90400 29.65000
O  20.08600 50.01400 31.32600
C  19.38500 49.28100 32.35500
H  13.76600 53.39200 28.05200
H  14.77300 53.60200 21.75000
H  20.82500 51.21200 22.77500
H  17.40800 51.40500 30.44700
H  15.41800 53.57300 30.10100
H  14.08100 51.17400 29.31600
H  14.13100 51.94100 30.91800
H  15.22200 50.70200 30.59500
H  17.70100 54.45900 30.10000
H  19.08800 53.45500 30.23300
H  17.79600 54.91000 32.09300
H  18.96700 53.73200 32.36400
H  12.04300 55.54100 26.03200
H  12.03200 54.14200 27.19000
H  11.13200 54.06600 25.65400
H  10.47900 54.20500 23.51600
H  10.66300 55.41900 22.25500
H  11.11300 55.88600 23.94400
H  17.26900 53.94400 20.42200
H  19.19600 51.53900 20.54700
H  15.54500 52.02100 20.30200
H  16.87800 50.89100 20.11400
H  16.72100 52.08400 18.91100
H  19.98500 54.11700 21.80000
H  19.54400 54.10900 20.08400
H  22.09000 53.05200 21.20900
H  21.66400 53.34000 19.48100
H  21.22200 51.87400 20.14400
H  22.76100 50.74600 24.27200
H  22.10000 49.04200 24.32300
H  22.98800 49.74100 25.64200
H  20.53300 51.79400 29.71300
H  19.31900 48.19500 32.28700
H  18.32900 49.54500 32.30800
H  19.87200 49.63000 33.26500
Mg -10.36400 39.14300 41.27400
C  -8.82700 36.03400 40.64300
C  -7.91700 40.66800 39.30400
C  -12.29600 41.91800 41.02500
C  -13.15800 37.25000 42.44700
N  -8.62900 38.43400 40.06000
C  -8.21400 37.12200 39.94400
C  -6.98300 37.05700 39.07900
C  -6.46600 38.57900 39.00500
C  -7.69000 39.30500 39.55200
C  -5.14500 38.83500 39.75500
C  -7.20700 36.42300 37.65800
C  -6.22200 35.41300 37.04400
H  -5.56200 35.73400 35.67900
N  -10.04400 41.03700 40.43600
C  -8.99300 41.51300 39.70200
C  -9.18700 42.88200 39.30100
C  -10.40000 43.33500 39.88100
C  -10.96500 42.09100 40.48800
C  -8.18100 43.68400 38.57500
C  -10.94300 44.72900 39.84800
O  -10.45200 45.57400 39.17600
C  -12.15100 45.07100 40.60100
N  -12.40300 39.52300 41.68500
C  -12.90300 40.79200 41.63200
C  -14.43300 40.79900 41.95300
C  -14.67600 39.34200 42.44300
C  -13.35800 38.57200 42.05700
C  -14.88400 41.90400 43.00400
C  -16.01300 38.72700 41.74300
C  -17.08500 37.99200 42.55500
N  -10.83700 37.10900 41.76400
C  -12.02700 36.53700 42.29100
C  -11.71600 35.11900 42.50200
C  -10.53500 34.90900 41.81200
C  -10.05800 36.09800 41.35900
C  -12.65700 34.24800 43.17900
C  -9.60000 33.87200 41.54100
O  -9.53600 32.70100 41.82900
C  -8.41900 34.55100 40.64000
C  -7.13300 34.18000 41.16200
O  -6.63600 33.08200 40.91100
O  -6.65800 35.16400 41.98500
C  -5.46900 34.71400 42.74000
H  -7.01500 41.09600 38.86200
H  -12.95100 42.78600 40.92600
H  -14.01000 36.67100 42.81100
H  -6.25900 36.51000 39.68300
H  -6.29900 38.78200 37.94700
H  -4.31200 38.23800 39.38400
H  -5.31200 38.63900 40.81400
H  -4.83600 39.86400 39.56900
H  -7.09000 37.18400 36.88700
H  -8.25500 36.12700 37.60300
H  -6.80900 34.49400 37.02300
H  -5.35900 35.34200 37.70500
H  -7.68900 44.27600 39.34700
H  -8.81100 44.28300 37.91800
H  -7.50100 43.10200 37.95300
H  -11.99500 44.70700 41.61600
H  -13.06400 44.68500 40.14700
H  -12.16800 46.15700 40.68800
H  -14.88500 40.92900 40.97000
H  -14.77800 39.19400 43.51800
H  -15.53600 42.61000 42.49000
H  -14.00900 42.41400 43.40700
H  -15.37400 41.45000 43.86500
H  -15.66300 38.17500 40.87000
H  -16.50000 39.53200 41.19300
H  -18.03700 38.49600 42.38900
H  -16.82700 37.83400 43.60300
H  -17.08500 36.99400 42.11700
H  -12.53600 33.22800 42.81400
H  -13.65300 34.60700 42.91800
H  -12.50200 34.32600 44.25500
H  -8.44100 34.14300 39.62900
H  -5.05800 35.51600 43.35300
H  -4.69100 34.56400 41.99200
H  -5.62600 33.82200 43.34600

