158

Mg 44.39400 3.04400 46.66300
C  42.56700 5.95600 46.21100
C  41.57100 1.26100 46.15700
C  46.50000 0.42100 46.40100
C  47.36300 5.12900 46.27000
N  42.26700 3.56100 46.05100
C  41.75400 4.84400 45.95800
C  40.17700 4.75600 45.98300
C  39.95600 3.27300 46.11400
C  41.30300 2.63800 46.17100
C  39.04400 2.75900 47.22700
C  39.55000 5.43000 44.76300
C  40.10700 4.80200 43.39600
H  40.99500 5.53800 42.49200
N  44.07400 1.15400 46.28500
C  42.80400 0.57300 46.10800
C  43.01900 -0.87100 46.00100
C  44.41400 -1.10000 45.93700
C  45.12000 0.20300 46.24000
C  41.92300 -1.87400 45.89000
C  45.16000 -2.44600 45.67100
O  44.61500 -3.49300 45.45000
C  46.58400 -2.54900 45.50400
N  46.59700 2.80800 46.43900
C  47.20600 1.60500 46.55800
C  48.76100 1.71900 46.69800
C  48.92900 3.22900 46.30800
C  47.52200 3.71700 46.38800
C  49.17500 1.22500 48.15200
C  49.60800 3.43300 44.92200
C  51.10500 3.70800 44.92200
N  44.90900 5.09000 46.40100
C  46.10600 5.78900 46.34500
C  45.92000 7.21700 46.36000
C  44.48500 7.28100 46.36700
C  43.97300 5.98900 46.33800
C  46.99200 8.17900 46.37100
C  43.43500 8.21200 46.33900
O  43.47300 9.47800 46.31300
C  42.08300 7.41900 46.17700
C  41.27000 7.61800 47.47500
O  41.09000 6.79100 48.36100
O  40.53600 8.83000 47.44600
C  39.42000 8.91100 48.37000
H  40.68100 0.64000 46.03300
H  47.24700 -0.35900 46.56000
H  48.20800 5.81700 46.35400
H  39.71100 5.23900 46.84100
H  39.64800 2.80400 45.18000
H  38.16500 2.27700 46.80100
H  38.79100 3.58300 47.89500
H  39.47700 1.97700 47.85200
H  39.83700 6.48100 44.71100
H  38.46100 5.38400 44.78300
H  39.20000 4.68000 42.80400
H  40.58900 3.82600 43.46300
H  41.52000 -1.94000 44.87900
H  41.07000 -1.59900 46.51000
H  42.16000 -2.90500 46.15100
H  46.93300 -1.72800 44.87700
H  46.80500 -3.54000 45.10700
H  47.05200 -2.55800 46.48800
H  49.13800 0.95000 46.02400
H  49.50700 3.80600 47.03000
H  49.77600 1.95800 48.69100
H  49.72400 0.28500 48.11100
H  48.29300 1.09200 48.77900
H  49.06600 4.00500 44.16800
H  49.70700 2.46300 44.43300
H  51.55600 3.77900 45.91100
H  51.19000 4.64600 44.37200
H  51.62100 2.94300 44.34200
H  47.51900 8.17000 47.32500
H  46.54500 9.17100 46.31300
H  47.57300 7.97100 45.47300
H  41.45500 7.69300 45.32900
H  39.17100 9.96500 48.49500
H  39.45900 8.41600 49.34000
H  38.60100 8.40700 47.85800
Mg 41.04400 41.14500 27.39600
C  40.56500 43.59800 29.79000
C  41.85900 38.89500 29.90800
C  42.08300 39.02500 25.09200
C  40.05800 43.33700 24.94600
N  41.27800 41.32500 29.60000
C  40.91700 42.37800 30.42300
C  40.85700 41.90800 31.91500
C  41.39400 40.40600 31.87500
C  41.52600 40.18100 30.35500
C  42.70200 40.19100 32.71700
C  39.56000 42.21100 32.57400
C  39.21300 41.55100 33.89000
H  38.64100 42.42400 34.98100
N  41.91300 39.23800 27.54200
C  42.05300 38.38900 28.64800
C  42.50700 37.11400 28.22800
C  42.84000 37.22400 26.82200
C  42.31700 38.59000 26.45400
C  42.70300 36.02000 29.25100
C  43.40500 36.17100 25.88300
O  43.61400 36.45900 24.65000
C  43.62600 34.82900 26.39500
N  41.19600 41.25200 25.30400
C  41.52400 40.22000 24.61000
C  41.37900 40.35600 23.08900
C  40.48500 41.62500 23.06900
C  40.54300 42.13400 24.51300
C  42.59200 40.46000 22.08800
C  39.04300 41.50900 22.54000
C  38.19200 40.53400 23.37300
N  40.59400 43.14600 27.36000
C  40.17000 43.92300 26.24300
C  39.88700 45.29200 26.73000
C  40.07500 45.10300 28.08000
C  40.49700 43.83900 28.42600
C  39.55500 46.47600 25.89300
C  40.04900 45.90100 29.35800
O  39.77400 47.09900 29.57400
C  40.20300 44.85100 30.47100
C  41.37200 45.25000 31.21300
O  42.51700 45.13000 30.81100
O  41.08400 45.49300 32.54600
C  42.28400 45.83500 33.34100
H  41.83000 38.19900 30.74900
H  42.35900 38.28800 24.33500
H  39.53400 44.03100 24.28700
H  41.60000 42.59000 32.32900
H  40.71100 39.63400 32.22600
H  42.50600 40.08000 33.78300
H  43.49100 40.90000 32.46300
H  43.19200 39.24100 32.50400
H  38.69400 41.91000 31.98400
H  39.68800 43.28900 32.67300
H  40.10100 41.04400 34.26800
H  38.52900 40.71000 33.77700
H  43.75200 35.73100 29.31200
H  42.29300 35.19000 28.67600
H  42.20100 36.14500 30.21100
H  44.08000 34.27700 25.57200
H  42.74100 34.33600 26.79800
H  44.38800 34.92800 27.16800
H  40.80300 39.46800 22.83100
H  40.88400 42.37600 22.38700
H  43.45900 40.76400 22.67600
H  42.28600 41.04200 21.21800
H  42.78700 39.49300 21.62500
H  39.05200 40.99600 21.57800
H  38.65100 42.52100 22.43900
H  37.62100 39.80200 22.80300
H  37.49300 41.19400 23.88500
H  38.77800 39.97800 24.10500
H  40.46200 46.65700 25.31500
H  39.28700 47.32900 26.51600
H  38.76000 46.26200 25.17900
H  39.31600 44.79900 31.10200
H  43.09500 45.13000 33.16200
H  41.95200 45.67900 34.36800
H  42.67700 46.84700 33.25200

