158

Mg 47.30500 35.04700 26.04000
C  45.48500 33.76200 28.73200
C  47.81200 37.88500 27.82400
C  48.74200 36.34300 23.36600
C  46.22400 32.18500 24.16300
N  46.62800 35.68600 27.96100
C  46.08200 34.97100 28.97100
C  46.10200 35.71900 30.28700
C  46.51900 37.15500 29.78600
C  46.96600 36.92800 28.41200
C  45.29600 38.15700 29.82700
C  47.24700 35.12000 31.26200
C  47.01400 34.93000 32.76700
H  46.01300 35.93100 33.35000
N  48.40300 36.71100 25.76100
C  48.50000 37.82900 26.59300
C  49.38600 38.75600 26.04600
C  49.54600 38.42000 24.69800
C  48.84700 37.12300 24.50900
C  49.88200 39.97200 26.79300
C  50.20900 39.20400 23.50400
O  50.40000 38.68500 22.39600
C  50.77100 40.59400 23.63000
N  47.17600 34.47000 23.98800
C  48.03800 35.14500 23.14100
C  48.06000 34.45200 21.73600
C  47.52400 33.00800 22.04300
C  46.95100 33.21100 23.49900
C  47.23600 35.19900 20.65900
C  48.50600 31.80200 21.98100
C  48.16300 30.56000 21.07300
N  45.91600 33.39100 26.31600
C  45.62500 32.32700 25.46900
C  45.05900 31.32200 26.18800
C  44.75400 31.90200 27.46300
C  45.43300 33.11500 27.52100
C  44.68000 29.97200 25.72300
C  44.20300 31.63000 28.70200
O  43.57700 30.68300 29.08500
C  44.52800 32.88200 29.59900
C  45.11300 32.30500 30.87600
O  46.20500 31.78200 30.95900
O  44.13300 32.36100 31.83300
C  44.51900 31.54400 33.04500
H  47.92200 38.83300 28.35400
H  49.26400 36.69000 22.47300
H  45.84100 31.33200 23.59800
H  45.06000 35.71000 30.60500
H  47.19500 37.70800 30.43800
H  44.59100 37.88400 30.61200
H  44.69700 38.12500 28.91700
H  45.67000 39.17400 29.94200
H  48.07500 35.82400 31.34900
H  47.67000 34.19900 30.86200
H  47.91600 35.17700 33.32800
H  46.74200 33.95500 33.17000
H  50.93700 40.17300 26.61000
H  49.87900 39.88400 27.87900
H  49.25800 40.85000 26.62400
H  51.46000 40.62200 24.47400
H  50.01400 41.36900 23.74600
H  51.38000 40.76000 22.74100
H  49.11900 34.44200 21.47700
H  46.63000 32.77600 21.46400
H  46.74100 36.10200 21.01600
H  46.36600 34.68900 20.24700
H  47.89000 35.47600 19.83200
H  48.61200 31.43600 23.00200
H  49.47800 32.12800 21.61100
H  47.33300 30.79200 20.40500
H  47.74700 29.89500 21.82900
H  49.01000 30.16400 20.51200
H  44.32700 29.36300 26.55600
H  45.59500 29.54800 25.30800
H  43.81800 30.03200 25.06000
H  43.51100 33.25900 29.71100
H  45.55700 31.72500 33.32400
H  44.56300 30.47400 32.83800
H  43.86500 31.85000 33.86100
Mg -5.66900 25.41700 26.26000
C  -4.44600 26.86700 29.25000
C  -7.65800 23.36800 28.16600
C  -6.43300 23.93900 23.37300
C  -3.42700 27.59800 24.53100
N  -5.90500 25.12000 28.52700
C  -5.41800 25.91200 29.50100
C  -6.04500 25.57400 30.80200
C  -6.88100 24.29800 30.40000
C  -6.82600 24.23500 28.94700
C  -6.43000 22.93700 31.01700
C  -6.85900 26.79300 31.44200
C  -6.79300 27.03900 32.92900
H  -6.27500 25.83200 33.77900
N  -6.88300 23.87600 25.78400
C  -7.68000 23.17500 26.71500
C  -8.51000 22.21600 26.05000
C  -8.06100 22.28800 24.64300
C  -7.12800 23.42300 24.49500
C  -9.45500 21.28900 26.71700
C  -8.40600 21.35000 23.47900
O  -8.08000 21.50000 22.29700
C  -9.35600 20.22300 23.66000
N  -5.05700 25.76100 24.20100
C  -5.52300 24.95000 23.21900
C  -4.80800 25.28300 21.87500
C  -4.13500 26.63200 22.21300
C  -4.25700 26.74800 23.74200
C  -3.88600 24.06300 21.53800
C  -4.84600 27.84700 21.58400
C  -4.49300 28.28800 20.15000
N  -4.20100 27.00500 26.81600
C  -3.36300 27.64200 25.95900
C  -2.47500 28.49900 26.77200
C  -2.89600 28.25200 28.05800
C  -3.93900 27.27900 28.00800
C  -1.45800 29.44900 26.09700
C  -2.70500 28.61800 29.45900
O  -1.99300 29.48000 29.91000
C  -3.66200 27.73500 30.26500
C  -2.88400 26.92300 31.21700
O  -2.44300 25.80400 31.02500
O  -2.63000 27.65000 32.33000
C  -2.00900 26.89000 33.42400
H  -8.40000 22.85700 28.78300
H  -6.73700 23.53400 22.40500
H  -2.83100 28.31500 23.96200
H  -5.22000 25.33500 31.47400
H  -7.90900 24.61000 30.58700
H  -6.66500 22.95000 32.08100
H  -5.34800 22.84200 30.92600
H  -7.02400 22.16600 30.52600
H  -7.91500 26.63000 31.22800
H  -6.58800 27.74100 30.97700
H  -7.76700 27.39800 33.26200
H  -6.18800 27.93200 33.08800
H  -10.40000 21.11600 26.20200
H  -9.53000 21.43100 27.79500
H  -8.92000 20.34300 26.63300
H  -10.39200 20.56000 23.62500
H  -9.05700 19.54600 24.46000
H  -9.29800 19.55400 22.80200
H  -5.48100 25.49400 21.04400
H  -3.10500 26.58900 21.86000
H  -2.84700 24.38600 21.59200
H  -4.10900 23.71800 20.52800
H  -4.00100 23.17200 22.15600
H  -4.63400 28.72400 22.19500
H  -5.90900 27.63200 21.48300
H  -5.27100 28.80800 19.59100
H  -3.95900 27.55800 19.54300
H  -3.77900 29.10800 20.22700
H  -2.07500 30.32200 25.89000
H  -0.92900 29.13400 25.19700
H  -0.76800 29.70600 26.90000
H  -4.35700 28.37600 30.80800
H  -0.92200 26.95800 33.38300
H  -2.32100 25.85200 33.54100
H  -1.97600 27.40500 34.38500

