158

Mg 8.69000 2.29400 27.70900
C  10.09900 0.60700 30.53900
C  7.27500 4.49300 29.83700
C  6.95100 3.42300 25.15200
C  9.93300 -0.40400 25.68800
N  8.64500 2.44800 29.85000
C  9.32900 1.74500 30.79300
C  9.27100 2.35000 32.15300
C  8.19700 3.37400 31.94800
C  8.07800 3.51100 30.43600
C  6.86000 3.24100 32.78800
C  10.60300 2.93500 32.62600
C  10.92900 2.82700 34.10100
H  9.85300 2.80000 35.23600
N  7.33200 3.76700 27.51200
C  6.93000 4.63300 28.47100
C  6.12000 5.63200 27.95300
C  6.06900 5.44700 26.54300
C  6.74300 4.10200 26.35700
C  5.30200 6.66700 28.78300
C  5.38600 6.32800 25.40200
O  5.27600 5.98900 24.20700
C  4.79300 7.68700 25.83000
N  8.39700 1.53200 25.63600
C  7.68600 2.24600 24.81800
C  7.84300 1.70200 23.35700
C  8.82200 0.54600 23.59000
C  9.18700 0.61800 24.99600
C  6.49800 1.38300 22.67200
C  10.12900 0.69400 22.72000
C  10.50700 -0.44700 21.78200
N  9.75000 0.46500 27.97800
C  10.11400 -0.51500 27.09500
C  10.82100 -1.53700 27.84100
C  10.88800 -1.08200 29.20400
C  10.16900 0.07700 29.23100
C  11.48900 -2.76300 27.24700
C  11.43400 -1.40000 30.51200
O  12.21600 -2.26900 30.82200
C  10.96400 -0.24700 31.41600
C  10.02400 -0.80300 32.45100
O  8.86200 -1.11200 32.17700
O  10.57100 -0.82400 33.74700
C  9.61700 -1.19600 34.79300
H  7.00500 5.29700 30.52500
H  6.41600 3.89300 24.32300
H  10.30000 -1.21800 25.05900
H  8.93700 1.60800 32.87800
H  8.53200 4.33000 32.35300
H  5.97500 2.99200 32.20200
H  6.70900 4.22400 33.23500
H  7.00400 2.41500 33.48400
H  10.66500 4.00900 32.45500
H  11.40200 2.36100 32.15600
H  11.70500 3.54000 34.37800
H  11.34100 1.81800 34.13000
H  5.79000 7.57800 28.43600
H  5.41300 6.50500 29.85500
H  4.26400 6.65200 28.45100
H  5.57100 8.42400 26.02800
H  4.01900 7.50500 26.57600
H  4.24400 8.12200 24.99400
H  8.21200 2.52100 22.73900
H  8.40900 -0.45500 23.46600
H  6.54400 0.39900 22.20500
H  6.24900 2.10400 21.89300
H  5.69200 1.34900 23.40400
H  11.00600 0.75600 23.36500
H  10.21300 1.61200 22.13800
H  9.65600 -1.10700 21.61200
H  11.35100 -1.08900 22.03600
H  10.83000 -0.00700 20.83900
H  12.46700 -2.44400 26.88700
H  10.82300 -3.28500 26.56000
H  11.69100 -3.54100 27.98300
H  11.82500 0.29800 31.80400
H  9.16500 -2.18200 34.69000
H  9.00600 -0.29400 34.83600
H  10.24500 -1.18900 35.68300
Mg 41.05100 40.89900 26.87500
C  40.40400 43.39700 29.11400
C  42.16500 38.79900 29.33700
C  41.83100 38.74500 24.44200
C  40.71200 43.35700 24.18700
N  41.26700 41.04900 29.00800
C  40.80900 42.15400 29.74900
C  41.05000 41.90600 31.26900
C  41.58900 40.46200 31.28100
C  41.74500 40.06700 29.82300
C  42.90200 40.30200 31.98800
C  39.74800 42.10200 32.21100
C  39.99100 42.01700 33.78000
H  39.18400 42.93500 34.65600
N  41.81300 38.98700 26.93100
C  42.22500 38.29000 28.03300
C  42.59200 36.94600 27.60500
C  42.56000 36.98800 26.16400
C  42.00600 38.28800 25.77000
C  43.01200 35.83000 28.49000
C  43.00600 35.81800 25.22100
O  43.04800 35.98400 23.96600
C  43.27400 34.45100 25.75600
N  40.97300 40.95600 24.60600
C  41.39300 39.91100 23.89000
C  41.39500 40.04000 22.36600
C  40.88200 41.58200 22.33800
C  40.83700 42.01800 23.78100
C  42.70700 39.64300 21.62000
C  39.45200 41.76400 21.65700
C  38.31300 41.37300 22.55700
N  40.67700 42.99500 26.61700
C  40.58800 43.85400 25.52900
C  40.31600 45.15100 26.06000
C  40.18900 45.03500 27.43500
C  40.40700 43.71700 27.70100
C  40.24200 46.43000 25.23800
C  39.94400 45.70200 28.66800
O  39.67300 46.85200 29.00900
C  40.13600 44.69000 29.83500
C  41.38600 45.18600 30.52700
O  42.47900 45.23600 29.98900
O  41.16700 45.47900 31.89800
C  42.29000 45.89400 32.72900
H  42.35400 38.13200 30.18000
H  41.97000 37.95100 23.70500
H  40.63800 44.11300 23.40100
H  41.76500 42.69600 31.50000
H  40.80700 39.88200 31.77100
H  42.70200 39.66500 32.85000
H  43.22000 41.29500 32.30400
H  43.69700 39.87800 31.37500
H  39.06500 41.32000 31.88000
H  39.21900 42.98100 31.84300
H  41.06900 42.00100 33.94400
H  39.66200 40.99000 33.93800
H  42.30800 35.00200 28.57700
H  43.09000 36.21900 29.50500
H  43.97000 35.34800 28.29400
H  42.60200 34.09300 26.53500
H  44.16900 34.57600 26.36500
H  43.33300 33.74800 24.92500
H  40.62600 39.43800 21.88300
H  41.61200 42.11200 21.72600
H  43.51900 39.24500 22.22800
H  43.07900 40.54200 21.13000
H  42.49200 38.91300 20.83900
H  39.57400 41.11400 20.79000
H  39.31700 42.81700 21.41100
H  38.60900 41.04400 23.55300
H  37.73400 40.61700 22.02700
H  37.72300 42.28700 22.62100
H  39.93000 46.25200 24.20900
H  41.24800 46.85000 25.23600
H  39.55400 47.03100 25.83300
H  39.19100 44.84400 30.35700
H  42.27200 45.39300 33.69700
H  42.21700 46.97800 32.82000
H  43.22000 45.49800 32.32100

