158

Mg -12.32300 37.99800 41.91500
C  -10.23300 35.40700 40.83300
C  -10.28000 40.21000 40.15200
C  -14.52800 40.41600 42.50500
C  -14.24700 35.69700 43.44200
N  -10.59400 37.73800 40.58100
C  -9.88900 36.61300 40.29400
C  -8.83800 36.86100 39.19400
C  -8.71200 38.43300 39.33900
C  -10.02200 38.87000 40.03900
C  -7.44200 38.84700 40.21300
C  -9.03200 36.23500 37.76900
C  -7.78800 35.47900 37.17200
H  -6.78600 36.37600 36.30500
N  -12.34400 40.12600 41.50000
C  -11.41300 40.76800 40.81600
C  -11.84800 42.16800 40.81200
C  -13.16400 42.30400 41.44800
C  -13.39000 40.91000 41.88800
C  -11.02900 43.14800 40.16700
C  -13.94200 43.54800 41.73400
O  -13.51800 44.66000 41.44000
C  -15.30800 43.54400 42.34900
N  -14.14100 38.05400 42.69100
C  -14.89200 39.14600 42.88500
C  -16.21100 38.80500 43.72600
C  -16.12800 37.24700 43.94200
C  -14.77700 36.98500 43.29900
C  -16.19100 39.64400 44.94000
C  -17.21300 36.39200 43.26900
C  -17.91500 35.33600 44.09200
N  -12.32400 35.90600 42.06900
C  -13.07800 35.13500 42.93000
C  -12.53600 33.76800 43.09600
C  -11.32600 33.80600 42.32200
C  -11.31800 35.10200 41.67900
C  -12.99700 32.64900 43.99600
C  -10.15500 33.17500 41.81800
O  -9.73400 32.03900 42.01700
C  -9.55300 34.07800 40.65400
C  -8.03000 34.14600 40.77100
O  -7.24200 34.79600 41.46200
O  -7.57000 33.17300 39.90800
C  -6.11900 33.07600 39.83200
H  -9.58200 40.87300 39.63700
H  -15.32200 41.15000 42.65400
H  -14.81400 34.91200 43.94600
H  -7.88000 36.49500 39.56300
H  -8.67000 38.93800 38.37400
H  -6.81200 38.05200 40.61300
H  -7.82300 39.39200 41.07600
H  -6.81500 39.55200 39.66700
H  -9.26100 36.93300 36.96300
H  -9.78500 35.44900 37.81400
H  -8.14200 34.64700 36.56300
H  -7.24100 35.01200 37.99100
H  -11.66200 43.98600 39.87600
H  -10.48000 42.86700 39.26800
H  -10.29700 43.40000 40.93400
H  -15.97600 42.91200 41.76300
H  -15.66400 44.56000 42.52300
H  -15.26400 43.09400 43.34000
H  -17.09500 39.08000 43.15100
H  -16.07200 37.05700 45.01300
H  -15.13000 39.75300 45.16900
H  -16.60100 39.05900 45.76300
H  -16.73200 40.58900 44.89600
H  -16.74200 35.80900 42.47700
H  -17.88900 37.08800 42.77300
H  -17.96100 35.52200 45.16500
H  -17.61700 34.28900 44.03000
H  -18.91000 35.25700 43.65500
H  -12.36200 31.77100 43.87500
H  -14.03600 32.39800 43.78400
H  -13.11400 32.98200 45.02700
H  -9.95400 33.66500 39.72900
H  -5.69800 32.67400 40.75400
H  -5.74500 34.08400 39.65300
H  -5.87300 32.29100 39.11700
Mg -10.60200 16.00200 42.13500
C  -7.27000 14.92400 41.52200
C  -9.88900 18.77900 40.23400
C  -14.01000 16.53400 41.93600
C  -11.29900 12.83300 43.59500
N  -8.77900 16.64900 40.83100
C  -7.54900 16.13800 40.84700
C  -6.59000 16.98900 40.07100
C  -7.41000 18.28200 39.74900
C  -8.82300 17.87800 40.29300
C  -6.78500 19.56100 40.32000
C  -5.80700 16.36600 38.87700
C  -4.59500 17.19100 38.49200
H  -4.80000 18.00200 37.21800
N  -11.71900 17.53500 41.31200
C  -11.24600 18.69100 40.70600
C  -12.37300 19.59500 40.45500
C  -13.58900 18.94400 40.86700
C  -13.16900 17.62000 41.38300
C  -12.18000 21.04200 39.87400
C  -14.92800 19.55400 40.84000
O  -15.02400 20.69600 40.40800
C  -16.14800 18.68300 41.20500
N  -12.43200 14.79100 42.60000
C  -13.66300 15.33100 42.57000
C  -14.73900 14.46500 43.31200
C  -13.84800 13.25300 43.86700
C  -12.41300 13.67100 43.32800
C  -15.28400 15.29900 44.46700
C  -14.30700 11.85300 43.31400
C  -13.71800 10.61000 43.96300
N  -9.54600 14.26100 42.50000
C  -9.95700 13.08300 43.18100
C  -8.88400 12.10400 43.16000
C  -7.81800 12.78800 42.52200
C  -8.30300 14.09500 42.15800
C  -8.87300 10.70300 43.70700
C  -6.43200 12.69500 42.16000
O  -5.70100 11.71200 42.31300
C  -5.96500 14.07000 41.55300
C  -4.88800 14.72400 42.32900
O  -5.00400 15.08900 43.50600
O  -3.81500 14.87800 41.48100
C  -2.67600 15.66800 41.99000
H  -9.61600 19.70400 39.72200
H  -15.06700 16.76800 42.07500
H  -11.62000 11.95100 44.15300
H  -5.87300 17.39900 40.78200
H  -7.60200 18.43600 38.68700
H  -6.97000 20.24900 39.49500
H  -5.71900 19.55600 40.54500
H  -7.34800 19.99100 41.14800
H  -6.48200 16.16700 38.04500
H  -5.44600 15.34900 39.02900
H  -3.72800 16.53100 38.47000
H  -4.39700 18.00000 39.19500
H  -12.70800 21.70600 40.55800
H  -12.61600 21.23500 38.89300
H  -11.15400 21.37500 39.71800
H  -17.06100 19.25400 41.03700
H  -16.25800 18.35700 42.23900
H  -16.06000 17.81100 40.55700
H  -15.51000 14.05000 42.66300
H  -13.84800 13.21100 44.95600
H  -16.20800 14.80400 44.76400
H  -15.58200 16.31300 44.19900
H  -14.66700 15.38100 45.36100
H  -14.22600 11.78800 42.22900
H  -15.38700 11.76800 43.44000
H  -13.11800 9.99300 43.29500
H  -14.58900 10.03900 44.28500
H  -13.17900 10.91500 44.86000
H  -8.93100 9.94800 42.92300
H  -9.68400 10.41300 44.37500
H  -7.94400 10.54300 44.25600
H  -5.48900 13.79900 40.61000
H  -2.56300 15.78600 43.06800
H  -2.85300 16.61300 41.47700
H  -1.75800 15.29500 41.53500

