158

Mg 23.85600 -5.66800 46.35400
C  26.26000 -3.78800 44.59600
C  21.55800 -4.75200 44.03900
C  21.97700 -8.31100 47.24200
C  26.56400 -7.11300 48.09300
N  23.92600 -4.46300 44.52500
C  24.96500 -3.70500 44.10100
C  24.61300 -2.81600 42.90800
C  23.01700 -2.95200 42.91400
C  22.82200 -4.11200 43.88100
C  22.15200 -1.70700 43.21100
C  25.32400 -3.17000 41.62100
C  26.07100 -2.02100 40.94200
H  25.24800 -1.29700 39.81500
N  21.93800 -6.42500 45.82300
C  21.12000 -5.82800 44.88700
C  19.80300 -6.45100 44.92100
C  19.86100 -7.50900 45.89400
C  21.32400 -7.50900 46.34200
C  18.71100 -6.00000 43.96200
C  18.67400 -8.37100 46.30400
O  17.54500 -8.16600 45.90100
C  18.81500 -9.49400 47.27400
N  24.27200 -7.56600 47.33000
C  23.23200 -8.31500 47.72600
C  23.61100 -9.55500 48.51700
C  25.09100 -9.09100 48.92800
C  25.36100 -7.77700 48.17900
C  22.63200 -10.01500 49.66900
C  26.19000 -10.17600 48.55500
C  26.83500 -10.16000 47.18700
N  25.99600 -5.40200 46.48400
C  26.97600 -6.04600 47.26200
C  28.26200 -5.44300 47.08800
C  28.02400 -4.50800 46.05400
C  26.65000 -4.58300 45.74000
C  29.52800 -5.86200 47.74100
C  28.70100 -3.47500 45.26000
O  29.82200 -2.99800 45.27200
C  27.55500 -3.00700 44.24300
C  27.41400 -1.53600 44.43800
O  26.73300 -1.02300 45.29800
O  28.15300 -0.86400 43.47600
C  28.02200 0.57000 43.57800
H  20.89000 -4.31100 43.29700
H  21.35200 -9.12400 47.61600
H  27.36000 -7.52800 48.71500
H  24.75900 -1.78900 43.24200
H  22.60400 -3.27700 41.95900
H  21.74400 -1.96100 44.19000
H  21.40400 -1.61000 42.42400
H  22.72400 -0.81000 43.44600
H  24.60100 -3.48300 40.86800
H  26.09200 -3.93500 41.73100
H  27.06600 -2.27400 40.57700
H  26.19400 -1.25000 41.70300
H  18.41100 -6.93300 43.48500
H  19.13500 -5.33600 43.20900
H  17.82100 -5.62600 44.46800
H  17.85100 -9.75100 47.71400
H  19.39400 -9.26900 48.16900
H  19.38000 -10.23600 46.71100
H  23.74100 -10.34200 47.77500
H  25.28000 -8.84300 49.97200
H  22.15600 -10.97400 49.46500
H  21.85300 -9.25700 49.74900
H  23.15800 -10.21900 50.60200
H  25.80300 -11.18400 48.70200
H  27.03400 -10.08400 49.23900
H  27.89500 -9.91100 47.23100
H  26.34700 -9.49400 46.47600
H  26.78800 -11.19200 46.83900
H  29.52100 -6.41900 48.67800
H  30.15100 -4.97200 47.82900
H  29.95900 -6.55000 47.01300
H  27.91700 -3.11800 43.22100
H  27.37700 0.95600 42.78900
H  28.98300 1.05800 43.41600
H  27.61000 0.97000 44.50400
Mg 41.94600 41.86100 27.59100
C  40.83000 44.30900 29.89100
C  42.80000 39.83800 30.17700
C  43.24100 39.74400 25.35100
C  41.39300 44.28200 25.03300
N  41.69100 42.01800 29.76500
C  41.18800 43.12200 30.53000
C  41.21700 42.75800 32.05900
C  42.07200 41.38600 32.06600
C  42.31000 41.07200 30.62100
C  43.34500 41.54500 32.98300
C  39.79000 42.63900 32.73900
C  39.84100 43.17900 34.15900
H  39.39200 42.17500 35.24700
N  42.88600 40.08700 27.67500
C  43.09600 39.32500 28.84800
C  43.43500 37.93800 28.50900
C  43.55400 37.89900 27.10900
C  43.25300 39.28200 26.60700
C  43.69000 36.88700 29.54900
C  43.82300 36.70100 26.19900
O  43.91900 36.77700 24.97000
C  44.14400 35.33300 26.73500
N  42.27000 42.08400 25.54400
C  42.80800 41.04900 24.83200
C  42.80000 41.25500 23.30300
C  41.93200 42.57100 23.24800
C  41.96000 43.06000 24.68900
C  44.23000 41.36400 22.67400
C  40.48700 42.48400 22.62800
C  39.46000 41.82400 23.59400
N  41.37500 43.95100 27.48000
C  41.06000 44.73800 26.34400
C  40.43500 45.93300 26.78200
C  40.33600 45.82300 28.14900
C  40.96700 44.65600 28.53500
C  40.08200 47.18900 25.99100
C  39.87400 46.45700 29.30700
O  39.23800 47.53100 29.42800
C  40.22100 45.48800 30.51700
C  41.15600 46.16700 31.44900
O  42.36100 46.27200 31.31400
O  40.59000 46.51500 32.68200
C  41.53500 46.99200 33.77000
H  42.97500 39.19700 31.04400
H  43.31900 38.99100 24.56400
H  41.04200 45.01000 24.29900
H  41.71400 43.65300 32.43200
H  41.48900 40.58600 32.52200
H  44.08600 40.78700 32.72900
H  43.03400 41.33600 34.00700
H  43.80700 42.53200 32.96600
H  39.37900 41.62900 32.72400
H  38.93300 43.04300 32.20000
H  39.27400 44.11000 34.17800
H  40.85800 43.40500 34.48200
H  43.20000 35.95400 29.27000
H  43.37200 37.23800 30.53000
H  44.75800 36.67500 29.58500
H  45.05400 35.33800 27.33500
H  44.20700 34.59700 25.93400
H  43.21300 35.07700 27.24100
H  42.26400 40.42100 22.85000
H  42.38200 43.33700 22.61700
H  44.85200 41.93300 23.36500
H  44.15500 41.84400 21.69800
H  44.57200 40.34700 22.48400
H  40.55700 41.96200 21.67300
H  40.21700 43.50700 22.36900
H  39.75000 41.83300 24.64400
H  39.29300 40.80300 23.25200
H  38.50100 42.32600 23.46500
H  39.27400 47.05700 25.27100
H  40.92900 47.31200 25.31600
H  40.00100 48.04200 26.66500
H  39.40300 45.11900 31.13500
H  41.13100 47.62000 34.56400
H  42.41000 47.54400 33.42700
H  41.81200 46.13200 34.38000

