158

Mg 1.65400 -2.89300 44.84800
C  4.96100 -1.93300 44.01800
C  0.64800 0.04400 43.09300
C  -1.41200 -3.98400 45.01400
C  2.87700 -5.92400 45.92300
N  2.77100 -1.13000 43.68600
C  4.13600 -0.99500 43.52300
C  4.41100 0.38800 42.79800
C  3.02200 1.11100 42.87000
C  2.05900 -0.04800 43.18600
C  2.89200 2.32100 43.77800
C  4.84000 0.14300 41.32900
C  6.06800 0.81000 40.90200
H  6.58000 0.48400 39.49600
N  -0.16100 -2.09400 44.24400
C  -0.36000 -0.92000 43.57200
C  -1.72800 -0.72500 43.42000
C  -2.39900 -1.96600 43.84900
C  -1.34500 -2.75800 44.41800
C  -2.36500 0.52800 42.74500
C  -3.93700 -2.22400 43.89100
O  -4.75100 -1.34100 43.61200
C  -4.56200 -3.46500 44.38600
N  0.82500 -4.86100 45.38200
C  -0.47200 -4.96300 45.44800
C  -0.94700 -6.29200 46.16700
C  0.49000 -6.98500 46.24700
C  1.46800 -5.90600 45.84500
C  -1.66000 -6.15300 47.52400
C  0.66600 -8.26100 45.40800
C  0.00600 -9.46800 45.98300
N  3.53000 -3.80000 45.00700
C  3.88300 -5.01600 45.54100
C  5.37100 -5.23500 45.61300
C  5.83700 -4.00300 45.00700
C  4.67300 -3.19000 44.64700
C  6.20100 -6.37500 46.19100
C  6.99700 -3.17500 44.70600
O  8.22400 -3.43600 44.70200
C  6.45900 -1.84500 44.04400
C  6.97800 -0.71900 45.02400
O  6.46200 -0.38900 46.10400
O  7.95300 -0.08900 44.30300
C  8.20000 1.21800 44.85900
H  0.25900 0.94000 42.60500
H  -2.40700 -4.41200 45.15500
H  3.36700 -6.79000 46.37300
H  5.25700 0.83200 43.32400
H  2.66400 1.46800 41.90400
H  3.73300 2.29600 44.47100
H  1.95500 2.31100 44.33500
H  2.90800 3.24500 43.20000
H  4.00600 0.47100 40.70800
H  4.97700 -0.90300 41.05800
H  6.90300 0.51400 41.53800
H  5.84600 1.87400 40.98400
H  -2.01400 0.80000 41.74900
H  -2.09400 1.42700 43.29900
H  -3.45300 0.57300 42.70800
H  -4.06400 -4.38200 44.07200
H  -5.49900 -3.64000 43.85900
H  -4.75800 -3.57800 45.45200
H  -1.61000 -6.88100 45.53300
H  0.67400 -7.28100 47.28000
H  -1.03200 -6.60500 48.29200
H  -2.64100 -6.62600 47.54300
H  -1.80400 -5.09600 47.75000
H  1.71100 -8.57300 45.39400
H  0.49600 -8.06100 44.35000
H  -0.86800 -9.27600 46.60400
H  0.73800 -10.00900 46.58300
H  -0.39700 -10.02000 45.13300
H  6.27000 -7.29100 45.60500
H  5.71400 -6.65900 47.12300
H  7.23800 -6.04200 46.23200
H  6.91100 -1.61800 43.07800
H  7.20700 1.64600 44.99000
H  8.73200 1.94300 44.24200
H  8.73800 1.11600 45.80200
Mg -11.35600 15.79900 42.09500
C  -8.30900 14.11000 41.39200
C  -10.07800 18.55700 40.22300
C  -14.54100 17.15400 41.98200
C  -12.67000 12.81400 43.03800
N  -9.39800 16.32200 41.03100
C  -8.30300 15.41900 40.91700
C  -7.07600 16.08500 40.16200
C  -7.63800 17.55300 39.94800
C  -9.11100 17.51800 40.43000
C  -6.91100 18.69900 40.69400
C  -6.72900 15.33700 38.81400
C  -5.40200 14.64000 38.69100
H  -4.46200 15.30700 37.68200
N  -12.11000 17.78100 41.46600
C  -11.38900 18.66500 40.62100
C  -12.31700 19.79400 40.33500
C  -13.59300 19.42100 40.96800
C  -13.44900 18.02500 41.47800
C  -11.96000 21.10400 39.63300
C  -14.75500 20.37300 40.99500
O  -14.80200 21.50600 40.36900
C  -15.97700 19.95300 41.72700
N  -13.27700 15.10500 42.22400
C  -14.44100 15.83800 42.34600
C  -15.62700 14.98000 42.52500
C  -15.03000 13.66700 43.01500
C  -13.50800 13.87800 42.75900
C  -16.92700 15.44800 43.32200
C  -15.56600 12.29700 42.28900
C  -16.29700 11.30900 43.25000
N  -10.62900 13.87100 42.42600
C  -11.29300 12.80400 42.90900
C  -10.38600 11.65100 43.06100
C  -9.15500 12.11500 42.52100
C  -9.42800 13.49400 42.13900
C  -10.69300 10.33300 43.63000
C  -7.86700 11.76800 42.06700
O  -7.41600 10.62700 41.83400
C  -7.22900 13.05100 41.47200
C  -6.21000 13.52000 42.46900
O  -6.35100 13.79600 43.63400
O  -4.95700 13.62400 41.83500
C  -3.75100 13.96800 42.65500
H  -9.64000 19.41800 39.71400
H  -15.55300 17.54500 41.85600
H  -13.12900 11.89300 43.40200
H  -6.20000 16.11500 40.81000
H  -7.61700 17.71200 38.87000
H  -6.89700 19.60300 40.08500
H  -5.86200 18.43100 40.82300
H  -7.37100 18.91400 41.65800
H  -6.66700 16.00300 37.95300
H  -7.56600 14.65200 38.68100
H  -5.60300 13.65300 38.27600
H  -5.01100 14.61000 39.70800
H  -11.17800 20.95300 38.88900
H  -11.77400 21.90300 40.35100
H  -12.79000 21.46000 39.02200
H  -15.78600 19.53200 42.71400
H  -16.54400 19.30700 41.05700
H  -16.53300 20.88600 41.81600
H  -16.01600 14.83900 41.51700
H  -15.10700 13.51900 44.09200
H  -16.94600 15.00300 44.31700
H  -17.81500 15.16000 42.76100
H  -16.99200 16.53300 43.40300
H  -14.71200 11.77400 41.85800
H  -16.31300 12.50800 41.52400
H  -17.28200 11.03900 42.86800
H  -16.38200 11.75400 44.24100
H  -15.67400 10.41500 43.26000
H  -9.83200 9.72600 43.91100
H  -11.28600 9.88900 42.83100
H  -11.25500 10.35100 44.56300
H  -6.63600 12.88000 40.57300
H  -4.00000 14.46300 43.59300
H  -3.17300 14.62700 42.00800
H  -3.14500 13.07900 42.83000

