158

Mg 40.60200 8.18800 29.05400
C  42.55800 9.47200 31.74800
C  38.33600 7.11500 31.33700
C  39.02600 6.70000 26.51900
C  43.27000 9.07100 26.86800
N  40.58800 8.27500 31.27000
C  41.31100 8.99400 32.18900
C  40.69600 8.99500 33.60700
C  39.35000 8.27300 33.37800
C  39.42900 7.88400 31.90700
C  38.99700 7.21200 34.43200
C  40.45400 10.46800 34.09100
C  39.69000 10.70600 35.37400
H  40.34400 11.64700 36.35000
N  38.86900 7.00400 28.95500
C  38.06100 6.65500 30.06400
C  36.98400 5.87200 29.52800
C  37.02300 5.88900 28.05200
C  38.34100 6.56000 27.77500
C  35.91500 5.17000 30.50500
C  35.99900 5.30100 27.14000
O  36.20300 5.36100 25.93900
C  34.63300 4.82200 27.67800
N  41.18200 7.62200 27.10000
C  40.30900 7.20600 26.17200
C  40.85700 7.15600 24.77000
C  42.24000 7.89700 24.94800
C  42.22400 8.28200 26.45800
C  41.12700 5.76800 24.09800
C  42.41800 9.24600 24.08700
C  41.30600 10.30500 24.15100
N  42.59700 9.01900 29.21200
C  43.47000 9.39300 28.25800
C  44.62300 9.93700 28.95000
C  44.25400 10.00500 30.26400
C  43.08200 9.39200 30.44000
C  45.93100 10.34400 28.18700
C  44.76600 10.49100 31.53200
O  45.79200 10.98200 31.86200
C  43.67100 10.15500 32.54500
C  44.23500 9.29900 33.60700
O  44.63200 8.19500 33.44900
O  44.06700 9.85800 34.84000
C  44.49200 9.15700 36.06800
H  37.45800 6.97300 31.97100
H  38.36500 6.42900 25.69300
H  44.09000 9.31600 26.18900
H  41.30600 8.50500 34.36600
H  38.51000 8.96100 33.47200
H  37.97900 7.40600 34.77100
H  39.74000 7.19900 35.23000
H  39.05100 6.19200 34.05100
H  39.95800 10.94600 33.24600
H  41.40900 10.97300 34.23600
H  39.34700 9.77900 35.83400
H  38.80600 11.24200 35.03000
H  36.47700 4.99500 31.42300
H  35.61900 4.19700 30.11200
H  35.06600 5.83900 30.64100
H  34.75300 3.98400 28.36600
H  34.00200 4.63700 26.80900
H  34.26300 5.64500 28.28900
H  40.15100 7.65300 24.10500
H  43.06600 7.22300 24.72000
H  40.68400 5.90300 23.11100
H  40.55200 4.97200 24.57100
H  42.17100 5.52400 23.90000
H  42.24100 8.79900 23.10900
H  43.44900 9.59700 24.13000
H  40.98800 10.42100 25.18700
H  40.45900 10.11000 23.49300
H  41.86600 11.20200 23.88500
H  45.77300 11.39400 27.93600
H  46.17400 9.62500 27.40400
H  46.65400 10.29600 29.00100
H  43.31700 11.09400 32.97000
H  45.35500 9.71400 36.43300
H  44.73100 8.09400 36.05800
H  43.69700 9.20800 36.81200
Mg -6.28800 24.81000 26.59600
C  -4.56600 26.40700 29.22600
C  -7.29700 22.51300 28.80000
C  -7.55800 22.96100 24.02500
C  -4.25300 26.69800 24.35300
N  -5.96800 24.53800 28.74200
C  -5.37800 25.35700 29.65500
C  -5.77100 25.03100 31.09700
C  -6.32300 23.60500 30.93600
C  -6.53200 23.50300 29.39000
C  -5.40800 22.43000 31.45900
C  -6.72800 26.11600 31.73300
C  -7.44000 25.87900 33.12500
H  -7.14000 24.57800 33.97100
N  -7.56000 23.12500 26.43000
C  -7.84200 22.29700 27.52000
C  -8.62900 21.21300 27.00300
C  -8.71600 21.35100 25.56900
C  -7.96600 22.57200 25.29600
C  -9.19700 20.21300 27.92300
C  -9.60100 20.58100 24.61500
O  -9.62800 20.81800 23.45400
C  -10.52200 19.40600 25.19600
N  -5.95400 24.89800 24.53200
C  -6.70200 24.06500 23.63300
C  -6.24900 24.29900 22.15700
C  -5.44700 25.63000 22.32600
C  -5.12800 25.71600 23.83600
C  -5.47700 23.13000 21.43800
C  -6.37000 26.91800 22.00200
C  -6.83700 27.09500 20.55000
N  -4.76600 26.28900 26.68900
C  -4.05300 26.97300 25.69500
C  -3.09000 27.91800 26.30000
C  -3.36300 27.79400 27.72400
C  -4.32700 26.77000 27.88500
C  -2.00000 28.82400 25.67800
C  -2.98100 28.29900 29.00700
O  -2.27300 29.22500 29.40500
C  -3.81200 27.41800 30.02600
C  -2.90700 26.78100 31.07200
O  -1.85700 26.17900 30.88300
O  -3.34200 27.10400 32.30800
C  -2.45500 26.81500 33.40900
H  -7.60900 21.79100 29.55700
H  -7.92000 22.40900 23.15500
H  -3.69500 27.39600 23.72500
H  -4.85200 24.93700 31.67600
H  -7.30400 23.45600 31.38800
H  -4.72900 22.73700 32.25400
H  -4.75200 22.26000 30.60500
H  -5.91700 21.50700 31.73900
H  -7.46100 26.26800 30.94100
H  -6.22900 27.08500 31.75900
H  -8.49900 25.87000 32.86500
H  -7.21500 26.72900 33.77000
H  -10.26600 20.39400 28.03400
H  -8.79500 20.24600 28.93600
H  -8.82300 19.27400 27.51600
H  -9.92200 18.62800 25.66900
H  -11.23300 19.22400 24.39100
H  -11.10900 20.02500 25.87300
H  -7.11700 24.46000 21.51800
H  -4.55400 25.58500 21.70400
H  -6.19500 22.84000 20.67100
H  -5.31400 22.38800 22.22000
H  -4.52700 23.49600 21.04900
H  -5.82700 27.82900 22.25500
H  -7.25500 26.98900 22.63500
H  -6.41400 28.02500 20.17000
H  -7.92400 27.11200 20.46600
H  -6.59000 26.20500 19.97100
H  -2.39200 29.39300 24.83500
H  -1.26800 28.06600 25.40000
H  -1.44400 29.48100 26.34700
H  -4.51200 27.98700 30.63700
H  -1.46800 27.26700 33.30500
H  -2.51600 25.74500 33.60700
H  -2.84300 27.34700 34.27700

