158

Mg 47.17200 25.23600 29.29700
C  47.80800 27.56000 31.84200
C  45.70600 23.21300 31.70300
C  46.57700 23.03800 26.82800
C  48.87600 27.28500 27.09500
N  46.71100 25.40200 31.50600
C  47.13000 26.42900 32.34700
C  46.59000 26.21200 33.76700
C  45.97400 24.79600 33.72400
C  46.20300 24.39800 32.22500
C  46.50900 23.82500 34.84200
C  45.53800 27.41900 34.05600
C  45.34100 27.85200 35.53000
H  45.83500 26.94700 36.68000
N  46.35700 23.36900 29.29300
C  45.64900 22.73500 30.34800
C  45.05000 21.55600 29.89400
C  45.40900 21.38400 28.49900
C  46.16200 22.62000 28.13500
C  44.32300 20.63100 30.84500
C  45.01200 20.24300 27.48800
O  45.32000 20.24800 26.28900
C  44.12900 19.17700 27.99100
N  47.66200 25.15400 27.21600
C  47.35800 24.07700 26.35500
C  47.63300 24.44200 24.87600
C  48.50200 25.74400 25.02300
C  48.33300 26.09700 26.48400
C  48.38300 23.23800 24.23900
C  48.10300 26.83300 24.04000
C  49.14500 27.88500 23.68900
N  48.10300 27.15200 29.29600
C  48.81300 27.74700 28.40200
C  49.33700 28.95700 28.92300
C  48.94200 28.98300 30.25700
C  48.22700 27.79900 30.42400
C  50.20100 29.93800 28.17900
C  48.92100 29.74300 31.47600
O  49.41600 30.86300 31.66400
C  48.17600 28.85600 32.53900
C  49.13600 28.61700 33.64800
O  50.21400 28.05200 33.47600
O  48.72000 29.17300 34.83700
C  49.61000 29.45000 35.95100
H  45.12100 22.60700 32.39900
H  46.20400 22.44300 25.99200
H  49.44700 27.93200 26.42600
H  47.39400 26.27000 34.50100
H  44.92900 24.86500 34.02600
H  45.69700 23.34600 35.38900
H  47.20400 24.19200 35.59800
H  46.96200 22.93800 34.39900
H  44.60400 26.92200 33.79400
H  45.67600 28.27000 33.38900
H  44.28700 28.05100 35.72200
H  45.89400 28.78600 35.63000
H  43.24600 20.54900 30.70500
H  44.41700 20.77100 31.92200
H  44.74200 19.63500 30.69600
H  43.21300 19.56600 28.43700
H  44.75400 18.47500 28.54300
H  43.88400 18.56800 27.12100
H  46.72900 24.56100 24.27900
H  49.53500 25.42000 24.89600
H  47.71600 22.45000 23.89100
H  49.00700 22.78600 25.01000
H  49.12500 23.64500 23.55200
H  47.26700 27.35800 24.50100
H  47.65600 26.26900 23.22200
H  50.04100 27.80500 24.30500
H  48.86700 28.92300 23.86900
H  49.45500 27.87500 22.64400
H  49.59400 30.78800 27.86700
H  50.52600 29.49400 27.23800
H  51.01200 30.36700 28.76700
H  47.33800 29.38600 32.99100
H  50.60100 29.02800 35.78300
H  49.44100 28.92900 36.89300
H  49.55300 30.52900 36.09900
Mg 47.64500 34.94700 28.06300
C  45.95500 33.31500 30.64500
C  47.81500 37.75800 30.04700
C  48.69700 36.70500 25.42000
C  46.84800 32.24300 25.87500
N  46.95800 35.38700 30.06100
C  46.47400 34.48600 31.01600
C  46.43200 35.21700 32.42200
C  46.65300 36.68500 31.96100
C  47.17000 36.62600 30.56000
C  45.27100 37.48500 32.11000
C  47.53500 34.45800 33.38100
C  48.75400 35.18200 33.84700
H  48.52600 36.16400 35.05500
N  48.35600 36.85200 27.76000
C  48.31700 37.91200 28.68600
C  48.89900 39.14900 28.15300
C  49.16000 38.80200 26.73500
C  48.75800 37.42500 26.58100
C  48.89100 40.48900 28.84900
C  49.61100 39.77600 25.67700
O  49.54100 39.57200 24.47900
C  50.23300 41.11000 25.96000
N  47.91000 34.43200 26.00000
C  48.18100 35.40100 25.10900
C  48.14700 34.93900 23.62700
C  47.89900 33.40500 23.83600
C  47.44500 33.36900 25.30200
C  47.05200 35.64400 22.79600
C  49.14700 32.55800 23.54300
C  50.25600 32.38800 24.61400
N  46.57400 33.07200 28.17900
C  46.43300 32.10500 27.23000
C  45.61600 31.08000 27.87900
C  45.40500 31.49100 29.21000
C  45.97900 32.72200 29.36700
C  45.13600 29.83700 27.12400
C  44.84600 31.08700 30.48400
O  44.27400 30.10600 30.95000
C  44.99100 32.38800 31.33100
C  45.18900 32.11600 32.86900
O  46.15400 31.49400 33.32000
O  44.19100 32.65900 33.58200
C  44.28700 32.59700 35.05800
H  47.70800 38.60100 30.73300
H  49.11800 37.19900 24.54100
H  46.58100 31.45400 25.16900
H  45.50800 35.04200 32.97500
H  47.47200 37.11100 32.54100
H  44.76500 37.47300 33.07500
H  44.64400 37.21200 31.26100
H  45.52600 38.54000 32.00900
H  47.87600 33.62200 32.77000
H  47.01000 34.10700 34.27000
H  49.30200 35.76500 33.10800
H  49.52300 34.44900 34.08900
H  47.94900 40.98100 28.60300
H  49.77700 41.12200 28.80400
H  49.07100 40.28000 29.90300
H  49.44100 41.84100 26.12300
H  50.62500 41.43600 24.99600
H  51.03100 41.06400 26.70100
H  49.12300 35.29600 23.29700
H  47.07300 32.99200 23.25700
H  47.51300 35.96000 21.86000
H  46.72300 36.57400 23.26100
H  46.17500 35.00700 22.69100
H  49.55900 33.00000 22.63600
H  48.73000 31.60300 23.22300
H  49.99200 32.89800 25.54000
H  51.24300 32.71100 24.28300
H  50.46100 31.33300 24.80000
H  45.97300 29.14600 27.02300
H  44.85300 30.22300 26.14400
H  44.23300 29.37000 27.51700
H  44.00900 32.86200 31.32200
H  45.26800 32.89600 35.42500
H  44.02300 31.61200 35.44500
H  43.55200 33.25600 35.52000

