158

Mg 2.72100 0.15300 44.70200
C  5.63100 2.19900 43.96700
C  0.84600 2.24300 42.80800
C  0.30400 -2.05300 45.00600
C  5.03800 -2.28500 45.92400
N  3.22100 1.91400 43.39100
C  4.40000 2.59800 43.28500
C  4.30300 3.77600 42.30300
C  2.76900 4.05200 42.30200
C  2.22900 2.65900 42.85700
C  2.44100 5.34400 43.14900
C  4.98500 3.43200 40.92300
C  6.16300 4.28000 40.37700
H  6.36500 4.39800 38.87700
N  0.82900 0.16600 44.07600
C  0.15800 1.13200 43.37800
C  -1.26600 0.73200 43.35600
C  -1.50200 -0.35200 44.12400
C  -0.05300 -0.80900 44.44200
C  -2.20700 1.62800 42.56300
C  -2.84700 -0.95800 44.57800
O  -3.90100 -0.44400 44.20300
C  -2.97300 -2.13200 45.50000
N  2.74100 -1.88800 45.27800
C  1.54000 -2.56100 45.37800
C  1.76700 -4.04000 45.83100
C  3.28000 -4.06900 46.14100
C  3.70400 -2.64200 45.76700
C  0.78800 -4.55700 46.97100
C  4.08800 -5.18200 45.41200
C  4.99300 -5.98000 46.40300
N  4.88100 -0.03700 44.99200
C  5.58500 -1.02900 45.64300
C  6.98700 -0.55200 45.86900
C  7.03400 0.74200 45.22100
C  5.73000 0.97700 44.75300
C  8.06200 -1.35300 46.52700
C  7.87500 1.92800 44.97600
O  9.03800 2.18700 45.35000
C  7.01200 2.87200 44.08600
C  7.01100 4.22300 44.71000
O  7.87900 5.03500 44.53900
O  5.78500 4.43800 45.41200
C  5.60500 5.87000 45.83000
H  0.26700 2.93200 42.18900
H  -0.51800 -2.77200 44.98900
H  5.72300 -3.01300 46.36200
H  4.86200 4.59500 42.75400
H  2.47600 4.12000 41.25400
H  1.58600 5.17600 43.80400
H  2.13900 6.07800 42.40200
H  3.30500 5.77100 43.65700
H  4.28800 3.39800 40.08500
H  5.34200 2.40200 40.95000
H  7.07600 3.83200 40.76800
H  6.10600 5.29200 40.77800
H  -3.24500 1.32700 42.70300
H  -1.90500 1.72900 41.52100
H  -2.10900 2.61800 43.00700
H  -2.17400 -2.09000 46.24100
H  -2.75500 -2.96700 44.83400
H  -4.01300 -2.23900 45.80700
H  1.65000 -4.65200 44.93600
H  3.47400 -4.10300 47.21300
H  0.16700 -3.79000 47.43300
H  1.43400 -5.07500 47.68000
H  0.07700 -5.23800 46.50200
H  4.76900 -4.65600 44.74200
H  3.37800 -5.75900 44.82000
H  4.30900 -6.33500 47.17400
H  5.73100 -5.34200 46.88700
H  5.41700 -6.82000 45.85300
H  7.92400 -1.71100 47.54800
H  8.85700 -0.60900 46.57800
H  8.37300 -2.25800 46.00700
H  7.42000 3.03700 43.08900
H  6.52900 6.44800 45.84700
H  5.14200 5.92700 46.81500
H  5.00000 6.32400 45.04500
Mg -5.19400 24.46400 27.31600
C  -3.83000 26.48000 29.67100
C  -6.49300 22.50700 29.77300
C  -5.97000 22.17200 24.98400
C  -3.61800 26.27300 24.77000
N  -5.20400 24.57000 29.42500
C  -4.70400 25.53000 30.24000
C  -4.94100 25.26900 31.72800
C  -5.66000 23.91100 31.72300
C  -5.79800 23.65200 30.26000
C  -4.99400 22.78200 32.57700
C  -5.73400 26.43900 32.45500
C  -5.52700 26.52000 33.98000
H  -6.73500 26.56000 34.90500
N  -6.32500 22.74000 27.32200
C  -6.69900 22.07800 28.43900
C  -7.33200 20.85900 28.10100
C  -7.19100 20.69500 26.71500
C  -6.47500 21.89700 26.21200
C  -8.09900 20.08100 29.02200
C  -7.76100 19.60200 25.82900
O  -7.73600 19.69900 24.61600
C  -8.42500 18.39800 26.39600
N  -4.91600 24.30200 25.13400
C  -5.14600 23.23500 24.45700
C  -4.73000 23.31000 22.96800
C  -4.24200 24.82400 22.91000
C  -4.25500 25.20600 24.37400
C  -3.63300 22.17800 22.75300
C  -5.23300 25.75700 22.12100
C  -4.65500 27.09500 21.82500
N  -4.01000 26.01400 27.21500
C  -3.44900 26.63400 26.11100
C  -2.69300 27.78200 26.58900
C  -2.77700 27.77600 27.95600
C  -3.59200 26.66100 28.28900
C  -2.11700 28.73300 25.67000
C  -2.48300 28.45300 29.21800
O  -1.95800 29.56500 29.49900
C  -3.03200 27.52800 30.39700
C  -1.88500 27.10000 31.20500
O  -0.84800 26.59300 30.77500
O  -2.19100 27.35100 32.53000
C  -1.16700 26.78100 33.42700
H  -6.75700 21.85800 30.61100
H  -6.06300 21.36100 24.25800
H  -2.99800 26.76100 24.01400
H  -3.96300 25.25800 32.20900
H  -6.64900 23.95200 32.18100
H  -4.13800 23.05700 33.19300
H  -4.42500 22.06000 31.99200
H  -5.75800 22.35200 33.22600
H  -6.79200 26.40500 32.19600
H  -5.38800 27.39600 32.06400
H  -5.08300 27.50800 34.10500
H  -4.87800 25.73700 34.37200
H  -9.01100 19.82100 28.48500
H  -8.44300 20.61300 29.90900
H  -7.61800 19.25300 29.54300
H  -9.45600 18.59700 26.68900
H  -7.97900 17.99700 27.30700
H  -8.42100 17.63100 25.62200
H  -5.56800 23.08800 22.30700
H  -3.25300 24.95600 22.47200
H  -3.99900 21.31100 22.20300
H  -3.31400 21.92000 23.76300
H  -2.92700 22.65700 22.07500
H  -6.14200 25.85200 22.71400
H  -5.43400 25.16300 21.22900
H  -5.22500 27.86400 22.34600
H  -4.75900 27.28600 20.75700
H  -3.59600 27.14600 22.07800
H  -1.82300 29.68000 26.12200
H  -2.78000 28.99000 24.84400
H  -1.27900 28.16000 25.27200
H  -3.67600 28.19300 30.97300
H  -1.65800 26.75800 34.40000
H  -0.28200 27.40600 33.54700
H  -0.90800 25.78400 33.07000

