158

Mg -0.19800 7.96100 24.62200
C  0.44100 8.95900 28.01600
C  -0.38300 4.72900 25.70700
C  -0.58500 7.16900 21.48700
C  0.02900 11.35400 23.74700
N  0.05100 6.94900 26.67300
C  0.32400 7.53200 27.89400
C  0.62100 6.48100 28.96500
C  0.43500 5.08800 28.13000
C  0.01500 5.59600 26.79000
C  1.66100 3.99500 28.12500
C  -0.27900 6.41900 30.25600
C  0.56600 6.61800 31.52100
H  1.77900 5.77800 31.84700
N  -0.43300 6.19200 23.72800
C  -0.46600 4.92900 24.36400
C  -0.49400 3.89800 23.31100
C  -0.54000 4.62400 22.05100
C  -0.54200 6.03400 22.37600
C  -0.66600 2.42300 23.60300
C  -0.63000 4.07200 20.62500
O  -0.73700 4.82700 19.62200
C  -0.50500 2.56600 20.42500
N  -0.30400 9.10500 22.86400
C  -0.44500 8.50300 21.68200
C  -0.40400 9.54500 20.48100
C  -0.33600 10.83400 21.28500
C  -0.13100 10.40900 22.75300
C  0.79800 9.42800 19.49600
C  -1.63300 11.76800 21.15700
C  -2.89100 11.21700 21.86600
N  0.26500 9.81600 25.61000
C  0.18800 11.12500 25.13100
C  0.61500 12.05000 26.20600
C  0.66900 11.25800 27.29800
C  0.47300 9.88800 26.94300
C  0.86700 13.45900 26.02700
C  0.89600 11.32900 28.73600
O  1.10500 12.30600 29.51000
C  0.83700 9.81600 29.21900
C  2.18600 9.63300 29.73700
O  3.11300 9.15400 29.15100
O  2.19000 9.92300 31.09000
C  3.32400 9.44800 31.87600
H  -0.20200 3.68300 25.96300
H  -0.72900 6.87400 20.44600
H  0.01900 12.35700 23.31500
H  1.68000 6.54800 29.21400
H  -0.48100 4.61600 28.48600
H  1.53300 3.56700 27.13100
H  1.57900 3.23000 28.89700
H  2.60900 4.51000 28.28000
H  -0.75400 5.45200 30.41800
H  -1.04100 7.19500 30.19000
H  -0.14600 6.48500 32.33500
H  0.78400 7.68100 31.42000
H  -1.50900 2.07300 23.00700
H  -0.91700 2.25600 24.65100
H  0.28900 2.00100 23.29200
H  0.35200 2.16100 20.96300
H  -0.39100 2.49300 19.34300
H  -1.40600 2.07500 20.79300
H  -1.36100 9.34300 19.99900
H  0.55300 11.42300 21.05900
H  1.35800 10.34200 19.29700
H  0.38200 9.03700 18.56800
H  1.43000 8.66600 19.95200
H  -1.96900 11.87000 20.12500
H  -1.32100 12.71700 21.59400
H  -3.59800 10.97300 21.07300
H  -3.32700 12.11500 22.30400
H  -2.70800 10.30700 22.43800
H  1.65500 13.74900 26.72100
H  0.01000 14.09900 26.23800
H  1.19500 13.62500 25.00100
H  0.07600 9.78600 29.99800
H  3.47300 10.20100 32.65100
H  4.15300 9.35100 31.17500
H  3.16000 8.51500 32.41600
Mg 16.48100 52.31900 26.32800
C  17.93100 50.66500 29.20200
C  13.95800 53.39100 28.52800
C  15.25100 53.84500 23.76400
C  19.11500 50.91000 24.34900
N  16.06200 52.06500 28.58500
C  16.85100 51.44700 29.59800
C  16.34600 51.71400 31.06300
C  15.06200 52.46800 30.73900
C  14.99900 52.68200 29.17300
C  13.79200 51.67100 31.29200
C  17.44700 52.66700 31.82000
C  17.77600 52.27300 33.25800
H  16.87000 51.16700 33.87900
N  14.80700 53.35100 26.13700
C  13.82300 53.71600 27.10800
C  12.79900 54.59000 26.46100
C  13.24600 54.79800 25.06400
C  14.46900 53.95700 24.95700
C  11.58700 55.21000 27.17000
C  12.54700 55.64000 23.91500
O  13.02500 55.67400 22.82200
C  11.30700 56.44800 24.21800
N  17.03100 52.25300 24.26300
C  16.41100 53.11000 23.37900
C  17.16600 53.17900 22.04400
C  18.46100 52.32000 22.31600
C  18.18700 51.78000 23.70500
C  16.27000 52.50000 20.94700
C  19.79300 53.16800 22.37900
C  20.73200 52.83600 21.21100
N  18.04900 50.93100 26.58200
C  19.07400 50.56800 25.73100
C  20.05600 49.78300 26.39300
C  19.65600 49.82300 27.79100
C  18.41700 50.45800 27.85000
C  21.21900 48.96900 25.74400
C  20.19400 49.49900 29.14900
O  21.20900 48.91800 29.51300
C  19.02600 49.93600 30.11800
C  18.49000 48.65200 30.70100
O  17.64800 47.91800 30.20000
O  19.19000 48.39000 31.82700
C  18.76700 47.18800 32.59900
H  13.23900 53.75800 29.26300
H  14.89100 54.38300 22.88500
H  20.04600 50.66100 23.83500
H  16.20300 50.81100 31.65500
H  15.16900 53.43900 31.22200
H  13.90800 50.59100 31.37300
H  12.92900 51.79300 30.63700
H  13.50400 52.00200 32.29000
H  17.08600 53.68500 31.67200
H  18.30600 52.71400 31.15000
H  17.85200 53.17800 33.86100
H  18.79400 51.89100 33.19000
H  11.89400 56.17600 27.57100
H  11.29100 54.54200 27.97900
H  10.67300 55.32000 26.58600
H  10.95600 56.99200 23.34100
H  11.60000 57.24000 24.90700
H  10.41000 55.85200 24.38500
H  17.34900 54.21500 21.75600
H  18.50300 51.59700 21.50200
H  16.24700 53.22400 20.13200
H  15.26300 52.45900 21.36300
H  16.58600 51.52100 20.58900
H  20.29500 53.14700 23.34600
H  19.50200 54.21500 22.29400
H  20.96800 53.78600 20.73100
H  20.30900 52.07700 20.55200
H  21.56500 52.29400 21.65900
H  20.86200 48.70300 24.74900
H  21.24400 48.08000 26.37400
H  22.13300 49.56300 25.74900
H  19.45600 50.55900 30.90200
H  17.69700 46.98100 32.58400
H  19.01400 47.38900 33.64100
H  19.21100 46.28700 32.17400

