158

Mg 35.38000 2.76400 29.38500
C  33.08400 3.96100 32.02300
C  37.82800 2.54200 31.97800
C  37.34400 1.73900 27.16600
C  32.64100 2.98900 27.24400
N  35.40800 3.19500 31.73600
C  34.33500 3.53600 32.54500
C  34.78100 3.59900 33.97200
C  36.30500 3.27400 33.96300
C  36.58200 3.04000 32.46900
C  37.25200 4.44600 34.54300
C  33.88800 2.62800 34.86700
C  33.98200 2.83600 36.38200
H  34.74000 4.01800 37.01400
N  37.29500 2.34600 29.52500
C  38.12200 2.21000 30.62800
C  39.42200 1.79500 30.16500
C  39.31500 1.36300 28.81500
C  37.97100 1.85700 28.43400
C  40.61200 1.59300 31.04500
C  40.31300 0.67500 27.98300
O  40.07600 0.36100 26.87500
C  41.56900 0.17700 28.53100
N  35.09000 2.57300 27.39800
C  36.08000 2.00500 26.74400
C  35.63300 1.86100 25.25500
C  34.05400 1.95400 25.30500
C  33.93400 2.57000 26.69000
C  36.34300 2.78000 24.23200
C  33.31900 0.56500 25.17600
C  32.18300 0.64300 24.18800
N  33.39800 3.39100 29.52200
C  32.39100 3.52800 28.51500
C  31.20700 4.14300 28.99600
C  31.44200 4.32500 30.32500
C  32.74700 3.81000 30.59700
C  29.98400 4.33600 28.22300
C  30.86600 4.94600 31.51900
O  29.90600 5.62600 31.74800
C  31.91800 4.65100 32.64800
C  32.21700 5.94800 33.37800
O  32.76500 6.90400 32.80200
O  31.56600 5.98100 34.58400
C  31.32000 7.34000 35.10600
H  38.55000 2.41400 32.78800
H  37.91500 1.24600 26.37700
H  31.81900 2.99400 26.52400
H  34.67600 4.60000 34.39100
H  36.40000 2.36400 34.55600
H  38.17400 4.40100 33.96400
H  37.64300 4.15800 35.51900
H  36.77800 5.42300 34.63900
H  34.35100 1.65800 34.68700
H  32.84700 2.63900 34.54400
H  34.25200 1.90700 36.88500
H  32.98900 3.05700 36.77300
H  40.34900 1.80000 32.08200
H  41.50700 2.18300 30.85000
H  40.98800 0.57400 30.94600
H  41.39400 -0.55300 29.32100
H  42.25500 1.00900 28.69100
H  41.92300 -0.44500 27.70900
H  35.88600 0.84800 24.94200
H  33.66300 2.66000 24.57200
H  35.71200 3.27300 23.49200
H  37.08600 2.20500 23.68100
H  36.67700 3.73600 24.63600
H  32.86600 0.32200 26.13700
H  34.02800 -0.23200 24.94900
H  32.29300 -0.08300 23.38200
H  32.06000 1.55500 23.60400
H  31.33600 0.27500 24.76700
H  29.09600 4.44500 28.84500
H  29.76000 3.34800 27.82100
H  30.03000 5.14300 27.49200
H  31.55500 3.88600 33.33500
H  32.17700 7.59400 35.72900
H  30.37200 7.24700 35.63600
H  31.27200 8.14300 34.37000
Mg 48.98800 46.87700 43.01800
C  45.61500 47.21500 42.37400
C  49.16500 44.18200 41.04000
C  52.38300 46.96600 43.37900
C  48.83200 50.18300 44.42400
N  47.58200 46.02400 41.60800
C  46.22900 46.19400 41.65800
C  45.58000 45.34000 40.61500
C  46.65900 44.22400 40.31700
C  47.89300 44.77900 41.06400
C  46.22400 42.85800 40.83300
C  45.12800 46.20300 39.42200
C  43.56600 46.12700 39.15400
H  43.02100 45.45700 37.77000
N  50.50600 45.62300 42.42100
C  50.39500 44.53500 41.59600
C  51.68700 43.81100 41.45300
C  52.60600 44.54600 42.32200
C  51.85900 45.77400 42.75000
C  51.96800 42.54800 40.62900
C  54.03300 44.08300 42.77500
O  54.61900 43.14100 42.17300
C  54.74700 44.71500 44.06500
N  50.44400 48.36200 43.68600
C  51.74400 48.04800 43.93400
C  52.47200 49.29600 44.55400
C  51.30400 50.22700 44.88300
C  50.10800 49.58600 44.25000
C  53.36000 48.99400 45.72200
C  51.48900 51.65500 44.56900
C  50.99400 52.06800 43.18600
N  47.52500 48.40500 43.43200
C  47.60100 49.66100 43.97700
C  46.29900 50.29200 43.90200
C  45.37400 49.28900 43.42000
C  46.24700 48.22100 43.08300
C  46.03200 51.67000 44.31600
C  43.97400 48.92600 43.01200
O  42.88400 49.51900 43.10200
C  44.15800 47.45900 42.41000
C  43.39400 46.46600 43.15900
O  43.73800 45.90300 44.21300
O  42.12600 46.38100 42.60700
C  41.28100 45.31100 43.20400
H  49.11500 43.39300 40.28600
H  53.47300 47.02200 43.42000
H  48.76600 51.21200 44.78400
H  44.71900 44.80700 41.01800
H  46.75300 44.18100 39.23100
H  46.50800 42.06800 40.13700
H  45.18200 42.59300 41.01200
H  46.77300 42.74000 41.76700
H  45.63500 45.88700 38.51100
H  45.37300 47.25100 39.59900
H  43.39100 47.20100 39.09100
H  42.85200 45.75300 39.88800
H  52.88300 42.49200 40.03900
H  51.13200 42.46000 39.93400
H  51.86200 41.68600 41.28700
H  55.34900 45.58500 43.80400
H  55.37700 43.89700 44.41500
H  53.99800 45.02500 44.79400
H  53.04500 49.69100 43.71500
H  51.11300 50.08900 45.94700
H  53.28300 47.94000 45.98900
H  53.29200 49.73200 46.52000
H  54.36300 49.06100 45.30000
H  52.54100 51.93600 44.61500
H  50.90000 52.14900 45.34200
H  51.60800 52.90700 42.86000
H  49.97700 52.45700 43.14700
H  51.19000 51.25300 42.48800
H  45.03400 51.89500 43.93800
H  46.72200 52.38100 43.86200
H  46.07400 51.75300 45.40200
H  43.62600 47.54600 41.46200
H  41.87300 44.42000 43.41300
H  40.43300 45.00100 42.59200
H  40.77500 45.57200 44.13300

