158

Mg 26.66600 49.83400 26.00700
C  24.61000 51.36000 28.41200
C  28.84700 48.98400 28.49100
C  28.95400 48.86900 23.59100
C  24.57900 51.03200 23.56500
N  26.70800 50.13000 28.14000
C  25.72400 50.69900 28.93500
C  25.94400 50.39000 30.45500
C  27.39800 49.79100 30.50600
C  27.69700 49.63000 28.98100
C  28.55500 50.55900 31.30700
C  24.81500 49.46600 31.01000
C  23.84000 50.10000 32.14100
H  23.63200 49.20500 33.29900
N  28.64900 49.00000 26.02700
C  29.34300 48.66600 27.20400
C  30.61000 48.07600 26.80200
C  30.70800 48.19700 25.39600
C  29.39200 48.66200 24.92300
C  31.62800 47.55600 27.79900
C  31.84200 47.71600 24.47100
O  31.84300 47.81900 23.25400
C  33.13200 47.15700 25.12400
N  26.76300 49.98600 23.97300
C  27.75900 49.51200 23.17900
C  27.51800 49.73700 21.67300
C  26.07200 50.31600 21.68200
C  25.76000 50.39000 23.16600
C  28.57000 50.55400 20.94100
C  25.00600 49.47700 20.88200
C  24.49600 48.15600 21.44500
N  24.94000 51.01500 25.98400
C  24.16800 51.27800 24.90300
C  23.02800 52.06700 25.39000
C  23.14300 52.05100 26.84800
C  24.30800 51.42000 27.09200
C  21.92500 52.67300 24.62200
C  22.60100 52.58100 28.07300
O  21.55400 53.20900 28.33500
C  23.38300 51.92100 29.18500
C  23.77800 52.96800 30.19900
O  24.85800 53.53200 30.30800
O  22.70300 53.26800 30.98200
C  22.99000 54.09800 32.12400
H  29.46200 48.62200 29.31800
H  29.66900 48.50400 22.85000
H  23.93800 51.38000 22.75200
H  26.05800 51.28400 31.06900
H  27.35200 48.89000 31.11800
H  29.11900 49.83200 31.89100
H  28.14000 51.26000 32.03200
H  29.25000 51.05800 30.63300
H  25.14700 48.49500 31.37700
H  24.17100 49.21900 30.16600
H  22.84900 50.32300 31.74600
H  24.24300 51.07400 32.41800
H  31.72500 46.54200 27.41000
H  31.23000 47.51700 28.81300
H  32.57500 48.08600 27.69900
H  33.77000 46.82700 24.30400
H  32.98600 46.30400 25.78600
H  33.63900 47.99900 25.59500
H  27.57600 48.74600 21.22200
H  26.04200 51.36700 21.39600
H  28.12400 51.52000 20.70300
H  29.07500 50.07500 20.10300
H  29.39500 50.77800 21.61800
H  25.52200 49.20900 19.96000
H  24.22300 50.15400 20.54200
H  24.45700 47.32300 20.74300
H  23.48800 48.35900 21.80600
H  25.08300 47.80500 22.29400
H  21.82700 52.32800 23.59300
H  22.23200 53.70600 24.45900
H  20.97600 52.74000 25.15300
H  22.73200 51.19700 29.67400
H  22.91000 55.15400 31.86700
H  24.00800 53.98800 32.49700
H  22.26600 53.93100 32.92200
Mg 9.14200 47.47200 28.33900
C  7.35000 47.12100 31.38000
C  11.94900 48.21200 30.15200
C  10.74100 48.52300 25.53700
C  6.05700 48.28200 26.72900
N  9.52600 47.60900 30.52400
C  8.73500 47.34600 31.63300
C  9.49400 47.61800 32.97400
C  10.84600 48.05500 32.45800
C  10.77100 48.04100 30.90100
C  11.29600 49.48900 32.94200
C  9.37800 46.41700 33.88700
C  10.51900 46.09400 34.86500
H  10.10500 45.20600 36.08900
N  11.15800 47.77700 27.91100
C  12.13800 48.02200 28.80900
C  13.42400 48.14900 28.17300
C  13.11600 48.31400 26.75600
C  11.60600 48.21900 26.63300
C  14.80300 48.28600 28.84400
C  14.03800 48.56000 25.55600
O  13.61600 48.75100 24.45400
C  15.46700 48.51300 25.82500
N  8.49700 48.21000 26.35700
C  9.32700 48.51200 25.40600
C  8.73600 49.09100 24.16300
C  7.22900 48.84200 24.49100
C  7.21100 48.35600 25.94900
C  9.08600 50.59700 23.92700
C  6.49300 47.78700 23.57600
C  7.30000 46.42700 23.60700
N  7.12400 47.54300 28.81500
C  5.98600 47.83500 28.06500
C  4.79000 47.55700 28.89500
C  5.29700 47.21000 30.23000
C  6.71900 47.29900 30.06900
C  3.31600 47.67200 28.43100
C  4.91500 46.92900 31.57600
O  3.80700 46.79700 32.03300
C  6.20900 47.07300 32.36700
C  6.33000 45.89000 33.17900
O  6.52300 44.75800 32.71100
O  6.26200 46.13300 34.52900
C  6.49500 44.91700 35.35100
H  12.81200 48.38100 30.79800
H  11.33800 48.83100 24.67600
H  5.09300 48.39100 26.22800
H  8.94500 48.49700 33.31100
H  11.48300 47.20100 32.68800
H  12.38200 49.52800 33.02400
H  10.80000 49.63300 33.90200
H  10.87900 50.28300 32.32400
H  8.98400 45.52900 33.39100
H  8.61300 46.72700 34.59800
H  10.78500 47.05800 35.29900
H  11.43300 45.72200 34.40200
H  15.64800 47.74900 28.41200
H  14.81900 48.05400 29.90900
H  15.09100 49.33800 28.83900
H  15.97900 48.81600 24.91300
H  15.64100 47.45700 26.02900
H  15.77700 49.19100 26.62100
H  9.04000 48.49700 23.30100
H  6.74200 49.81000 24.37300
H  9.93200 50.57800 23.24000
H  9.43900 51.01200 24.87100
H  8.23700 51.15500 23.53200
H  6.43000 48.08500 22.52900
H  5.50100 47.60700 23.99200
H  8.07800 46.41900 24.37000
H  7.75900 46.27100 22.63100
H  6.74100 45.52000 23.83900
H  3.25000 48.43500 27.65500
H  2.60400 48.01700 29.18100
H  2.97200 46.66700 28.18900
H  6.06900 47.90900 33.05300
H  6.41000 45.31700 36.36100
H  7.42000 44.40000 35.09300
H  5.68500 44.21100 35.17000

