158

Mg -2.07000 16.92100 26.35000
C  -2.65000 14.94200 29.13000
C  -2.63600 19.66300 28.26700
C  -2.26100 18.56300 23.47200
C  -2.43800 13.80600 24.26600
N  -2.56700 17.17900 28.47900
C  -2.58700 16.28200 29.45000
C  -2.61600 16.92800 30.84800
C  -2.66500 18.43600 30.50900
C  -2.66100 18.44900 28.99000
C  -3.79300 19.22700 31.26000
C  -1.50500 16.62000 31.84200
C  -1.41000 17.40300 33.13900
H  -0.74000 16.71500 34.35100
N  -2.20500 18.88800 25.90600
C  -2.45000 19.85500 26.88300
C  -2.57000 21.13900 26.14200
C  -2.23000 20.78800 24.81500
C  -2.25400 19.35700 24.68800
C  -3.01300 22.52400 26.71300
C  -1.89900 21.80200 23.68100
O  -1.71300 21.37300 22.51600
C  -1.66800 23.19200 24.01500
N  -2.17500 16.19500 24.15000
C  -2.20800 17.17500 23.19500
C  -2.10300 16.61200 21.71700
C  -2.51300 15.11300 22.05000
C  -2.26800 15.03100 23.56900
C  -2.85200 17.14400 20.59000
C  -1.66200 14.16600 21.15300
C  -2.48700 13.45700 20.07000
N  -2.44300 14.81200 26.60500
C  -2.57400 13.73200 25.69700
C  -2.97800 12.54400 26.46100
C  -2.91700 12.92600 27.84300
C  -2.61300 14.27100 27.85600
C  -3.22400 11.24300 25.89300
C  -3.04200 12.49600 29.27100
O  -3.10600 11.35600 29.73900
C  -2.92500 13.81500 30.14800
C  -1.72700 13.45600 30.97000
O  -0.58100 13.60600 30.61600
O  -2.05000 12.78100 32.14900
C  -0.89300 12.26700 32.92500
H  -2.63500 20.55300 28.90000
H  -2.36200 19.20800 22.59700
H  -2.69700 12.95600 23.63100
H  -3.59100 16.65000 31.24800
H  -1.73200 18.93600 30.76900
H  -4.54600 19.40500 30.49200
H  -3.41700 20.19000 31.60700
H  -4.10600 18.61200 32.10400
H  -0.52700 16.74300 31.37700
H  -1.56600 15.54900 32.03500
H  -2.38200 17.80100 33.43000
H  -0.81400 18.30900 33.03800
H  -3.61600 22.42900 27.61500
H  -3.71200 22.95700 25.99700
H  -2.09600 23.09600 26.85700
H  -1.17200 23.72700 23.20500
H  -0.88400 23.27000 24.76900
H  -2.59100 23.70900 24.27600
H  -1.06300 16.69300 21.39900
H  -3.58200 14.89900 22.02500
H  -3.59600 17.87400 20.90900
H  -3.22100 16.43800 19.84500
H  -2.18900 17.76700 19.99000
H  -1.39900 13.29400 21.75200
H  -0.74600 14.59600 20.74700
H  -2.17300 13.90900 19.12900
H  -3.56500 13.53300 20.21500
H  -2.28200 12.39600 19.92400
H  -2.58200 10.96500 25.05600
H  -4.28200 11.18500 25.63900
H  -2.89800 10.41900 26.52700
H  -3.81100 13.99000 30.76000
H  -0.56900 13.10600 33.54100
H  -0.08900 11.73300 32.41700
H  -1.31400 11.55700 33.63700
Mg -11.80100 16.24500 41.76200
C  -8.83700 14.44500 41.38100
C  -10.09200 18.96000 40.22400
C  -14.68800 17.86000 41.36300
C  -13.39800 13.33500 42.73300
N  -9.68500 16.62400 40.99300
C  -8.66900 15.71000 40.79800
C  -7.38200 16.24600 40.08700
C  -7.81600 17.75700 39.91800
C  -9.29000 17.82600 40.43000
C  -6.88500 18.88000 40.46600
C  -7.04300 15.47100 38.76700
C  -5.49700 15.12200 38.49100
H  -4.93000 15.85600 37.26700
N  -12.35500 18.26400 41.06000
C  -11.55100 19.12300 40.45400
C  -12.31400 20.33500 40.18700
C  -13.67400 20.00800 40.42800
C  -13.59300 18.70700 41.00900
C  -11.65800 21.55900 39.61600
C  -14.90000 20.90100 40.15700
O  -14.76900 21.97500 39.55400
C  -16.29700 20.54000 40.60100
N  -13.80200 15.68400 42.08300
C  -14.79600 16.54100 41.74200
C  -16.17100 15.84700 41.97500
C  -15.75700 14.34900 42.50300
C  -14.27500 14.39900 42.46800
C  -17.24900 16.56700 42.89800
C  -16.33900 13.23000 41.60100
C  -17.36200 12.24800 42.16400
N  -11.31200 14.32000 42.07300
C  -12.02600 13.24400 42.55300
C  -11.13100 12.09600 42.68100
C  -9.87000 12.49000 42.22600
C  -10.05600 13.84200 41.85700
C  -11.43300 10.71600 43.32800
C  -8.49500 12.04900 41.93700
O  -7.94300 10.99800 42.10600
C  -7.75200 13.34200 41.43200
C  -6.69200 13.74100 42.46000
O  -6.88400 13.87600 43.63600
O  -5.46100 13.92500 41.88300
C  -4.40200 14.36700 42.76500
H  -9.65500 19.77500 39.64300
H  -15.65400 18.37000 41.36000
H  -13.86300 12.47900 43.22600
H  -6.45900 16.28500 40.66600
H  -7.81800 17.98600 38.85200
H  -6.07300 18.43100 41.03900
H  -7.47300 19.53100 41.11200
H  -6.39700 19.27500 39.57500
H  -7.29900 16.20800 38.00600
H  -7.71100 14.62500 38.60800
H  -5.38400 14.04500 38.36700
H  -4.77000 15.40600 39.25200
H  -10.63300 21.72400 39.94700
H  -12.26000 22.39900 39.96300
H  -11.63200 21.61100 38.52800
H  -16.93900 21.33700 40.22300
H  -16.37200 20.44500 41.68400
H  -16.67700 19.68200 40.04700
H  -16.52400 15.62600 40.96800
H  -15.91100 14.18700 43.56900
H  -17.76400 17.29000 42.26600
H  -16.68900 17.10000 43.66600
H  -17.84500 15.75800 43.32200
H  -15.60400 12.50200 41.25600
H  -16.78300 13.55400 40.66000
H  -17.81800 12.84500 42.95300
H  -16.78900 11.49600 42.70700
H  -17.97700 11.94900 41.31600
H  -10.69000 9.97400 43.03500
H  -12.43800 10.53300 42.94800
H  -11.61600 10.81700 44.39800
H  -7.23400 13.20500 40.48300
H  -3.89200 13.65100 43.41100
H  -4.68900 15.25700 43.32400
H  -3.62100 14.70800 42.08700

