158

Mg 48.27600 25.21700 28.30300
C  49.21300 27.45100 30.86800
C  47.55600 22.93700 30.66500
C  47.62600 23.13100 25.76800
C  49.18900 27.79300 25.90900
N  48.50800 25.22900 30.57900
C  48.69500 26.27600 31.39500
C  48.40200 25.92700 32.85800
C  47.97700 24.45100 32.75600
C  48.02400 24.14100 31.24000
C  48.99200 23.49000 33.56900
C  47.42500 26.96100 33.43000
C  47.86200 27.60100 34.76900
H  47.04100 27.54500 35.99900
N  47.65400 23.30500 28.22500
C  47.34400 22.55000 29.32100
C  46.75900 21.28100 28.88800
C  46.88200 21.23600 27.45900
C  47.45400 22.61500 27.13900
C  46.28600 20.24300 29.75400
C  46.56400 20.10200 26.45300
O  46.68700 20.23200 25.29400
C  45.92400 18.86400 26.98000
N  48.43800 25.42400 26.17500
C  48.00400 24.37900 25.30500
C  48.13700 24.81900 23.84400
C  48.41100 26.38500 23.93600
C  48.68000 26.58800 25.43800
C  49.22800 23.97900 23.07000
C  47.30700 27.18300 23.42200
C  46.00600 27.25000 24.28200
N  49.22600 27.07300 28.34000
C  49.50700 28.01600 27.30600
C  50.05900 29.21700 27.86900
C  49.91900 29.05800 29.23900
C  49.42500 27.73800 29.49600
C  50.57600 30.43600 27.16100
C  50.06500 29.72000 30.51300
O  50.50800 30.84000 30.76600
C  49.68400 28.73000 31.57900
C  50.87300 28.36600 32.49600
O  51.54200 27.37400 32.36300
O  50.85800 29.16600 33.58400
C  51.91300 29.01200 34.61200
H  47.36400 22.33200 31.55300
H  47.33400 22.49400 24.93000
H  49.34200 28.51100 25.10000
H  49.36200 26.06100 33.35700
H  46.93200 24.36400 33.05300
H  49.81300 23.03700 33.01300
H  48.53500 22.59500 33.99200
H  49.26700 24.04700 34.46400
H  46.47700 26.42400 33.46200
H  47.19800 27.82000 32.79900
H  47.91700 28.64200 34.44900
H  48.84400 27.21800 35.04700
H  46.87900 19.33000 29.80300
H  45.24500 20.07600 29.47500
H  46.32100 20.66500 30.75800
H  46.64000 18.09600 27.27300
H  45.39400 18.42800 26.13300
H  45.12400 18.98200 27.71100
H  47.10400 24.60500 23.56900
H  49.37100 26.64300 23.48900
H  50.07100 24.59800 22.76200
H  48.79400 23.63000 22.13300
H  49.63000 23.17500 23.68700
H  47.01200 26.71500 22.48200
H  47.63900 28.21900 23.35600
H  46.19800 27.16300 25.35100
H  45.32000 26.47700 23.93600
H  45.55000 28.21300 24.05300
H  50.06300 30.56400 26.20800
H  51.63700 30.29000 26.95700
H  50.35800 31.34900 27.71500
H  48.79400 29.04100 32.12600
H  52.63700 28.26900 34.27700
H  51.49600 28.70000 35.57000
H  52.22300 30.03000 34.84700
Mg -3.19500 34.44500 26.81500
C  -4.95800 32.92200 29.44000
C  -1.93500 36.64500 29.03400
C  -1.47900 35.63700 24.33400
C  -4.85200 32.23900 24.49400
N  -3.41500 34.68200 29.04800
C  -4.13800 33.96000 29.92800
C  -4.04800 34.54400 31.35500
C  -3.27400 35.86500 31.05700
C  -2.83700 35.74700 29.65000
C  -4.13300 37.22300 31.22900
C  -3.53900 33.53200 32.43400
C  -4.25500 33.48500 33.80600
H  -3.52300 33.08200 35.08300
N  -1.95200 35.98600 26.64800
C  -1.54700 36.78400 27.64300
C  -0.64600 37.79800 27.08900
C  -0.49600 37.53600 25.72900
C  -1.35800 36.38400 25.48700
C  -0.09400 38.95000 27.86500
C  0.38000 38.25900 24.67500
O  0.29400 37.92700 23.50100
C  1.31900 39.33000 25.03900
N  -3.42200 34.19400 24.67300
C  -2.39800 34.69700 23.92900
C  -2.31100 34.05000 22.57500
C  -3.27300 32.84900 22.68500
C  -3.99100 33.20700 23.99000
C  -2.79500 35.06300 21.38900
C  -2.55000 31.47000 22.56500
C  -3.31900 30.41100 21.67800
N  -4.59600 32.93100 26.94200
C  -5.16200 32.12500 25.87700
C  -5.93300 31.04700 26.46000
C  -5.92000 31.37500 27.88000
C  -5.09200 32.52200 28.09200
C  -6.54400 29.79900 25.77100
C  -6.43900 30.98700 29.20000
O  -7.09400 30.04600 29.57000
C  -5.83100 31.96200 30.17800
C  -6.93600 32.65000 30.90400
O  -7.37600 33.74900 30.63600
O  -7.33200 31.96500 31.99700
C  -8.34100 32.54300 32.90700
H  -1.57000 37.34500 29.78900
H  -0.73800 35.88200 23.56900
H  -5.14900 31.47200 23.77600
H  -5.02400 34.94300 31.63100
H  -2.40800 35.80000 31.71600
H  -3.48400 38.01300 31.60700
H  -4.99900 36.98000 31.84600
H  -4.61300 37.61500 30.33200
H  -2.48300 33.71400 32.63500
H  -3.54900 32.50600 32.06600
H  -5.10800 32.84300 33.58600
H  -4.68300 34.48400 33.88200
H  -0.18000 38.85200 28.94800
H  -0.71300 39.81100 27.61200
H  0.97200 39.12900 27.72500
H  1.91800 39.55200 24.15600
H  1.87700 38.85800 25.84800
H  0.88100 40.24600 25.43600
H  -1.27400 33.76900 22.39200
H  -4.03700 32.93500 21.91200
H  -3.56500 34.69400 20.71200
H  -1.80900 35.12300 20.92800
H  -3.17300 36.02100 21.74700
H  -2.42200 31.06200 23.56700
H  -1.58100 31.59900 22.08300
H  -2.54400 29.92200 21.08600
H  -4.13500 30.81100 21.07700
H  -3.68900 29.57700 22.27400
H  -6.32600 29.93100 24.71100
H  -7.61500 29.97200 25.87600
H  -6.18100 28.87000 26.21100
H  -5.21700 31.42800 30.90400
H  -8.98400 33.29300 32.44600
H  -7.79700 32.93200 33.76700
H  -8.93200 31.69000 33.23900

