158

Mg 24.29100 -4.36100 46.24700
C  26.24300 -1.92500 44.79900
C  21.60400 -3.50000 44.09300
C  22.72800 -7.36100 47.03200
C  27.06600 -5.39500 48.25500
N  23.96300 -2.77700 44.74000
C  24.89200 -2.05200 44.18100
C  24.41200 -1.21800 43.02700
C  22.86500 -1.41500 43.11800
C  22.77600 -2.67200 44.11800
C  21.93700 -0.18900 43.57400
C  25.10500 -1.59300 41.63200
C  25.64000 -0.45000 40.74500
H  25.40200 -0.59300 39.26600
N  22.38300 -5.19100 45.82400
C  21.46300 -4.67700 44.86200
C  20.28700 -5.62200 44.81000
C  20.57500 -6.72200 45.67600
C  21.92000 -6.45700 46.27800
C  19.07600 -5.20000 43.93300
C  19.57900 -7.87200 45.99900
O  18.51500 -7.86700 45.41300
C  19.91700 -8.97600 46.91100
N  24.83300 -6.14300 47.49300
C  23.98000 -7.18000 47.65500
C  24.68200 -8.30700 48.46200
C  25.87400 -7.53900 49.19400
C  26.03800 -6.33000 48.22300
C  23.70700 -9.16000 49.44000
C  27.15800 -8.33700 49.45100
C  27.48700 -8.80000 50.90300
N  26.27300 -3.87400 46.44600
C  27.26600 -4.31800 47.36100
C  28.44900 -3.51300 47.18200
C  28.14800 -2.61000 46.14700
C  26.77500 -2.84100 45.78100
C  29.68500 -3.54600 47.99900
C  28.65300 -1.54200 45.36100
O  29.77700 -1.06000 45.34300
C  27.41500 -1.07700 44.43400
C  27.09700 0.42700 44.56600
O  26.92900 1.15500 45.51700
O  27.21300 0.97800 43.24300
C  27.34400 2.47400 43.10200
H  20.91400 -3.04200 43.38100
H  22.26900 -8.34000 47.18400
H  27.85100 -5.61400 48.98100
H  24.59800 -0.15000 43.13900
H  22.58800 -1.81800 42.14400
H  21.31500 0.18500 42.76100
H  22.58900 0.68300 43.59800
H  21.46500 -0.30100 44.55000
H  24.38300 -2.02900 40.94200
H  25.89300 -2.26300 41.97600
H  26.71600 -0.35000 40.89300
H  25.11000 0.42500 41.12100
H  19.01300 -4.11200 43.89800
H  18.20300 -5.69900 44.35300
H  19.24700 -5.54100 42.91200
H  20.69900 -9.48300 46.34600
H  19.08600 -9.67100 47.02800
H  20.33700 -8.83100 47.90600
H  25.07800 -9.01600 47.73500
H  25.49900 -7.10100 50.11900
H  22.70100 -8.74100 49.45500
H  23.96800 -9.08500 50.49600
H  23.66500 -10.20200 49.12300
H  27.97100 -7.75800 49.01400
H  27.09700 -9.18100 48.76400
H  27.42700 -9.88100 50.77700
H  26.65800 -8.43500 51.51000
H  28.49800 -8.57400 51.23900
H  29.51100 -3.99200 48.97800
H  29.94800 -2.49600 48.13400
H  30.44800 -4.08500 47.43800
H  27.71700 -1.19900 43.39400
H  27.74700 2.88700 44.02700
H  26.37900 2.90000 42.82600
H  28.03800 2.64600 42.27900
Mg 30.56200 57.86600 40.63000
C  27.92000 55.66600 39.22100
C  32.83600 55.41500 39.34600
C  32.83600 60.10700 40.83600
C  28.05000 60.29200 40.99300
N  30.37900 55.82500 39.34400
C  29.25100 55.10600 38.95400
C  29.63900 53.77400 38.23800
C  31.15700 53.67200 38.47200
C  31.53300 55.00700 39.07600
C  31.54400 52.45400 39.42900
C  29.24500 53.79900 36.68600
C  27.97600 53.07500 36.30600
H  27.04000 53.81600 35.33000
N  32.63300 57.75100 40.33000
C  33.33300 56.68300 39.80100
C  34.73000 57.10500 39.73400
C  34.80000 58.41900 40.19700
C  33.42900 58.82000 40.51400
C  35.88400 56.15600 39.32000
C  36.04800 59.24800 40.29900
O  37.20100 58.86800 40.02000
C  35.95300 60.77500 40.71100
N  30.46300 59.90500 40.88100
C  31.60200 60.58100 41.06100
C  31.34900 62.06300 41.48400
C  29.77600 62.13700 41.53200
C  29.37800 60.75300 40.98000
C  32.01800 62.50200 42.77800
C  29.22500 63.31500 40.78100
C  29.31300 63.35100 39.18000
N  28.33900 57.93900 40.48900
C  27.55400 58.95700 40.72100
C  26.15500 58.50600 40.43300
C  26.33800 57.22600 39.86700
C  27.64600 56.92600 39.85000
C  24.84500 59.18200 40.62900
C  25.55700 56.10800 39.35400
O  24.36700 56.02400 39.02100
C  26.60900 55.08800 38.97700
C  26.15300 53.80600 39.71900
O  26.02000 53.80500 40.91000
O  25.91900 52.76900 38.92300
C  25.20800 51.64000 39.45600
H  33.60600 54.70200 39.04100
H  33.60600 60.88200 40.84700
H  27.28300 61.05200 41.15900
H  29.22600 52.86200 38.66900
H  31.75200 53.62200 37.56100
H  32.44100 51.98600 39.02500
H  30.78200 51.68200 39.53600
H  31.80400 52.81900 40.42300
H  30.03100 53.22200 36.19900
H  29.44100 54.80100 36.30400
H  27.42000 52.70500 37.16800
H  28.36500 52.25000 35.71100
H  36.36200 56.40600 38.37300
H  35.56000 55.11600 39.31700
H  36.68400 56.25800 40.05300
H  35.35400 60.81800 41.62100
H  35.48100 61.35700 39.91900
H  36.89200 61.25000 40.99700
H  31.51400 62.76100 40.66400
H  29.43400 62.24700 42.56100
H  32.83300 63.18000 42.52400
H  32.46000 61.62600 43.25200
H  31.32300 62.94800 43.49000
H  29.73200 64.16900 41.23000
H  28.18800 63.49100 41.06500
H  28.30200 63.59800 38.85800
H  29.64200 62.45900 38.64700
H  30.00000 64.15100 38.90400
H  24.83300 60.27000 40.68600
H  24.21100 58.68800 41.36600
H  24.36000 58.77600 39.74100
H  26.43400 54.90100 37.91800
H  26.05100 51.16300 39.95700
H  24.84100 50.95500 38.69200
H  24.52300 51.92900 40.25300

