158

Mg 6.89000 54.47500 41.18300
C  4.59200 51.83800 41.01100
C  9.15900 52.54600 39.82500
C  8.64600 57.26100 40.90000
C  4.02500 56.56200 41.94400
N  6.71100 52.49000 40.25100
C  5.75100 51.50500 40.35200
C  6.22700 50.19500 39.72200
C  7.75300 50.42000 39.58800
C  7.91000 51.93500 39.91200
C  8.61100 49.52500 40.52000
C  5.54700 49.92200 38.34000
C  5.23400 48.47600 38.03200
H  5.71900 47.80800 36.66300
N  8.74400 54.83600 40.53100
C  9.51900 53.89000 40.02000
C  10.81200 54.41400 39.85000
C  10.69200 55.84000 40.04500
C  9.30500 56.08100 40.51100
C  12.05700 53.70600 39.45600
C  11.77100 56.86700 39.72300
O  12.83700 56.46400 39.27000
C  11.50400 58.31900 39.70400
N  6.34000 56.64400 41.36900
C  7.35800 57.56500 41.26900
C  6.87600 59.04300 41.43000
C  5.33900 58.78900 41.49600
C  5.17400 57.21100 41.60200
C  7.53800 59.81500 42.67400
C  4.55400 59.27300 40.26300
C  3.48000 60.39200 40.36500
N  4.75600 54.25000 41.54000
C  3.80000 55.20800 41.86400
C  2.50200 54.53800 42.04800
C  2.82000 53.16500 41.84300
C  4.15700 53.03700 41.45900
C  1.21900 55.10900 42.53300
C  2.26000 51.80500 41.89100
O  1.13400 51.40000 42.19200
C  3.42400 50.90200 41.40500
C  2.84900 49.96100 40.32900
O  2.32600 50.19800 39.26400
O  2.89300 48.68700 40.93900
C  2.44100 47.53400 40.06100
H  9.93200 51.85500 39.48200
H  9.21100 58.19200 40.81800
H  3.21200 57.27800 42.07700
H  6.03700 49.42000 40.46400
H  8.06800 50.22900 38.56200
H  9.34900 48.98700 39.92500
H  7.96100 48.83000 41.05200
H  9.14000 50.17400 41.21800
H  6.18800 50.36500 37.57700
H  4.62300 50.49800 38.39300
H  4.15100 48.58700 37.97900
H  5.50900 47.84200 38.87500
H  12.26300 53.70600 38.38600
H  12.03400 52.68500 39.83900
H  12.89200 54.12700 40.01700
H  10.57900 58.53900 39.17100
H  12.30600 58.80100 39.14500
H  11.54400 58.62700 40.74900
H  7.14100 59.59500 40.52800
H  4.98700 59.23300 42.42700
H  6.79200 60.27400 43.32300
H  8.08700 60.60700 42.16600
H  8.24600 59.18000 43.20700
H  4.15000 58.41100 39.73200
H  5.29700 59.67000 39.57200
H  3.78300 61.25400 39.77100
H  3.30800 60.61800 41.41700
H  2.60200 59.93700 39.90500
H  0.35000 54.71800 42.00200
H  1.34900 56.18700 42.44300
H  1.08200 54.88800 43.59100
H  3.69800 50.28100 42.25800
H  3.26800 46.82900 39.97300
H  2.07700 47.87900 39.09300
H  1.56900 47.14000 40.58400
Mg 17.18700 52.63800 26.58400
C  19.40700 51.13200 28.75100
C  15.11000 53.20000 29.14800
C  15.20800 54.19600 24.42200
C  19.54600 52.03100 23.97500
N  17.17000 52.05100 28.68300
C  18.18500 51.42500 29.41000
C  17.97900 51.48800 30.92800
C  16.44500 51.78600 30.93300
C  16.17400 52.38300 29.49600
C  15.56300 50.54800 31.21700
C  18.84400 52.68000 31.53700
C  18.98600 52.52900 33.03600
H  17.89400 51.91500 33.79800
N  15.34700 53.56400 26.77400
C  14.69900 53.74600 27.92700
C  13.55900 54.63000 27.67900
C  13.55600 54.89100 26.27000
C  14.73000 54.22500 25.73800
C  12.58800 55.05300 28.76700
C  12.55800 55.69500 25.46900
O  12.54000 55.71200 24.28300
C  11.62300 56.51300 26.18800
N  17.29900 52.91100 24.45600
C  16.33900 53.64800 23.82300
C  16.75700 53.89000 22.36900
C  18.20900 53.33000 22.29700
C  18.35700 52.70400 23.62500
C  15.78300 53.11400 21.42000
C  19.35500 54.28600 21.89600
C  20.00000 54.17600 20.51400
N  18.96200 51.50200 26.34800
C  19.86200 51.51600 25.26100
C  20.99200 50.78100 25.63700
C  20.89400 50.61100 26.98500
C  19.64900 51.11300 27.36600
C  22.26300 50.49000 24.79700
C  21.56200 50.23500 28.14200
O  22.67400 49.74600 28.32700
C  20.66700 50.55500 29.30300
C  20.35400 49.33900 30.19700
O  19.93400 48.32600 29.72800
O  20.64400 49.70300 31.49800
C  20.24700 48.72400 32.49500
H  14.58500 53.63900 29.99900
H  14.59700 54.82800 23.77400
H  20.40600 51.94100 23.30800
H  18.24400 50.53500 31.38500
H  16.17600 52.49700 31.71400
H  14.91900 50.37000 30.35600
H  15.01600 50.69400 32.14900
H  16.17200 49.64400 31.19600
H  18.31200 53.63200 31.53700
H  19.83400 52.84900 31.11300
H  19.17600 53.45300 33.58300
H  19.92900 52.00600 33.19200
H  11.56900 54.80000 28.47300
H  12.66600 56.13300 28.88900
H  12.84200 54.60400 29.72700
H  10.79800 55.94200 26.61500
H  11.20200 57.26200 25.51700
H  12.19300 57.04200 26.95300
H  16.64700 54.95600 22.17200
H  18.11800 52.54700 21.54300
H  16.27900 52.90800 20.47100
H  15.01700 53.86400 21.22400
H  15.46100 52.17200 21.86400
H  20.22000 54.22400 22.55500
H  19.11500 55.33300 22.08400
H  21.08900 54.19900 20.56500
H  19.63700 54.98500 19.87900
H  19.58300 53.28400 20.04700
H  23.05600 50.32100 25.52500
H  22.55700 51.33400 24.17300
H  22.28900 49.57000 24.21300
H  21.15700 51.26800 29.96700
H  19.70400 47.84200 32.15500
H  19.76900 49.19500 33.35400
H  21.21800 48.38600 32.85600

