158

Mg 46.20600 16.15200 28.24000
C  44.15400 15.64000 31.01700
C  48.43800 17.96000 30.13500
C  48.08100 16.73500 25.42600
C  43.84000 14.44400 26.15100
N  46.22300 16.65600 30.30700
C  45.31300 16.33300 31.32700
C  45.82200 16.98500 32.65200
C  47.10400 17.77300 32.26300
C  47.28600 17.40400 30.77900
C  47.04300 19.34600 32.37600
C  45.97800 15.98700 33.79500
C  45.59100 16.43200 35.21100
H  45.45800 18.02400 35.47900
N  47.98400 17.24300 27.85000
C  48.82600 17.81200 28.78900
C  50.10500 18.18300 28.16800
C  49.90200 17.94200 26.73900
C  48.57300 17.25100 26.58900
C  51.32900 18.73000 28.99200
C  50.82200 18.29700 25.61000
O  50.60300 18.01800 24.44000
C  52.08800 18.92800 25.85100
N  46.04600 15.59600 26.16500
C  47.01600 15.95000 25.28800
C  46.66300 15.34700 23.88400
C  45.27300 14.64400 24.07600
C  45.04200 14.82600 25.64000
C  46.81100 16.30300 22.71600
C  45.20500 13.15200 23.62500
C  45.95300 12.19800 24.57300
N  44.42700 15.12500 28.48900
C  43.51800 14.54100 27.58800
C  42.31300 14.06500 28.29400
C  42.50300 14.57200 29.66200
C  43.80100 15.11800 29.75900
C  41.13300 13.43400 27.68900
C  41.90600 14.61500 31.00800
O  40.84100 14.11400 31.41900
C  43.02800 15.36300 31.91800
C  42.48200 16.45300 32.71100
O  42.33200 17.62900 32.35500
O  42.16700 15.96300 33.97900
C  41.35600 16.78900 34.90600
H  49.15700 18.54300 30.71400
H  48.67400 16.81600 24.51200
H  43.18100 13.97700 25.41600
H  45.04000 17.67700 32.96200
H  47.91400 17.43100 32.90700
H  46.24300 19.81100 32.95200
H  47.05900 19.81500 31.39300
H  47.99500 19.60100 32.84300
H  47.00200 15.64200 33.93600
H  45.34900 15.16000 33.46800
H  46.38600 16.15800 35.90400
H  44.70300 15.88400 35.52700
H  51.21700 18.60600 30.06900
H  51.32300 19.76500 28.65200
H  52.21700 18.16200 28.71200
H  52.07100 19.82300 26.47300
H  52.61100 19.14200 24.91900
H  52.68200 18.18300 26.38100
H  47.39600 14.57600 23.64700
H  44.46600 15.19700 23.59500
H  45.85100 16.41000 22.21100
H  47.55600 16.07300 21.95400
H  46.99900 17.31400 23.07600
H  45.56300 13.02000 22.60400
H  44.16100 12.86300 23.50800
H  45.25400 11.66800 25.22000
H  46.78700 12.60500 25.14500
H  46.29000 11.39900 23.91200
H  40.79300 12.70100 28.42000
H  41.41700 13.10800 26.68800
H  40.34300 14.16500 27.51900
H  43.22900 14.56700 32.63400
H  40.41500 17.12200 34.46900
H  41.88200 17.64000 35.34000
H  40.91100 16.20700 35.71300
Mg 17.61500 52.41100 26.48200
C  19.31900 50.98700 29.12800
C  15.15300 53.29300 28.75900
C  15.66900 53.39300 23.91800
C  19.88200 51.04000 24.17500
N  17.25200 52.04900 28.66200
C  18.17600 51.57400 29.56700
C  17.73800 51.79100 31.04600
C  16.24900 52.20600 30.88700
C  16.16900 52.59500 29.37200
C  15.27800 51.01400 31.32900
C  18.63500 52.70500 31.89000
C  18.95900 52.27400 33.25500
H  17.81200 51.59800 34.11700
N  15.69900 53.31000 26.32400
C  14.87000 53.54500 27.39000
C  13.61800 54.19200 26.87300
C  13.74700 54.32500 25.42800
C  15.12900 53.72100 25.13700
C  12.47100 54.57200 27.75400
C  12.75600 54.82000 24.32100
O  12.94000 54.75900 23.04600
C  11.52700 55.56300 24.68000
N  17.72700 52.18300 24.32000
C  16.85400 52.77300 23.54000
C  17.25000 52.57000 22.02300
C  18.59600 51.85400 22.07800
C  18.81100 51.74800 23.59700
C  16.20000 51.96100 21.04000
C  19.70400 52.72800 21.41600
C  20.76100 51.86200 20.66000
N  19.26800 51.26900 26.58100
C  20.09200 50.79700 25.60400
C  21.15400 49.96700 26.17000
C  20.94800 50.07400 27.57600
C  19.67900 50.80400 27.80100
C  22.17900 49.17300 25.40900
C  21.46700 49.58800 28.91000
O  22.43600 48.90600 29.23200
C  20.43300 50.28000 29.97600
C  19.88000 49.22100 30.83300
O  18.97600 48.44600 30.54500
O  20.35100 49.29200 32.12100
C  20.02300 48.20200 32.97800
H  14.40300 53.64500 29.47100
H  15.13200 53.84600 23.08200
H  20.50100 50.63900 23.36900
H  17.87300 50.78400 31.44200
H  16.12100 53.10200 31.49300
H  15.87100 50.28500 31.88200
H  14.76900 50.49400 30.51800
H  14.53700 51.38300 32.03700
H  18.17500 53.69300 31.86700
H  19.59800 52.95400 31.44500
H  19.42400 53.08700 33.81300
H  19.70700 51.48100 33.23300
H  12.69300 54.33600 28.79400
H  11.54500 54.07200 27.47000
H  12.29200 55.64700 27.79300
H  11.75400 56.22500 25.51600
H  10.81700 54.83300 25.06800
H  11.04300 56.01500 23.81500
H  17.37000 53.59300 21.66800
H  18.60400 50.86200 21.62800
H  15.64800 52.73800 20.51000
H  15.35700 51.48900 21.54500
H  16.62700 51.21100 20.37400
H  20.11300 53.38000 22.18800
H  19.21400 53.34700 20.66500
H  20.78800 50.86500 21.09900
H  21.78200 52.23900 20.72100
H  20.43300 51.81600 19.62100
H  22.54500 49.81600 24.60900
H  21.80500 48.20700 25.07200
H  22.89700 48.86300 26.16800
H  20.94300 51.14400 30.40200
H  19.16000 48.50400 33.57200
H  20.71600 47.87600 33.75400
H  19.65300 47.27100 32.54800

