158

Mg 44.25100 5.41400 46.95600
C  42.16200 8.22400 46.93300
C  41.55200 3.52700 46.24200
C  46.22000 2.86400 46.44300
C  47.01400 7.62700 46.79000
N  42.10100 5.84200 46.69700
C  41.48400 7.06500 46.73400
C  39.97200 6.98000 46.49000
C  39.76700 5.39400 46.43600
C  41.20200 4.86700 46.41900
C  38.78300 4.75900 47.41400
C  39.31200 7.73100 45.26600
C  40.32800 7.88400 44.03200
H  39.72000 7.63800 42.62800
N  43.89600 3.39600 46.41700
C  42.69000 2.80300 46.14800
C  42.86900 1.45300 45.77100
C  44.28900 1.18900 46.00600
C  44.90600 2.49400 46.26000
C  41.82400 0.55300 45.30800
C  44.92500 -0.15400 45.97900
O  44.38700 -1.16600 45.62400
C  46.26800 -0.37400 46.56300
N  46.27900 5.31600 46.43300
C  46.86500 4.05900 46.50900
C  48.45700 4.05500 46.60500
C  48.64300 5.59600 46.93400
C  47.19800 6.24800 46.70700
C  49.11100 3.11900 47.70600
C  49.79100 6.37200 46.19700
C  50.55500 7.34600 47.13500
N  44.59200 7.56200 46.89400
C  45.78600 8.27900 46.89300
C  45.45700 9.73600 46.96100
C  44.02700 9.73400 46.95900
C  43.57300 8.38200 46.94400
C  46.42800 10.87400 46.80200
C  42.82100 10.57200 47.06800
O  42.72400 11.78300 47.28800
C  41.57500 9.61200 47.01900
C  40.96300 9.88300 48.33000
O  41.31000 9.35800 49.36300
O  39.74700 10.60200 48.20000
C  38.92100 10.62500 49.41900
H  40.64600 2.96700 46.00100
H  46.87300 1.99000 46.39900
H  47.90800 8.25400 46.81800
H  39.51400 7.24100 47.44400
H  39.38100 5.17500 45.44100
H  39.18000 3.94000 48.01400
H  38.03600 4.25000 46.80700
H  38.25500 5.49100 48.02600
H  38.97100 8.71900 45.57400
H  38.48100 7.10400 44.94500
H  41.12800 7.16100 44.19200
H  40.82500 8.84800 43.92100
H  41.03900 1.02000 44.71400
H  41.27400 0.01500 46.08000
H  42.26300 -0.20900 44.66400
H  46.41000 -1.41200 46.86300
H  46.19400 0.20400 47.48500
H  47.05100 -0.10300 45.85500
H  48.76000 3.74500 45.60500
H  48.85900 5.73400 47.99400
H  48.35100 2.54400 48.23600
H  49.58300 3.72200 48.48200
H  49.87100 2.42200 47.35600
H  49.27100 6.98400 45.46000
H  50.50300 5.67500 45.75200
H  51.49400 6.86600 47.41200
H  49.99200 7.70400 47.99700
H  50.82000 8.15000 46.44900
H  47.12100 10.64200 47.61100
H  46.15400 11.92600 46.87800
H  46.90800 10.72800 45.83400
H  40.86400 9.78000 46.21100
H  39.03000 11.64400 49.79200
H  38.93400 9.75900 50.08000
H  37.92000 10.61200 48.98800
Mg 47.50400 25.31400 28.51700
C  48.46500 27.61700 31.06700
C  46.50000 23.18300 30.74100
C  47.21700 23.04200 25.86300
C  48.54700 27.74300 26.15500
N  47.61800 25.34600 30.62700
C  47.98900 26.37000 31.49200
C  47.64000 26.10400 32.95300
C  47.00100 24.63200 32.78200
C  47.05700 24.36700 31.30300
C  47.68600 23.45000 33.54200
C  46.63200 27.13800 33.54500
C  46.92100 27.81000 34.89200
H  45.73500 28.00900 35.82400
N  46.91400 23.47300 28.37000
C  46.52300 22.74700 29.42100
C  46.11700 21.42800 29.10100
C  46.24700 21.32900 27.66000
C  46.80400 22.65400 27.15700
C  45.58900 20.33200 29.97500
C  45.71300 20.25300 26.75600
O  45.87500 20.39400 25.59200
C  44.87500 19.08600 27.30400
N  47.86600 25.36900 26.36600
C  47.56800 24.32600 25.51200
C  47.96300 24.71500 24.06800
C  48.09900 26.22900 24.20300
C  48.14700 26.48000 25.67200
C  49.24700 23.91500 23.61400
C  46.99200 27.10000 23.52800
C  47.56300 28.25100 22.70500
N  48.19900 27.32200 28.51800
C  48.68300 28.15400 27.51300
C  49.24800 29.35800 28.05800
C  49.13400 29.18300 29.43400
C  48.56200 27.93900 29.68800
C  49.87100 30.44200 27.16700
C  49.48500 29.79600 30.69200
O  50.06900 30.83500 30.86000
C  49.10200 28.78000 31.81300
C  50.27800 28.47000 32.72300
O  51.28400 27.90200 32.28800
O  50.11300 29.14800 33.93300
C  51.30100 29.14000 34.80200
H  46.20200 22.38200 31.42000
H  46.97000 22.36300 25.04500
H  48.79800 28.48700 25.39600
H  48.49000 25.95300 33.61800
H  45.96400 24.48200 33.08100
H  48.56400 23.01900 33.06000
H  46.93300 22.67000 33.65700
H  48.01100 23.77600 34.53000
H  45.69300 26.58700 33.59400
H  46.38000 27.99600 32.92200
H  47.38400 28.78200 34.72600
H  47.55400 27.07800 35.39600
H  44.53400 20.08300 29.86500
H  45.82100 20.57300 31.01300
H  46.29900 19.57800 29.63500
H  44.63000 18.53500 26.39600
H  43.91600 19.47000 27.65100
H  45.44800 18.41900 27.94900
H  47.12200 24.43400 23.43400
H  49.07000 26.53100 23.81200
H  50.01400 24.52400 23.13800
H  48.90500 23.09600 22.98100
H  49.73800 23.40600 24.44400
H  46.41900 27.50700 24.36100
H  46.25100 26.58300 22.91800
H  48.29100 27.83700 22.00800
H  47.80200 29.14300 23.28400
H  46.77600 28.47200 21.98300
H  49.43300 30.56300 26.17700
H  50.95200 30.34000 27.07200
H  49.83300 31.40900 27.67000
H  48.19900 29.15000 32.29800
H  52.19500 29.33600 34.21200
H  51.48700 28.16500 35.25400
H  51.01200 29.96700 35.45100

