158

Mg -0.14300 7.36800 26.70200
C  0.36600 9.84500 29.22800
C  -0.19700 5.08800 29.21900
C  -0.03600 5.14600 24.34000
C  0.09000 10.03900 24.27100
N  0.20600 7.44200 28.91000
C  0.29000 8.54200 29.70800
C  0.41800 8.14000 31.22100
C  0.51600 6.58400 31.16500
C  0.04100 6.36300 29.68400
C  2.00300 6.12700 31.49500
C  -0.76800 8.66900 32.12800
C  -0.40500 9.23300 33.51400
H  -0.84800 8.64500 34.85600
N  -0.23100 5.35700 26.74700
C  -0.24400 4.58700 27.87700
C  -0.49700 3.22000 27.46500
C  -0.33800 3.15300 26.07100
C  -0.20300 4.60100 25.66900
C  -0.68900 2.03100 28.50500
C  -0.51800 1.97000 25.06900
O  -0.35500 2.11200 23.88200
C  -0.71900 0.61200 25.52400
N  0.27200 7.54800 24.55900
C  0.12000 6.49100 23.81000
C  0.12400 6.88400 22.36100
C  -0.36800 8.40000 22.34000
C  -0.02600 8.67100 23.79600
C  1.42500 6.62200 21.60400
C  -1.87700 8.60700 22.02200
C  -2.27500 9.90600 21.40600
N  0.16900 9.50800 26.68000
C  0.26000 10.45400 25.63200
C  0.48100 11.82200 26.11600
C  0.40300 11.58900 27.53400
C  0.37500 10.21800 27.83300
C  0.54200 13.15000 25.38900
C  0.54200 12.28800 28.81300
O  0.68300 13.48600 29.09500
C  0.40500 11.16000 29.93100
C  1.57500 11.20600 30.83000
O  2.75000 11.03300 30.67200
O  1.05400 11.50900 32.07400
C  2.10900 11.84500 33.04400
H  -0.34100 4.35100 30.01100
H  -0.08400 4.43700 23.51100
H  0.07200 10.85700 23.54900
H  1.29900 8.69500 31.54100
H  -0.11800 6.17700 31.95300
H  2.42200 5.55700 30.66600
H  2.03400 5.47500 32.36700
H  2.73200 6.88400 31.78400
H  -1.56100 7.92200 32.12000
H  -1.22300 9.51600 31.61300
H  -0.71100 10.27900 33.46900
H  0.68100 9.30300 33.44300
H  -1.38000 1.30700 28.07300
H  -1.04200 2.19100 29.52400
H  0.31400 1.62800 28.64200
H  -1.79000 0.51800 25.70300
H  0.00600 0.33700 26.28900
H  -0.46800 -0.03500 24.68400
H  -0.65700 6.24400 21.95000
H  0.27100 9.01400 21.70600
H  1.92600 5.87300 22.21800
H  2.04300 7.51000 21.47100
H  1.18000 6.16700 20.64400
H  -2.35900 8.55200 22.99700
H  -2.12600 7.81200 21.31900
H  -3.08400 10.31300 22.01300
H  -2.78300 9.71000 20.46200
H  -1.49700 10.63000 21.16900
H  0.78800 14.00400 26.02000
H  -0.26800 13.36900 24.69200
H  1.43000 13.13200 24.75700
H  -0.43000 11.45000 30.56900
H  2.70200 12.68500 32.68200
H  2.67100 10.93200 33.24100
H  1.66100 12.22800 33.96000
Mg 42.97000 41.21500 25.90300
C  41.87200 43.53500 28.41500
C  43.93200 39.18200 28.35300
C  43.97200 39.27000 23.50300
C  42.16600 43.75300 23.57900
N  42.74800 41.32500 28.11500
C  42.19600 42.29800 28.90400
C  42.40000 41.94400 30.38200
C  43.08800 40.54500 30.33600
C  43.32600 40.37100 28.84700
C  44.36700 40.30800 31.25200
C  41.12500 42.05000 31.24700
C  40.96600 41.20900 32.53500
H  40.74000 41.91100 33.86900
N  43.84300 39.43900 25.99000
C  44.26300 38.76800 27.08100
C  44.81500 37.53000 26.70500
C  44.88300 37.55400 25.22900
C  44.23900 38.83900 24.87100
C  45.31200 36.52200 27.62600
C  45.36900 36.47200 24.29500
O  45.20200 36.53200 23.07200
C  46.11400 35.21600 24.73600
N  43.09900 41.51000 23.83900
C  43.52800 40.51900 23.00400
C  43.14100 40.66500 21.53800
C  42.60900 42.10200 21.58900
C  42.63700 42.52100 23.10000
C  44.28600 40.46400 20.46100
C  41.21900 42.35800 20.86400
C  41.16100 43.29700 19.65700
N  42.12800 43.26600 25.93000
C  41.89300 44.14200 24.88800
C  41.48500 45.43200 25.42800
C  41.41100 45.22100 26.81800
C  41.83600 43.89800 27.08500
C  41.17200 46.63700 24.58600
C  41.11100 45.81700 28.07000
O  40.71200 46.96200 28.25700
C  41.31800 44.76600 29.23100
C  42.37900 45.45700 30.01800
O  43.48600 45.78000 29.58800
O  41.90500 45.78500 31.32800
C  42.82100 46.54300 32.18200
H  44.13100 38.43400 29.12200
H  44.11200 38.59600 22.65500
H  42.01500 44.53600 22.83300
H  43.15300 42.63300 30.76400
H  42.38500 39.76100 30.61800
H  45.20700 40.12800 30.58100
H  44.32800 39.40900 31.86700
H  44.61700 41.22900 31.77900
H  40.17700 41.91600 30.72600
H  41.19700 43.09000 31.56600
H  41.73600 40.45400 32.69400
H  40.10000 40.59300 32.29000
H  46.20700 36.91900 28.10400
H  45.32600 35.52400 27.18900
H  44.54100 36.58400 28.39400
H  46.43700 34.55500 23.93200
H  45.44000 34.64600 25.37500
H  46.96100 35.56800 25.32600
H  42.35400 39.94800 21.30500
H  43.28800 42.76400 21.05100
H  45.28500 40.66700 20.84700
H  44.31100 41.13400 19.60200
H  44.20500 39.46900 20.02300
H  40.61300 42.86900 21.61100
H  40.72800 41.44000 20.54000
H  42.19400 43.42100 19.33200
H  40.76200 44.27000 19.94600
H  40.58800 42.82300 18.86000
H  41.10900 47.52400 25.21600
H  40.20300 46.44900 24.12300
H  41.93900 46.85300 23.84300
H  40.41700 44.57600 29.81400
H  42.73000 46.05800 33.15400
H  42.26900 47.48100 32.23600
H  43.86000 46.61200 31.86100

