158

Mg -2.02800 17.50300 27.68300
C  -2.43000 15.25500 30.37600
C  -2.96200 20.04100 29.78400
C  -1.49000 19.56400 25.13400
C  -1.58700 14.76100 25.58900
N  -2.69600 17.58700 29.85800
C  -2.63400 16.57600 30.79700
C  -2.83300 17.15100 32.24800
C  -3.42000 18.60200 31.92200
C  -2.98400 18.81400 30.44300
C  -4.84500 18.81800 32.33000
C  -1.47600 17.12500 33.10800
C  -1.78100 16.35500 34.50100
H  -0.70000 16.35400 35.47600
N  -2.08500 19.55600 27.52600
C  -2.54000 20.42300 28.48200
C  -2.36600 21.76100 27.99300
C  -1.94000 21.64900 26.67400
C  -1.90100 20.18700 26.33300
C  -2.59100 22.95700 28.88200
C  -1.55300 22.71100 25.69100
O  -1.25300 22.57100 24.48700
C  -1.42700 24.11800 26.10300
N  -1.90600 17.22300 25.54600
C  -1.48700 18.20100 24.76600
C  -1.18500 17.63000 23.27900
C  -1.07400 16.11600 23.59800
C  -1.56700 16.02300 25.00800
C  -2.31400 17.93300 22.21200
C  0.30400 15.41700 23.15300
C  1.41300 15.62600 24.16500
N  -2.10900 15.44600 27.80500
C  -1.98800 14.43800 26.90900
C  -2.13500 13.13400 27.56800
C  -2.26200 13.38000 28.94000
C  -2.30800 14.81400 29.05000
C  -1.93500 11.79500 26.93500
C  -2.31500 12.79200 30.20400
O  -2.25900 11.58400 30.53800
C  -2.40400 14.00900 31.15000
C  -1.02000 13.91900 31.79100
O  -0.02700 14.52200 31.50000
O  -1.09400 13.05000 32.88600
C  0.08300 12.64700 33.60100
H  -3.21500 20.89500 30.41500
H  -1.26300 20.26200 24.32500
H  -1.15400 13.93300 25.02300
H  -3.68600 16.66400 32.72100
H  -2.82500 19.37200 32.41300
H  -5.25300 18.10900 33.05100
H  -5.29800 18.76200 31.34100
H  -4.86900 19.82700 32.74100
H  -1.11600 18.13900 33.28100
H  -0.71600 16.58700 32.54000
H  -1.99900 15.29900 34.34100
H  -2.68600 16.74600 34.96700
H  -2.95300 23.83300 28.34300
H  -1.57700 23.12800 29.24100
H  -3.21200 22.80000 29.76400
H  -2.37800 24.64500 26.17200
H  -0.70000 24.60600 25.45400
H  -1.08900 24.00900 27.13400
H  -0.24600 18.04000 22.90600
H  -1.84800 15.66400 22.97800
H  -3.02900 18.63100 22.64700
H  -2.86000 17.04000 21.91100
H  -1.87100 18.40200 21.33300
H  0.53400 15.66300 22.11600
H  0.08000 14.36100 23.00100
H  1.92300 16.54300 23.86900
H  2.12800 14.80600 24.09900
H  1.11700 15.81600 25.19600
H  -2.21200 11.95800 25.89300
H  -2.61600 11.09300 27.41600
H  -0.90400 11.52200 27.16100
H  -3.28600 13.85900 31.77300
H  0.28700 13.29400 34.45400
H  1.00300 12.77000 33.03000
H  0.07800 11.61300 33.94600
Mg -5.62400 25.54000 25.96100
C  -4.41000 26.72800 29.03400
C  -7.39500 23.06500 27.72600
C  -6.15200 23.83600 23.10800
C  -3.29000 27.67500 24.41000
N  -5.73200 24.91500 28.17200
C  -5.33800 25.63900 29.24400
C  -5.99700 25.11700 30.50400
C  -6.80200 23.82800 30.04700
C  -6.61600 23.89200 28.52000
C  -6.19600 22.50600 30.67300
C  -6.90700 26.19400 31.14600
C  -6.70600 26.30700 32.67700
H  -6.36300 25.09200 33.49300
N  -6.84300 23.87900 25.44800
C  -7.50300 23.02400 26.31300
C  -8.46600 22.27500 25.56100
C  -8.05200 22.31600 24.18700
C  -6.95500 23.35900 24.23500
C  -9.61400 21.51000 26.31200
C  -8.64800 21.76100 22.94500
O  -8.29900 22.12000 21.81700
C  -9.81700 20.78300 23.18200
N  -4.71300 25.68300 24.03900
C  -5.12000 24.81400 23.05700
C  -4.40200 25.26300 21.74700
C  -3.74900 26.61700 22.11700
C  -3.92500 26.67100 23.60600
C  -3.52300 24.15400 21.16000
C  -4.42200 27.83200 21.36000
C  -3.49500 28.52800 20.33300
N  -4.16400 27.01200 26.53100
C  -3.23400 27.76900 25.80600
C  -2.61200 28.69200 26.71000
C  -3.05000 28.33900 28.01200
C  -3.99500 27.27200 27.84300
C  -1.71400 29.81600 26.27900
C  -2.82600 28.67200 29.38000
O  -2.12000 29.46000 30.02200
C  -3.79300 27.65700 30.10400
C  -3.15400 26.88800 31.20400
O  -2.71000 25.75500 31.17700
O  -3.02400 27.73100 32.27700
C  -2.36100 27.15600 33.41500
H  -8.15100 22.48700 28.26100
H  -6.25000 23.16500 22.25200
H  -2.62900 28.43500 23.98700
H  -5.20600 24.87800 31.21500
H  -7.83400 23.97800 30.36300
H  -5.34700 22.11800 30.10900
H  -7.01300 21.82700 30.91900
H  -5.65100 22.61600 31.61000
H  -7.96300 25.93800 31.06200
H  -6.56000 27.12500 30.69600
H  -7.48300 26.78400 33.27400
H  -5.86400 26.99200 32.78300
H  -10.49400 21.53700 25.66900
H  -9.90200 22.01300 27.23500
H  -9.36800 20.46200 26.47900
H  -10.02800 20.32500 22.21500
H  -10.62900 21.49000 23.34900
H  -9.50800 20.08400 23.96000
H  -5.14300 25.39400 20.95900
H  -2.69900 26.58800 21.82800
H  -2.47400 24.44800 21.12100
H  -3.82100 23.85700 20.15400
H  -3.69900 23.36200 21.88700
H  -4.69600 28.56600 22.11900
H  -5.34600 27.48500 20.89600
H  -3.88200 28.33200 19.33300
H  -2.50400 28.08400 20.42100
H  -3.48000 29.59400 20.55900
H  -0.93100 29.79100 27.03700
H  -2.23900 30.76900 26.34000
H  -1.31100 29.56000 25.29900
H  -4.67200 28.18900 30.46700
H  -2.48700 27.73200 34.33200
H  -1.29100 27.17800 33.20800
H  -2.54300 26.10100 33.61800

