158

Mg -2.15500 17.09900 26.55700
C  -2.54500 14.86200 29.33900
C  -3.02600 19.61500 28.68500
C  -2.20800 19.23400 23.91900
C  -1.97500 14.27900 24.45000
N  -2.81500 17.13200 28.69700
C  -2.68500 16.21200 29.75900
C  -2.75700 16.74600 31.19500
C  -3.07000 18.26900 30.84000
C  -2.95900 18.33500 29.32600
C  -4.30200 18.92100 31.51600
C  -1.48100 16.42600 32.03300
C  -1.41200 17.40900 33.22000
H  -0.79300 16.73000 34.45500
N  -2.38100 19.11100 26.38000
C  -2.76400 19.96100 27.36500
C  -2.76100 21.32100 26.87600
C  -2.34400 21.30700 25.51000
C  -2.30300 19.81700 25.18900
C  -3.14100 22.48200 27.78500
C  -2.09400 22.42400 24.62700
O  -1.79100 22.26000 23.46300
C  -2.15100 23.88900 25.07500
N  -1.89100 16.76800 24.48600
C  -2.03200 17.83900 23.59200
C  -1.84200 17.36300 22.09800
C  -1.60800 15.78600 22.33500
C  -1.82100 15.58000 23.83100
C  -3.08500 17.72300 21.29100
C  -0.18700 15.38800 22.01700
C  0.92700 15.95100 22.94000
N  -2.21300 15.05000 26.79000
C  -2.19600 14.05400 25.83600
C  -2.22800 12.78200 26.48800
C  -2.30600 13.05600 27.82100
C  -2.43300 14.43600 27.94200
C  -2.03600 11.48900 25.65200
C  -2.40700 12.40100 29.18400
O  -2.21600 11.25000 29.51000
C  -2.66900 13.59100 30.14800
C  -1.69800 13.31000 31.23000
O  -0.51100 13.49000 31.10400
O  -2.34800 12.87300 32.37200
C  -1.44100 12.78600 33.55700
H  -3.03900 20.40200 29.44200
H  -2.14300 19.80800 22.99200
H  -1.93200 13.35100 23.87600
H  -3.60900 16.35600 31.75100
H  -2.19800 18.82300 31.18800
H  -4.80200 18.24200 32.20600
H  -5.04600 19.18100 30.76300
H  -4.09100 19.80500 32.11900
H  -0.58500 16.67300 31.46300
H  -1.60500 15.45000 32.50300
H  -2.43400 17.71600 33.44500
H  -0.74200 18.24900 33.03900
H  -2.25100 23.10300 27.88800
H  -3.52200 22.25500 28.78100
H  -3.87200 23.18600 27.38800
H  -3.07200 24.23400 25.54600
H  -1.75800 24.58000 24.33000
H  -1.32100 23.80900 25.77800
H  -0.92100 17.85500 21.78600
H  -2.24400 15.22400 21.65100
H  -2.83800 18.51300 20.58200
H  -3.88300 18.01600 21.97400
H  -3.51200 16.88300 20.74300
H  0.09800 15.69600 21.01100
H  -0.03800 14.30900 21.99400
H  0.70600 16.54800 23.82500
H  1.65600 16.38900 22.25800
H  1.43900 15.07400 23.33600
H  -1.37700 11.63000 24.79600
H  -2.99300 11.24500 25.19000
H  -1.76300 10.66600 26.31200
H  -3.67600 13.31700 30.46500
H  -1.77700 13.66800 34.10300
H  -0.37000 12.89700 33.39200
H  -1.52800 11.78200 33.97100
Mg 27.33600 50.27600 26.55900
C  25.45900 51.22400 29.43300
C  29.79700 49.35300 28.63700
C  28.95100 49.40600 23.82800
C  24.64800 51.43700 24.54800
N  27.53500 50.26100 28.81500
C  26.72300 50.72600 29.82300
C  27.26200 50.32100 31.16700
C  28.77000 49.88100 30.90300
C  28.66600 49.74800 29.35600
C  29.77900 50.95300 31.46100
C  26.42800 49.16600 31.87300
C  26.01100 49.49600 33.34000
H  26.96600 50.03000 34.42900
N  29.08900 49.47700 26.30300
C  29.99100 49.15600 27.18600
C  31.25000 48.70500 26.61100
C  31.01600 48.72500 25.23500
C  29.62900 49.18800 25.08200
C  32.45300 48.18400 27.32800
C  31.91300 48.43000 24.05000
O  31.62200 48.62900 22.86800
C  33.17400 47.77100 24.39500
N  26.87500 50.56200 24.48100
C  27.78700 50.11100 23.51000
C  27.15500 50.23400 22.10900
C  25.73000 50.80500 22.41800
C  25.70400 50.92800 23.91400
C  27.98400 51.14100 21.18700
C  24.50200 49.85200 21.96300
C  23.40600 50.61300 21.25700
N  25.43500 51.25600 26.84000
C  24.46100 51.58700 25.95300
C  23.32600 52.08500 26.66900
C  23.64700 51.96000 28.04200
C  24.90800 51.44600 28.08500
C  22.13500 52.70300 26.05400
C  23.13900 52.14000 29.38900
O  22.05400 52.54200 29.72300
C  24.32900 51.75600 30.38000
C  24.85400 52.93800 31.14600
O  25.34300 53.94200 30.67400
O  24.61000 52.83600 32.47800
C  25.10500 53.88500 33.39400
H  30.65600 49.04500 29.23500
H  29.43100 48.93800 22.96600
H  23.76400 51.59300 23.92700
H  27.15000 51.13000 31.88900
H  28.97300 48.95200 31.43600
H  29.31900 51.71600 32.09000
H  30.14100 51.44300 30.55700
H  30.68100 50.54300 31.91500
H  27.05200 48.32700 32.18200
H  25.59000 48.86400 31.24500
H  25.83300 48.50200 33.75100
H  25.07700 50.05700 33.33500
H  32.45300 48.15500 28.41800
H  33.34200 48.79400 27.17000
H  32.72900 47.18000 27.00700
H  33.06100 46.83200 24.93600
H  33.76400 48.49000 24.96300
H  33.70300 47.65600 23.45000
H  26.96100 49.23400 21.72000
H  25.64400 51.82800 22.05000
H  28.20500 50.58600 20.27500
H  28.92600 51.14000 21.73500
H  27.61800 52.15800 21.04500
H  24.17100 49.29100 22.83600
H  24.90600 49.20500 21.18500
H  23.74400 50.64700 20.22200
H  23.28400 51.63000 21.63100
H  22.41400 50.16100 21.22800
H  21.56300 53.13600 26.87500
H  21.52000 52.03500 25.45200
H  22.52100 53.59100 25.55400
H  24.08200 50.91100 31.02200
H  25.00300 54.82500 32.85100
H  26.15800 53.74500 33.63600
H  24.54100 54.10400 34.30100

