158

Mg 16.39300 -1.68200 28.10600
C  15.61400 0.61000 30.80600
C  18.21700 -3.55300 30.17700
C  17.45900 -3.29300 25.39600
C  14.66200 0.65000 26.05100
N  17.03200 -1.38100 30.19000
C  16.40000 -0.57300 31.17800
C  16.86200 -0.99300 32.48100
C  17.75100 -2.24300 32.34100
C  17.64200 -2.43900 30.78900
C  19.26600 -2.07100 32.75900
C  15.73500 -1.16700 33.48300
C  15.87300 -0.52700 34.85400
H  17.18400 0.06200 35.26900
N  17.53000 -3.26000 27.86300
C  18.16400 -3.96800 28.82600
C  18.85100 -5.10900 28.26500
C  18.63300 -5.11500 26.81300
C  17.80200 -3.86500 26.64200
C  19.61000 -6.05500 29.10200
C  18.98100 -6.06500 25.64400
O  18.47100 -5.89200 24.54700
C  19.96300 -7.14800 25.86600
N  15.85100 -1.54400 25.94600
C  16.61900 -2.23600 25.02400
C  16.35100 -1.69200 23.62300
C  15.28200 -0.57600 23.87400
C  15.21200 -0.47500 25.35700
C  17.47400 -1.22600 22.68300
C  13.85800 -0.91400 23.33300
C  13.31400 -0.03500 22.14000
N  15.27000 0.18800 28.30900
C  14.61700 0.91300 27.42700
C  13.95300 2.04400 28.06300
C  14.31100 1.88800 29.42600
C  15.13500 0.77500 29.49300
C  13.26600 3.13600 27.45100
C  14.09900 2.53500 30.69600
O  13.51900 3.54100 31.03500
C  14.86400 1.57800 31.72400
C  15.75700 2.53900 32.55800
O  16.81500 3.02600 32.14900
O  15.07700 2.84300 33.64400
C  15.58500 4.00500 34.34300
H  18.53100 -4.31200 30.89700
H  17.91200 -3.77100 24.52500
H  14.11500 1.35100 25.41600
H  17.47100 -0.17900 32.87400
H  17.34500 -3.10500 32.87100
H  19.84000 -2.25500 31.85100
H  19.50100 -2.78300 33.55000
H  19.56300 -1.10600 33.16900
H  15.55400 -2.24000 33.55400
H  14.85100 -0.78800 32.96900
H  15.61000 -1.37300 35.48900
H  15.21700 0.34300 34.86300
H  19.83200 -6.98200 28.57400
H  19.02800 -6.28300 29.99500
H  20.52500 -5.59000 29.46800
H  20.88200 -6.75100 26.29600
H  19.99000 -7.62700 24.88700
H  19.34200 -7.77500 26.50700
H  15.97000 -2.59000 23.13600
H  15.69800 0.39100 23.59300
H  18.33500 -0.74200 23.14300
H  17.20900 -0.50100 21.91300
H  17.75900 -2.14900 22.17800
H  13.08000 -0.97100 24.09500
H  13.91200 -1.91900 22.91300
H  12.25400 0.15200 22.31300
H  13.42800 -0.56200 21.19300
H  13.82000 0.92600 22.04300
H  13.84000 3.52500 26.61000
H  13.18400 3.90300 28.22100
H  12.30100 2.74400 27.12900
H  14.09000 1.13600 32.35300
H  14.90300 4.83200 34.14700
H  16.51500 4.50800 34.07800
H  15.58200 3.87300 35.42500
Mg 9.49700 47.58000 25.60900
C  7.57800 47.32600 28.63100
C  11.96700 49.06700 27.48000
C  11.14000 48.04400 22.77700
C  6.61000 46.63100 23.84000
N  9.75300 48.13800 27.86400
C  8.90600 47.83400 28.92400
C  9.47900 48.22300 30.20200
C  10.62500 49.25700 29.70300
C  10.83800 48.80100 28.31800
C  10.16000 50.75500 29.98300
C  9.94100 47.03700 31.10600
C  9.36900 47.08000 32.50900
H  9.41500 45.85400 33.45800
N  11.33300 48.32000 25.25700
C  12.19700 48.84600 26.10200
C  13.37100 49.33600 25.35700
C  13.14300 48.98500 24.02900
C  11.84100 48.40800 23.94900
C  14.57700 49.88100 26.00200
C  14.11600 49.01300 22.83200
O  13.84600 48.57500 21.72000
C  15.44800 49.58700 23.01900
N  8.91100 47.32500 23.63100
C  9.80400 47.52900 22.57500
C  9.16700 47.38100 21.17600
C  7.88700 46.49600 21.52700
C  7.82400 46.81500 23.10300
C  8.77800 48.74100 20.44300
C  8.05400 44.99500 21.32000
C  7.62400 44.42400 19.97300
N  7.50200 47.04600 26.07400
C  6.44700 46.75000 25.25600
C  5.26800 46.57000 25.99800
C  5.64300 46.75400 27.33200
C  7.07200 47.05600 27.34100
C  3.82400 46.20100 25.46200
C  5.21100 46.67700 28.68900
O  4.09500 46.34700 29.12800
C  6.44000 47.13800 29.60900
C  6.77800 46.02900 30.53900
O  7.53000 45.07400 30.35500
O  5.92300 46.12800 31.68100
C  5.75400 45.04200 32.60300
H  12.73000 49.59500 28.05500
H  11.52700 48.24800 21.77700
H  5.68800 46.40500 23.30100
H  8.69000 48.77000 30.71900
H  11.50300 48.98700 30.29000
H  9.41100 50.68600 30.77200
H  9.79600 51.07900 29.00800
H  11.01500 51.31500 30.36200
H  11.01300 47.16900 31.25300
H  9.86500 46.08400 30.58400
H  8.39800 47.57500 32.52200
H  10.09000 47.73600 32.99500
H  14.26200 50.31100 26.95300
H  14.94800 50.79100 25.53100
H  15.35900 49.13600 26.14500
H  16.07400 49.45000 22.13800
H  15.92500 49.13500 23.88900
H  15.22800 50.63900 23.20200
H  9.84100 46.85500 20.50100
H  7.01600 46.95900 21.06400
H  7.72000 48.88900 20.22900
H  9.52000 48.86400 19.65400
H  9.00200 49.56800 21.11700
H  7.55400 44.43500 22.11100
H  9.07600 44.66400 21.50600
H  7.25200 45.32100 19.47900
H  6.80800 43.72900 20.17200
H  8.44500 43.90000 19.48400
H  3.22300 45.42500 25.93400
H  3.81500 45.91300 24.41100
H  3.23800 47.11700 25.38500
H  6.08700 47.99400 30.18400
H  6.01500 45.38100 33.60600
H  6.32200 44.14600 32.35300
H  4.78600 44.54800 32.69100

