158

Mg 8.73000 3.57900 27.34700
C  9.85200 2.07600 30.31700
C  7.25500 5.89800 29.23800
C  7.35500 4.70700 24.56700
C  10.23500 0.86000 25.57500
N  8.51200 3.83700 29.52100
C  9.15100 3.22100 30.65300
C  8.83900 3.86900 32.02800
C  7.82800 4.98400 31.58500
C  7.78900 4.87700 30.02800
C  6.38100 4.70900 32.14200
C  10.12100 4.48600 32.66100
C  9.96300 5.10100 34.06600
H  10.34100 4.27100 35.24400
N  7.63200 5.19100 26.91400
C  7.10200 6.11200 27.84800
C  6.31900 7.11900 27.16200
C  6.28700 6.70300 25.77200
C  7.17300 5.48500 25.70400
C  5.75800 8.32300 27.84700
C  5.57800 7.37500 24.57800
O  5.64500 6.95000 23.44400
C  4.68300 8.52300 24.86200
N  8.82700 2.93600 25.38200
C  8.14700 3.59700 24.35400
C  8.36800 2.85500 22.97300
C  9.38600 1.64200 23.31700
C  9.60400 1.88300 24.80500
C  6.99500 2.31000 22.30500
C  10.63800 1.64400 22.48300
C  11.04300 0.41100 21.65100
N  9.87400 1.80700 27.83000
C  10.35400 0.79000 27.02400
C  10.98000 -0.23600 27.75900
C  10.87700 0.28200 29.06000
C  10.17100 1.50200 29.07500
C  11.43100 -1.54900 27.30700
C  11.24200 0.04800 30.42300
O  11.72100 -0.96700 30.92900
C  10.65800 1.18200 31.22400
C  9.81500 0.61400 32.30300
O  8.85300 -0.14300 32.09500
O  10.31500 0.94700 33.57300
C  9.29400 0.53700 34.60800
H  6.71200 6.53200 29.94200
H  6.85100 4.93500 23.62500
H  10.76900 0.10500 24.99400
H  8.54600 3.04300 32.67600
H  8.15200 5.98200 31.88300
H  6.07300 5.66300 32.57100
H  6.41700 3.98000 32.95100
H  5.66500 4.33400 31.41100
H  10.47500 5.20800 31.92400
H  10.88400 3.71000 32.71900
H  8.93600 5.35800 34.32500
H  10.53300 6.02700 34.15000
H  6.15900 8.36900 28.85900
H  4.68800 8.32400 28.05300
H  6.16600 9.22600 27.39300
H  5.32000 9.40700 24.85100
H  4.03900 8.37100 25.72800
H  3.90100 8.58900 24.10500
H  8.87200 3.58200 22.33700
H  8.87500 0.69700 23.12800
H  7.19300 1.35200 21.82500
H  6.44200 2.90500 21.57800
H  6.21500 2.14200 23.04800
H  11.51400 1.86400 23.09400
H  10.50700 2.49100 21.81100
H  12.10200 0.19500 21.79100
H  10.78500 0.65400 20.62000
H  10.44200 -0.42500 22.00800
H  12.47900 -1.46000 27.02100
H  10.78900 -1.78500 26.45900
H  11.25400 -2.40800 27.95400
H  11.50900 1.75700 31.58900
H  9.52200 1.02800 35.55400
H  9.56600 -0.50600 34.76900
H  8.24600 0.58300 34.31200
Mg 47.28200 44.88700 42.29500
C  43.78200 44.38300 42.32400
C  47.63200 41.44800 42.06400
C  50.50500 45.37700 41.86700
C  46.61000 48.23800 42.03100
N  45.84400 43.16500 42.14200
C  44.54800 43.19700 42.22300
C  43.89500 41.79700 42.13600
C  45.13200 40.79500 42.26600
C  46.29900 41.80300 42.12100
C  45.28500 39.93700 43.58500
C  42.97500 41.56400 40.86600
C  43.29000 42.26000 39.50000
H  43.29700 41.45200 38.27200
N  48.88600 43.61600 41.99400
C  48.77900 42.22300 42.00100
C  50.15500 41.74800 41.83600
C  50.99100 42.87900 41.62600
C  50.12800 44.02200 41.83700
C  50.56400 40.32100 41.77600
C  52.45500 42.83900 41.29400
O  53.06500 41.81300 41.27100
C  53.24100 44.10000 41.11800
N  48.43600 46.53000 41.93100
C  49.74100 46.50100 41.93900
C  50.36800 47.92600 41.87000
C  49.11500 48.87700 41.67000
C  47.97700 47.83000 41.86500
C  51.12100 48.22700 43.11600
C  48.93700 49.74000 40.44000
C  48.42700 51.18800 40.73400
N  45.61800 46.08300 42.28400
C  45.54100 47.45200 42.26700
C  44.19800 47.89900 42.48500
C  43.47400 46.68500 42.46400
C  44.37400 45.64500 42.33900
C  43.63100 49.30900 42.41100
C  42.13200 46.12700 42.62300
O  41.08000 46.71300 42.79200
C  42.26800 44.55000 42.72200
C  41.73200 44.17000 44.01700
O  42.06200 44.77700 45.03600
O  40.92300 43.04100 43.97600
C  40.65900 42.41300 45.27000
H  47.81800 40.37300 42.10800
H  51.56100 45.64600 41.79800
H  46.61000 49.32600 41.93000
H  43.28400 41.68900 43.03200
H  45.01100 40.10700 41.42900
H  45.79900 39.04300 43.23400
H  44.31100 39.79900 44.05600
H  45.90700 40.53200 44.25400
H  41.96700 41.82200 41.19000
H  42.87600 40.48500 40.74600
H  44.25700 42.75600 39.57300
H  42.55400 43.06400 39.48700
H  51.44600 40.05500 42.35800
H  50.64500 39.93300 40.76100
H  49.82000 39.76700 42.34900
H  52.72600 44.76200 40.42200
H  54.25000 43.96400 40.72700
H  53.42100 44.50700 42.11300
H  51.00400 47.89100 40.98500
H  49.18100 49.56500 42.51300
H  52.08600 47.79200 42.85800
H  50.84200 47.75900 44.06000
H  51.29300 49.27200 43.37700
H  48.19000 49.28900 39.78800
H  49.90600 49.65200 39.94800
H  49.25400 51.78000 40.34200
H  48.17900 51.36500 41.78100
H  47.54800 51.38400 40.12100
H  43.37800 49.63800 41.40400
H  44.42100 49.99400 42.72100
H  42.86400 49.33800 43.18500
H  41.64800 44.13700 41.92600
H  40.26600 43.15700 45.96400
H  41.59400 41.96300 45.60500
H  39.84300 41.70600 45.12300

