158

Mg 1.95500 -1.28200 44.36400
C  5.34400 -0.66400 43.96700
C  1.35000 1.71400 42.73700
C  -1.31500 -2.27800 44.00500
C  2.57400 -4.53700 45.50600
N  3.22100 0.24200 43.23800
C  4.57400 0.33400 43.39500
C  5.13900 1.66500 42.82900
C  3.79900 2.47000 42.51200
C  2.74000 1.49300 42.91100
C  3.62700 3.91100 43.23900
C  5.99000 1.46000 41.50900
C  7.43500 1.80600 41.50400
H  8.27000 2.04900 40.24600
N  0.31400 -0.44200 43.56000
C  0.21000 0.84400 42.92300
C  -1.19400 1.11500 42.58800
C  -1.90300 -0.01300 43.10000
C  -0.94600 -1.00000 43.58800
C  -1.72400 2.36500 41.88000
C  -3.44700 -0.01700 42.91400
O  -4.09200 0.77300 42.24800
C  -4.24000 -1.14000 43.54600
N  0.78000 -3.22400 44.75400
C  -0.53700 -3.30300 44.55600
C  -1.00900 -4.74000 44.69800
C  0.23800 -5.50200 45.32600
C  1.25100 -4.36500 45.21000
C  -2.34300 -5.04200 45.56500
C  0.62500 -6.77100 44.50500
C  1.09400 -7.94600 45.16000
N  3.53000 -2.38600 44.81900
C  3.66500 -3.63400 45.31000
C  5.04000 -3.83700 45.69200
C  5.72900 -2.68800 45.17900
C  4.77800 -1.84200 44.60100
C  5.66300 -5.14700 46.17600
C  7.05900 -2.07000 45.00400
O  8.13500 -2.52700 45.38400
C  6.82900 -0.74300 44.29700
C  7.22700 0.35200 45.21000
O  6.66200 0.58800 46.29800
O  8.23500 1.18100 44.73300
C  8.77600 2.29300 45.46300
H  1.13300 2.73300 42.41100
H  -2.35500 -2.54600 43.80600
H  2.84800 -5.50700 45.92800
H  5.69400 2.18500 43.61000
H  3.61200 2.81300 41.49400
H  2.88700 3.85600 44.03700
H  3.25300 4.74200 42.64100
H  4.56600 4.21700 43.70100
H  5.57900 1.95100 40.62700
H  5.96300 0.39300 41.28600
H  7.91100 1.00200 42.06600
H  7.50800 2.64100 42.20100
H  -0.99100 3.16500 41.77300
H  -2.42900 2.87300 42.53800
H  -2.19800 2.17900 40.91600
H  -5.28300 -0.84700 43.65900
H  -3.98400 -1.16600 44.60500
H  -4.24400 -2.03500 42.92400
H  -1.17500 -5.16400 43.70800
H  0.03700 -5.91400 46.31500
H  -2.33100 -6.05900 45.95600
H  -3.16300 -5.01700 44.84700
H  -2.55900 -4.31500 46.34800
H  1.48200 -6.59400 43.85400
H  -0.22900 -7.12800 43.93000
H  1.49000 -7.58900 46.11000
H  1.95500 -8.44100 44.71000
H  0.47600 -8.82800 45.32500
H  5.26800 -5.44200 47.14800
H  6.74600 -5.04000 46.23700
H  5.40800 -5.98500 45.52600
H  7.52100 -0.59100 43.46900
H  8.58900 3.25000 44.97500
H  9.86200 2.19600 45.43000
H  8.58200 2.34700 46.53400
Mg -5.50000 25.68100 26.03200
C  -4.26500 27.22900 29.05600
C  -7.35300 23.53600 28.10700
C  -6.38800 23.91100 23.40100
C  -3.23400 27.60700 24.21700
N  -5.82700 25.51100 28.31400
C  -5.23200 26.23000 29.27700
C  -5.80400 25.88600 30.67700
C  -6.46900 24.56400 30.36800
C  -6.52700 24.47800 28.80400
C  -5.54000 23.29200 30.83200
C  -6.67800 26.99100 31.35100
C  -6.79200 26.96700 32.86900
H  -6.07500 25.79900 33.63400
N  -6.74300 23.94300 25.74000
C  -7.42400 23.19800 26.75000
C  -8.33600 22.28100 26.05300
C  -8.06000 22.40900 24.65400
C  -7.02200 23.44500 24.56200
C  -9.29900 21.37800 26.78200
C  -8.70100 21.70500 23.48500
O  -8.37200 21.96300 22.31400
C  -9.63500 20.53100 23.74200
N  -4.81100 25.71500 24.10100
C  -5.38300 24.84700 23.14900
C  -4.55500 24.98700 21.90000
C  -3.65500 26.28600 21.98500
C  -3.91100 26.58800 23.53600
C  -3.76500 23.70900 21.59100
C  -4.16400 27.54400 21.10700
C  -3.28700 28.21900 20.04100
N  -4.02600 27.21300 26.53100
C  -3.23900 27.94500 25.67700
C  -2.54000 28.96400 26.45800
C  -2.88300 28.70700 27.78700
C  -3.77400 27.62400 27.82900
C  -1.58100 29.95500 25.95800
C  -2.64700 29.07500 29.14200
O  -1.86800 29.92600 29.57700
C  -3.62200 28.23000 30.04300
C  -2.79400 27.53300 31.06000
O  -1.99400 26.62300 30.79400
O  -3.08000 28.13500 32.31600
C  -2.23600 27.54900 33.36700
H  -7.94300 22.83900 28.70600
H  -6.66100 23.41900 22.46500
H  -2.54100 28.18600 23.60400
H  -4.89200 25.78800 31.26700
H  -7.49200 24.61500 30.74000
H  -4.46900 23.42800 30.98300
H  -5.68400 22.50600 30.09100
H  -5.91800 23.02100 31.81800
H  -7.71800 26.83300 31.06400
H  -6.35900 27.97000 30.99200
H  -7.83500 27.05100 33.17400
H  -6.32400 27.91700 33.12600
H  -10.28400 21.84400 26.80200
H  -8.86500 21.20200 27.76600
H  -9.34100 20.33600 26.46500
H  -9.11800 19.72800 24.26700
H  -10.14200 20.21400 22.83100
H  -10.46100 20.85000 24.37900
H  -5.26900 25.17400 21.09900
H  -2.59100 26.11700 21.82100
H  -4.00400 23.49500 20.54900
H  -4.13600 22.90400 22.22500
H  -2.68900 23.88400 21.57700
H  -4.40000 28.37900 21.76700
H  -5.10700 27.26100 20.63800
H  -3.89200 28.37400 19.14700
H  -2.48700 27.54000 19.74700
H  -2.82600 29.17700 20.28000
H  -0.97600 29.50100 25.17300
H  -1.03200 30.39900 26.78900
H  -2.26800 30.70300 25.56300
H  -4.44500 28.85700 30.38400
H  -2.79100 27.60800 34.30300
H  -1.33300 28.13900 33.52800
H  -1.97600 26.50800 33.17300

