158

Mg 26.24900 -0.09300 29.40300
C  28.12900 -0.61500 32.30800
C  23.51500 0.18700 31.31800
C  24.55400 0.06400 26.58300
C  29.20100 -0.88400 27.53300
N  25.85300 -0.47400 31.59700
C  26.84000 -0.35100 32.60400
C  26.23400 -0.23400 33.91400
C  24.70100 -0.04800 33.59000
C  24.63700 -0.08300 32.08300
C  23.68800 -1.04800 34.33400
C  26.96200 0.66400 34.97300
C  26.26500 1.04700 36.26500
H  26.57600 0.23500 37.51400
N  24.24300 0.10700 29.01400
C  23.28300 0.18300 29.93600
C  22.05600 0.45800 29.25800
C  22.24900 0.29300 27.84500
C  23.71000 0.12300 27.68300
C  20.76200 0.75200 30.06300
C  21.27800 0.24900 26.67100
O  21.52900 0.03300 25.49200
C  19.96700 0.56300 27.04600
N  26.82600 -0.35200 27.34400
C  25.89300 -0.18400 26.34100
C  26.52900 -0.16100 24.91200
C  28.05500 -0.18900 25.31300
C  28.07000 -0.49100 26.83000
C  26.11900 -1.30700 23.96600
C  28.93100 0.96500 24.97200
C  30.41700 0.73000 24.80700
N  28.33000 -0.66800 29.79400
C  29.35700 -0.98500 28.92700
C  30.51200 -1.28000 29.66200
C  30.10700 -1.04900 30.97200
C  28.75100 -0.71700 31.04800
C  31.77700 -1.74900 29.14500
C  30.57700 -1.11500 32.35500
O  31.73400 -1.30800 32.77800
C  29.32000 -0.77300 33.25100
C  29.21300 -1.83000 34.26900
O  28.60900 -2.91300 34.04000
O  29.83400 -1.51800 35.48200
C  29.75000 -2.49200 36.53500
H  22.62900 0.35300 31.93400
H  24.02000 0.09400 25.63000
H  30.05600 -0.93500 26.85500
H  26.35200 -1.21500 34.37300
H  24.31000 0.93600 33.84800
H  22.92100 -1.37500 33.63200
H  23.25800 -0.52100 35.18600
H  24.17400 -1.86600 34.86600
H  27.41300 1.58300 34.59900
H  27.87100 0.14400 35.27700
H  25.18100 1.11300 36.16600
H  26.48700 2.10300 36.41900
H  20.25500 1.55800 29.53200
H  21.04300 1.14700 31.03900
H  20.03500 -0.05800 30.12200
H  19.36500 0.53700 26.13800
H  19.87000 1.62000 27.29400
H  19.50400 -0.08100 27.79300
H  26.27800 0.81300 24.49000
H  28.52600 -1.08100 24.90000
H  25.41400 -1.95700 24.48500
H  26.95900 -1.83400 23.51400
H  25.49900 -0.93900 23.14900
H  28.95400 1.77400 25.70200
H  28.65700 1.51200 24.06900
H  30.62800 1.13000 23.81600
H  30.67100 -0.33000 24.76500
H  31.04200 1.15300 25.59300
H  32.26200 -2.17200 30.02400
H  32.42800 -1.09800 28.56100
H  31.43500 -2.53400 28.47000
H  29.60200 0.17300 33.71500
H  29.79200 -3.52400 36.18400
H  28.74900 -2.38400 36.95400
H  30.44500 -2.45700 37.37400
Mg 46.86500 24.47500 28.28800
C  47.43400 26.64500 31.09100
C  46.15300 22.08300 30.73200
C  47.01100 22.36100 25.94000
C  48.13200 26.98400 26.26300
N  46.94300 24.36900 30.70000
C  47.09400 25.39000 31.58600
C  46.80000 24.99600 33.06300
C  46.55800 23.40800 32.98400
C  46.53700 23.27300 31.38200
C  47.66800 22.51800 33.69800
C  45.65600 25.80800 33.69900
C  45.83600 26.06200 35.18200
H  44.57000 25.91200 36.06900
N  46.48800 22.53100 28.29600
C  46.09200 21.72300 29.36800
C  45.67900 20.49400 28.78000
C  46.01600 20.53700 27.36300
C  46.61800 21.80100 27.16700
C  45.01200 19.41700 29.59500
C  45.75900 19.39900 26.32300
O  46.09200 19.54600 25.13100
C  45.18000 18.02400 26.71300
N  47.57800 24.63100 26.39300
C  47.51100 23.60200 25.57800
C  47.92800 23.98400 24.20500
C  48.25000 25.50400 24.24000
C  47.88000 25.76000 25.69400
C  49.04000 23.08800 23.64700
C  47.33800 26.35000 23.14400
C  46.02300 26.98100 23.72500
N  47.62000 26.42300 28.62300
C  48.06000 27.33800 27.60300
C  48.39400 28.57100 28.24500
C  48.08600 28.34500 29.61900
C  47.65600 27.03200 29.78900
C  49.07100 29.83000 27.64500
C  48.26500 28.97700 30.89200
O  48.63600 30.07600 31.27800
C  47.87500 27.87700 31.87400
C  49.04300 27.52800 32.71700
O  49.97500 26.88800 32.37600
O  48.83400 28.07000 34.02300
C  49.82300 27.62400 35.05100
H  45.70100 21.34900 31.40300
H  47.00900 21.59700 25.15900
H  48.55100 27.73700 25.59200
H  47.67900 25.10300 33.70000
H  45.60400 23.14400 33.44000
H  47.19000 21.84800 34.41300
H  48.40500 23.15500 34.18700
H  48.05400 21.88300 32.90100
H  44.68700 25.31100 33.75100
H  45.50900 26.73300 33.14200
H  46.24500 27.06200 35.32900
H  46.65000 25.43900 35.55400
H  44.00900 19.07800 29.33900
H  44.91700 19.68900 30.64600
H  45.53600 18.46800 29.48000
H  45.51200 17.59500 27.65900
H  45.16400 17.20900 25.98900
H  44.22000 18.49400 26.92600
H  47.07600 23.80200 23.55000
H  49.30400 25.66200 24.01000
H  49.48400 22.38300 24.35000
H  49.88200 23.67900 23.28700
H  48.61000 22.50500 22.83200
H  47.19400 25.73400 22.25600
H  47.98500 27.19700 22.91700
H  46.10500 28.03100 24.00700
H  45.62300 26.40700 24.56100
H  45.29400 26.84100 22.92700
H  48.45400 30.69200 27.89700
H  49.00600 29.78000 26.55800
H  50.08400 29.91900 28.03700
H  47.09400 28.27400 32.52300
H  49.40000 27.15900 35.94200
H  50.28700 28.50800 35.48900
H  50.61000 27.00900 34.61500

