158

Mg 24.51300 0.98200 29.78500
C  26.40500 0.87100 32.72300
C  21.75700 0.88800 31.77200
C  22.69400 0.77400 26.91300
C  27.50400 0.66500 27.88300
N  24.13900 1.09000 32.07400
C  25.03800 0.99800 33.02700
C  24.42000 1.14900 34.35500
C  22.89000 0.86900 34.05900
C  22.90800 1.00100 32.54500
C  22.27400 -0.50200 34.45400
C  24.81400 2.50600 35.16200
C  25.37200 2.40900 36.52700
H  25.00700 3.45100 37.63700
N  22.51000 0.91100 29.42900
C  21.56800 0.81700 30.37600
C  20.28100 0.77200 29.72600
C  20.52000 0.64100 28.29800
C  21.97200 0.76700 28.17300
C  18.98400 0.71100 30.49500
C  19.55500 0.37100 27.23000
O  19.83200 0.31000 26.03900
C  18.06800 0.29700 27.51100
N  25.03900 0.58600 27.76200
C  24.05900 0.74500 26.74500
C  24.68700 0.91100 25.35700
C  26.22300 0.87700 25.54600
C  26.28800 0.76100 27.15400
C  24.11500 -0.18200 24.40300
C  26.86100 2.12900 24.87900
C  26.74000 3.48800 25.63700
N  26.48600 0.70600 30.11700
C  27.55100 0.57100 29.27700
C  28.79000 0.50400 30.09400
C  28.35900 0.63200 31.38200
C  26.95400 0.73700 31.38400
C  30.19100 0.30600 29.57500
C  28.81600 0.78200 32.82300
O  29.93900 0.73300 33.22400
C  27.53200 0.81000 33.75200
C  27.57800 -0.32800 34.66400
O  26.95500 -1.37300 34.54700
O  28.36700 0.07100 35.77900
C  28.32600 -0.84000 36.93400
H  20.90600 1.03000 32.44200
H  22.09000 0.78000 26.00300
H  28.48400 0.70800 27.40200
H  24.72800 0.36200 35.04300
H  22.30700 1.70200 34.45200
H  23.00600 -1.24600 34.76700
H  21.77800 -0.95600 33.59600
H  21.56800 -0.42800 35.28200
H  23.85000 3.01300 35.20000
H  25.40100 3.19700 34.55700
H  26.44600 2.30400 36.37600
H  25.20800 1.43000 36.97800
H  18.99200 0.97900 31.55200
H  18.50800 -0.27000 30.48300
H  18.25000 1.34000 29.99200
H  17.79600 -0.50700 28.19400
H  17.66800 0.00500 26.54000
H  17.76100 1.27800 27.87300
H  24.40800 1.90300 25.00300
H  26.51600 -0.03100 25.01900
H  23.84600 0.45900 23.56300
H  23.23200 -0.64000 24.84900
H  24.81600 -0.97400 24.14200
H  26.20700 2.24900 24.01500
H  27.86000 1.81800 24.57300
H  27.59300 4.05700 25.26800
H  26.87600 3.28900 26.70000
H  25.81500 4.00700 25.38700
H  30.33500 0.46500 28.50600
H  30.45600 -0.72400 29.81000
H  30.80000 1.07400 30.05400
H  27.53800 1.75400 34.29700
H  28.25300 -1.83800 36.50400
H  27.46200 -0.57600 37.54500
H  29.19100 -0.84400 37.59800
Mg -13.42200 17.08900 41.29500
C  -10.66800 14.84600 41.05600
C  -11.44600 19.55500 39.98800
C  -16.13500 18.81800 40.92900
C  -15.32800 14.34700 42.48400
N  -11.31500 17.15400 40.59900
C  -10.41200 16.13500 40.55400
C  -9.01000 16.65800 40.13500
C  -9.21900 18.18000 39.88000
C  -10.75600 18.33000 40.19700
C  -8.25700 19.10600 40.59200
C  -8.50300 15.91700 38.81100
C  -6.91600 15.67400 38.87900
H  -6.11400 16.45400 37.80000
N  -13.76400 18.95300 40.57800
C  -12.82500 19.84600 40.07000
C  -13.49000 21.13800 39.83400
C  -14.84800 20.86400 39.98500
C  -15.00100 19.49100 40.53300
C  -12.69800 22.40000 39.45500
C  -15.96200 21.89500 39.73400
O  -15.69300 22.99600 39.32300
C  -17.40700 21.57200 39.84100
N  -15.38500 16.61700 41.62200
C  -16.37100 17.54200 41.43200
C  -17.79200 17.10300 41.88600
C  -17.52600 15.67700 42.45200
C  -15.95800 15.53400 42.21900
C  -18.65300 18.10000 42.70000
C  -18.43400 14.51400 41.81400
C  -19.20700 13.71500 42.78800
N  -13.11200 14.97900 41.69900
C  -13.99800 14.00400 42.26900
C  -13.23400 12.75000 42.43000
C  -11.91400 13.01400 42.00600
C  -11.93500 14.34500 41.48900
C  -13.72500 11.50800 43.02900
C  -10.50800 12.51000 41.97200
O  -9.95400 11.46300 42.36900
C  -9.75400 13.59600 41.18700
C  -8.51700 13.96300 42.01300
O  -8.48100 14.69600 42.99100
O  -7.38700 13.30300 41.53500
C  -6.11200 13.64400 42.17300
H  -10.98900 20.46600 39.59700
H  -17.12000 19.28300 40.85400
H  -15.93500 13.67600 43.09600
H  -8.29800 16.49800 40.94400
H  -9.06100 18.53900 38.86300
H  -7.70700 19.76400 39.92000
H  -7.50700 18.48900 41.08800
H  -8.75500 19.71900 41.34300
H  -8.82900 16.46800 37.92800
H  -8.89300 14.90000 38.86000
H  -6.91200 14.61000 38.64100
H  -6.57800 15.74300 39.91300
H  -12.56100 22.42500 38.37400
H  -11.76400 22.30000 40.00800
H  -13.16000 23.31900 39.81700
H  -17.57300 20.68600 39.22900
H  -18.05400 22.36900 39.47400
H  -17.64600 21.27900 40.86300
H  -18.28800 16.98700 40.92300
H  -17.73000 15.76200 43.51900
H  -18.12300 19.05300 42.71500
H  -18.73200 17.74400 43.72700
H  -19.61000 18.16800 42.18300
H  -17.87300 13.92100 41.09100
H  -19.16300 15.04900 41.20500
H  -19.10500 12.63500 42.68200
H  -20.25400 13.94200 42.58700
H  -18.86600 13.92600 43.80100
H  -13.26500 10.64400 42.54900
H  -14.78700 11.30900 42.88400
H  -13.44400 11.26500 44.05300
H  -9.32300 13.26900 40.24100
H  -5.94400 13.09600 43.10000
H  -5.90900 14.70700 42.30100
H  -5.35200 13.26700 41.48800

