158

Mg 35.59800 1.89600 30.20800
C  33.21100 2.66400 32.66200
C  38.02400 1.66100 32.65400
C  37.91400 1.42200 27.82800
C  33.22700 2.39400 27.74900
N  35.64700 2.25000 32.41700
C  34.51500 2.45800 33.22200
C  34.93000 2.45900 34.69700
C  36.46800 2.38400 34.68000
C  36.75100 2.08700 33.16100
C  37.14600 3.79600 35.00000
C  34.26700 1.21700 35.44300
C  33.79300 1.49200 36.88300
H  34.50000 2.51800 37.77600
N  37.73200 1.52600 30.24100
C  38.47500 1.41000 31.34300
C  39.80900 1.03000 30.93200
C  39.86700 1.13200 29.51400
C  38.44600 1.36400 29.14100
C  40.85200 0.88000 31.97600
C  41.06400 1.00900 28.61300
O  40.94700 1.21900 27.40500
C  42.39300 0.70000 29.14700
N  35.50700 1.67800 28.17500
C  36.63500 1.52900 27.36500
C  36.33500 1.52500 25.91900
C  34.73600 1.65900 25.88300
C  34.48100 1.98200 27.28700
C  36.95200 2.64500 25.07900
C  33.99300 0.53000 25.12100
C  33.47400 -0.68900 25.97900
N  33.64800 2.32700 30.15600
C  32.80100 2.59800 29.01900
C  31.52200 2.89300 29.51500
C  31.61600 2.96500 30.89300
C  32.89100 2.59400 31.25600
C  30.33600 3.15900 28.59800
C  30.89200 3.33300 32.11100
O  29.75900 3.77600 32.34100
C  31.86200 2.94900 33.30600
C  32.00400 4.19300 34.20100
O  32.30500 5.31500 33.80000
O  31.69100 3.88500 35.52800
C  31.61000 5.09900 36.38000
H  38.72800 1.54000 33.48000
H  38.54700 0.99100 27.05000
H  32.55000 2.54100 26.90400
H  34.63200 3.41700 35.12200
H  36.83400 1.62300 35.36900
H  38.16800 3.61100 35.32900
H  36.57500 4.35600 35.74000
H  37.21100 4.49000 34.16200
H  34.89100 0.32800 35.34500
H  33.38800 0.90100 34.88100
H  33.74600 0.51600 37.36600
H  32.78200 1.87400 36.74500
H  41.74500 0.31700 31.70600
H  40.36800 0.22000 32.69500
H  41.13000 1.79300 32.50400
H  42.75900 1.52300 29.76100
H  43.08700 0.59300 28.31400
H  42.49200 -0.25700 29.66000
H  36.68200 0.56000 25.54900
H  34.37200 2.56100 25.39200
H  37.30300 3.44700 25.72900
H  36.19400 3.12800 24.46300
H  37.69800 2.17200 24.44100
H  34.73100 -0.02900 24.54700
H  33.14500 0.82300 24.50200
H  33.87200 -1.62900 25.59700
H  32.39800 -0.79100 25.83500
H  33.69700 -0.66600 27.04600
H  30.37700 2.50500 27.72800
H  30.59100 4.09900 28.10900
H  29.34700 3.06200 29.04400
H  31.48100 2.06200 33.81200
H  30.56000 5.38700 36.42500
H  32.21500 5.99200 36.22400
H  31.74200 4.67100 37.37400
Mg -5.50000 25.68100 26.03200
C  -4.26500 27.22900 29.05600
C  -7.35300 23.53600 28.10700
C  -6.38800 23.91100 23.40100
C  -3.23400 27.60700 24.21700
N  -5.82700 25.51100 28.31400
C  -5.23200 26.23000 29.27700
C  -5.80400 25.88600 30.67700
C  -6.46900 24.56400 30.36800
C  -6.52700 24.47800 28.80400
C  -5.54000 23.29200 30.83200
C  -6.67800 26.99100 31.35100
C  -6.79200 26.96700 32.86900
H  -6.07500 25.79900 33.63400
N  -6.74300 23.94300 25.74000
C  -7.42400 23.19800 26.75000
C  -8.33600 22.28100 26.05300
C  -8.06000 22.40900 24.65400
C  -7.02200 23.44500 24.56200
C  -9.29900 21.37800 26.78200
C  -8.70100 21.70500 23.48500
O  -8.37200 21.96300 22.31400
C  -9.63500 20.53100 23.74200
N  -4.81100 25.71500 24.10100
C  -5.38300 24.84700 23.14900
C  -4.55500 24.98700 21.90000
C  -3.65500 26.28600 21.98500
C  -3.91100 26.58800 23.53600
C  -3.76500 23.70900 21.59100
C  -4.16400 27.54400 21.10700
C  -3.28700 28.21900 20.04100
N  -4.02600 27.21300 26.53100
C  -3.23900 27.94500 25.67700
C  -2.54000 28.96400 26.45800
C  -2.88300 28.70700 27.78700
C  -3.77400 27.62400 27.82900
C  -1.58100 29.95500 25.95800
C  -2.64700 29.07500 29.14200
O  -1.86800 29.92600 29.57700
C  -3.62200 28.23000 30.04300
C  -2.79400 27.53300 31.06000
O  -1.99400 26.62300 30.79400
O  -3.08000 28.13500 32.31600
C  -2.23600 27.54900 33.36700
H  -7.94300 22.83900 28.70600
H  -6.66100 23.41900 22.46500
H  -2.54100 28.18600 23.60400
H  -4.89200 25.78800 31.26700
H  -7.49200 24.61500 30.74000
H  -4.46900 23.42800 30.98300
H  -5.68400 22.50600 30.09100
H  -5.91800 23.02100 31.81800
H  -7.71800 26.83300 31.06400
H  -6.35900 27.97000 30.99200
H  -7.83500 27.05100 33.17400
H  -6.32400 27.91700 33.12600
H  -10.28400 21.84400 26.80200
H  -8.86500 21.20200 27.76600
H  -9.34100 20.33600 26.46500
H  -9.11800 19.72800 24.26700
H  -10.14200 20.21400 22.83100
H  -10.46100 20.85000 24.37900
H  -5.26900 25.17400 21.09900
H  -2.59100 26.11700 21.82100
H  -4.00400 23.49500 20.54900
H  -4.13600 22.90400 22.22500
H  -2.68900 23.88400 21.57700
H  -4.40000 28.37900 21.76700
H  -5.10700 27.26100 20.63800
H  -3.89200 28.37400 19.14700
H  -2.48700 27.54000 19.74700
H  -2.82600 29.17700 20.28000
H  -0.97600 29.50100 25.17300
H  -1.03200 30.39900 26.78900
H  -2.26800 30.70300 25.56300
H  -4.44500 28.85700 30.38400
H  -2.79100 27.60800 34.30300
H  -1.33300 28.13900 33.52800
H  -1.97600 26.50800 33.17300

