158

Mg 9.36300 3.30000 27.70200
C  10.38000 1.67100 30.50100
C  7.73500 5.59600 29.78000
C  8.45100 5.01700 24.89400
C  10.71100 0.70600 25.67300
N  9.00200 3.54600 29.88000
C  9.74400 2.89200 30.75800
C  9.56700 3.48000 32.23500
C  8.43600 4.59400 31.95400
C  8.28600 4.54900 30.42000
C  7.14100 4.22700 32.72000
C  10.84500 4.04100 32.91800
C  10.68500 4.19200 34.44200
H  11.41500 3.19200 35.37500
N  8.19600 5.08200 27.37000
C  7.65900 5.92500 28.36400
C  6.95400 7.02000 27.67000
C  7.08900 6.89400 26.27300
C  7.98300 5.65400 26.12400
C  6.16500 8.08200 28.43100
C  6.55800 7.73100 25.14800
O  6.81700 7.54600 23.94500
C  5.75300 8.92000 25.44400
N  9.43200 2.79400 25.59100
C  9.13200 3.75700 24.69200
C  9.43500 3.24800 23.27000
C  10.27900 1.99600 23.51100
C  10.14100 1.77500 25.01300
C  8.25700 3.05600 22.27700
C  11.75500 2.20900 23.09300
C  11.97000 2.37300 21.61400
N  10.20800 1.37300 28.02600
C  10.86200 0.57700 27.10300
C  11.51500 -0.46900 27.90100
C  11.43900 -0.08300 29.23400
C  10.56500 1.05500 29.24100
C  12.22000 -1.65400 27.22800
C  11.88000 -0.36200 30.61600
O  12.53600 -1.31700 31.05200
C  11.26300 0.77400 31.45600
C  10.50300 0.14700 32.55600
O  9.50300 -0.50800 32.30700
O  11.06100 0.46300 33.78700
C  10.43000 -0.13400 34.99000
H  7.27700 6.37700 30.39200
H  8.22700 5.38000 23.88900
H  11.22800 -0.08500 25.12500
H  9.16700 2.63400 32.79300
H  8.83900 5.56700 32.23800
H  6.38400 3.83900 32.03800
H  6.75900 5.10300 33.24500
H  7.25000 3.50700 33.53100
H  11.03100 5.02200 32.48000
H  11.65100 3.38900 32.58100
H  9.62900 4.05700 34.67800
H  10.97100 5.20800 34.71400
H  6.68200 8.99600 28.72400
H  5.83700 7.58800 29.34600
H  5.30400 8.30100 27.79900
H  4.71300 8.61200 25.55400
H  5.62100 9.52800 24.54900
H  6.04600 9.61100 26.23500
H  10.08700 4.04000 22.89900
H  9.93600 1.06300 23.06600
H  7.32900 3.39800 22.73600
H  8.22100 2.01500 21.95500
H  8.61200 3.73100 21.49900
H  12.24400 1.28300 23.39500
H  12.11200 3.00700 23.74300
H  12.11100 3.39200 21.25200
H  11.04200 1.97300 21.20600
H  12.78900 1.79900 21.18100
H  11.52700 -2.43000 26.90500
H  12.83100 -2.17300 27.96700
H  12.74000 -1.42600 26.29800
H  12.10500 1.41300 31.72100
H  9.39500 -0.35700 34.73400
H  10.46800 0.43500 35.91900
H  10.92700 -1.06800 35.25100
Mg 30.34700 59.69200 40.05500
C  27.61000 57.88500 38.65500
C  32.36100 56.88200 39.34100
C  33.10400 61.57400 40.63600
C  28.30300 62.48200 40.14300
N  29.99200 57.77300 38.91100
C  28.81500 57.25800 38.51500
C  29.03200 55.89400 37.90100
C  30.33700 55.46700 38.64000
C  30.96500 56.78900 38.96100
C  30.21900 54.62100 39.94300
C  29.15300 55.93900 36.36400
C  28.14100 55.03600 35.57400
H  27.28200 55.91900 34.69100
N  32.43300 59.29100 40.00700
C  33.05300 58.08400 39.78000
C  34.46300 58.31400 39.95300
C  34.65300 59.60900 40.33400
C  33.37700 60.19100 40.37900
C  35.35800 57.11400 39.93600
C  35.96500 60.12100 40.76500
O  37.01000 59.47300 40.56400
C  36.18900 61.36200 41.49800
N  30.67000 61.74900 40.12100
C  31.89500 62.29600 40.48000
C  31.76100 63.80800 40.68700
C  30.24500 64.07200 40.44800
C  29.69700 62.65200 40.27800
C  32.32800 64.44100 42.04500
C  30.00000 65.00400 39.25100
C  29.51300 66.43100 39.51200
N  28.28800 60.05900 39.67700
C  27.62300 61.23400 39.87800
C  26.14700 61.02000 39.52600
C  26.10100 59.68600 39.07100
C  27.44200 59.20500 39.12900
C  25.01400 61.95700 39.65000
C  25.19800 58.67500 38.65500
O  23.98600 58.65000 38.52300
C  26.09700 57.43800 38.37400
C  25.67800 56.27800 39.24300
O  26.34600 55.97500 40.17700
O  24.49800 55.70100 38.78200
C  23.82500 54.80900 39.68000
H  32.91500 55.94900 39.21400
H  33.91500 62.20200 41.01200
H  27.69000 63.38300 40.07300
H  28.21300 55.27200 38.26500
H  30.94000 54.86900 37.95700
H  30.25700 53.54600 39.76900
H  29.23700 54.79900 40.38200
H  30.94100 54.88800 40.71500
H  30.10300 55.61500 35.93800
H  28.83200 56.95000 36.11400
H  27.64700 54.33100 36.24300
H  28.68100 54.31000 34.96600
H  35.01100 56.27400 39.33500
H  35.30600 56.80500 40.98000
H  36.40600 57.26400 39.67700
H  37.19400 61.44000 41.91200
H  35.54400 61.33800 42.37600
H  36.01300 62.25600 40.90000
H  32.41700 64.21900 39.91900
H  29.73800 64.40200 41.35400
H  31.49100 64.75500 42.66900
H  32.91200 65.32800 41.79800
H  32.94400 63.77500 42.64900
H  29.15600 64.51300 38.76600
H  30.85100 65.04500 38.57200
H  28.57400 66.78300 39.08300
H  30.31800 67.08800 39.18400
H  29.34300 66.36500 40.58700
H  24.79600 62.31300 38.64300
H  25.26400 62.85800 40.21000
H  24.17400 61.44700 40.12300
H  25.84700 57.13400 37.35800
H  23.40000 54.14500 38.92600
H  23.09200 55.36300 40.26600
H  24.51300 54.28500 40.34300

