158

Mg 8.59800 3.82700 26.80500
C  9.58400 2.41300 29.67600
C  6.18300 5.63600 28.67100
C  7.40000 5.47800 23.98200
C  10.19500 1.52000 24.88200
N  8.01500 4.05700 28.86400
C  8.60800 3.32600 29.81100
C  7.96200 3.72800 31.18700
C  6.55100 4.19600 30.73000
C  6.90500 4.58200 29.35500
C  5.36400 3.16200 30.87700
C  8.79800 4.87800 31.96600
C  8.87900 4.75200 33.51400
H  10.21700 4.66200 34.28200
N  7.17900 5.40700 26.39200
C  6.32800 6.05000 27.27300
C  5.51700 7.03800 26.64300
C  5.96600 7.10200 25.29400
C  6.95600 5.99300 25.17700
C  4.49700 7.91300 27.38500
C  5.57300 8.08800 24.19700
O  5.79700 7.94100 23.01500
C  4.84300 9.29000 24.57700
N  8.82900 3.53600 24.66500
C  8.27100 4.30000 23.73900
C  8.36600 3.49800 22.36700
C  9.34300 2.35700 22.74600
C  9.45100 2.43000 24.18300
C  6.98300 3.00400 21.87400
C  10.68400 2.35900 21.95500
C  10.92600 1.09700 21.18100
N  9.77700 2.34800 27.14500
C  10.43100 1.50000 26.32300
C  11.16900 0.58800 27.03900
C  10.93500 0.91000 28.42400
C  10.05600 1.99700 28.43400
C  12.00200 -0.45700 26.39300
C  11.18300 0.51700 29.84200
O  11.81600 -0.41500 30.34100
C  10.32000 1.52200 30.71800
C  9.50300 0.86300 31.73400
O  8.56800 0.11800 31.44200
O  9.79600 1.29900 32.97000
C  9.25200 0.53000 34.08500
H  5.50600 6.20600 29.31100
H  6.89300 5.64700 23.02900
H  10.59200 0.70200 24.27700
H  7.89400 2.87500 31.86200
H  6.30800 5.06500 31.34200
H  5.61600 2.20400 31.33200
H  4.88700 3.18300 29.89700
H  4.71300 3.65000 31.60200
H  8.34800 5.86000 31.82500
H  9.81200 4.98300 31.57800
H  8.45700 3.75400 33.63500
H  8.15700 5.40800 34.00100
H  4.40200 7.53600 28.40300
H  3.52500 7.80200 26.90300
H  4.82400 8.94800 27.48200
H  4.92800 10.12100 23.87700
H  5.48900 9.45100 25.44000
H  3.82300 9.06300 24.88400
H  8.80900 4.21000 21.67000
H  8.77700 1.46800 22.46900
H  6.16700 3.10600 22.58800
H  7.01700 1.98900 21.48000
H  6.59300 3.58100 21.03500
H  11.55500 2.47200 22.60000
H  10.65100 3.08400 21.14200
H  10.55900 1.12600 20.15500
H  10.47200 0.20600 21.61500
H  12.01200 1.03200 21.11100
H  12.28500 -1.24500 27.09100
H  12.95300 -0.10700 25.99200
H  11.46800 -0.94400 25.57700
H  11.08300 2.09400 31.24700
H  10.06400 -0.01500 34.56700
H  8.50400 -0.20400 33.78700
H  8.93800 1.23700 34.85300
Mg 25.78600 0.90000 29.58300
C  27.83700 0.83200 32.39200
C  23.12700 1.45500 31.53000
C  23.96200 1.21900 26.79900
C  28.57000 0.22600 27.49700
N  25.51600 1.00000 31.69600
C  26.48500 1.05500 32.70200
C  25.85700 1.23500 34.10200
C  24.32100 1.28700 33.75600
C  24.27700 1.16100 32.25000
C  23.30700 0.41600 34.53500
C  26.53500 2.47000 34.85400
C  25.66200 2.95500 36.08000
H  26.45300 3.16300 37.34400
N  23.79400 1.27300 29.16400
C  22.83600 1.48900 30.11100
C  21.62300 1.88500 29.49200
C  21.76300 1.65700 28.08600
C  23.22300 1.38400 27.94000
C  20.26600 2.07700 30.28500
C  20.75900 1.81900 26.97000
O  20.98300 1.68500 25.79000
C  19.33000 2.28800 27.26600
N  26.19400 0.76600 27.43500
C  25.30200 0.94600 26.47500
C  25.79200 0.86600 25.10200
C  27.26200 0.45700 25.27000
C  27.38100 0.55200 26.83700
C  24.95900 0.04100 24.06800
C  28.18400 1.46000 24.53700
C  29.50800 0.78100 23.96400
N  27.83400 0.43200 29.87300
C  28.79500 0.06500 28.91900
C  30.06000 -0.14000 29.65600
C  29.69800 0.22300 31.04800
C  28.35000 0.51300 31.08200
C  31.36600 -0.40200 29.00200
C  30.21300 0.46500 32.34700
O  31.36800 0.35000 32.69500
C  29.03800 0.87700 33.28700
C  28.91800 0.01200 34.39500
O  28.24700 -1.00900 34.40600
O  29.53700 0.59300 35.47800
C  29.39300 -0.13900 36.69200
H  22.23400 1.72800 32.09600
H  23.24900 1.15000 25.97500
H  29.40300 0.05500 26.81200
H  26.16400 0.37300 34.69500
H  24.05700 2.30500 34.04100
H  22.91500 -0.35600 33.87200
H  22.47600 0.99700 34.93600
H  23.79500 -0.04000 35.39600
H  26.57600 3.24600 34.08900
H  27.50900 2.18000 35.24900
H  24.89600 2.19000 36.20600
H  25.32600 3.95200 35.79500
H  19.75300 3.03700 30.22800
H  20.32100 2.04500 31.37300
H  19.60900 1.29500 29.90600
H  18.62100 1.97000 26.50100
H  19.34100 3.37700 27.24400
H  18.95100 1.81200 28.17100
H  25.63200 1.86100 24.68600
H  27.48200 -0.51600 24.83100
H  24.30500 -0.62500 24.63000
H  25.60500 -0.52700 23.39900
H  24.36300 0.69100 23.42800
H  28.28900 2.29700 25.22700
H  27.70600 1.83100 23.63000
H  30.41200 1.13100 24.46300
H  29.62900 1.01100 22.90600
H  29.48600 -0.30100 24.10000
H  31.69400 0.47700 28.44800
H  31.26900 -1.23700 28.30700
H  32.10800 -0.50800 29.79300
H  29.17200 1.94400 33.46300
H  30.26100 0.18400 37.26700
H  29.58000 -1.20800 36.59000
H  28.49600 0.21900 37.19800

