158

Mg 7.91600 3.23600 27.25900
C  8.94900 1.50500 30.10800
C  5.74900 4.93900 29.18100
C  6.61000 4.50500 24.37100
C  10.01400 1.12500 25.37700
N  7.31600 3.07900 29.47800
C  7.89900 2.37800 30.45200
C  7.52400 2.97300 31.85800
C  6.37700 3.92000 31.50000
C  6.45800 4.00400 29.96900
C  4.92100 3.57600 31.98700
C  8.70000 3.69500 32.62300
C  8.36700 4.12900 34.03800
H  9.40100 4.02100 35.15700
N  6.48100 4.67400 26.88300
C  5.70400 5.27700 27.85200
C  4.92800 6.23900 27.15900
C  5.09200 6.09400 25.73900
C  6.04400 4.99700 25.55900
C  4.02700 7.24700 27.89800
C  4.47300 6.84700 24.57300
O  4.63200 6.59700 23.38400
C  3.73500 8.09200 24.91100
N  8.29400 2.87300 25.20500
C  7.68000 3.58000 24.23900
C  8.22700 3.18700 22.86000
C  9.42700 2.30400 23.18500
C  9.31600 2.08600 24.66400
C  7.13800 2.58200 22.01200
C  10.85400 2.94000 22.86900
C  11.35600 2.34600 21.54800
N  9.17300 1.52200 27.59800
C  10.01500 0.85600 26.73000
C  10.84400 -0.04400 27.53300
C  10.55800 0.21500 28.88200
C  9.45000 1.14000 28.84500
C  11.73200 -1.17000 27.04400
C  10.82900 -0.11700 30.24600
O  11.65500 -0.88100 30.69800
C  9.83400 0.79200 31.07500
C  9.12500 -0.02600 32.03200
O  8.28300 -0.88000 31.80700
O  9.64000 0.30300 33.27100
C  9.28000 -0.57900 34.42800
H  5.10200 5.52300 29.83900
H  6.17400 4.76800 23.40500
H  10.53800 0.51800 24.63600
H  7.08500 2.15700 32.43200
H  6.59300 4.85400 32.01800
H  4.14900 3.78500 31.24600
H  4.71800 4.26700 32.80600
H  4.82200 2.57300 32.40200
H  9.05100 4.57400 32.08200
H  9.58100 3.05400 32.59600
H  7.54700 3.50200 34.38800
H  8.13900 5.19500 34.01000
H  2.99000 6.91200 27.89400
H  4.07600 8.26500 27.51000
H  4.33800 7.30000 28.94100
H  2.85300 7.85800 25.50800
H  3.45000 8.62100 24.00200
H  4.48500 8.72900 25.38000
H  8.58600 4.13900 22.47000
H  9.41700 1.28100 22.80900
H  6.12700 2.67500 22.41000
H  7.33300 1.52800 21.81300
H  7.03400 3.04100 21.02900
H  11.56300 2.61900 23.63100
H  10.83500 4.02900 22.82200
H  12.03600 1.53400 21.80600
H  11.86100 3.05600 20.89200
H  10.52600 2.04500 20.90900
H  11.12400 -1.67100 26.29100
H  11.97500 -1.88500 27.83000
H  12.68900 -0.86200 26.62200
H  10.57500 1.42000 31.56900
H  8.54400 -0.08300 35.06100
H  10.20700 -0.72700 34.98200
H  8.95300 -1.59300 34.19900
Mg 47.15900 16.89900 28.34600
C  45.03700 16.52300 31.12400
C  49.23400 18.64300 30.19800
C  48.64200 17.63000 25.46600
C  44.50700 15.34200 26.36700
N  46.98200 17.66600 30.40600
C  46.14500 17.24300 31.38300
C  46.75700 17.65100 32.83100
C  47.86800 18.61500 32.39000
C  48.09100 18.30600 30.90700
C  47.52300 20.10000 32.69100
C  47.17100 16.40700 33.68000
C  46.68000 16.41000 35.18500
H  46.36800 17.75300 35.78100
N  48.85600 17.89200 27.95000
C  49.64500 18.48300 28.83400
C  50.84300 18.89900 28.18200
C  50.68500 18.57700 26.80600
C  49.35600 18.06600 26.67200
C  51.89500 19.39100 29.02100
C  51.61900 18.76200 25.63300
O  51.29600 18.64400 24.46400
C  52.88900 19.46100 25.92400
N  46.68000 16.52300 26.22700
C  47.51000 16.97600 25.21200
C  46.95300 16.58800 23.80000
C  45.72800 15.73500 24.14800
C  45.63000 15.82200 25.67500
C  46.88400 17.85600 22.81900
C  45.71600 14.26400 23.53700
C  44.79000 14.09400 22.29600
N  45.07600 16.11900 28.61100
C  44.24600 15.51200 27.71900
C  43.01900 15.08800 28.44500
C  43.27500 15.45000 29.83300
C  44.57800 16.04800 29.81400
C  41.75200 14.55400 27.85500
C  42.87700 15.40100 31.24500
O  41.90600 14.91700 31.74400
C  43.93100 16.11900 32.09600
C  43.21900 17.21800 32.84300
O  43.04200 18.35300 32.40800
O  42.68700 16.78900 34.03900
C  41.87100 17.75900 34.75900
H  49.90700 19.18700 30.86400
H  49.17200 17.80900 24.52800
H  43.79800 14.76600 25.76700
H  45.92400 18.25400 33.19200
H  48.75500 18.32900 32.95500
H  48.39300 20.64300 33.05900
H  46.82200 20.19100 33.52000
H  47.18700 20.53800 31.75000
H  48.24200 16.21000 33.64700
H  46.64700 15.57400 33.21300
H  47.42000 15.82300 35.73000
H  45.75000 15.84100 35.19800
H  52.86200 19.40500 28.51900
H  52.10100 18.77600 29.89600
H  51.55500 20.39900 29.26000
H  52.71900 20.33200 26.55600
H  53.15300 19.87700 24.95200
H  53.53700 18.76100 26.45200
H  47.71700 15.88500 23.46800
H  44.81900 16.22800 23.80300
H  45.95000 17.76100 22.26600
H  47.67100 17.92800 22.06900
H  46.92900 18.78400 23.39000
H  45.44300 13.53200 24.29800
H  46.71800 14.07300 23.15500
H  45.33500 13.50800 21.55600
H  44.53000 15.05000 21.84200
H  43.93100 13.45700 22.50700
H  40.96700 14.95300 28.49900
H  41.70900 13.46500 27.85800
H  41.76000 15.02300 26.87100
H  44.31300 15.40800 32.82800
H  41.01200 18.13500 34.20400
H  42.49400 18.57600 35.12300
H  41.37000 17.38800 35.65300

