158

Mg 48.12700 24.34100 28.30400
C  49.15000 26.48700 30.95600
C  47.53000 21.90600 30.80700
C  47.39700 22.14000 25.91200
C  49.50700 26.49900 26.08700
N  48.26900 24.22500 30.62900
C  48.68500 25.25200 31.49200
C  48.48200 24.89100 32.97600
C  48.00900 23.37300 32.90800
C  47.96900 23.13500 31.36900
C  48.90900 22.37500 33.68500
C  47.66500 25.91600 33.79900
C  48.19300 26.41800 35.14600
H  47.10500 26.65800 36.28200
N  47.51600 22.32300 28.36800
C  47.31300 21.53000 29.47600
C  46.63300 20.32300 28.98200
C  46.60800 20.37900 27.54600
C  47.20500 21.65800 27.23500
C  46.43700 19.20200 29.97900
C  46.14900 19.37700 26.54400
O  46.30900 19.52600 25.35500
C  45.61200 18.05500 27.01600
N  48.64300 24.20400 26.31900
C  48.05800 23.30900 25.49300
C  48.24300 23.72900 24.00700
C  48.70000 25.23000 24.15900
C  49.00200 25.30600 25.62500
C  49.15600 22.82000 23.17100
C  47.71400 26.29000 23.69900
C  46.38200 26.35200 24.43600
N  49.00300 26.20700 28.38500
C  49.55600 26.93700 27.37700
C  50.01000 28.18000 27.91400
C  49.81300 28.06800 29.35600
C  49.27300 26.77900 29.53100
C  50.72500 29.20900 27.22000
C  50.03100 28.72200 30.63000
O  50.43000 29.88100 30.90700
C  49.64700 27.72800 31.73200
C  50.83500 27.40800 32.44600
O  51.79200 26.74300 32.07900
O  50.65400 27.90500 33.73900
C  51.67200 27.46700 34.67800
H  47.44900 21.18000 31.61900
H  47.14300 21.54200 25.03500
H  49.92700 27.21500 25.37800
H  49.45800 24.91100 33.46200
H  46.99400 23.25200 33.28800
H  49.09800 21.60200 32.94000
H  48.33900 22.02100 34.54300
H  49.85600 22.74000 34.08300
H  46.69700 25.44500 33.96800
H  47.45400 26.79400 33.18800
H  48.59600 27.42700 35.05800
H  48.93900 25.72200 35.53000
H  46.91500 18.37100 29.46000
H  45.38600 19.10100 30.25100
H  46.91400 19.39400 30.94000
H  45.22300 17.48100 26.17500
H  44.76100 18.19100 27.68300
H  46.42900 17.48900 27.46300
H  47.22600 23.87900 23.64400
H  49.60300 25.49100 23.60500
H  50.10500 23.32600 22.99100
H  48.69000 22.65700 22.19900
H  49.46300 21.86700 23.60100
H  47.54200 26.19700 22.62700
H  48.15000 27.26900 23.89700
H  45.96600 25.41000 24.07800
H  45.85900 27.14000 23.89400
H  46.36000 26.43500 25.52300
H  50.68700 30.11800 27.82100
H  50.25600 29.46200 26.26900
H  51.74400 28.84400 27.09400
H  48.81200 28.23900 32.21000
H  51.49900 26.40100 34.83100
H  51.41800 27.91100 35.64100
H  52.65900 27.88800 34.49000
Mg -6.25800 25.66800 26.08000
C  -5.08400 27.15000 29.04000
C  -8.22800 23.61900 28.08900
C  -6.89000 23.90400 23.43400
C  -3.91900 27.55000 24.37600
N  -6.54000 25.46100 28.36200
C  -5.96300 26.11500 29.36800
C  -6.53800 25.66400 30.62500
C  -7.33000 24.40600 30.28100
C  -7.42900 24.53500 28.79700
C  -6.63200 23.06900 30.72900
C  -7.45000 26.77400 31.31000
C  -7.40300 26.82500 32.90700
H  -6.64300 25.69700 33.73100
N  -7.45900 24.03600 25.72900
C  -8.27600 23.44600 26.64200
C  -9.05200 22.39900 26.01800
C  -8.62300 22.31400 24.66800
C  -7.59700 23.36500 24.54100
C  -10.10000 21.54600 26.70300
C  -9.18700 21.47400 23.62600
O  -8.75800 21.57200 22.46500
C  -10.25600 20.42100 23.88700
N  -5.39000 25.64900 24.18000
C  -6.00500 24.92100 23.24100
C  -5.42600 25.22300 21.84900
C  -4.56300 26.52900 22.05200
C  -4.68400 26.64700 23.60000
C  -4.70800 23.99000 21.15900
C  -5.08600 27.69800 21.24100
C  -6.41700 28.33800 21.63700
N  -4.79400 27.12000 26.48400
C  -3.83300 27.72900 25.74100
C  -3.15700 28.73900 26.48500
C  -3.59000 28.54200 27.78200
C  -4.51400 27.47900 27.74800
C  -2.21300 29.66300 25.94200
C  -3.45300 29.00500 29.14900
O  -2.90200 30.01600 29.65200
C  -4.31700 28.03600 30.01300
C  -3.44800 27.40200 30.99900
O  -2.89700 26.30900 30.92600
O  -3.31900 28.28700 32.06100
C  -2.65600 27.69400 33.27200
H  -8.83500 22.98400 28.73800
H  -6.91700 23.24000 22.56700
H  -3.19600 28.15700 23.82800
H  -5.67700 25.43000 31.25200
H  -8.34700 24.48400 30.66600
H  -6.41200 22.51400 29.81700
H  -7.24100 22.42700 31.36600
H  -5.70800 23.23700 31.28300
H  -8.50700 26.67200 31.06500
H  -7.09800 27.74600 30.96300
H  -8.44800 26.82100 33.22000
H  -6.98600 27.78500 33.21300
H  -9.65100 20.55300 26.74000
H  -11.01600 21.45400 26.12000
H  -10.22600 21.69500 27.77500
H  -9.88900 19.82600 24.72400
H  -10.39400 19.83700 22.97700
H  -11.21100 20.85000 24.19200
H  -6.34200 25.27100 21.26000
H  -3.53100 26.22100 21.87900
H  -5.27100 23.55200 20.33500
H  -4.50100 23.18800 21.86800
H  -3.73600 24.29500 20.77300
H  -5.19900 27.29000 20.23700
H  -4.30000 28.44700 21.33500
H  -7.04800 27.52100 21.98600
H  -6.97800 28.76300 20.80500
H  -6.34800 29.17400 22.33300
H  -2.36000 30.58800 26.49800
H  -2.37800 29.74500 24.86700
H  -1.17400 29.43000 26.17700
H  -4.97400 28.68400 30.59300
H  -3.44900 27.63200 34.01700
H  -1.84600 28.29800 33.68200
H  -2.35500 26.64800 33.22100

