158

Mg 0.94400 8.29100 25.92700
C  1.88500 10.41300 28.66900
C  1.16300 5.66000 28.03100
C  0.57600 6.29700 23.21600
C  1.22000 11.10400 23.90100
N  1.55800 8.07400 28.23400
C  1.81500 9.06600 29.11100
C  2.10800 8.42300 30.47700
C  2.06700 6.80400 30.12400
C  1.50400 6.83600 28.70500
C  3.32500 5.93300 30.28400
C  1.17700 8.99600 31.57300
C  1.38800 8.48700 33.09100
H  2.61000 7.59400 33.25100
N  0.68400 6.26100 25.62500
C  0.74200 5.39300 26.68900
C  0.36100 4.04000 26.24800
C  0.26600 4.15700 24.80500
C  0.58700 5.56500 24.45600
C  0.23600 2.91700 27.27500
C  0.12700 3.04100 23.72400
O  0.14200 3.39300 22.51700
C  0.02600 1.65300 24.10100
N  1.11000 8.60000 23.83700
C  0.82500 7.62700 22.91200
C  0.75400 8.29200 21.54000
C  0.47300 9.76600 21.83900
C  0.91800 9.85900 23.25400
C  2.09400 7.95600 20.77500
C  -0.97800 10.48500 21.74800
C  -0.88500 11.79300 20.92800
N  1.47200 10.33900 26.11800
C  1.47400 11.34100 25.21100
C  1.79900 12.63000 25.81500
C  1.93200 12.28600 27.17800
C  1.74300 10.89700 27.33000
C  2.01500 13.99000 25.17300
C  2.13800 12.85200 28.46500
O  2.43900 14.01500 28.70800
C  2.09700 11.67900 29.48800
C  3.41500 11.57600 30.25800
O  4.54200 11.37300 29.82100
O  3.05700 11.89800 31.59900
C  4.19000 11.73000 32.57600
H  1.17500 4.76700 28.66000
H  0.18000 5.69100 22.39800
H  1.09100 11.95400 23.22700
H  3.12600 8.66400 30.78000
H  1.28200 6.31400 30.70000
H  4.06600 6.62500 30.68200
H  3.59200 5.56100 29.29400
H  3.04200 5.14200 30.97900
H  0.12800 8.94200 31.28500
H  1.46900 10.04600 31.60000
H  0.46300 8.10900 33.52600
H  1.66000 9.32300 33.73500
H  0.00300 2.01600 26.70800
H  -0.45400 3.19200 28.07400
H  1.25300 2.86300 27.66400
H  0.00300 1.09600 23.16400
H  -0.83600 1.35300 24.69600
H  0.84600 1.30200 24.72700
H  -0.03200 7.75100 21.01300
H  1.15800 10.34900 21.22400
H  2.80000 8.76800 20.60100
H  1.77200 7.71200 19.76300
H  2.66600 7.10500 21.14300
H  -1.25300 10.66600 22.78700
H  -1.61200 9.72800 21.28500
H  0.11300 12.18800 20.73900
H  -1.48900 12.58000 21.38100
H  -1.31000 11.52200 19.96100
H  2.96500 14.46900 25.40800
H  1.30200 14.62000 25.70500
H  1.77100 14.00600 24.11000
H  1.33200 11.89000 30.23600
H  5.21200 11.72700 32.19800
H  4.07400 10.82100 33.16700
H  4.02900 12.39500 33.42400
Mg 40.93300 8.66700 28.79700
C  42.62800 10.13500 31.45600
C  38.79200 7.24500 31.15500
C  39.23200 6.96000 26.18900
C  43.38200 9.67000 26.67000
N  40.82600 8.66000 31.02100
C  41.47200 9.43500 31.85600
C  40.98600 9.45800 33.29000
C  39.73700 8.55100 33.18300
C  39.75400 8.08700 31.71000
C  39.77600 7.30200 34.17700
C  40.84500 10.92900 33.94600
C  39.81700 11.04800 35.05700
H  40.38900 11.14200 36.50100
N  39.21400 7.34800 28.66900
C  38.45900 6.89000 29.77900
C  37.36500 6.19000 29.31200
C  37.45100 6.14700 27.91600
C  38.67700 6.82200 27.50900
C  36.32300 5.57700 30.20000
C  36.48300 5.45200 26.92800
O  36.71800 5.48000 25.72500
C  35.22400 4.66400 27.39800
N  41.33500 8.13300 26.70400
C  40.48000 7.57100 25.83100
C  40.81400 7.96600 24.42600
C  42.08300 8.90200 24.60600
C  42.28000 8.92500 26.10800
C  40.93400 6.76700 23.48300
C  41.97700 10.28600 23.90700
C  41.45900 11.57500 24.62800
N  42.66700 9.68800 28.94800
C  43.60200 9.98400 28.00800
C  44.75500 10.66600 28.62700
C  44.31000 10.89100 29.92100
C  43.12900 10.17500 30.15000
C  45.91100 11.18300 27.87800
C  44.65800 11.53600 31.19500
O  45.60000 12.16300 31.57800
C  43.61600 11.03300 32.26600
C  44.20500 10.24800 33.35100
O  44.53600 9.06400 33.30100
O  44.40500 10.99200 34.47300
C  44.90600 10.39400 35.67200
H  38.05700 6.95400 31.90800
H  38.71100 6.50000 25.34700
H  44.07600 10.22300 26.03300
H  41.77900 8.95100 33.83900
H  38.82500 9.14600 33.23000
H  40.64700 7.43400 34.82000
H  39.87600 6.40900 33.55900
H  38.92300 7.31100 34.85600
H  40.58400 11.71300 33.23500
H  41.81600 11.29000 34.28500
H  39.35600 10.06000 35.09000
H  39.22800 11.90400 34.72700
H  36.57600 5.68500 31.25400
H  36.38600 4.49900 30.05000
H  35.34900 6.01800 29.98700
H  35.57200 3.77700 27.92700
H  34.62800 4.37600 26.53200
H  34.62100 5.38800 27.94600
H  40.09400 8.63500 23.95700
H  42.87900 8.24700 24.25400
H  41.28600 5.86600 23.98400
H  41.73600 7.18500 22.87500
H  39.97300 6.69900 22.97200
H  41.29500 10.08400 23.08100
H  42.93100 10.59200 23.47800
H  41.19600 11.50600 25.68300
H  40.55100 11.95400 24.15800
H  42.16900 12.38200 24.44700
H  46.86600 11.02000 28.37800
H  45.83000 12.23800 27.61800
H  46.02800 10.59100 26.97100
H  43.03900 11.86500 32.66900
H  45.34700 9.41200 35.50500
H  44.05300 10.30200 36.34400
H  45.58300 11.05800 36.21000

