158

Mg 47.01400 16.57500 28.21100
C  44.95900 16.07500 31.16900
C  49.10400 18.41900 30.12000
C  48.54600 17.56000 25.46100
C  44.45700 15.19700 26.32100
N  46.89700 17.23800 30.43200
C  46.06300 16.85800 31.42000
C  46.67500 17.18000 32.78800
C  47.83900 18.17800 32.39100
C  47.95000 18.02600 30.86900
C  47.54700 19.67000 32.81300
C  47.12200 15.98400 33.61900
C  47.54800 16.21200 35.09500
H  46.89700 17.37600 35.80700
N  48.79100 17.63500 27.86500
C  49.55100 18.26200 28.82000
C  50.73800 18.71900 28.20400
C  50.52100 18.66200 26.78500
C  49.24200 17.93700 26.62500
C  51.93600 19.04300 29.07100
C  51.29300 19.14900 25.64400
O  50.94800 18.99400 24.46000
C  52.49500 19.86400 25.89300
N  46.59800 16.30000 26.23700
C  47.41100 16.81300 25.31300
C  46.78100 16.70400 23.88900
C  45.56800 15.63500 24.13300
C  45.46900 15.71900 25.64200
C  46.31600 17.94800 23.18900
C  45.91500 14.25400 23.66100
C  45.31800 13.97300 22.26800
N  45.12900 15.75500 28.60800
C  44.21400 15.21300 27.70900
C  43.09000 14.64900 28.42800
C  43.38300 14.90500 29.80300
C  44.59500 15.65300 29.83900
C  41.88200 14.04100 27.75800
C  42.82500 14.83900 31.15200
O  41.79000 14.25300 31.48200
C  43.87600 15.57100 32.14500
C  43.10800 16.70400 32.83800
O  42.47500 17.55400 32.26200
O  43.33100 16.66900 34.19700
C  42.65200 17.66300 34.98100
H  49.78300 18.93500 30.80200
H  48.82600 18.09300 24.55000
H  43.71900 14.76800 25.63900
H  45.89300 17.70000 33.34200
H  48.81600 17.94100 32.81200
H  46.76100 19.73100 33.56600
H  47.27700 20.26000 31.93800
H  48.41500 20.13400 33.28100
H  47.83100 15.47100 32.96800
H  46.27800 15.29300 33.62500
H  48.63500 16.26500 35.03600
H  47.44800 15.38500 35.79800
H  51.97100 18.51300 30.02200
H  52.04600 20.11300 29.25000
H  52.82100 18.63700 28.58200
H  53.37100 19.29200 26.19900
H  52.21300 20.49800 26.73300
H  52.86100 20.43700 25.04100
H  47.56600 16.27600 23.26400
H  44.60400 16.00400 23.78400
H  45.33900 17.71300 22.76700
H  47.05500 18.14000 22.41100
H  46.37200 18.79500 23.87300
H  45.60500 13.46300 24.34400
H  47.00300 14.23400 23.60600
H  46.01000 14.10500 21.43700
H  44.58700 14.74600 22.03100
H  44.83100 13.00100 22.18000
H  41.70400 14.66800 26.88500
H  40.94000 14.20800 28.28100
H  42.05100 12.99900 27.48300
H  44.28200 14.87100 32.87500
H  43.10900 17.49700 35.95700
H  41.63600 17.27700 35.06700
H  42.65300 18.67100 34.56500
Mg 42.38900 41.48500 26.92700
C  41.64400 43.93100 29.38300
C  43.38100 39.40100 29.42600
C  43.12700 39.23500 24.58300
C  41.73500 43.88400 24.44300
N  42.36400 41.72600 29.12300
C  41.94500 42.73200 29.95600
C  41.92700 42.32600 31.38000
C  42.70100 40.96600 31.36000
C  42.92000 40.69200 29.84300
C  44.02300 40.94900 32.24900
C  40.55200 42.19000 31.88200
C  40.36500 41.67000 33.33300
H  39.74600 42.60200 34.31200
N  43.27500 39.58200 26.96400
C  43.60400 38.88600 28.09400
C  44.17800 37.65800 27.68100
C  44.01400 37.48400 26.26100
C  43.41500 38.80200 25.88800
C  44.77100 36.61000 28.64000
C  44.39500 36.28300 25.44600
O  44.23100 36.24700 24.24300
C  44.93700 34.99200 26.17500
N  42.30300 41.53900 24.84700
C  42.67000 40.51200 24.11400
C  42.61800 40.79800 22.58500
C  41.87800 42.20000 22.55700
C  42.00900 42.64200 24.02700
C  44.00900 40.91900 21.78400
C  40.44600 42.10300 21.95000
C  39.36500 41.73700 22.95800
N  41.76600 43.45800 26.86500
C  41.58900 44.34300 25.79500
C  41.33800 45.70000 26.35700
C  41.27800 45.45700 27.64200
C  41.56700 44.19000 27.98300
C  41.15700 46.95500 25.55400
C  40.99200 46.24800 28.85100
O  40.62900 47.42200 28.91000
C  41.04900 45.20800 30.03700
C  41.90100 45.79200 31.08900
O  43.14000 46.01900 31.00800
O  41.18400 45.90800 32.26900
C  41.99700 46.31600 33.42700
H  43.52200 38.77500 30.30900
H  43.16500 38.50800 23.77000
H  41.53700 44.58300 23.62800
H  42.49600 42.99800 32.02200
H  42.06800 40.20000 31.80600
H  43.77400 40.72800 33.28700
H  44.45400 41.94800 32.31600
H  44.87200 40.29600 32.04700
H  40.12400 41.51700 31.13900
H  40.13500 43.19400 31.80500
H  41.24600 41.16500 33.72900
H  39.64100 40.87300 33.16500
H  45.76800 36.24400 28.39300
H  44.00800 35.83200 28.67900
H  44.74200 36.99500 29.65900
H  45.94200 35.15200 26.56700
H  44.88900 34.19200 25.43600
H  44.29300 34.68100 26.99800
H  41.96400 40.07800 22.09400
H  42.50600 42.89600 21.99900
H  44.42800 41.85300 22.16000
H  43.89300 40.82000 20.70500
H  44.66600 40.11500 22.11500
H  40.48100 41.34900 21.16300
H  40.32000 43.10400 21.53600
H  39.84900 41.53700 23.91400
H  38.82300 40.85700 22.61200
H  38.72600 42.62000 22.96600
H  41.52600 46.87100 24.53200
H  41.82000 47.65600 26.06000
H  40.14600 47.35400 25.64300
H  40.03000 45.06000 30.39400
H  42.37200 47.30700 33.17400
H  42.80400 45.65200 33.74000
H  41.24300 46.64900 34.13900

