158

Mg 1.87500 -2.18100 44.36300
C  5.26900 -0.96800 44.04100
C  0.98100 0.42400 42.46400
C  -1.03100 -3.65100 44.20300
C  3.25800 -5.15700 45.81200
N  3.01900 -0.55900 43.14100
C  4.38600 -0.28400 43.22700
C  4.65400 0.99200 42.48700
C  3.22500 1.63200 42.41400
C  2.35000 0.45000 42.80300
C  3.08300 2.94300 43.35100
C  5.45200 0.75600 41.17700
C  6.86000 1.37800 41.26800
H  7.93100 1.22300 40.20100
N  0.17600 -1.68400 43.42400
C  -0.07100 -0.50200 42.71400
C  -1.48900 -0.26100 42.48000
C  -2.08400 -1.50100 43.02600
C  -0.96500 -2.33600 43.57500
C  -2.06000 0.91200 41.75200
C  -3.55500 -1.79000 42.87500
O  -4.29600 -0.95600 42.36900
C  -4.16900 -3.05800 43.44800
N  1.21100 -4.13200 44.97700
C  -0.04500 -4.46700 44.69300
C  -0.41700 -5.89200 45.24000
C  0.99500 -6.36300 45.78600
C  1.90600 -5.19300 45.44700
C  -1.46300 -5.99300 46.37500
C  1.50700 -7.75800 45.30800
C  2.10600 -8.68500 46.42400
N  3.79500 -2.92000 44.92300
C  4.18400 -4.09600 45.55700
C  5.60300 -4.03300 45.91600
C  5.97200 -2.75200 45.43100
C  4.89100 -2.19800 44.72200
C  6.37100 -5.03900 46.65000
C  7.18000 -1.87200 45.26000
O  8.31700 -2.00200 45.62100
C  6.71300 -0.68600 44.33400
C  6.96600 0.49800 45.18100
O  6.31800 0.71500 46.18500
O  8.02200 1.31200 44.72600
C  8.13600 2.60200 45.49100
H  0.63500 1.36400 42.03000
H  -2.02900 -4.08200 44.31300
H  3.56400 -6.07500 46.31700
H  5.22800 1.58000 43.20400
H  3.11800 2.05500 41.41500
H  2.24400 3.04500 44.04000
H  3.00600 3.68500 42.55700
H  3.99900 3.16900 43.89800
H  4.96600 1.27400 40.35000
H  5.57500 -0.30500 40.95700
H  7.26900 1.21500 42.26500
H  6.58700 2.43300 41.25700
H  -3.00600 1.20900 42.20600
H  -2.19500 0.76400 40.68000
H  -1.49600 1.83400 41.89100
H  -4.04900 -3.98200 42.88300
H  -5.22700 -2.81600 43.35400
H  -3.87600 -3.04700 44.49800
H  -0.69100 -6.43800 44.33800
H  0.91000 -6.30700 46.87100
H  -1.51500 -4.98400 46.78300
H  -1.14900 -6.66500 47.17400
H  -2.40300 -6.27300 45.89800
H  2.33200 -7.52100 44.63700
H  0.82900 -8.36800 44.71100
H  1.72200 -9.68500 46.22200
H  1.84300 -8.31100 47.41300
H  3.18700 -8.58600 46.32400
H  6.08700 -5.05700 47.70200
H  7.43800 -4.86100 46.51600
H  6.23000 -5.99500 46.14500
H  7.39300 -0.73000 43.48300
H  7.27200 3.21500 45.23600
H  8.93100 3.21000 45.05900
H  8.17200 2.43500 46.56700
Mg 54.36900 24.02300 44.74500
C  51.80500 26.13800 43.77100
C  52.49200 21.37000 43.88700
C  57.12200 22.18200 45.03000
C  56.28300 26.89800 45.46900
N  52.48900 23.83600 43.61800
C  51.58500 24.82600 43.29600
C  50.29000 24.18400 42.66600
C  50.37200 22.71800 43.26500
C  51.85800 22.59900 43.54800
C  49.50400 22.51200 44.62900
C  50.39900 24.14600 41.13500
C  51.76200 24.35700 40.41600
H  52.97700 23.39000 40.57800
N  54.76900 22.07700 44.30800
C  53.83500 21.05400 44.14500
C  54.49600 19.78000 44.18600
C  55.81800 19.98500 44.52900
C  55.96800 21.49100 44.63600
C  53.70500 18.49700 43.85500
C  56.83500 18.79500 44.74400
O  56.54000 17.62800 44.71200
C  58.20500 19.06200 45.11600
N  56.44100 24.49300 44.91900
C  57.34800 23.54200 45.27300
C  58.68100 24.04100 45.81300
C  58.38400 25.49400 46.06900
C  56.97800 25.68700 45.36600
C  59.37000 23.26500 46.97500
C  59.43800 26.51600 45.60000
C  60.04400 27.47000 46.68400
N  54.10100 26.14200 44.90200
C  54.93300 27.20000 45.16200
C  54.14500 28.42200 45.20100
C  52.91300 28.02000 44.65300
C  52.94200 26.67900 44.46200
C  54.59400 29.71100 45.85500
C  51.57200 28.50100 44.40100
O  51.05900 29.59200 44.52800
C  50.85500 27.34000 43.54300
C  50.80800 27.88700 42.21600
O  51.77100 27.94500 41.47000
O  49.47200 27.93700 41.84300
C  49.15400 27.94800 40.43100
H  51.92300 20.45300 43.72100
H  58.09200 21.68100 45.03800
H  56.62000 27.82900 45.93000
H  49.38900 24.75700 42.88300
H  50.18300 21.91300 42.55400
H  49.00200 21.55100 44.51500
H  48.79800 23.34100 44.67400
H  50.09600 22.38100 45.53500
H  49.67500 24.85800 40.73800
H  50.01800 23.22200 40.70000
H  52.17200 25.25100 40.88700
H  51.61900 24.68200 39.38500
H  53.53600 18.21400 42.81600
H  52.68200 18.35300 44.20300
H  54.16100 17.70900 44.45500
H  58.66900 18.08300 45.23200
H  58.24900 19.67300 46.01800
H  58.66400 19.53400 44.24700
H  59.41100 24.01000 45.00400
H  58.15700 25.56400 47.13300
H  59.39000 23.81900 47.91300
H  60.42100 23.11100 46.73000
H  58.97700 22.25900 47.12200
H  58.90100 27.06400 44.82600
H  60.24500 26.08000 45.01200
H  61.11700 27.55400 46.50800
H  59.89600 27.09900 47.69800
H  59.66600 28.49100 46.73900
H  55.54000 30.06100 45.44100
H  54.78400 29.52400 46.91200
H  53.80500 30.46200 45.82000
H  49.92900 27.21500 44.10300
H  48.58200 28.86300 40.27900
H  48.58500 27.03800 40.24000
H  49.99900 27.79700 39.75900

