158

Mg 17.61600 -0.90300 27.60300
C  16.35900 0.98500 30.20400
C  19.49500 -2.67600 29.94400
C  18.87900 -2.52000 24.97000
C  15.95000 1.25400 25.34500
N  17.97600 -0.72600 29.81800
C  17.24000 0.01400 30.70800
C  17.62400 -0.21400 32.18000
C  18.88700 -1.19000 31.98800
C  18.79400 -1.56000 30.52700
C  20.27700 -0.60800 32.42100
C  16.46300 -0.76800 33.07600
C  16.48500 -0.52400 34.62500
H  17.74700 0.16200 35.19900
N  18.98400 -2.37400 27.43300
C  19.54400 -3.09600 28.51900
C  20.31500 -4.25400 27.98600
C  20.03300 -4.34400 26.65500
C  19.23200 -3.09100 26.29300
C  21.09800 -5.22100 28.95700
C  20.30700 -5.39900 25.58800
O  19.74800 -5.42800 24.50000
C  21.35000 -6.50600 25.80300
N  17.68400 -0.45300 25.44900
C  18.19300 -1.41900 24.58300
C  17.79600 -1.10600 23.16600
C  16.93300 0.14300 23.27600
C  16.77400 0.31000 24.80200
C  18.94500 -1.03100 22.13400
C  15.61900 -0.04400 22.58600
C  14.53700 -0.94200 23.25000
N  16.33600 0.79000 27.66400
C  15.71300 1.53300 26.67000
C  14.82300 2.54300 27.28100
C  15.04600 2.32500 28.65700
C  15.95400 1.24000 28.83100
C  13.94700 3.60300 26.69100
C  14.70300 2.74700 29.97400
O  13.96600 3.66400 30.26100
C  15.53600 1.95700 31.03400
C  16.37000 2.91900 31.76300
O  17.46200 3.30600 31.41800
O  15.63900 3.34900 32.82400
C  16.37500 4.44300 33.51600
H  19.98500 -3.38600 30.61400
H  19.35600 -3.14500 24.21300
H  15.36600 1.74000 24.56100
H  17.85000 0.73000 32.67700
H  18.76200 -2.09200 32.58700
H  20.16800 0.45000 32.65900
H  20.93700 -0.54000 31.55700
H  20.70900 -1.10500 33.29000
H  16.34500 -1.83600 32.89600
H  15.53700 -0.28700 32.76100
H  16.35700 -1.51200 35.06700
H  15.63800 0.12000 34.86000
H  20.82300 -6.26300 28.79400
H  20.93400 -5.05700 30.02200
H  22.13600 -5.09600 28.64900
H  21.82500 -6.52500 26.78400
H  22.20300 -6.40300 25.13200
H  20.77100 -7.40900 25.60800
H  17.11100 -1.88900 22.84000
H  17.47200 0.98400 22.83900
H  19.88700 -1.30400 22.61100
H  19.01900 -0.09200 21.58700
H  18.72800 -1.74800 21.34300
H  15.72500 -0.34600 21.54400
H  15.16800 0.94800 22.59400
H  13.68900 -0.26800 23.36800
H  14.75100 -1.40500 24.21400
H  14.29500 -1.73900 22.54700
H  14.44200 3.81900 25.74500
H  14.10300 4.41000 27.40800
H  12.88100 3.40200 26.58700
H  14.83600 1.55700 31.76900
H  17.33200 4.16000 33.95600
H  15.80900 4.85300 34.35200
H  16.69000 5.27400 32.88500
Mg 54.65200 23.84000 44.73300
C  52.18200 26.09900 43.51300
C  53.13100 21.31300 43.01400
C  57.58900 21.98400 44.94700
C  56.48500 26.55500 45.92700
N  52.85700 23.78800 43.46600
C  51.95700 24.79500 43.10800
C  50.91900 24.22100 42.18900
C  51.04900 22.64900 42.26700
C  52.37400 22.54100 43.04100
C  49.92200 22.12200 43.13300
C  51.29400 24.74500 40.68800
C  50.12800 25.16200 39.77500
H  50.63200 25.55700 38.34000
N  55.20300 21.86900 44.23500
C  54.44000 20.95500 43.50400
C  55.08700 19.68800 43.57300
C  56.37000 19.91300 44.13100
C  56.38100 21.32400 44.51800
C  54.52000 18.52600 42.88900
C  57.42300 18.87000 44.32200
O  57.27800 17.70800 43.96300
C  58.64200 19.10700 45.18500
N  56.82200 24.27700 45.29800
C  57.78600 23.33900 45.25400
C  59.07800 23.90900 45.81800
C  58.74500 25.38000 45.96200
C  57.25000 25.43400 45.75600
C  59.39100 23.27300 47.17700
C  59.64400 26.31400 44.93200
C  59.94200 27.60400 45.67600
N  54.43900 25.88700 44.79300
C  55.19700 26.85700 45.45600
C  54.36700 28.03700 45.67700
C  53.27800 27.80400 44.79900
C  53.29300 26.49800 44.35000
C  54.61000 29.25900 46.39400
C  52.08600 28.45900 44.25100
O  51.61300 29.57300 44.27800
C  51.35700 27.34200 43.45800
C  51.16700 27.94200 42.06800
O  52.02400 28.47600 41.39900
O  49.87700 27.74500 41.72800
C  49.41300 28.48100 40.58500
H  52.54600 20.55500 42.49000
H  58.52600 21.43300 45.05400
H  56.94200 27.42500 46.40300
H  49.90200 24.51500 42.44600
H  51.16700 22.13700 41.31200
H  48.96100 22.58600 42.91000
H  50.24200 22.38000 44.14300
H  49.80600 21.04700 42.99500
H  51.81400 23.94500 40.16000
H  52.05100 25.52000 40.80200
H  49.61600 26.00500 40.24000
H  49.44600 24.31200 39.74300
H  55.01400 18.41400 41.92400
H  53.45700 18.72400 42.75200
H  54.74300 17.65800 43.51000
H  58.32600 19.65500 46.07300
H  59.43400 19.54900 44.58000
H  59.05000 18.11300 45.36600
H  59.96000 23.87400 45.17800
H  58.86300 25.61800 47.01900
H  60.40500 23.60200 47.40600
H  59.36100 22.18400 47.17600
H  58.70600 23.68300 47.91900
H  59.08000 26.63300 44.05500
H  60.53600 25.83900 44.52300
H  59.26600 28.42600 45.43800
H  60.95200 27.96500 45.47900
H  59.89600 27.50000 46.76000
H  53.86800 29.37600 47.18500
H  54.55800 30.17300 45.80200
H  55.60800 29.14900 46.82000
H  50.35800 27.09100 43.81400
H  49.30700 29.54700 40.78400
H  48.41100 28.11700 40.35700
H  50.01900 28.24900 39.70900

