158

Mg 1.28100 7.81300 25.79400
C  1.87000 9.82700 28.67300
C  1.63700 5.02700 27.78200
C  0.51300 5.96000 23.11100
C  1.15200 10.72400 23.96000
N  1.76700 7.60700 27.92900
C  1.87200 8.52600 28.98800
C  2.00200 7.84000 30.35900
C  2.18700 6.31700 29.98300
C  1.89300 6.26100 28.42500
C  3.52700 5.71900 30.35800
C  0.72700 8.24100 31.25500
C  0.99600 8.63000 32.70200
H  2.07500 7.75100 33.45100
N  1.10500 5.77100 25.43800
C  1.21400 4.75000 26.38500
C  0.71100 3.47100 25.86600
C  0.46000 3.74700 24.46000
C  0.61500 5.21900 24.28400
C  0.55300 2.23500 26.75800
C  0.07900 2.74800 23.40000
O  -0.07000 3.10500 22.22600
C  -0.23000 1.33900 23.70500
N  1.01600 8.21700 23.74700
C  0.63000 7.36700 22.82200
C  0.47700 8.07000 21.48300
C  0.70700 9.59700 21.78200
C  0.94200 9.56200 23.28600
C  1.40400 7.34600 20.40800
C  -0.52600 10.53100 21.37400
C  -0.10900 11.81500 20.70300
N  1.48200 9.89200 26.19000
C  1.27700 10.96900 25.33800
C  1.51500 12.21800 26.01900
C  1.75900 11.81000 27.40800
C  1.64700 10.40400 27.42700
C  1.36400 13.65100 25.50400
C  2.09800 12.26500 28.67800
O  2.40400 13.35700 29.03200
C  2.09100 10.96600 29.60900
C  3.30900 10.88800 30.31900
O  4.41100 10.65700 29.78900
O  3.06500 11.15300 31.66300
C  4.25100 11.30500 32.54700
H  1.90900 4.11300 28.31300
H  0.16100 5.43900 22.21800
H  1.04200 11.61600 23.33900
H  2.87100 8.37200 30.74800
H  1.38800 5.79300 30.50700
H  3.38500 4.97100 31.13800
H  4.05200 6.55800 30.81600
H  4.14300 5.43200 29.50700
H  -0.06100 7.48900 31.29200
H  0.28500 9.16200 30.87200
H  0.02100 8.38000 33.12100
H  1.03100 9.71400 32.81600
H  -0.32400 1.77500 26.30100
H  0.33800 2.56200 27.77500
H  1.34200 1.48200 26.77000
H  0.55100 0.94300 24.35400
H  -0.38500 0.68600 22.84600
H  -1.14200 1.33200 24.30100
H  -0.56300 7.96500 21.17500
H  1.62700 10.00200 21.36100
H  2.24800 6.80400 20.83500
H  1.80400 8.03100 19.65900
H  0.70500 6.62100 19.99300
H  -1.04600 10.78600 22.29700
H  -1.17900 10.02400 20.66200
H  0.91000 12.08100 20.42000
H  -0.59900 12.58900 21.29400
H  -0.68800 11.78400 19.78000
H  1.40700 14.41900 26.27700
H  0.58200 13.88800 24.78300
H  2.22800 13.84100 24.86800
H  1.25100 11.03100 30.30000
H  4.78800 12.23500 32.35900
H  5.01800 10.54900 32.37700
H  4.02200 11.07900 33.58800
Mg -0.80900 44.32100 24.81100
C  1.14500 43.87100 27.56700
C  -3.33200 42.68000 26.42100
C  -2.60200 44.47300 21.96900
C  1.92700 45.53200 23.10500
N  -1.06200 43.52600 26.82400
C  -0.16900 43.51600 27.83400
C  -0.69600 43.04600 29.19800
C  -2.07400 42.46500 28.74500
C  -2.20000 42.92400 27.21600
C  -2.18200 40.95300 28.86800
C  -0.80000 44.23300 30.29900
C  -1.10500 43.84400 31.81000
H  -0.84700 42.37400 32.40500
N  -2.75600 43.70000 24.27200
C  -3.67100 43.05500 25.08400
C  -4.98600 42.91000 24.44600
C  -4.78200 43.48500 23.10700
C  -3.34200 43.93800 23.06900
C  -6.21600 42.55900 25.12400
C  -5.74300 43.48200 21.94400
O  -5.48000 44.04300 20.88200
C  -7.04600 42.86600 22.07900
N  -0.39800 44.89800 22.79700
C  -1.28600 44.86800 21.82400
C  -0.61400 45.26400 20.44100
C  0.67000 45.94500 20.88400
C  0.71400 45.50900 22.39500
C  -0.45100 44.15700 19.35100
C  0.72300 47.44100 20.57300
C  0.32800 48.47300 21.64300
N  1.18800 44.56800 25.17100
C  2.19500 45.04900 24.38100
C  3.43100 45.08700 25.10900
C  3.04600 44.61400 26.39200
C  1.70900 44.27600 26.34800
C  4.71500 45.76900 24.65600
C  3.56800 44.37600 27.76700
O  4.70300 44.38000 28.22400
C  2.25500 43.98000 28.58700
C  2.41900 42.61100 29.13400
O  2.31600 41.55200 28.58900
O  2.67200 42.82600 30.48400
C  2.92200 41.53800 31.12600
H  -4.15100 42.26600 27.01200
H  -3.10900 44.78200 21.05300
H  2.75000 45.99800 22.56000
H  -0.06000 42.23600 29.55500
H  -2.86800 42.96300 29.30000
H  -2.05700 40.41400 27.92900
H  -3.05400 40.68100 29.46300
H  -1.37400 40.52900 29.46400
H  -1.64300 44.79600 29.89900
H  0.11000 44.83200 30.27900
H  -2.11000 44.08600 32.15600
H  -0.31400 44.28800 32.41400
H  -6.88500 41.92700 24.54000
H  -6.67300 43.52600 25.33800
H  -6.01700 42.10300 26.09300
H  -7.67200 43.50200 22.70500
H  -6.87000 41.84300 22.41300
H  -7.43800 42.66200 21.08300
H  -1.22400 46.02300 19.95000
H  1.46500 45.48600 20.29600
H  -0.78100 43.19300 19.73900
H  0.57600 44.04100 19.00500
H  -1.16800 44.49800 18.60400
H  0.05300 47.78800 19.78500
H  1.69200 47.65100 20.12100
H  1.27300 48.87200 22.01200
H  -0.15600 47.93900 22.46100
H  -0.29700 49.33200 21.39700
H  5.52700 45.04300 24.64300
H  5.00200 46.58500 25.32000
H  4.51100 46.08400 23.63200
H  2.13200 44.65900 29.43100
H  3.96600 41.23800 31.03600
H  2.26000 40.69800 30.91700
H  2.76100 41.72900 32.18700

