158

Mg 8.30400 3.20900 27.39500
C  9.47200 1.71700 30.32100
C  6.44400 5.35500 29.27000
C  6.85600 4.42200 24.59500
C  9.75700 0.74400 25.48100
N  7.91800 3.36800 29.63700
C  8.62100 2.80800 30.61200
C  8.48800 3.62900 31.96900
C  7.40500 4.72500 31.57100
C  7.28700 4.45900 30.05700
C  6.07800 4.73100 32.45800
C  9.76400 4.27800 32.46500
C  9.55300 4.85100 33.89600
H  10.48800 4.49700 35.09900
N  6.87200 4.74300 27.01200
C  6.25400 5.54800 27.87500
C  5.41900 6.53200 27.23100
C  5.47700 6.22000 25.82500
C  6.47500 5.08700 25.77400
C  4.57600 7.58900 27.94700
C  4.90700 6.84500 24.57600
O  5.21300 6.52700 23.41900
C  4.04800 8.12200 24.78000
N  8.36700 2.70800 25.30200
C  7.69400 3.36600 24.31700
C  8.20700 2.87100 22.94100
C  9.01600 1.60800 23.30300
C  9.08600 1.73400 24.79500
C  7.04200 2.56000 21.88200
C  10.33400 1.66500 22.41100
C  10.17100 1.19000 20.94600
N  9.36300 1.53200 27.75400
C  9.87800 0.55800 26.88200
C  10.66400 -0.37600 27.62200
C  10.61300 0.12700 28.97700
C  9.71300 1.18000 28.98500
C  11.49900 -1.56600 27.14700
C  11.13200 0.01900 30.31800
O  12.07400 -0.67100 30.73800
C  10.48100 1.05100 31.22700
C  9.92100 0.52100 32.51200
O  8.78200 0.18600 32.66100
O  10.79900 0.72100 33.58400
C  10.32400 0.48300 34.93800
H  6.05300 6.16600 29.88800
H  6.66200 4.98700 23.68200
H  10.21900 0.04200 24.78400
H  8.07000 3.10700 32.83000
H  7.97500 5.64600 31.69400
H  5.20000 4.73000 31.81100
H  6.32200 5.68700 32.91900
H  6.07500 4.00500 33.27100
H  10.09300 5.06900 31.79200
H  10.50900 3.48400 32.52800
H  8.52300 4.68400 34.20900
H  9.68500 5.92800 33.79400
H  4.98500 8.53300 27.58800
H  4.73700 7.76300 29.01100
H  3.51100 7.67300 27.73200
H  4.56500 8.94500 25.27300
H  3.21200 7.79700 25.40000
H  3.72100 8.58300 23.84700
H  8.89600 3.56700 22.46400
H  8.50600 0.67100 23.08100
H  6.93900 1.51200 21.60300
H  7.01300 3.09500 20.93200
H  6.13900 2.80200 22.44200
H  11.16600 1.12800 22.86700
H  10.71700 2.68300 22.35400
H  9.29200 1.69400 20.54400
H  10.02600 0.11100 20.99300
H  11.14100 1.35400 20.47600
H  11.60200 -1.61800 26.06300
H  11.11500 -2.52100 27.50500
H  12.50500 -1.38900 27.52600
H  11.34000 1.69100 31.43100
H  9.56100 1.25200 35.05800
H  11.15200 0.83400 35.55500
H  10.07400 -0.50900 35.31300
Mg 35.19400 2.68500 29.70400
C  33.17400 3.85300 32.17500
C  37.83000 2.51900 31.96900
C  37.22200 1.84400 27.25800
C  32.55100 2.86500 27.50600
N  35.44200 3.14600 31.83200
C  34.42600 3.61300 32.58600
C  34.89200 3.71200 34.10900
C  36.47600 3.40900 33.97200
C  36.58200 2.89200 32.54900
C  37.38800 4.68100 34.07500
C  34.18400 2.80000 35.21300
C  34.11300 3.36700 36.64700
H  34.85900 4.72700 36.99100
N  37.32700 2.24800 29.54000
C  38.18600 2.20500 30.60100
C  39.49800 1.72500 30.12300
C  39.38500 1.59600 28.68000
C  37.93700 1.91600 28.45600
C  40.74200 1.48400 30.97700
C  40.43000 1.11000 27.62000
O  40.15100 1.06600 26.41700
C  41.80800 0.79500 28.12100
N  35.00400 2.61900 27.59700
C  35.90000 2.08900 26.88600
C  35.47100 1.95400 25.36800
C  33.93100 1.88300 25.55200
C  33.82900 2.50400 26.97700
C  36.06900 3.09600 24.51000
C  33.37500 0.37700 25.58500
C  32.10800 0.13500 24.81600
N  33.28500 3.33600 29.68900
C  32.32300 3.42700 28.77300
C  31.08400 3.92400 29.31300
C  31.35200 4.16000 30.65300
C  32.74800 3.79000 30.84400
C  29.84000 4.06600 28.53700
C  30.76900 4.72400 31.91200
O  29.68700 5.26100 32.25200
C  31.96200 4.38300 32.91700
C  32.21300 5.68500 33.55500
O  32.89800 6.57700 33.07200
O  31.55900 5.86200 34.79200
C  31.37600 7.19500 35.23900
H  38.66600 2.57100 32.67100
H  37.77800 1.53100 26.37200
H  31.70400 2.73300 26.83000
H  34.62600 4.75300 34.28800
H  36.83300 2.58500 34.58900
H  36.76300 5.51600 33.75600
H  38.18500 4.72000 33.33300
H  37.84900 4.77100 35.05900
H  34.65100 1.81800 35.28500
H  33.16100 2.57200 34.91300
H  34.43600 2.55200 37.29500
H  33.03500 3.44000 36.78900
H  40.46700 1.54900 32.03000
H  41.61200 2.05400 30.65400
H  40.95300 0.42000 30.86800
H  41.88400 0.15800 29.00200
H  42.33500 1.72100 28.34900
H  42.44900 0.32400 27.37600
H  35.84300 0.98900 25.02300
H  33.30300 2.50300 24.91200
H  35.22800 3.73100 24.23300
H  36.71700 2.76700 23.69700
H  36.68700 3.66200 25.20600
H  33.22100 0.20100 26.64900
H  34.05100 -0.40100 25.23300
H  31.28600 0.32200 25.50700
H  32.11900 -0.88200 24.42600
H  32.08000 0.89500 24.03500
H  29.51000 3.08800 28.18700
H  30.10300 4.72400 27.70900
H  29.03900 4.50400 29.13100
H  31.56400 3.69200 33.66000
H  32.02400 7.39200 36.09300
H  30.32100 7.09200 35.49600
H  31.55700 7.96100 34.48600

