158

Mg -1.63600 17.13700 25.80800
C  -1.97900 14.81600 28.49100
C  -2.26900 19.60600 28.06500
C  -1.66100 19.48900 23.31200
C  -1.43200 14.67000 23.56200
N  -2.29200 17.15400 28.07100
C  -2.24500 16.11500 28.91300
C  -2.72500 16.53800 30.33300
C  -2.84700 18.13000 30.23300
C  -2.45400 18.36600 28.71600
C  -4.16500 18.72500 30.71700
C  -2.02800 15.97500 31.57500
C  -2.12600 16.70500 32.90000
H  -2.03200 15.99900 34.24100
N  -1.78000 19.18300 25.71800
C  -1.93000 20.02800 26.80900
C  -1.86700 21.41600 26.44400
C  -1.66500 21.38600 25.02100
C  -1.74300 19.94600 24.62500
C  -2.14200 22.60100 27.35200
C  -1.61800 22.59700 24.04100
O  -1.56600 22.61300 22.83700
C  -1.59000 23.94500 24.68700
N  -1.62800 17.03700 23.71300
C  -1.52100 18.13400 22.90600
C  -1.42800 17.68700 21.48100
C  -1.02600 16.12800 21.64400
C  -1.34700 15.95900 23.05000
C  -2.75300 17.96800 20.75500
C  0.44200 15.73300 21.21200
C  1.63200 16.36000 22.01000
N  -1.64200 15.19400 25.95500
C  -1.52700 14.21400 24.90400
C  -1.65800 12.89500 25.57400
C  -1.76200 13.09100 26.93500
C  -1.77000 14.49400 27.14200
C  -1.80800 11.59900 24.82900
C  -1.82600 12.38700 28.15600
O  -1.74100 11.19800 28.41900
C  -1.92100 13.50300 29.27500
C  -0.92000 13.39100 30.37700
O  0.25700 13.71000 30.36100
O  -1.54200 12.76100 31.44100
C  -0.75700 12.28400 32.52900
H  -2.22400 20.34400 28.86900
H  -1.50700 20.22600 22.52200
H  -1.35100 13.87000 22.82300
H  -3.75200 16.17500 30.35900
H  -2.06800 18.60100 30.83300
H  -4.65300 19.17100 29.85000
H  -3.92000 19.47200 31.47200
H  -4.75800 17.94600 31.19500
H  -0.98800 15.77900 31.31300
H  -2.55200 15.03500 31.74900
H  -2.91900 17.44800 32.98300
H  -1.24200 17.34100 32.85700
H  -2.98200 23.15400 26.93100
H  -1.23700 23.20500 27.41900
H  -2.49300 22.36300 28.35600
H  -2.54100 24.29800 25.08700
H  -1.37400 24.61700 23.85600
H  -0.89900 24.01500 25.52700
H  -0.55300 18.21300 21.09800
H  -1.69700 15.46900 21.09400
H  -3.30400 17.03300 20.64900
H  -2.57700 18.48800 19.81300
H  -3.36900 18.62600 21.36700
H  0.60000 15.96300 20.15800
H  0.62800 14.66300 21.29900
H  2.37900 15.65300 22.37000
H  1.21300 16.85800 22.88500
H  2.19000 17.09300 21.42700
H  -1.93400 11.92300 23.79600
H  -2.65400 11.02200 25.20200
H  -0.83200 11.12500 24.93100
H  -2.86900 13.53000 29.81100
H  -0.55800 13.14800 33.16200
H  0.16800 11.85600 32.14200
H  -1.28500 11.52100 33.10100
Mg -5.31600 25.07300 25.66900
C  -4.09000 26.84100 28.55800
C  -6.87000 22.93100 28.00700
C  -6.22700 23.19000 23.07700
C  -3.26000 27.03600 23.73000
N  -5.55500 24.97300 28.05600
C  -4.88500 25.72300 28.94900
C  -5.27800 25.31600 30.39400
C  -5.95900 23.87600 30.16600
C  -6.10300 23.88500 28.68600
C  -5.24400 22.60000 30.68100
C  -6.25000 26.37000 30.99200
C  -6.73100 26.16100 32.37700
H  -6.23200 24.96700 33.20500
N  -6.41000 23.28700 25.54400
C  -7.14200 22.70600 26.55300
C  -8.04400 21.69500 25.96600
C  -7.78700 21.69400 24.55600
C  -6.80200 22.73800 24.31600
C  -9.10500 20.91100 26.80700
C  -8.40700 20.85400 23.47600
O  -7.98400 20.94000 22.33500
C  -9.48200 19.76900 23.86700
N  -4.79200 25.07000 23.74000
C  -5.29300 24.19900 22.79700
C  -4.85300 24.53000 21.34500
C  -4.05300 25.90900 21.66200
C  -3.98900 26.02800 23.11200
C  -4.04700 23.36600 20.64200
C  -4.74200 27.20400 21.19800
C  -3.79400 28.16300 20.47200
N  -3.88500 26.67200 25.98900
C  -3.16000 27.38300 25.09400
C  -2.54700 28.49600 25.72900
C  -2.77700 28.24000 27.13100
C  -3.62200 27.11000 27.28600
C  -1.84400 29.63300 24.99300
C  -2.50100 28.68400 28.43700
O  -1.81900 29.59000 28.95400
C  -3.33800 27.80900 29.44000
C  -2.36900 27.13700 30.43400
O  -1.43800 26.44600 30.03500
O  -2.79200 27.20700 31.71100
C  -1.94700 26.61000 32.78700
H  -7.36100 22.18000 28.63000
H  -6.56700 22.63400 22.20000
H  -2.67200 27.77100 23.17700
H  -4.34300 25.17000 30.93500
H  -6.89800 23.94100 30.71500
H  -4.52900 22.16200 29.98400
H  -5.93000 21.82800 31.03200
H  -4.69800 22.77200 31.60900
H  -7.14500 26.30600 30.37300
H  -5.81300 27.36400 30.88900
H  -7.81800 26.08300 32.34400
H  -6.47800 27.07100 32.92100
H  -9.35700 21.51100 27.68100
H  -8.67800 19.98700 27.19700
H  -10.10200 20.76900 26.38900
H  -9.04000 19.32500 24.75900
H  -9.58700 18.99800 23.10300
H  -10.42400 20.27300 24.08000
H  -5.67300 24.77500 20.67000
H  -3.01500 25.87100 21.32900
H  -2.97000 23.52000 20.58100
H  -4.36800 23.19900 19.61400
H  -4.22100 22.44200 21.19300
H  -5.21200 27.70500 22.04400
H  -5.54100 26.97200 20.49400
H  -4.28200 28.53300 19.57100
H  -2.89700 27.61800 20.18000
H  -3.45300 29.02000 21.05300
H  -1.83300 30.58700 25.52000
H  -2.30400 29.81900 24.02300
H  -0.78000 29.53400 24.77700
H  -4.03700 28.48700 29.92800
H  -2.06100 25.53200 32.67400
H  -2.24200 26.96900 33.77300
H  -0.92000 26.91300 32.58000

