158

Mg 16.59000 -2.53900 28.18500
C  16.04800 -0.39700 30.78600
C  18.52400 -4.54000 30.26800
C  17.55000 -4.45700 25.44000
C  15.13500 -0.23000 25.98900
N  17.31300 -2.36100 30.30400
C  16.74000 -1.54500 31.22800
C  17.21700 -1.98200 32.67400
C  17.91900 -3.36000 32.45300
C  17.92400 -3.44700 30.92900
C  19.41000 -3.41400 32.91700
C  15.99300 -2.14800 33.65600
C  15.91200 -1.29300 34.93200
H  17.31900 -0.84500 35.51000
N  17.81200 -4.38200 27.94400
C  18.45200 -4.95900 28.94300
C  19.30400 -5.99500 28.38600
C  18.88500 -6.21800 27.01500
C  18.04700 -5.00600 26.74500
C  20.21900 -6.87100 29.12800
C  19.19400 -7.35400 26.02500
O  18.78300 -7.38900 24.89400
C  20.06300 -8.43200 26.37100
N  16.53700 -2.33300 25.95200
C  16.91800 -3.28300 25.06500
C  16.93000 -2.72200 23.64900
C  15.72200 -1.63800 23.84000
C  15.80500 -1.32600 25.33600
C  18.26200 -2.26500 23.05800
C  14.31800 -2.19700 23.52900
C  13.89600 -2.41800 22.03900
N  15.68700 -0.75500 28.28900
C  15.11800 0.07100 27.36300
C  14.56300 1.26300 27.95700
C  14.90000 1.16800 29.34500
C  15.53100 -0.06800 29.48200
C  13.66300 2.18500 27.25800
C  14.78500 1.76100 30.64000
O  14.35000 2.85600 30.97900
C  15.44200 0.69500 31.66600
C  16.34200 1.66100 32.44200
O  17.48800 1.93500 32.13500
O  15.68700 2.11700 33.55300
C  16.42000 3.12400 34.34700
H  19.00800 -5.25600 30.93500
H  17.75600 -5.07000 24.55900
H  14.60000 0.42600 25.30000
H  17.96800 -1.25100 32.97300
H  17.36800 -4.21600 32.84400
H  19.64600 -2.72400 33.72700
H  20.15000 -3.26600 32.13100
H  19.64700 -4.37300 33.37800
H  16.03200 -3.17100 34.03000
H  15.07500 -1.97600 33.09500
H  15.42700 -1.81900 35.75500
H  15.26900 -0.45400 34.66700
H  19.87200 -7.89200 28.96900
H  20.13200 -6.69800 30.20100
H  21.20300 -6.75800 28.67400
H  20.99400 -7.99300 26.73100
H  20.25500 -9.03800 25.48600
H  19.40000 -8.95500 27.06000
H  16.56200 -3.55800 23.05300
H  15.92400 -0.74000 23.25700
H  18.19800 -1.30000 22.55500
H  18.51800 -2.94800 22.24800
H  19.06000 -2.29600 23.79900
H  13.48200 -1.72100 24.04100
H  14.36600 -3.17800 24.00300
H  13.51400 -1.54800 21.50300
H  13.07200 -3.13000 22.00000
H  14.72000 -2.83300 21.45900
H  13.30900 1.86100 26.27900
H  14.33000 3.04300 27.16900
H  12.86800 2.41700 27.96700
H  14.53700 0.48500 32.23500
H  17.47800 2.88800 34.46600
H  15.82400 3.07600 35.25800
H  16.38300 4.13300 33.93500
Mg 47.06900 15.99100 27.82400
C  45.25400 15.27800 30.78200
C  48.97000 18.10700 29.83500
C  48.97200 16.67600 25.17600
C  44.99800 14.01000 25.95500
N  47.14600 16.51300 30.12600
C  46.33800 16.12600 31.13700
C  46.77300 16.67400 32.47100
C  47.75200 17.77000 32.10300
C  47.98900 17.47500 30.58200
C  47.39100 19.20000 32.51400
C  47.31500 15.60000 33.41500
C  47.10800 15.70800 34.92200
H  48.34400 15.58300 35.80500
N  48.64800 17.22000 27.53900
C  49.26400 18.00600 28.51700
C  50.45000 18.62900 27.92200
C  50.48800 18.30800 26.51500
C  49.26700 17.43200 26.33000
C  51.47200 19.46200 28.70800
C  51.37100 18.82800 25.41000
O  51.26100 18.47200 24.26200
C  52.55700 19.73400 25.73400
N  46.98000 15.46400 25.83000
C  47.96500 15.77000 24.93400
C  47.77800 14.96100 23.66100
C  46.45700 14.28500 23.82000
C  46.09500 14.52800 25.29400
C  47.81800 15.74900 22.34800
C  46.49800 12.75300 23.39800
C  45.99800 12.48200 21.89400
N  45.40300 14.92100 28.22700
C  44.61800 14.20300 27.30300
C  43.53200 13.63000 28.01300
C  43.71100 13.97000 29.38900
C  44.89200 14.83100 29.46700
C  42.43300 12.89000 27.25300
C  43.31700 13.75800 30.78700
O  42.44200 13.06400 31.31800
C  44.24700 14.63400 31.72600
C  43.41900 15.59500 32.44800
O  42.63500 16.33000 31.98600
O  43.74300 15.55100 33.77900
C  42.97600 16.34300 34.63500
H  49.53400 18.79900 30.46300
H  49.57900 16.80100 24.27700
H  44.32800 13.44500 25.30300
H  45.92500 17.15900 32.95300
H  48.64900 17.58000 32.69300
H  46.85000 19.37100 33.44500
H  46.99600 19.57000 31.56800
H  48.33200 19.73000 32.66000
H  48.36200 15.47900 33.13800
H  46.86300 14.65400 33.11600
H  46.39800 14.89900 35.09400
H  46.59400 16.62200 35.21900
H  51.71100 20.36500 28.14700
H  52.38800 18.96600 29.02800
H  51.07200 19.82100 29.65600
H  52.14300 20.71600 25.96400
H  53.24500 19.88300 24.90200
H  53.06300 19.35300 26.62100
H  48.59900 14.24400 23.66000
H  45.61600 14.69300 23.25800
H  48.62400 15.38300 21.71200
H  48.03600 16.79700 22.55500
H  46.91000 15.70000 21.74800
H  45.99600 12.08900 24.10200
H  47.55300 12.51300 23.52500
H  46.75600 11.83100 21.45700
H  45.87000 13.36000 21.26100
H  45.07500 11.90400 21.94900
H  42.13800 13.13000 26.23200
H  41.54800 13.33200 27.71100
H  42.38800 11.82900 27.49900
H  44.71400 13.98800 32.47000
H  43.34500 16.18600 35.64900
H  41.95300 15.99900 34.48100
H  43.04500 17.38600 34.32700

