158

Mg 6.88300 54.20400 40.83600
C  6.00500 50.67000 40.37800
C  10.07400 53.32400 39.68900
C  7.46400 57.45400 40.64900
C  3.54400 54.75200 41.43200
N  7.84900 52.11300 40.07600
C  7.38900 50.88400 40.02800
C  8.46700 49.88200 39.55900
C  9.78100 50.68100 39.76100
C  9.24500 52.16200 39.89500
C  10.72500 50.25400 40.95100
C  8.31300 49.28600 38.13600
C  7.59800 50.14300 37.08200
H  7.05800 49.53000 35.83100
N  8.50900 55.25600 40.14100
C  9.78200 54.71000 39.83600
C  10.68900 55.85100 39.61200
C  9.91300 56.99100 39.62100
C  8.58400 56.66600 40.16800
C  12.18400 55.68400 39.26600
C  10.49100 58.40500 39.40400
O  11.64100 58.58000 39.10700
C  9.76300 59.64200 39.72500
N  5.71400 55.89700 41.04100
C  6.15800 57.11500 40.98800
C  5.05800 58.09800 41.36700
C  3.78200 57.28100 41.18600
C  4.37300 55.90800 41.27000
C  5.32700 58.75300 42.73500
C  2.91700 57.64600 39.98900
C  1.54600 58.32500 40.17200
N  5.17800 52.97300 40.97600
C  3.90200 53.37100 41.35500
C  2.95100 52.26800 41.34900
C  3.74600 51.20400 41.06400
C  5.09500 51.59200 40.76300
C  1.49300 52.30600 41.55700
C  3.73800 49.75600 40.78800
O  2.81000 48.99300 40.87100
C  5.31500 49.36300 40.57200
C  5.41700 48.49400 39.34000
O  4.96200 48.70700 38.22000
O  5.90500 47.25800 39.61700
C  5.58600 46.17300 38.61300
H  11.12600 53.08500 39.52000
H  7.65300 58.50600 40.87500
H  2.50200 54.98300 41.66700
H  8.56900 49.03900 40.24200
H  10.34600 50.69800 38.82900
H  11.73800 50.36200 40.56300
H  10.60600 49.21100 41.24700
H  10.81600 50.90800 41.81800
H  7.82600 48.31200 38.08300
H  9.30300 49.01600 37.76800
H  8.32500 50.80900 36.61900
H  6.78300 50.67500 37.57200
H  12.72600 56.28400 39.99600
H  12.23300 55.93100 38.20600
H  12.48800 54.63800 39.30500
H  10.22900 60.48100 39.20900
H  9.73600 59.62200 40.81500
H  8.82600 59.48000 39.19300
H  5.19000 58.90800 40.65000
H  3.17800 57.46900 42.07400
H  4.87300 58.21500 43.56700
H  4.86600 59.72400 42.55700
H  6.40200 58.73100 42.91600
H  2.89900 56.72600 39.40500
H  3.49900 58.25500 39.29700
H  1.50800 59.13000 39.43700
H  1.41500 58.78600 41.15100
H  0.73000 57.61900 40.02100
H  0.93300 52.34600 40.62300
H  1.42100 53.17700 42.20800
H  1.13200 51.44400 42.11700
H  5.61700 48.87900 41.50100
H  5.94800 45.19000 38.91400
H  6.10800 46.45400 37.69800
H  4.55700 45.87000 38.42000
Mg -12.84700 16.17000 41.38100
C  -9.88400 14.37800 40.70100
C  -11.45600 18.81800 39.70700
C  -15.79800 17.62700 41.74200
C  -14.17200 13.02600 42.36800
N  -10.96900 16.47000 40.14500
C  -9.94400 15.63800 40.16300
C  -8.66000 16.31400 39.53700
C  -9.09600 17.80900 39.20500
C  -10.57200 17.75300 39.72700
C  -8.31400 18.92000 39.90900
C  -8.10700 15.63500 38.23300
C  -6.55500 15.36900 38.23500
H  -5.62600 16.06200 37.26100
N  -13.55900 17.99000 40.86100
C  -12.78800 18.98800 40.30700
C  -13.55100 20.16100 40.27000
C  -14.82000 19.81900 40.86700
C  -14.76800 18.43100 41.25200
C  -13.10300 21.47800 39.69500
C  -15.95100 20.84500 40.95600
O  -15.83800 21.91400 40.36500
C  -17.24600 20.65200 41.75000
N  -14.75300 15.37600 41.62400
C  -15.81400 16.25200 41.91400
C  -17.03900 15.46400 42.33600
C  -16.43200 14.09100 42.73800
C  -15.01700 14.14800 42.16900
C  -17.73500 16.16600 43.55100
C  -17.33200 12.87700 42.33100
C  -17.61000 11.86800 43.42800
N  -12.18000 14.03200 41.55500
C  -12.79200 12.91200 42.06900
C  -11.86300 11.82200 42.23000
C  -10.71000 12.34300 41.59700
C  -10.96300 13.69000 41.27000
C  -12.12400 10.50600 42.89900
C  -9.32600 12.05400 41.33900
O  -8.68300 11.08300 41.66800
C  -8.66600 13.33700 40.61600
C  -7.44000 13.78700 41.40400
O  -7.42100 14.52200 42.39900
O  -6.35500 12.96800 41.04800
C  -4.98700 13.03300 41.62400
H  -10.99500 19.66200 39.19000
H  -16.75100 18.15900 41.76800
H  -14.60500 12.08800 42.72300
H  -7.86300 16.29000 40.28100
H  -9.10900 18.06900 38.14600
H  -8.81000 19.81700 40.28100
H  -7.52700 19.30200 39.26000
H  -7.79200 18.37700 40.69700
H  -8.16300 16.27300 37.35100
H  -8.53300 14.66400 37.97900
H  -6.42900 14.30100 38.05900
H  -6.17400 15.41400 39.25500
H  -13.53100 21.58900 38.69900
H  -12.02600 21.52500 39.53000
H  -13.34900 22.22800 40.44700
H  -16.87900 20.40700 42.74700
H  -17.91200 19.89100 41.34200
H  -17.68600 21.65000 41.76800
H  -17.69500 15.37300 41.47000
H  -16.29500 14.20000 43.81400
H  -17.97600 15.43500 44.32200
H  -18.67200 16.62200 43.23300
H  -17.09500 17.01300 43.79800
H  -16.78800 12.43700 41.49500
H  -18.23800 13.26400 41.86400
H  -16.97400 10.99600 43.27600
H  -18.60900 11.45000 43.31100
H  -17.67000 12.32300 44.41700
H  -11.26100 10.33200 43.54100
H  -12.26400 9.65300 42.23400
H  -12.97800 10.56500 43.57400
H  -8.45600 13.14400 39.56400
H  -4.67300 12.02000 41.87700
H  -5.01800 13.61800 42.54400
H  -4.28800 13.49400 40.92600

