158

Mg 8.33200 3.10200 27.67200
C  9.48700 1.52300 30.65000
C  6.18600 4.87100 29.69300
C  6.98500 4.45300 24.92000
C  10.00000 0.82400 25.88500
N  7.91100 3.16600 29.90200
C  8.55700 2.57200 30.89700
C  8.05700 3.01500 32.32800
C  6.91600 4.03000 31.94200
C  6.96600 3.98400 30.38400
C  5.46300 3.64600 32.56400
C  9.14800 3.48600 33.26500
C  8.77800 4.59500 34.18100
H  9.64800 4.67700 35.46000
N  6.76300 4.52800 27.32300
C  6.12600 5.26800 28.29200
C  5.21800 6.19300 27.63000
C  5.33200 5.98100 26.23000
C  6.39400 4.99300 26.10600
C  4.22800 7.02500 28.42200
C  4.58100 6.62000 25.14600
O  4.89700 6.41600 24.00000
C  3.62000 7.70300 25.41000
N  8.47200 2.72100 25.64900
C  7.85500 3.42900 24.70800
C  8.28800 3.02600 23.32600
C  9.43900 1.96000 23.59200
C  9.28900 1.78800 25.13900
C  7.24400 2.61800 22.29000
C  10.88700 2.33300 23.16800
C  11.85500 3.07400 24.09600
N  9.46300 1.44900 28.11400
C  10.15600 0.67200 27.28400
C  10.91500 -0.31200 28.00000
C  10.74500 -0.00100 29.38900
C  9.85600 1.05600 29.34800
C  11.81900 -1.34600 27.33600
C  11.19700 -0.26100 30.74100
O  12.09500 -0.97100 31.17000
C  10.36100 0.68000 31.70000
C  9.62500 -0.02700 32.76500
O  8.58200 -0.63800 32.64600
O  10.39600 -0.03000 33.85100
C  9.77800 -0.56900 35.10700
H  5.48800 5.23800 30.44900
H  6.59700 4.91200 24.00900
H  10.47500 0.07000 25.25400
H  7.56700 2.24000 32.91700
H  7.10100 5.04200 32.30200
H  4.60200 4.05700 32.03700
H  5.40300 4.12700 33.54000
H  5.51800 2.55800 32.60400
H  10.00500 3.93800 32.76600
H  9.59200 2.72400 33.90600
H  7.74500 4.61300 34.52900
H  9.00500 5.47700 33.58400
H  3.24500 6.81100 28.00400
H  4.56500 8.05300 28.28700
H  4.30000 6.77200 29.48000
H  3.37200 8.15800 24.45200
H  4.16400 8.49500 25.92500
H  2.80800 7.25900 25.98700
H  8.82200 3.91800 22.99800
H  9.22900 1.09900 22.95800
H  6.22200 2.69300 22.66200
H  7.46900 1.61700 21.92200
H  7.17200 3.30700 21.44800
H  10.66700 3.06300 22.38800
H  11.33900 1.55200 22.55700
H  11.39600 3.64000 24.90700
H  12.38000 3.76400 23.43500
H  12.62500 2.41400 24.49600
H  12.16300 -0.96300 26.37500
H  11.29800 -2.24100 26.99600
H  12.55200 -1.68600 28.06800
H  11.08500 1.40800 32.06700
H  10.41000 -1.36700 35.49700
H  8.84400 -1.11000 34.95900
H  9.80600 0.24600 35.83100
Mg -10.18000 16.73900 40.89400
C  -6.74500 16.25400 41.24000
C  -9.67600 19.99300 40.01100
C  -13.41400 16.87900 40.11300
C  -10.61600 13.11300 41.25400
N  -8.34700 17.88000 40.49100
C  -7.05600 17.54600 40.81900
C  -6.14600 18.60100 40.37700
C  -7.08000 19.87900 40.38400
C  -8.46100 19.27000 40.30500
C  -6.83300 20.92000 41.52900
C  -5.58000 18.22000 39.00700
C  -4.13000 17.61000 38.99700
H  -3.92300 16.20600 38.40500
N  -11.37700 18.28000 40.10800
C  -10.98200 19.53900 39.87200
C  -12.21900 20.30200 39.55000
C  -13.31500 19.42100 39.38700
C  -12.73200 18.12000 39.83200
C  -12.06900 21.77900 39.15200
C  -14.69100 19.67200 38.90300
O  -14.87300 20.79400 38.40600
C  -15.94500 18.74000 38.86600
N  -11.79800 15.19300 40.86700
C  -13.01100 15.60500 40.58300
C  -14.00800 14.42400 40.46400
C  -13.20600 13.31400 41.04500
C  -11.76400 13.90800 40.97000
C  -15.27500 14.61400 41.38500
C  -13.35700 11.95000 40.26500
C  -13.87100 10.81200 41.12400
N  -9.01000 15.02100 41.30600
C  -9.32500 13.64800 41.36900
C  -8.09900 12.93800 41.69500
C  -7.09100 13.92000 41.73100
C  -7.68900 15.11300 41.32500
C  -8.01300 11.41600 41.94400
C  -5.73200 14.12900 42.01400
O  -4.91300 13.37700 42.47700
C  -5.39900 15.63200 41.71500
C  -5.10000 16.28400 42.99800
O  -5.74300 16.12400 44.02600
O  -4.01200 17.14300 42.86600
C  -3.40500 17.41600 44.17700
H  -9.64200 21.06700 39.81800
H  -14.47800 16.98800 39.89200
H  -10.72200 12.03000 41.34300
H  -5.39000 18.71900 41.15300
H  -7.01900 20.41300 39.43500
H  -7.68300 20.97200 42.21000
H  -6.63600 21.90600 41.10700
H  -5.95500 20.69000 42.13200
H  -5.50600 19.06200 38.31900
H  -6.29600 17.53700 38.55100
H  -3.68300 17.65200 39.99000
H  -3.58200 18.26300 38.31800
H  -11.33900 22.34800 39.72800
H  -12.92400 22.37700 39.46700
H  -11.88000 21.91600 38.08700
H  -16.83100 19.18600 38.41400
H  -16.25500 18.53700 39.89100
H  -15.58800 17.86300 38.32600
H  -14.19400 14.37300 39.39100
H  -13.37500 13.19300 42.11500
H  -15.41900 13.82500 42.12300
H  -16.15400 14.59300 40.74100
H  -15.14000 15.55800 41.91200
H  -12.40800 11.54900 39.91000
H  -14.01700 12.09900 39.41100
H  -14.85800 10.45700 40.82700
H  -13.91900 11.11800 42.16900
H  -13.15100 9.99600 41.17700
H  -8.92500 10.87000 42.18500
H  -7.24200 11.12000 42.65600
H  -7.67600 10.98000 41.00400
H  -4.62500 15.83200 40.97300
H  -3.97500 18.12900 44.77300
H  -2.58700 18.06000 43.85300
H  -3.11600 16.53400 44.74800

