158

Mg 17.65000 -1.26900 28.10000
C  16.56200 0.47000 30.88700
C  19.34100 -3.49500 30.00600
C  18.95300 -2.51600 25.34900
C  15.81800 1.03300 26.13000
N  17.96200 -1.34600 30.21100
C  17.44300 -0.56300 31.20700
C  17.79300 -1.01700 32.64700
C  18.77500 -2.19300 32.27100
C  18.67100 -2.40500 30.76600
C  20.27300 -2.02200 32.80800
C  16.68700 -1.38500 33.68200
C  16.76500 -1.06900 35.14600
H  18.16500 -0.73900 35.69200
N  18.93700 -2.91300 27.65700
C  19.49700 -3.74700 28.62100
C  20.29000 -4.70000 27.91400
C  20.28200 -4.41700 26.53900
C  19.35200 -3.22000 26.42700
C  21.28000 -5.69200 28.54000
C  20.96100 -5.11100 25.31600
O  20.88500 -4.69200 24.19100
C  21.81600 -6.30700 25.46100
N  17.45100 -0.78900 26.03100
C  18.00400 -1.55200 25.10500
C  17.58400 -1.08800 23.69200
C  16.45700 -0.07000 23.97500
C  16.54800 0.06200 25.46400
C  18.83000 -0.52300 22.97600
C  15.15400 -0.46500 23.24300
C  14.44400 0.70400 22.50900
N  16.52400 0.56300 28.40600
C  15.89700 1.40400 27.46000
C  15.17800 2.39300 28.16800
C  15.36900 2.05600 29.57600
C  16.20900 0.92400 29.62500
C  14.34200 3.47800 27.63200
C  15.12800 2.37900 30.95700
O  14.37400 3.25800 31.38200
C  15.83000 1.41400 31.86800
C  16.84100 2.17600 32.73500
O  17.95200 2.40100 32.39900
O  16.23500 2.47600 33.89300
C  16.95300 3.33300 34.74300
H  20.00500 -4.13000 30.59600
H  19.33600 -2.96000 24.42700
H  15.10900 1.54600 25.47800
H  18.39800 -0.17400 32.98000
H  18.40100 -3.11100 32.72400
H  20.42700 -1.05900 33.29500
H  20.94600 -1.83300 31.97100
H  20.63800 -2.96000 33.22600
H  16.45200 -2.44800 33.62900
H  15.82000 -0.86400 33.27700
H  16.35500 -1.93000 35.67400
H  16.18700 -0.15700 35.28800
H  21.01600 -6.72900 28.33600
H  21.28700 -5.63400 29.62900
H  22.33400 -5.57800 28.28700
H  21.34100 -7.01000 26.14500
H  22.74000 -5.97800 25.93600
H  21.90500 -6.74800 24.46800
H  17.32200 -1.88600 22.99700
H  16.84600 0.91000 23.70000
H  19.72300 -0.76900 23.55100
H  18.82200 0.56600 23.01400
H  18.82900 -0.92000 21.96100
H  14.46400 -0.86000 23.98700
H  15.31200 -1.23100 22.48300
H  13.96800 0.47800 21.55500
H  15.25000 1.38200 22.22800
H  13.67500 1.24300 23.06100
H  13.28900 3.23300 27.49700
H  14.69900 3.93800 26.71100
H  14.32400 4.29800 28.35000
H  15.08500 0.93100 32.50000
H  18.01400 3.09300 34.67500
H  16.63900 3.38900 35.78600
H  16.72100 4.34500 34.41200
Mg 40.49700 9.38400 29.39000
C  42.46100 10.94200 32.05300
C  38.49400 8.18500 31.80100
C  39.02800 7.92300 26.89600
C  43.32500 10.22600 27.21200
N  40.61000 9.47700 31.71300
C  41.30600 10.36200 32.50000
C  40.77500 10.38400 33.94500
C  39.51500 9.33600 33.78400
C  39.54800 8.92800 32.35000
C  39.45100 8.22800 34.83100
C  40.31900 11.84200 34.35300
C  39.88000 11.97100 35.87000
H  40.59100 13.02700 36.68100
N  39.03000 8.15900 29.37400
C  38.26500 7.82800 30.43500
C  37.20400 6.99300 29.94600
C  37.24500 6.96800 28.49900
C  38.49200 7.69100 28.19000
C  36.21100 6.28100 30.88200
C  36.32500 6.26400 27.48100
O  36.70700 6.13400 26.34700
C  35.16000 5.46900 27.98900
N  41.15200 9.13400 27.39500
C  40.22100 8.63300 26.50500
C  40.65000 8.93200 25.00400
C  42.08800 9.32500 25.21500
C  42.17500 9.59600 26.68800
C  40.50800 7.94100 23.85000
C  42.52800 10.53300 24.34500
C  41.86500 11.87000 24.66100
N  42.43300 10.47000 29.47400
C  43.47700 10.68700 28.53900
C  44.55900 11.51900 29.18200
C  44.16200 11.63500 30.51200
C  42.91800 10.94200 30.66900
C  45.74500 12.05800 28.45000
C  44.58100 12.10500 31.83200
O  45.57100 12.74800 32.16200
C  43.45300 11.73600 32.88100
C  44.01800 10.95200 34.01300
O  44.74700 9.98300 33.86100
O  43.61200 11.43500 35.24400
C  43.97600 10.64100 36.40400
H  37.69300 7.94600 32.50300
H  38.45800 7.55300 26.04100
H  44.08800 10.55900 26.50600
H  41.51700 10.00700 34.64800
H  38.69200 10.01400 34.00800
H  38.63100 8.42100 35.52200
H  40.36300 8.31300 35.42200
H  39.39800 7.17900 34.53900
H  39.47900 12.18000 33.74600
H  41.17100 12.51100 34.23100
H  39.81800 10.98200 36.32300
H  38.84900 12.32100 35.81100
H  35.19400 6.57200 30.62100
H  36.26800 6.57200 31.93100
H  36.51100 5.23900 30.76600
H  35.42900 4.95500 28.91100
H  35.02900 4.80000 27.13900
H  34.30000 6.13800 28.02300
H  39.97600 9.71800 24.66400
H  42.60300 8.38500 25.01600
H  39.44900 8.02700 23.60600
H  40.47700 6.91100 24.20600
H  41.02700 8.19000 22.92400
H  42.13000 10.22300 23.37900
H  43.61300 10.63900 24.33100
H  41.58400 11.92300 25.71300
H  41.01200 11.94200 23.98600
H  42.44500 12.76800 24.44800
H  45.60400 12.58700 27.50800
H  46.44200 11.22700 28.33600
H  46.26800 12.79300 29.06300
H  42.96300 12.66300 33.18000
H  43.16600 10.45800 37.11100
H  44.75700 11.21700 36.90000
H  44.50700 9.70200 36.24800

