158

Mg 40.46700 8.31600 29.03800
C  42.15900 10.17700 31.53100
C  38.48800 6.94800 31.37000
C  39.04200 6.52400 26.54300
C  43.06200 9.18700 26.68100
N  40.32000 8.54900 31.12200
C  41.07600 9.35400 31.92000
C  40.45900 9.43600 33.33500
C  39.53300 8.18800 33.33700
C  39.47200 7.86500 31.86400
C  39.98100 6.93100 34.19000
C  39.99400 10.80400 33.87300
C  39.39700 10.66900 35.27100
H  39.92000 11.69400 36.27000
N  38.91100 6.94200 28.98000
C  38.25000 6.49500 30.05700
C  37.16100 5.67300 29.64700
C  37.20000 5.62100 28.22100
C  38.41800 6.39900 27.82200
C  36.18600 5.05600 30.66100
C  36.31600 5.04300 27.19700
O  36.49700 5.29500 26.01400
C  35.09100 4.17700 27.65300
N  40.98500 7.99300 26.82300
C  40.23000 7.15900 26.06700
C  40.78800 7.04100 24.63200
C  41.90400 8.10000 24.73400
C  42.06700 8.43600 26.18500
C  41.32800 5.66100 24.21600
C  41.61700 9.25400 23.71200
C  40.90300 10.53100 24.22200
N  42.19000 9.38400 29.05100
C  43.19700 9.63200 28.03600
C  44.18700 10.59900 28.64800
C  43.80100 10.77000 30.01000
C  42.65400 10.06300 30.20400
C  45.28600 11.20500 27.88300
C  44.22900 11.39200 31.28200
O  45.08800 12.21400 31.52200
C  43.12800 11.08000 32.27700
C  43.81900 10.29600 33.43500
O  44.43400 9.21500 33.36300
O  43.35200 10.79200 34.58100
C  43.49400 9.99500 35.75800
H  37.87000 6.46200 32.12800
H  38.80600 5.80400 25.75700
H  43.82400 9.49700 25.96300
H  41.27800 8.96500 33.87800
H  38.49000 8.46700 33.48700
H  40.48000 6.32200 33.43600
H  39.14600 6.43800 34.68800
H  40.69800 7.08700 34.99700
H  39.20000 11.16200 33.21700
H  40.78500 11.55300 33.90200
H  39.40300 9.63000 35.60000
H  38.34100 10.88900 35.11600
H  36.01100 5.81400 31.42400
H  36.60300 4.15800 31.11900
H  35.24600 4.72300 30.22300
H  35.52000 3.24000 28.00800
H  34.55700 3.90100 26.74300
H  34.39300 4.69600 28.30900
H  39.93900 7.27200 23.98800
H  42.85500 7.65500 24.44400
H  41.03500 5.64300 23.16600
H  40.70000 4.88900 24.66200
H  42.39000 5.43300 24.12600
H  40.97700 8.90300 22.90200
H  42.57200 9.38800 23.20500
H  40.71200 10.54700 25.29500
H  39.90200 10.66400 23.81200
H  41.53900 11.40400 24.07300
H  45.24200 10.93700 26.82700
H  46.16200 10.66800 28.24700
H  45.21800 12.28700 27.99900
H  42.70100 12.02900 32.60000
H  43.43700 10.75600 36.53700
H  44.45000 9.47400 35.80500
H  42.69300 9.30400 36.02000
Mg 0.55200 42.86900 26.24700
C  2.95000 42.40200 28.88900
C  -1.91300 42.44000 28.55200
C  -1.49900 42.56300 23.71900
C  3.35200 42.61200 23.96200
N  0.54700 42.31600 28.44200
C  1.61000 42.31300 29.31900
C  1.14500 42.17200 30.73400
C  -0.31300 41.78500 30.50100
C  -0.61800 42.32300 29.08600
C  -0.68800 40.32100 30.76900
C  1.25900 43.39000 31.58400
C  1.17300 43.24800 33.08700
H  0.62300 41.95400 33.63500
N  -1.45900 42.69300 26.18500
C  -2.29000 42.67500 27.21600
C  -3.61700 42.95800 26.76600
C  -3.56800 42.90000 25.33900
C  -2.14000 42.70500 24.99300
C  -4.72500 43.16900 27.71200
C  -4.68800 43.00700 24.33300
O  -4.55300 42.87000 23.12400
C  -5.97900 43.36900 24.89000
N  0.86000 42.67700 24.11700
C  -0.15500 42.50900 23.31000
C  0.27700 42.50200 21.80800
C  1.80700 42.75500 21.87100
C  2.07300 42.70900 23.43200
C  -0.20100 41.36400 20.90300
C  2.33800 44.10700 21.25900
C  2.12900 45.49300 21.97400
N  2.69100 42.70400 26.36600
C  3.65900 42.61800 25.32100
C  4.97500 42.54200 25.92100
C  4.71400 42.49700 27.30500
C  3.35100 42.57400 27.53000
C  6.26900 42.46500 25.18000
C  5.34100 42.33600 28.55100
O  6.51200 42.13100 28.73600
C  4.19900 42.38900 29.68800
C  4.34400 41.11000 30.51600
O  4.24000 39.97600 30.06100
O  4.58600 41.49200 31.87500
C  4.70700 40.38100 32.80000
H  -2.63600 42.47800 29.36900
H  -2.19100 42.37700 22.89500
H  4.26200 42.50000 23.36900
H  1.69200 41.35300 31.20200
H  -0.95600 42.36500 31.16200
H  -1.65700 40.25200 31.26300
H  0.00900 39.80000 31.42500
H  -0.74500 39.84900 29.78800
H  0.43900 44.06300 31.33100
H  2.20300 43.85800 31.30500
H  0.62200 44.11300 33.45800
H  2.18400 43.27500 33.49400
H  -5.52700 43.84900 27.42300
H  -4.37400 43.60600 28.64700
H  -5.19500 42.20000 27.87800
H  -6.29800 42.59600 25.59000
H  -6.66200 43.47600 24.04700
H  -5.97900 44.35900 25.34700
H  -0.17800 43.39600 21.38000
H  2.39900 41.92300 21.48900
H  0.50700 41.33900 20.07400
H  -1.21300 41.50800 20.52200
H  -0.10100 40.39200 21.38500
H  1.96900 44.12000 20.23300
H  3.41400 43.95800 21.16600
H  1.20900 45.39900 22.55100
H  2.05200 46.27300 21.21600
H  2.96600 45.78900 22.60600
H  6.25900 43.11500 24.30500
H  6.51700 41.43900 24.90800
H  6.97900 42.91900 25.87100
H  4.24900 43.20200 30.41200
H  5.72700 40.00000 32.76200
H  4.01700 39.55600 32.62200
H  4.56900 40.74600 33.81800

