158

Mg 56.00900 23.00300 44.92000
C  53.70900 25.45200 43.98400
C  53.73100 20.59400 43.93600
C  58.35300 20.60900 45.32800
C  58.24200 25.39900 45.55600
N  53.94800 23.08100 43.99800
C  53.18000 24.20800 43.75200
C  51.80800 23.82600 43.06400
C  51.80700 22.31100 43.53000
C  53.22400 21.92300 43.80800
C  50.85400 22.07600 44.74300
C  51.70800 24.12800 41.55200
C  50.38100 24.58000 41.01900
H  49.77900 23.81600 39.87600
N  56.06800 20.88700 44.56100
C  55.00400 20.09500 44.26900
C  55.26200 18.64500 44.42700
C  56.60400 18.64300 44.81200
C  57.13800 20.03200 44.79300
C  54.25400 17.51000 44.14600
C  57.39800 17.33600 45.33600
O  56.74100 16.30000 45.54000
C  58.89800 17.26800 45.74800
N  58.08000 22.99400 45.07100
C  58.80000 21.90100 45.47800
C  60.06800 22.34000 46.17800
C  60.12100 23.83100 45.76500
C  58.72500 24.11100 45.52900
C  59.93300 22.01000 47.68700
C  60.96100 24.24700 44.53800
C  61.99000 25.32000 44.74700
N  55.97400 24.99700 44.93700
C  56.97000 25.86500 45.30300
C  56.48600 27.19000 45.40600
C  55.19200 27.10600 44.81900
C  54.94700 25.72700 44.51400
C  57.19900 28.38500 45.78400
C  54.03100 27.87900 44.43300
O  53.80500 29.09200 44.55800
C  53.08200 26.78900 43.79700
C  52.83400 27.14000 42.39300
O  53.64900 27.06700 41.44200
O  51.57500 27.73700 42.30500
C  51.32300 28.54000 41.06700
H  53.03500 19.75900 43.83800
H  59.14900 19.91500 45.60400
H  58.87300 26.06800 46.14500
H  51.01000 24.37300 43.56700
H  51.53700 21.66400 42.69600
H  51.32900 21.67300 45.63800
H  50.16000 21.34400 44.33100
H  50.32800 22.95600 45.11300
H  51.78400 23.15900 41.05900
H  52.49700 24.70000 41.06400
H  50.52800 25.60500 40.67800
H  49.61500 24.53000 41.79300
H  53.51800 17.73200 44.91900
H  54.59600 16.48600 44.29200
H  53.79700 17.69200 43.17300
H  59.49000 17.78600 44.99400
H  59.26100 16.25900 45.94500
H  59.03100 17.69000 46.74400
H  60.85800 21.76600 45.69300
H  60.40400 24.34100 46.68600
H  58.96900 21.52200 47.82800
H  59.96700 22.96800 48.20500
H  60.64300 21.26100 48.03500
H  60.32800 24.70900 43.78100
H  61.56500 23.42000 44.16500
H  61.95800 26.20900 44.11800
H  62.99400 24.90500 44.83900
H  61.71300 25.71700 45.72300
H  58.25900 28.14100 45.71800
H  57.01700 28.81200 46.77000
H  56.96200 29.15200 45.04600
H  52.11600 26.66000 44.28600
H  50.36700 28.11400 40.76000
H  52.05400 28.50200 40.26000
H  51.21900 29.59700 41.31300
Mg 49.92200 44.40500 41.55400
C  46.68100 44.97500 40.39500
C  49.43200 41.07800 40.76000
C  53.09700 44.02100 42.10500
C  50.10400 47.81200 42.41200
N  48.22600 43.18400 40.78900
C  46.97400 43.64600 40.43700
C  46.16400 42.53800 39.79700
C  46.89900 41.25300 40.33000
C  48.29900 41.86500 40.61800
C  46.24700 40.62600 41.63000
C  46.22000 42.60500 38.29400
C  44.82800 42.64400 37.57200
H  44.74500 43.57800 36.31300
N  51.20200 42.75500 41.36800
C  50.78500 41.46300 41.04100
C  51.99600 40.64100 41.02600
C  53.07900 41.43200 41.49100
C  52.50900 42.77600 41.69400
C  52.07900 39.31500 40.59500
C  54.57500 41.04900 41.63100
O  55.00500 39.95600 41.38100
C  55.68300 42.06800 41.90500
N  51.40400 45.73300 42.17000
C  52.69900 45.29900 42.36200
C  53.60600 46.43400 42.87200
C  52.63700 47.67800 42.95700
C  51.28600 47.04800 42.53200
C  54.33000 46.08700 44.23100
C  53.12200 48.98400 42.32700
C  54.43500 49.54800 42.72400
N  48.63700 46.11200 41.47400
C  48.86800 47.46100 41.78500
C  47.73000 48.26900 41.39200
C  46.86000 47.28900 40.81700
C  47.46700 46.01700 40.88600
C  47.68300 49.77400 41.41100
C  45.60900 47.16800 40.10800
O  44.75800 47.99200 39.82500
C  45.47300 45.63200 39.82500
C  44.22000 45.13500 40.44700
O  43.32500 44.58300 39.80800
O  44.18500 45.47900 41.78000
C  42.81500 45.62100 42.26900
H  49.31600 40.02700 40.48800
H  54.11000 44.01800 42.51300
H  50.23900 48.80600 42.84300
H  45.14000 42.55000 40.17000
H  46.76600 40.41900 39.64100
H  45.49700 41.17900 42.19500
H  47.09900 40.67800 42.30700
H  45.98300 39.58300 41.45500
H  46.92500 41.88500 37.87800
H  46.58500 43.59200 38.01000
H  43.98900 42.97900 38.18200
H  44.59000 41.62300 37.27500
H  52.32000 39.25300 39.53300
H  51.12600 38.82800 40.80200
H  52.87400 38.79900 41.13200
H  55.73900 42.42200 42.93400
H  55.49200 42.90100 41.22900
H  56.63100 41.71300 41.49900
H  54.41500 46.51500 42.14600
H  52.47600 47.96600 43.99600
H  54.33100 45.02400 44.47500
H  53.90800 46.67600 45.04500
H  55.34400 46.48600 44.20800
H  52.37600 49.75000 42.54000
H  53.29800 48.92300 41.25300
H  54.98400 49.87300 41.83900
H  55.07900 48.89800 43.31700
H  54.12600 50.43900 43.27000
H  47.01000 50.23600 42.13200
H  47.44400 50.12200 40.40600
H  48.71900 50.10800 41.46400
H  45.40400 45.27800 38.79600
H  42.90000 46.16000 43.21200
H  42.64300 44.58700 42.56600
H  42.02200 45.92000 41.58300

