158

Mg 55.87700 25.16100 45.31200
C  52.84400 26.55000 44.14100
C  54.50700 22.02000 44.62900
C  58.88300 23.88000 45.82600
C  57.00000 28.31400 46.18600
N  53.96500 24.49800 44.35500
C  52.86700 25.15500 44.06400
C  51.73700 24.25800 43.63900
C  52.13500 22.88700 44.29600
C  53.61800 23.12400 44.51900
C  51.30500 22.56200 45.66900
C  51.37100 24.26400 42.18700
C  49.84700 24.11400 42.00500
H  49.45100 22.95600 41.07400
N  56.63900 23.16100 45.15200
C  55.91300 22.03300 44.91300
C  56.71400 20.88100 45.06800
C  58.00600 21.40200 45.37500
C  57.89500 22.89900 45.53300
C  56.25000 19.53100 45.00600
C  59.24000 20.54800 45.58200
O  59.16700 19.34200 45.44800
C  60.61800 21.06200 45.88900
N  57.74000 26.03700 45.61500
C  58.80100 25.26000 45.84500
C  59.91000 26.07300 46.60800
C  59.30000 27.46600 46.55200
C  57.92400 27.29400 46.09500
C  60.24000 25.52300 48.04400
C  60.16300 28.52600 45.76800
C  59.65300 29.14900 44.39000
N  55.16100 27.17500 45.12000
C  55.68300 28.28900 45.71800
C  54.64700 29.36000 45.65100
C  53.53200 28.75200 44.95900
C  53.87200 27.41200 44.63300
C  54.85100 30.67100 46.34800
C  52.13300 28.86100 44.47700
O  51.43700 29.85500 44.50700
C  51.66700 27.49000 43.77100
C  51.40600 27.82800 42.32900
O  52.26400 27.89500 41.45500
O  50.03600 27.93400 42.09900
C  49.71000 28.11000 40.73300
H  54.05200 21.03600 44.49400
H  59.90100 23.50900 45.96700
H  57.32700 29.25600 46.63100
H  50.90300 24.63100 44.23300
H  51.96300 22.03100 43.64300
H  50.88000 23.48300 46.06800
H  52.12300 22.41400 46.37500
H  50.62900 21.71100 45.59200
H  51.74800 23.37300 41.68700
H  51.73000 25.13700 41.64100
H  49.30800 25.03900 41.80200
H  49.42300 23.72900 42.93300
H  55.17500 19.35300 44.96200
H  56.53800 19.08200 45.95700
H  56.83200 19.16000 44.16200
H  60.73700 21.86000 45.15600
H  61.33100 20.24400 45.78500
H  60.62000 21.43400 46.91300
H  60.80700 25.94200 46.00500
H  59.23200 27.80400 47.58600
H  61.21700 25.06300 48.19100
H  59.47800 24.77300 48.25600
H  60.23200 26.24200 48.86400
H  61.16500 28.16700 45.53100
H  60.31900 29.34700 46.46800
H  60.50600 28.82000 43.79700
H  59.41800 30.21400 44.38800
H  58.79400 28.61400 43.98600
H  54.89300 30.41600 47.40700
H  54.00200 31.34800 46.25200
H  55.70000 31.16000 45.87200
H  50.74900 27.29200 44.32400
H  50.43500 28.52900 40.03500
H  48.77500 28.67100 40.71200
H  49.35400 27.19800 40.25400
Mg 16.84300 52.24800 26.44100
C  18.53800 50.72400 29.20600
C  14.35300 53.15600 28.51200
C  15.07100 53.20500 23.73200
C  19.32900 50.74900 24.32700
N  16.60900 52.09000 28.56500
C  17.44500 51.49200 29.51300
C  17.00100 51.94100 30.91900
C  15.53600 52.43600 30.72000
C  15.49900 52.61600 29.18600
C  14.37900 51.58600 31.23700
C  18.01500 52.86000 31.58000
C  18.27500 52.55000 33.08600
H  17.29000 51.50700 33.79100
N  15.08500 53.18800 26.18900
C  14.18000 53.49300 27.15000
C  13.07800 54.25600 26.59200
C  13.24300 54.28900 25.16100
C  14.53800 53.56800 24.97700
C  11.81900 54.65700 27.32000
C  12.45400 54.86500 24.05500
O  12.80700 54.81800 22.85900
C  11.03700 55.46600 24.30000
N  17.19600 52.02900 24.39300
C  16.29200 52.55000 23.45400
C  16.77900 52.35400 22.04200
C  18.17700 51.60600 22.21200
C  18.26100 51.47500 23.76000
C  15.78200 51.53500 21.21700
C  19.41900 52.18200 21.54300
C  20.05800 53.49300 22.19100
N  18.53600 50.94900 26.57300
C  19.44800 50.42300 25.65500
C  20.40100 49.55900 26.27200
C  20.00500 49.59200 27.65100
C  19.00300 50.53800 27.83400
C  21.52900 48.77500 25.70200
C  20.43600 49.14200 28.98600
O  21.23600 48.33400 29.40200
C  19.56600 49.94800 30.03200
C  18.89200 49.05500 31.05300
O  17.82900 48.50300 30.89100
O  19.78900 48.80100 32.05100
C  19.43400 47.82600 33.07800
H  13.58100 53.36600 29.25600
H  14.52200 53.53500 22.84700
H  19.84600 50.27700 23.48900
H  17.02500 50.96900 31.41200
H  15.50300 53.38600 31.25400
H  14.74600 50.65500 31.66900
H  13.61200 51.37900 30.49100
H  13.83000 52.19000 31.96000
H  17.69900 53.87300 31.33400
H  18.94900 52.66000 31.05400
H  18.30000 53.54100 33.53900
H  19.29200 52.17300 33.19600
H  11.06800 53.89700 27.10400
H  11.42400 55.57400 26.88400
H  12.03400 54.81700 28.37700
H  11.11600 56.40600 24.84500
H  10.57500 54.70300 24.92600
H  10.37700 55.59400 23.44200
H  17.07200 53.27400 21.53600
H  18.05300 50.58000 21.86700
H  14.90100 52.05400 20.83800
H  15.39200 50.73200 21.84300
H  16.19900 51.25100 20.25100
H  19.10300 52.41900 20.52700
H  20.11900 51.35500 21.42700
H  19.40700 54.15400 22.76400
H  20.51600 54.05500 21.37700
H  20.88600 53.26900 22.86300
H  21.43300 48.86400 24.62000
H  21.48200 47.71400 25.94900
H  22.38200 49.25900 26.17700
H  20.24200 50.60500 30.58000
H  18.37000 47.92900 33.29000
H  20.10600 48.02200 33.91400
H  19.67500 46.82600 32.71600

