158

Mg -3.17100 17.06000 27.07500
C  -3.55400 14.87000 29.84700
C  -3.17700 19.74100 29.35400
C  -2.89000 19.09800 24.55300
C  -3.45100 14.32900 25.02800
N  -3.16200 17.27300 29.37400
C  -3.33400 16.24400 30.26300
C  -3.33600 16.78500 31.67400
C  -3.36300 18.33900 31.46200
C  -3.22800 18.48500 29.97100
C  -4.50800 19.22300 32.25100
C  -2.14600 16.25500 32.53500
C  -1.70700 16.98400 33.74700
H  -1.55700 16.10200 35.02700
N  -2.91000 19.09100 27.00300
C  -2.99300 20.02700 28.00700
C  -2.85500 21.33300 27.45400
C  -2.57500 21.12600 26.08800
C  -2.84700 19.71200 25.81900
C  -2.92000 22.57400 28.31800
C  -2.10500 22.07200 25.02300
O  -1.81600 21.75600 23.87700
C  -1.78800 23.45500 25.39800
N  -3.22300 16.71700 25.13000
C  -3.09800 17.76600 24.27400
C  -3.16400 17.25700 22.78300
C  -3.17600 15.70000 22.93900
C  -3.28600 15.53500 24.45000
C  -4.21100 17.85600 21.78600
C  -2.11700 14.86100 22.26200
C  -0.67800 15.04400 22.78500
N  -3.39600 14.97200 27.33100
C  -3.50200 14.00600 26.36900
C  -3.75000 12.73100 26.98100
C  -3.80600 13.01500 28.39900
C  -3.53800 14.39900 28.51700
C  -3.91900 11.37400 26.34600
C  -3.99400 12.47200 29.74800
O  -4.20200 11.34900 30.16700
C  -3.86700 13.65100 30.74000
C  -2.70500 13.22400 31.56500
O  -1.54600 13.36700 31.29400
O  -3.19400 12.63700 32.77600
C  -2.16900 11.89500 33.50200
H  -3.37100 20.60000 30.00000
H  -2.87600 19.66600 23.62100
H  -3.83200 13.49800 24.43000
H  -4.18200 16.32400 32.18300
H  -2.44000 18.73700 31.88200
H  -4.92700 19.89900 31.50700
H  -4.04600 19.81900 33.03800
H  -5.24800 18.53000 32.65300
H  -1.29800 16.04100 31.88500
H  -2.69100 15.43200 32.99600
H  -2.48900 17.72200 33.92200
H  -0.74300 17.45800 33.55600
H  -3.35500 22.40300 29.30300
H  -3.65900 23.21400 27.83700
H  -1.96900 23.10500 28.36000
H  -2.68100 23.86800 25.86800
H  -1.36000 23.98000 24.54400
H  -1.01700 23.54900 26.16200
H  -2.21100 17.46300 22.29500
H  -4.12700 15.32100 22.56300
H  -3.70100 18.32800 20.94600
H  -4.81600 18.66400 22.19700
H  -4.72800 17.10400 21.19000
H  -2.20400 14.96800 21.18000
H  -2.35600 13.81400 22.44400
H  -0.11500 15.57400 22.01600
H  -0.20600 14.12800 23.13900
H  -0.79300 15.66800 23.67200
H  -4.88600 11.26700 25.85400
H  -4.00800 10.58300 27.09100
H  -3.16700 11.23000 25.57100
H  -4.67700 13.77000 31.46000
H  -1.36700 11.61100 32.82100
H  -2.60400 10.99100 33.92800
H  -1.73700 12.50900 34.29200
Mg -0.64400 7.46500 26.88100
C  0.22200 9.71100 29.55000
C  -0.06100 4.90300 29.10300
C  -1.02200 5.29200 24.36800
C  -0.83300 10.16000 24.64100
N  -0.17500 7.42600 29.11700
C  0.15300 8.38800 30.02100
C  0.30500 7.88300 31.39900
C  0.58300 6.38700 31.15700
C  0.03400 6.15000 29.73200
C  1.96800 5.79100 31.33700
C  -0.98800 8.32500 32.19800
C  -0.74600 8.64000 33.67600
H  0.04600 7.56300 34.49600
N  -0.59400 5.31000 26.81700
C  -0.29200 4.47200 27.79000
C  -0.28900 3.12000 27.32800
C  -0.67500 3.21100 25.97500
C  -0.81100 4.64000 25.64000
C  0.01300 1.88000 28.23600
C  -0.84800 2.05600 24.95800
O  -1.06600 2.22500 23.73300
C  -0.89500 0.60700 25.47700
N  -0.69000 7.67200 24.86200
C  -1.02900 6.64900 24.10700
C  -1.28500 7.07200 22.64900
C  -1.59300 8.56700 22.83500
C  -0.98200 8.84900 24.16600
C  0.02700 6.77000 21.81200
C  -3.12300 8.79100 22.71700
C  -3.66600 9.87300 21.77600
N  -0.26200 9.56200 27.01800
C  -0.32800 10.48300 25.97800
C  0.03900 11.75700 26.54200
C  0.32400 11.50300 27.89700
C  0.07600 10.16000 28.19300
C  -0.03600 12.96700 25.77900
C  0.71900 12.07900 29.11400
O  1.01100 13.27200 29.38100
C  0.65100 10.96900 30.20600
C  1.85800 10.96700 31.10000
O  2.68300 10.13700 31.22100
O  1.85600 12.06500 31.97900
C  2.73700 11.99500 33.17700
H  0.17200 4.11900 29.82600
H  -1.16300 4.64200 23.50200
H  -1.05300 10.87100 23.84200
H  1.14000 8.43000 31.83600
H  -0.05100 5.73900 31.76200
H  1.91600 4.93300 32.00800
H  2.63000 6.55800 31.73900
H  2.34800 5.46300 30.37000
H  -1.79500 7.59700 32.11300
H  -1.29100 9.30900 31.84300
H  -1.72500 8.73500 34.14700
H  -0.25500 9.60500 33.80200
H  -0.66700 1.02800 28.24400
H  0.00500 2.09800 29.30400
H  1.02200 1.57500 27.95800
H  0.04500 0.06400 25.57200
H  -1.49200 -0.00400 24.80000
H  -1.42200 0.53800 26.42900
H  -2.15900 6.56600 22.23900
H  -1.10600 9.18100 22.07800
H  0.42000 7.72600 21.46700
H  -0.15800 6.34100 20.82600
H  0.75300 6.17600 22.36600
H  -3.46700 9.01700 23.72600
H  -3.66300 7.89600 22.40800
H  -4.27500 9.34300 21.04400
H  -2.80100 10.47400 21.49500
H  -4.29700 10.54200 22.36100
H  0.19000 13.79500 26.45000
H  -1.03000 13.15400 25.37300
H  0.67200 12.87700 24.95600
H  -0.14100 11.27000 30.89100
H  3.79100 12.03000 32.89900
H  2.64100 11.04700 33.70600
H  2.47500 12.80700 33.85400

