158

Mg 17.33800 -0.90000 28.52800
C  16.18400 1.01300 31.13200
C  19.26800 -2.68100 30.73500
C  18.75100 -2.57700 26.00700
C  15.73700 1.29900 26.29600
N  17.75800 -0.78300 30.65500
C  16.97700 -0.02900 31.58000
C  17.35400 -0.41400 33.04900
C  18.45200 -1.53700 32.93800
C  18.56200 -1.66000 31.37600
C  19.82800 -1.22000 33.59200
C  16.09300 -0.88600 33.85800
C  16.06500 -0.62600 35.35700
H  17.20600 0.09700 36.05700
N  18.59600 -2.55900 28.36300
C  19.33700 -3.11800 29.35700
C  19.97600 -4.32500 28.90700
C  19.95500 -4.22100 27.47300
C  18.99400 -3.11800 27.21900
C  20.74600 -5.28200 29.71000
C  20.67500 -5.10600 26.35200
O  20.60300 -4.89900 25.13200
C  21.53400 -6.22600 26.81500
N  17.26100 -0.69600 26.38200
C  17.91200 -1.56600 25.57400
C  17.86000 -1.10200 24.09300
C  17.02300 0.33400 24.17200
C  16.61300 0.31200 25.69600
C  19.25100 -1.00500 23.36700
C  15.75300 0.57400 23.20100
C  15.81700 1.73500 22.26300
N  16.12300 0.70000 28.62000
C  15.57300 1.52000 27.68300
C  14.80200 2.57000 28.29300
C  15.07700 2.44900 29.62200
C  15.85900 1.33100 29.78500
C  13.91400 3.60800 27.60800
C  14.71300 2.97300 30.91700
O  13.98500 3.83800 31.30600
C  15.53100 2.10500 31.98500
C  16.56700 2.95700 32.58500
O  17.73200 3.19300 32.19000
O  16.10600 3.45000 33.75300
C  16.93300 4.32800 34.62200
H  19.76300 -3.42400 31.36500
H  19.13400 -3.10900 25.13300
H  15.25100 2.09300 25.72500
H  17.79100 0.47500 33.50400
H  18.08200 -2.45400 33.39800
H  20.04300 -1.84400 34.45900
H  19.70700 -0.20600 33.97300
H  20.76900 -1.24600 33.04300
H  15.95200 -1.96600 33.80600
H  15.18900 -0.43100 33.45200
H  15.70700 -1.43600 35.99200
H  15.38000 0.22200 35.34800
H  20.55500 -6.34900 29.59700
H  20.63800 -5.10900 30.78100
H  21.76700 -4.94300 29.53500
H  21.06300 -6.81100 27.60600
H  22.51400 -5.79800 27.02300
H  21.69200 -6.92500 25.99400
H  17.32800 -1.92600 23.61700
H  17.76400 1.12400 24.04600
H  19.86500 -0.24700 23.85300
H  18.98000 -0.71800 22.35100
H  19.75800 -1.97000 23.39100
H  14.86500 0.72900 23.81500
H  15.50400 -0.29600 22.59300
H  15.07300 2.47100 22.56900
H  15.55800 1.40900 21.25600
H  16.84600 2.09300 22.29500
H  13.74900 3.50800 26.53500
H  14.43100 4.56800 27.63000
H  12.96200 3.49600 28.12600
H  14.77300 1.66800 32.63400
H  17.11100 3.83800 35.57900
H  16.38800 5.26900 34.69600
H  17.89200 4.55800 34.15800
Mg 36.05600 1.77800 29.56700
C  33.84800 2.92500 32.05000
C  38.48400 1.62600 32.00600
C  38.19500 1.20600 27.17800
C  33.49300 2.46200 27.23400
N  36.12300 2.42900 31.71500
C  35.14100 2.69900 32.55100
C  35.52200 2.75000 34.02000
C  37.10200 2.73700 33.92900
C  37.24400 2.15300 32.49300
C  37.76600 4.16700 34.05600
C  34.75400 1.58000 34.73600
C  34.21200 1.83000 36.03800
H  34.79500 2.98100 36.82200
N  37.98300 1.27400 29.59700
C  38.74100 1.19800 30.68900
C  39.94900 0.57000 30.38000
C  39.94000 0.42000 28.91500
C  38.68800 1.03700 28.49400
C  40.92700 -0.01900 31.41600
C  40.82900 -0.30400 27.96500
O  40.64700 -0.57500 26.77200
C  42.10700 -0.80800 28.41500
N  35.87200 2.02700 27.52800
C  36.90400 1.57500 26.66100
C  36.50800 1.69400 25.16000
C  34.92400 1.73900 25.27400
C  34.74400 2.11800 26.74700
C  37.12400 2.97500 24.53500
C  34.32900 0.34200 24.99800
C  33.37700 0.18100 23.86200
N  34.02900 2.46400 29.57600
C  33.12900 2.68600 28.53500
C  31.88700 3.19900 29.11000
C  32.15700 3.28900 30.49600
C  33.48300 2.83300 30.69100
C  30.53400 3.38200 28.43300
C  31.51700 3.65200 31.67100
O  30.37000 4.02300 31.88400
C  32.61900 3.49500 32.82600
C  32.84900 4.73900 33.52100
O  33.67600 5.54700 33.20200
O  31.96500 4.80100 34.61300
C  32.14300 5.87800 35.62200
H  39.30700 1.53900 32.71800
H  38.97200 0.90300 26.47300
H  32.63400 2.59900 26.57400
H  35.37100 3.74600 34.43700
H  37.57200 2.14000 34.71100
H  38.71800 3.96100 33.56700
H  37.81100 4.55300 35.07500
H  37.21900 4.98200 33.58200
H  35.25300 0.63600 34.95300
H  33.94500 1.17700 34.12700
H  34.34300 0.97800 36.70400
H  33.13700 2.00500 36.00100
H  40.87500 -1.10600 31.48500
H  40.80800 0.40400 32.41300
H  41.93000 0.32600 31.16600
H  42.62000 -1.39100 27.65000
H  41.93800 -1.46900 29.26500
H  42.75300 0.00700 28.74200
H  36.78200 0.77100 24.64900
H  34.41500 2.50300 24.68600
H  36.26900 3.54400 24.16800
H  37.73700 2.57900 23.72500
H  37.81400 3.51000 25.18700
H  33.72300 0.07600 25.86300
H  35.15700 -0.33500 24.78800
H  32.40500 -0.23400 24.12800
H  33.86800 -0.50000 23.16700
H  33.19600 1.18000 23.46500
H  30.36800 4.46000 28.43600
H  29.79200 2.85200 29.03000
H  30.52000 2.99500 27.41400
H  32.08100 2.86400 33.53300
H  31.36600 6.63800 35.53500
H  33.05800 6.46700 35.68600
H  32.03400 5.47800 36.63000

