158

Mg 0.57500 7.72100 25.53300
C  1.30700 9.76200 28.29800
C  0.51600 5.09000 27.62200
C  0.27900 5.76300 22.71100
C  1.16600 10.59000 23.42200
N  0.97300 7.47300 27.61200
C  1.17600 8.42100 28.60300
C  1.18900 7.84700 30.05300
C  1.07100 6.32000 29.82400
C  0.74300 6.29200 28.25100
C  2.36700 5.37400 30.18400
C  0.07900 8.32800 30.98000
C  0.43200 8.46300 32.44500
H  1.70300 7.62200 32.83900
N  0.35200 5.69900 25.20300
C  0.42400 4.76500 26.24300
C  0.34300 3.43200 25.62100
C  0.19900 3.65000 24.16400
C  0.34200 5.06800 23.99900
C  0.27400 2.15900 26.44500
C  0.05700 2.54700 23.09800
O  0.08200 2.82800 21.89700
C  -0.06900 1.12900 23.48700
N  0.84800 8.04700 23.41100
C  0.47300 7.12700 22.50400
C  0.27800 7.71600 21.09600
C  0.33600 9.29400 21.44000
C  0.83100 9.38200 22.83100
C  1.29200 7.26400 20.06000
C  -1.04200 10.03100 21.49100
C  -1.16500 11.24100 20.59800
N  1.12700 9.73700 25.76700
C  1.25100 10.80700 24.85200
C  1.48900 12.04800 25.51300
C  1.40200 11.69800 26.84100
C  1.24400 10.29700 27.00100
C  1.80100 13.28600 24.90000
C  1.63300 12.28800 28.18900
O  1.87000 13.43800 28.53300
C  1.40300 11.07700 29.17400
C  2.66200 11.08400 30.03800
O  3.83400 10.94700 29.60400
O  2.31700 11.36500 31.38000
C  3.42200 11.19000 32.24400
H  0.29700 4.22800 28.25600
H  0.08200 5.25700 21.76400
H  1.20900 11.51100 22.83800
H  2.17900 8.11800 30.41900
H  0.25400 5.81700 30.34200
H  2.10400 4.58200 30.88600
H  3.12300 6.06600 30.55400
H  2.83400 4.86500 29.34200
H  -0.78600 7.68300 30.83000
H  -0.06900 9.33500 30.59000
H  -0.38900 8.33500 33.15000
H  0.81400 9.48400 32.48300
H  0.96700 1.37000 26.15300
H  -0.77400 1.86500 26.38400
H  0.60400 2.27100 27.47800
H  -0.21500 0.52300 22.59300
H  -0.94200 1.16200 24.13800
H  0.81400 0.70700 23.96800
H  -0.72000 7.51900 20.70500
H  1.00600 9.84800 20.78200
H  1.69800 6.26700 20.22600
H  2.15400 7.91100 19.89400
H  0.75900 7.24000 19.11000
H  -1.38000 10.19500 22.51400
H  -1.81700 9.30600 21.24500
H  -0.25300 11.47400 20.04800
H  -1.38900 12.09700 21.23500
H  -1.97100 11.13300 19.87300
H  1.37100 13.53200 23.92900
H  2.86800 13.31900 24.67900
H  1.44500 14.04400 25.59800
H  0.53300 11.37300 29.76100
H  3.93800 10.24500 32.07600
H  3.04100 11.13200 33.26300
H  4.21300 11.91000 32.03200
Mg 24.27200 -6.59100 46.18000
C  26.72900 -4.32000 45.04400
C  22.03500 -5.10500 43.96100
C  22.20200 -9.35900 46.44700
C  26.69900 -8.23400 47.87300
N  24.44600 -5.03400 44.64400
C  25.51400 -4.12300 44.47300
C  25.10600 -3.02100 43.47400
C  23.54300 -3.12000 43.52400
C  23.32200 -4.53200 44.07800
C  22.90500 -2.01600 44.45500
C  25.77400 -3.37300 42.08700
C  26.27500 -2.22800 41.13300
H  25.53100 -2.11000 39.73700
N  22.34000 -7.13800 45.42700
C  21.54500 -6.29800 44.62400
C  20.20200 -6.77900 44.57500
C  20.23000 -8.06400 45.21800
C  21.65600 -8.27200 45.72500
C  19.11100 -6.10800 43.70500
C  19.04200 -9.06700 45.15500
O  17.95600 -8.68400 44.70800
C  19.19400 -10.46700 45.57600
N  24.48900 -8.55700 46.83300
C  23.48600 -9.49200 46.89900
C  24.02000 -10.77300 47.62500
C  25.25400 -10.23100 48.44500
C  25.53000 -8.96000 47.62500
C  23.09900 -11.61200 48.50100
C  26.40600 -11.28600 48.52500
C  26.69900 -11.83700 49.88100
N  26.36100 -6.32200 46.59100
C  27.16000 -7.07600 47.26800
C  28.52900 -6.49600 47.29800
C  28.37800 -5.36100 46.43600
C  27.05000 -5.36100 46.02800
C  29.70200 -7.12300 47.91800
C  29.07500 -4.24200 45.77800
O  30.19700 -3.82400 45.80900
C  28.04000 -3.57300 44.79400
C  27.99100 -2.10300 44.91100
O  28.51900 -1.33000 44.10700
O  27.37300 -1.71800 46.09300
C  27.22600 -0.29100 46.22400
H  21.34500 -4.49800 43.36900
H  21.48800 -10.16500 46.62700
H  27.42800 -8.73900 48.51000
H  25.38300 -1.99700 43.72200
H  23.08700 -2.92900 42.55300
H  23.70100 -1.44500 44.93300
H  22.52300 -2.45600 45.37600
H  22.35700 -1.28400 43.86100
H  25.04100 -4.03100 41.62200
H  26.62400 -4.02200 42.30000
H  27.34100 -2.28900 40.91500
H  25.97100 -1.35300 41.70800
H  18.80400 -5.12900 44.07400
H  18.18200 -6.60200 43.42100
H  19.52100 -5.83100 42.73300
H  19.39400 -10.70800 46.62000
H  20.00000 -10.82300 44.93400
H  18.31100 -10.99400 45.21400
H  24.40300 -11.40200 46.82100
H  24.95500 -9.80100 49.40100
H  22.39800 -10.86800 48.87900
H  23.55200 -12.15400 49.33100
H  22.45300 -12.25200 47.90000
H  27.36300 -10.79500 48.34700
H  26.24500 -12.07700 47.79200
H  25.78900 -12.06200 50.43700
H  27.44700 -11.19600 50.34600
H  27.08800 -12.84300 49.72700
H  29.80200 -8.10700 47.46000
H  29.68100 -7.22600 49.00300
H  30.56300 -6.48300 47.72800
H  28.29100 -3.73000 43.74500
H  26.37800 0.06100 45.63700
H  28.09900 0.31200 45.97400
H  26.91900 0.00600 47.22700

