158

Mg 6.90800 52.59100 42.12800
C  6.50100 49.04400 41.74300
C  10.26400 52.18200 41.02800
C  7.08100 55.82300 41.84900
C  3.52700 52.75200 42.75000
N  8.22700 50.81500 41.46800
C  7.80300 49.46500 41.34600
C  9.04000 48.59900 40.93100
C  10.25400 49.64600 41.12700
C  9.55800 50.99000 41.22100
C  11.33600 49.32500 42.22500
C  8.99400 47.86900 39.56700
C  8.82800 48.73400 38.25300
H  7.95100 48.17300 37.12700
N  8.50800 53.85000 41.58300
C  9.78100 53.55000 41.16800
C  10.55100 54.73200 41.02800
C  9.61200 55.84200 41.28400
C  8.31000 55.20500 41.52000
C  12.06600 54.65200 40.74300
C  10.02100 57.28200 41.12900
O  11.22000 57.56200 40.93200
C  9.03800 58.37700 41.42900
N  5.49100 54.06100 42.13700
C  5.83300 55.31900 42.22900
C  4.73200 56.22300 42.62600
C  3.56400 55.32300 43.05600
C  4.17900 53.94100 42.61000
C  5.03600 57.22400 43.79400
C  2.14900 55.60100 42.46600
C  2.01300 55.21000 40.98200
N  5.32900 51.23500 42.17600
C  4.01700 51.48600 42.48000
C  3.39400 50.23300 42.77100
C  4.31700 49.25000 42.37300
C  5.47400 49.89100 42.02600
C  1.94900 50.11800 43.28800
C  4.50200 47.84700 42.18300
O  3.76900 46.86700 42.30100
C  5.92200 47.68900 41.65800
C  5.71300 47.13300 40.29000
O  5.40400 47.72800 39.24300
O  6.09500 45.88700 40.37700
C  5.93900 44.98800 39.34500
H  11.32100 52.00900 40.81400
H  7.02400 56.90100 41.68400
H  2.47800 52.75600 43.05200
H  9.07700 47.84900 41.72200
H  10.86600 49.68800 40.22600
H  11.09600 48.48000 42.87100
H  11.59600 50.15900 42.87700
H  12.30500 49.05500 41.80300
H  8.32100 47.01700 39.46400
H  10.01600 47.49200 39.53100
H  9.85100 48.87100 37.90300
H  8.46700 49.73000 38.50900
H  12.55000 55.61100 40.92600
H  12.22800 54.41200 39.69200
H  12.51300 53.94000 41.43700
H  8.22300 58.28300 40.71100
H  9.61800 59.29300 41.32100
H  8.74800 58.14400 42.45400
H  4.49100 56.86700 41.78000
H  3.47800 55.16000 44.13000
H  4.14300 57.81200 44.00800
H  5.76100 57.91300 43.36100
H  5.37700 56.81900 44.74700
H  1.91700 56.66400 42.53300
H  1.49800 55.10100 43.18400
H  0.97900 55.40900 40.70200
H  2.14900 54.13400 40.87500
H  2.70100 55.75800 40.33800
H  1.77300 49.24000 43.91000
H  1.33800 50.06800 42.38600
H  1.67600 50.92400 43.96900
H  6.30800 46.91700 42.32400
H  6.88500 44.51100 39.08600
H  5.50200 45.42900 38.44900
H  5.34100 44.17700 39.76200
Mg 9.94000 47.42300 26.76800
C  7.90100 47.47900 29.62100
C  12.33100 49.08900 28.41500
C  11.66300 47.17400 23.97000
C  6.96800 46.61900 24.86400
N  9.99500 48.27400 28.75200
C  9.21300 48.04700 29.82600
C  9.84600 48.44000 31.20400
C  11.05300 49.30100 30.61800
C  11.18900 48.81200 29.18500
C  10.84800 50.83400 30.80300
C  10.30900 47.17200 31.94800
C  9.86300 47.09100 33.38800
H  9.87300 45.81900 34.15300
N  11.77700 47.96900 26.31600
C  12.70300 48.67600 27.12100
C  13.95900 48.68800 26.45200
C  13.81600 47.94000 25.25000
C  12.34300 47.72600 25.13200
C  15.26700 49.12100 27.09100
C  14.81800 47.51900 24.17300
O  14.54600 47.02900 23.08700
C  16.24100 47.78200 24.45600
N  9.32700 47.17100 24.68700
C  10.29200 46.94100 23.77500
C  9.73100 46.44100 22.48900
C  8.17500 46.34200 22.64900
C  8.09600 46.72900 24.20100
C  10.07300 47.28600 21.20200
C  7.63000 44.98200 22.35200
C  6.11400 44.88800 21.90800
N  7.80900 47.14800 27.08300
C  6.76800 46.76500 26.27200
C  5.55900 46.60300 27.03700
C  6.00900 46.71100 28.42400
C  7.34800 47.17800 28.37500
C  4.21900 46.22200 26.47300
C  5.55100 46.64500 29.77800
O  4.42800 46.39600 30.23100
C  6.83200 47.04000 30.64100
C  7.14100 45.81600 31.48200
O  7.99700 44.99700 31.17100
O  6.36100 45.76000 32.62900
C  6.47800 44.64800 33.49900
H  13.03100 49.72200 28.96400
H  12.23700 47.09100 23.04400
H  6.06600 46.45200 24.27300
H  9.18700 49.02400 31.84600
H  12.00700 49.09500 31.10400
H  10.13700 51.20600 31.54100
H  10.66300 51.29700 29.83300
H  11.81300 51.18000 31.17200
H  11.39900 47.20800 31.92300
H  10.04900 46.27600 31.38500
H  8.80600 47.28500 33.20400
H  10.23200 47.97000 33.91600
H  15.69000 48.18000 27.44200
H  14.95500 49.77700 27.90400
H  16.03500 49.68400 26.56100
H  16.78900 47.66000 23.52200
H  16.56900 47.14900 25.28000
H  16.40300 48.81700 24.75700
H  10.16700 45.44600 22.40500
H  7.70400 47.14200 22.07700
H  10.81000 48.02300 21.52100
H  9.23400 47.82000 20.75400
H  10.59700 46.69700 20.44900
H  7.78800 44.43800 23.28300
H  8.31100 44.51200 21.64300
H  5.59500 44.47800 22.77500
H  5.98800 44.18800 21.08300
H  5.59000 45.80800 21.64700
H  3.63300 47.09400 26.18300
H  3.66500 45.77700 27.30000
H  4.36100 45.59900 25.59000
H  6.60800 47.76900 31.42000
H  7.43700 44.13300 33.43800
H  5.72100 43.87400 33.37500
H  6.45000 45.15400 34.46300

