158

Mg 0.76200 -1.18000 44.13400
C  4.11500 -0.04400 43.76900
C  -0.26000 1.51800 42.33000
C  -2.28500 -2.58700 44.06700
C  2.05900 -4.28700 45.23700
N  1.81300 0.52800 43.05800
C  3.15900 0.83000 43.14700
C  3.45900 2.17000 42.48000
C  2.05000 2.76500 42.28100
C  1.11700 1.54600 42.50800
C  1.61200 4.03600 43.07800
C  4.28500 2.00100 41.11500
C  5.58100 2.75600 41.08600
H  6.70700 2.13600 40.30000
N  -1.03900 -0.54500 43.47200
C  -1.30500 0.64400 42.77000
C  -2.72800 0.64500 42.39300
C  -3.38200 -0.47700 42.95500
C  -2.28300 -1.28900 43.49100
C  -3.33500 1.95700 41.73500
C  -4.82300 -0.72900 43.01900
O  -5.62100 0.03400 42.46000
C  -5.45600 -1.77600 43.88600
N  0.06700 -3.09600 44.53400
C  -1.26000 -3.32800 44.56800
C  -1.55300 -4.74600 45.13800
C  -0.17600 -5.38900 45.27600
C  0.72600 -4.16200 45.00400
C  -2.31200 -4.67400 46.47800
C  0.16600 -6.55200 44.41900
C  0.58000 -7.75600 45.26800
N  2.61400 -2.01300 44.36800
C  2.96400 -3.25300 44.95500
C  4.46700 -3.26300 45.11700
C  4.86700 -1.98600 44.65900
C  3.75300 -1.27000 44.21900
C  5.33200 -4.37700 45.67000
C  6.09100 -1.18300 44.46700
O  7.22500 -1.60800 44.60500
C  5.65300 0.17000 43.98000
C  5.82900 1.19900 44.95900
O  5.35100 1.35000 46.12000
O  6.78600 2.05600 44.44600
C  7.32200 3.09000 45.33500
H  -0.58800 2.50500 41.99500
H  -3.24000 -3.08200 44.25400
H  2.44500 -5.29000 45.43100
H  4.02200 2.71300 43.24000
H  1.83800 3.03500 41.24600
H  0.99500 3.78400 43.94000
H  0.98400 4.60000 42.38800
H  2.43200 4.64100 43.46500
H  3.77800 2.54200 40.31600
H  4.44600 0.97200 40.79300
H  5.99000 2.83200 42.09300
H  5.50000 3.77500 40.70800
H  -3.54900 1.64500 40.71300
H  -2.64400 2.79000 41.60700
H  -4.29400 2.23500 42.17200
H  -5.27000 -2.76000 43.45400
H  -6.51200 -1.50800 43.93000
H  -4.93800 -1.76400 44.84500
H  -2.12200 -5.28800 44.38200
H  -0.01200 -5.54100 46.34200
H  -3.30100 -5.09500 46.29400
H  -2.45600 -3.65700 46.84300
H  -1.75100 -5.25000 47.21400
H  0.98600 -6.39400 43.71900
H  -0.65600 -6.92000 43.80500
H  1.41200 -7.47800 45.91500
H  0.93000 -8.56600 44.62900
H  -0.32800 -7.94900 45.84000
H  5.07100 -5.40200 45.40800
H  5.39800 -4.35300 46.75800
H  6.34100 -4.40400 45.25800
H  6.09500 0.48600 43.03600
H  8.03700 2.61000 46.00400
H  6.59400 3.74500 45.81300
H  7.89500 3.72400 44.65800
Mg 29.05000 58.68500 39.88000
C  26.52000 56.49200 38.95800
C  31.41400 56.51600 38.71700
C  31.53300 61.21600 40.18900
C  26.56100 61.14500 40.43600
N  28.94100 56.81500 38.73000
C  27.78800 56.05100 38.65000
C  28.15300 54.63200 38.07300
C  29.70500 54.62900 38.05100
C  30.05900 56.08000 38.55000
C  30.31400 53.46500 38.85200
C  27.45100 54.12600 36.75900
C  26.91100 55.21800 35.75400
H  27.72800 55.33500 34.48700
N  31.21500 58.85500 39.58700
C  31.97200 57.74200 39.14300
C  33.38600 58.12400 39.06100
C  33.44500 59.54100 39.35600
C  32.04400 59.98700 39.77900
C  34.50600 57.27600 38.48400
C  34.67900 60.48900 39.08400
O  35.64000 60.03900 38.46400
C  34.69700 61.94300 39.52000
N  29.04700 60.82000 40.21500
C  30.16800 61.54900 40.43700
C  29.82900 63.01100 40.72200
C  28.25000 63.01100 40.78200
C  27.87700 61.57800 40.47200
C  30.53100 63.52800 42.04900
C  27.66900 63.88800 39.61400
C  28.05500 65.33700 39.43200
N  26.92100 58.76700 39.90000
C  26.06500 59.80100 40.09000
C  24.74200 59.33000 39.96900
C  24.84200 57.99000 39.58600
C  26.23200 57.73400 39.49700
C  23.47200 60.13700 40.15700
C  24.08200 56.83500 39.24300
O  22.90300 56.57000 39.18200
C  25.18700 55.74800 38.89900
C  25.05500 54.46400 39.64000
O  25.71800 54.22600 40.63700
O  24.19300 53.65700 39.04100
C  24.05600 52.32600 39.65400
H  32.08200 55.74600 38.32600
H  32.33600 61.95500 40.21700
H  25.80800 61.92200 40.58100
H  27.78400 53.91800 38.81000
H  30.05400 54.54200 37.02200
H  29.66600 52.70700 39.29000
H  30.92900 53.91800 39.62900
H  30.82300 52.80700 38.14700
H  26.67000 53.37000 36.84400
H  28.20500 53.65600 36.12700
H  26.97400 56.23000 36.15300
H  25.91500 54.98200 35.37900
H  34.80300 57.55600 37.47400
H  34.16900 56.24000 38.46400
H  35.34600 57.17600 39.17100
H  34.39500 62.08200 40.55800
H  33.93200 62.44600 38.93000
H  35.60200 62.48800 39.25200
H  30.05200 63.66300 39.87700
H  27.86200 63.26500 41.76900
H  31.34600 62.87200 42.35700
H  29.89600 63.26500 42.89500
H  31.01000 64.49100 41.87100
H  26.58900 63.90000 39.76500
H  27.78700 63.44500 38.62500
H  29.03500 65.45500 39.89400
H  27.32700 66.02300 39.86400
H  28.24500 65.62600 38.39900
H  22.90700 59.70600 40.98300
H  23.03700 59.77400 39.22600
H  23.73100 61.19600 40.15800
H  25.04400 55.46300 37.85700
H  23.31000 51.73400 39.12300
H  23.62500 52.40100 40.65200
H  25.04500 51.89400 39.50200

