158

Mg 1.04100 8.52200 27.44000
C  1.47500 11.09600 29.83400
C  1.43500 6.23300 29.80000
C  0.45800 6.16900 25.09500
C  0.86700 11.11700 25.03800
N  1.43000 8.68100 29.47900
C  1.34900 9.76100 30.27000
C  1.03600 9.40800 31.76700
C  1.46400 7.92000 31.76800
C  1.38600 7.57000 30.22300
C  2.79800 7.59400 32.42100
C  -0.47200 9.54200 32.13200
C  -0.72300 9.43200 33.74700
H  0.34400 8.85600 34.70600
N  0.89100 6.49400 27.45500
C  1.14100 5.66600 28.51500
C  0.90600 4.32800 28.25400
C  0.67100 4.25100 26.87400
C  0.61800 5.67700 26.40000
C  1.04900 3.21100 29.30000
C  0.49700 2.99500 25.94100
O  0.43900 3.09400 24.75100
C  0.78700 1.65500 26.50200
N  0.57100 8.64200 25.31200
C  0.52100 7.45800 24.57000
C  0.37800 7.86400 23.10600
C  0.05300 9.42100 23.14700
C  0.49600 9.81600 24.58000
C  1.75900 7.58200 22.42000
C  -1.54300 9.67900 22.92800
C  -2.01900 10.19400 21.57500
N  1.23500 10.61100 27.35100
C  1.22800 11.52300 26.36200
C  1.53900 12.85000 26.79100
C  1.67100 12.74600 28.15600
C  1.43500 11.36200 28.47500
C  1.51600 14.14800 26.00100
C  1.87800 13.46400 29.46000
O  2.15400 14.63100 29.74400
C  1.73400 12.36200 30.54800
C  2.77600 12.53900 31.59600
O  3.98200 12.29800 31.51100
O  2.19800 12.74700 32.80300
C  2.93100 12.64600 34.05000
H  1.47700 5.45300 30.56300
H  0.37300 5.42100 24.30400
H  0.72100 11.76800 24.17300
H  1.78800 9.93900 32.35000
H  0.76700 7.27100 32.30000
H  3.26100 6.98500 31.64500
H  2.69300 6.90900 33.26300
H  3.33500 8.53400 32.54800
H  -1.01000 8.75400 31.60500
H  -0.75700 10.53400 31.78200
H  -1.56500 8.74200 33.79900
H  -1.08400 10.41700 34.04100
H  2.03500 2.74700 29.29300
H  0.30300 2.44400 29.09300
H  0.74000 3.54500 30.29000
H  -0.14200 1.10300 26.64500
H  1.46000 1.61600 27.35800
H  1.36800 1.25100 25.67300
H  -0.26100 7.19800 22.52600
H  0.73100 9.87100 22.42200
H  1.62800 7.18800 21.41200
H  2.18400 6.74200 22.97000
H  2.44500 8.42100 22.30800
H  -1.72300 10.46000 23.66700
H  -2.04100 8.76700 23.25800
H  -1.28000 9.81000 20.87100
H  -2.22100 11.26000 21.47200
H  -2.87900 9.63400 21.20800
H  0.61400 14.22300 25.39400
H  2.30100 14.33800 25.26900
H  1.50100 15.03400 26.63600
H  0.85000 12.54100 31.16000
H  3.97600 12.90900 33.89000
H  2.99000 11.60500 34.36700
H  2.51200 13.23800 34.86300
Mg 41.61500 40.97200 27.03900
C  40.76500 43.22000 29.46100
C  42.12200 38.53000 29.34600
C  42.24100 38.72200 24.54000
C  41.19200 43.37400 24.61700
N  41.48800 40.89900 29.09000
C  41.09200 41.96100 29.90300
C  41.13000 41.57900 31.39100
C  41.58300 40.08900 31.35500
C  41.75700 39.82500 29.82000
C  42.97900 39.70800 32.11900
C  39.75300 41.84200 32.08800
C  39.63900 42.88700 33.27300
H  39.06800 42.40900 34.63100
N  42.15800 38.94500 26.95300
C  42.37400 38.08500 28.00200
C  42.74400 36.73600 27.56100
C  42.71500 36.75800 26.17800
C  42.31900 38.17900 25.79500
C  43.19800 35.60100 28.53000
C  43.06600 35.70800 25.18200
O  42.93500 35.88400 23.96400
C  43.61200 34.37500 25.65900
N  41.84400 41.08500 24.89600
C  42.07100 40.07500 24.11500
C  42.17700 40.48700 22.59100
C  41.75600 41.97300 22.70600
C  41.55200 42.13300 24.16700
C  43.59700 40.36100 21.90700
C  40.44200 42.21600 21.88900
C  39.01700 41.94900 22.54200
N  41.06800 42.98200 26.99700
C  40.96000 43.85700 25.92700
C  40.58800 45.16200 26.38400
C  40.44700 44.96700 27.79900
C  40.78800 43.64600 28.08700
C  40.44000 46.36100 25.60700
C  40.18400 45.57000 29.05700
O  39.88300 46.78200 29.29900
C  40.40800 44.50500 30.15400
C  41.38400 44.96800 31.10700
O  42.57100 44.65100 31.10100
O  40.72500 45.84400 31.98000
C  41.49500 46.26200 33.13800
H  42.21400 37.70800 30.05800
H  42.24600 38.06500 23.66800
H  41.10000 44.16600 23.87000
H  41.94800 42.13000 31.85400
H  40.76300 39.45800 31.69800
H  42.72900 38.82300 32.70400
H  43.27000 40.50200 32.80600
H  43.82200 39.34400 31.53300
H  39.32700 40.91500 32.47400
H  38.95100 42.03100 31.37500
H  39.09800 43.70300 32.79300
H  40.65500 43.27600 33.34900
H  44.28500 35.66300 28.57900
H  42.80600 34.64000 28.19700
H  42.71000 35.62600 29.50400
H  42.80700 33.72100 25.99300
H  44.41300 34.46200 26.39300
H  43.99500 33.85900 24.77800
H  41.44500 39.86200 22.08000
H  42.50100 42.67500 22.33300
H  44.36100 39.89900 22.53200
H  43.96900 41.33900 21.60200
H  43.46400 39.70400 21.04700
H  40.55200 41.59700 20.99900
H  40.40100 43.27500 21.63400
H  38.33600 41.51700 21.80800
H  38.64600 42.89100 22.94600
H  39.22600 41.14500 23.24800
H  39.43200 46.77000 25.68200
H  40.90400 46.32400 24.62200
H  41.15100 47.06800 26.03500
H  39.46400 44.41300 30.69100
H  42.46900 46.69300 32.90400
H  41.54100 45.40900 33.81600
H  40.94400 47.05200 33.64700

