158

Mg 35.86400 0.77700 29.93100
C  33.33800 1.69400 32.19800
C  38.20400 1.26000 32.42000
C  38.25500 0.70200 27.51200
C  33.37900 1.16400 27.28300
N  35.82600 1.24500 32.06000
C  34.62700 1.57100 32.75500
C  34.92800 1.72400 34.24900
C  36.49300 1.94700 34.25200
C  36.92100 1.50800 32.84600
C  36.79200 3.48900 34.46800
C  34.32500 0.47200 35.00200
C  33.94100 0.41100 36.47400
H  34.83200 1.42200 37.29500
N  37.92000 0.68000 29.97500
C  38.65800 0.86300 31.12500
C  39.98700 0.36200 30.74700
C  40.09800 0.33300 29.36200
C  38.69500 0.57700 28.87900
C  41.15400 0.33300 31.75100
C  41.25500 0.12400 28.42100
O  41.21900 0.23100 27.16900
C  42.60800 -0.13000 28.92600
N  35.79500 0.89200 27.76400
C  36.95800 0.91100 26.99800
C  36.68700 0.77400 25.51700
C  35.11000 0.86200 25.40600
C  34.71300 0.87600 26.91400
C  37.47200 1.67700 24.49300
C  34.28900 -0.07900 24.49500
C  33.15900 0.63800 23.75100
N  33.76600 1.27800 29.68600
C  32.89300 1.37000 28.60200
C  31.56200 1.60200 29.02000
C  31.72700 1.75300 30.39200
C  33.08800 1.55300 30.76700
C  30.37400 1.79000 28.21000
C  30.98100 2.04100 31.65500
O  29.79900 2.18400 31.81400
C  32.02700 2.11000 32.86700
C  32.05400 3.46100 33.46200
O  32.35000 4.47000 32.83000
O  31.55500 3.50500 34.72100
C  31.49700 4.76700 35.35700
H  38.97100 1.34000 33.19300
H  39.02600 0.52200 26.76000
H  32.59300 1.10500 26.52700
H  34.36700 2.58400 34.61600
H  36.92300 1.32600 35.03800
H  37.41500 3.53400 35.36200
H  35.90800 4.07000 34.73200
H  37.38200 3.91700 33.65800
H  35.12700 -0.26500 35.05100
H  33.47500 -0.01200 34.52200
H  34.00600 -0.61900 36.82300
H  32.91000 0.76000 36.52000
H  42.03600 0.82400 31.34100
H  41.52200 -0.66000 32.01000
H  40.94100 0.89900 32.65800
H  43.35000 -0.47700 28.20700
H  42.52700 -0.85700 29.73500
H  43.00200 0.82400 29.27400
H  36.98600 -0.25900 25.33600
H  34.86000 1.89300 25.15700
H  38.12400 2.30400 25.10100
H  36.79200 2.26700 23.87900
H  37.94200 0.91100 23.87600
H  33.86500 -0.91300 25.05300
H  34.95900 -0.41900 23.70500
H  33.56600 1.30300 22.98900
H  32.47100 1.24300 24.34200
H  32.62300 -0.16300 23.24100
H  30.61900 2.20600 27.23300
H  29.73700 2.57300 28.62100
H  29.80300 0.89100 27.97600
H  31.78000 1.38000 33.63700
H  32.28400 4.68700 36.10600
H  30.55100 4.82500 35.89600
H  31.56700 5.54900 34.60100
Mg 47.37100 34.56200 27.12100
C  45.81800 32.84600 29.79800
C  47.58400 37.27300 29.34300
C  48.59100 36.42400 24.55100
C  46.83900 31.96300 25.03300
N  47.07300 34.96000 29.44500
C  46.38000 34.08600 30.25000
C  46.34500 34.55900 31.72900
C  46.49400 36.13400 31.49600
C  47.14500 36.15800 30.01200
C  45.25500 37.04900 31.66800
C  47.59300 33.92600 32.56500
C  47.34900 33.35100 33.87000
H  48.13800 34.04900 34.97800
N  48.12300 36.56100 27.02600
C  48.10500 37.48700 28.04200
C  48.66700 38.72800 27.49100
C  48.95100 38.54600 26.15200
C  48.60800 37.14000 25.81800
C  49.10300 39.90700 28.44500
C  49.56000 39.56100 25.22600
O  50.05200 39.27800 24.11600
C  49.91000 41.03200 25.76300
N  47.67300 34.27800 25.07400
C  48.13600 35.15000 24.17800
C  48.15000 34.69500 22.72400
C  47.62000 33.20700 22.97900
C  47.41800 33.10300 24.49300
C  47.15700 35.60000 21.90500
C  48.57400 32.16400 22.43600
C  49.65500 31.72000 23.39100
N  46.52600 32.77800 27.31300
C  46.41200 31.81400 26.35300
C  45.68500 30.67300 26.95200
C  45.40800 31.05500 28.30000
C  46.01400 32.33300 28.44900
C  45.34200 29.39000 26.29300
C  44.68900 30.66500 29.49600
O  44.12900 29.56600 29.74700
C  44.78200 31.92600 30.45200
C  45.13000 31.28600 31.74900
O  46.18800 30.87600 32.12400
O  43.98900 31.27500 32.42700
C  44.07900 30.57900 33.75000
H  47.60200 38.17800 29.95500
H  49.09800 37.00300 23.77600
H  46.66100 31.02900 24.49500
H  45.43100 34.30200 32.26500
H  47.26900 36.60600 32.10000
H  45.20000 37.70600 32.53600
H  44.37200 36.41200 31.61400
H  45.23600 37.73100 30.81800
H  48.36200 34.69800 32.57400
H  47.98600 33.15600 31.90000
H  47.67500 32.31600 33.96600
H  46.28200 33.36600 34.09400
H  49.25000 39.58400 29.47600
H  48.50000 40.80100 28.28800
H  50.11600 40.16200 28.13600
H  49.02500 41.48000 26.21500
H  50.22900 41.52500 24.84400
H  50.75800 41.05500 26.44700
H  49.14700 34.75500 22.28800
H  46.59600 33.12600 22.61500
H  46.86800 36.42000 22.56200
H  46.31300 35.07400 21.46100
H  47.78800 36.11500 21.18000
H  49.00000 32.58900 21.52700
H  48.00900 31.26900 22.17400
H  50.52600 31.54200 22.76100
H  49.44500 30.79600 23.92900
H  49.90400 32.58100 24.01300
H  44.75600 28.68700 26.88500
H  46.22100 28.87200 25.90700
H  44.69900 29.59300 25.43700
H  43.83300 32.46100 30.43500
H  44.51900 29.59800 33.57100
H  43.11300 30.56300 34.25700
H  44.73000 31.10900 34.44500

