158

Mg 48.31000 15.80600 28.75600
C  46.42900 15.14000 31.67300
C  50.37700 17.65400 30.59400
C  50.08000 16.37700 25.91200
C  45.94000 14.10200 26.90900
N  48.34800 16.39300 30.85600
C  47.56200 15.87000 31.94400
C  48.14800 16.28800 33.26700
C  49.25400 17.32600 32.97800
C  49.36500 17.18300 31.40000
C  49.03800 18.77100 33.43000
C  48.42000 15.08200 34.25100
C  48.21000 15.40900 35.72000
H  47.89000 16.76100 36.31000
N  50.01700 16.83100 28.31200
C  50.74000 17.54400 29.18300
C  51.91900 18.16000 28.52200
C  51.96700 17.65000 27.19200
C  50.68100 16.84000 27.08200
C  52.94000 18.98900 29.21800
C  52.85500 17.92600 26.04000
O  52.58700 17.47400 24.89900
C  53.93600 18.96900 26.14600
N  47.95500 15.39000 26.71600
C  48.85300 15.70900 25.79300
C  48.41000 15.20100 24.42400
C  47.40100 14.07400 24.83600
C  46.99500 14.57200 26.21800
C  47.80100 16.21900 23.47200
C  48.05600 12.58500 25.04700
C  47.82000 11.58700 23.86400
N  46.55500 14.91400 29.11400
C  45.69700 14.17800 28.29800
C  44.56700 13.68300 29.09300
C  44.80800 14.08100 30.40500
C  46.06500 14.73400 30.40500
C  43.34500 13.04500 28.62800
C  44.34200 13.96500 31.76700
O  43.35600 13.41700 32.28000
C  45.34100 14.63600 32.65000
C  44.64600 15.85600 33.13300
O  44.31600 16.84200 32.50900
O  44.61600 15.74000 34.55700
C  43.94500 16.83900 35.23700
H  51.07100 18.26700 31.17300
H  50.57300 16.58100 24.95900
H  45.18000 13.60100 26.30600
H  47.26500 16.82600 33.61100
H  50.19100 17.05200 33.46300
H  48.03700 19.08800 33.72300
H  49.19400 19.41900 32.56700
H  49.78200 19.10100 34.15500
H  49.46700 14.85400 34.05000
H  47.91500 14.18000 33.90400
H  49.14400 15.05100 36.15100
H  47.38800 14.71900 35.91100
H  53.87000 18.44800 29.39300
H  52.51900 19.43100 30.12100
H  53.19400 19.87100 28.63100
H  53.55100 19.98700 26.09700
H  54.61800 18.79800 25.31300
H  54.62700 18.76700 26.96500
H  49.19300 14.63000 23.92500
H  46.50300 14.00600 24.22200
H  47.65300 15.76100 22.49400
H  48.44200 17.10000 23.42500
H  46.84700 16.56700 23.86800
H  47.71000 12.07800 25.94900
H  49.14500 12.61700 25.07800
H  48.00100 12.02000 22.88000
H  46.84400 11.11400 23.97500
H  48.50300 10.73900 23.90800
H  43.10600 13.51200 27.67200
H  42.54400 13.24300 29.34000
H  43.42000 11.97000 28.46600
H  45.64200 13.98500 33.47000
H  42.86100 16.81500 35.11800
H  44.19700 17.87700 35.02200
H  44.08300 16.67400 36.30600
Mg 26.49600 49.54800 25.80200
C  24.51900 51.00800 28.27900
C  28.80200 48.60000 28.19500
C  28.72800 48.41200 23.38800
C  24.31300 50.66900 23.45100
N  26.56000 49.75900 27.94300
C  25.64000 50.32800 28.82100
C  26.00800 50.25400 30.37300
C  27.44400 49.69400 30.14000
C  27.61900 49.28800 28.65700
C  28.52700 50.62000 30.70600
C  25.07000 49.22700 31.07100
C  24.39100 49.63300 32.37700
H  25.28900 50.09400 33.58100
N  28.45200 48.55800 25.75200
C  29.24900 48.38200 26.86900
C  30.51700 47.85400 26.45600
C  30.51200 47.78100 25.02800
C  29.18000 48.25600 24.67200
C  31.66900 47.47300 27.47600
C  31.60400 47.35100 24.00600
O  31.54200 47.50000 22.80800
C  32.87400 46.80200 24.55600
N  26.59300 49.65300 23.65200
C  27.58300 49.02900 22.90800
C  27.16600 48.88200 21.45400
C  25.62100 49.53300 21.46500
C  25.45100 49.93200 22.95000
C  28.10200 49.51900 20.43200
C  24.54000 48.62900 20.94900
C  24.13900 47.58000 21.92700
N  24.81100 50.71000 25.77600
C  23.96400 51.12700 24.75800
C  22.84500 51.83700 25.26800
C  23.05100 51.87600 26.66800
C  24.21400 51.16000 26.94500
C  21.72600 52.42800 24.49100
C  22.49800 52.28700 27.98200
O  21.46000 52.92100 28.27000
C  23.49400 51.71000 29.08900
C  23.85300 53.05200 29.80500
O  24.15500 54.08500 29.24200
O  23.69000 52.82300 31.13300
C  23.81400 54.07200 31.87400
H  29.43900 48.21400 28.99300
H  29.23400 48.03400 22.49700
H  23.68600 51.01400 22.62600
H  26.02700 51.19200 30.92800
H  27.63700 48.71900 30.58900
H  28.44200 51.61200 30.26300
H  29.49100 50.17700 30.45700
H  28.43500 50.51200 31.78700
H  25.60500 48.30900 31.31000
H  24.23200 48.96000 30.42700
H  23.58400 48.99900 32.74300
H  23.86600 50.52600 32.03800
H  32.61300 47.91500 27.15900
H  31.94600 46.42800 27.33800
H  31.56800 47.63300 28.54900
H  33.48300 46.28400 23.81500
H  32.69700 46.01400 25.28800
H  33.51900 47.59800 24.92900
H  26.98600 47.83100 21.22800
H  25.62400 50.44500 20.86900
H  29.04800 49.77400 20.91100
H  27.66600 50.33800 19.86000
H  28.42300 48.71100 19.77500
H  24.66000 48.29000 19.92000
H  23.64000 49.23700 20.86900
H  24.96000 47.48000 22.63700
H  23.88200 46.65000 21.42000
H  23.23000 47.97200 22.38500
H  21.69600 51.92500 23.52500
H  21.99600 53.45600 24.24900
H  20.73400 52.34200 24.93500
H  22.86900 51.03300 29.67100
H  24.44000 54.90400 31.55000
H  24.39800 53.75700 32.73900
H  22.90300 54.43900 32.34700

