158

Mg 47.45700 16.69200 28.48000
C  45.52800 16.47400 31.53600
C  49.94000 18.18400 30.25000
C  48.95600 17.09600 25.61800
C  44.60600 15.44700 26.89000
N  47.60700 17.26600 30.62800
C  46.77400 17.08500 31.70700
C  47.43100 17.64800 33.02000
C  48.58900 18.49300 32.40600
C  48.70500 17.95200 31.00400
C  48.41900 20.02500 32.54800
C  47.84000 16.54400 34.02900
C  47.24600 16.70300 35.50300
H  47.00900 18.21000 35.92100
N  49.26500 17.29900 28.00400
C  50.20400 17.80800 28.86900
C  51.47400 17.88300 28.17200
C  51.21400 17.63900 26.81000
C  49.75900 17.26600 26.80600
C  52.82300 18.11800 28.88100
C  52.16400 17.60900 25.56100
O  51.74600 17.34100 24.42600
C  53.60300 18.02800 25.75900
N  46.87100 16.30600 26.59600
C  47.63800 16.69700 25.52500
C  46.91400 16.50200 24.19800
C  45.61400 15.72200 24.59900
C  45.70400 15.80000 26.10300
C  46.62200 17.91400 23.59400
C  45.62700 14.21700 24.02200
C  44.44300 13.86400 23.13200
N  45.48100 15.95000 29.03500
C  44.47900 15.48100 28.28500
C  43.38300 14.99300 29.07900
C  43.84500 15.32400 30.37800
C  45.07900 15.96300 30.25300
C  42.07200 14.41000 28.61500
C  43.43600 15.32100 31.75200
O  42.34400 14.87700 32.18500
C  44.52800 16.07600 32.58400
C  43.82500 17.17200 33.32600
O  43.56000 18.28600 32.84500
O  43.59000 16.84800 34.65800
C  42.83800 17.75600 35.56400
H  50.83400 18.60800 30.71200
H  49.39100 17.26800 24.63200
H  43.71000 15.13400 26.35100
H  46.72800 18.33600 33.49000
H  49.51500 18.26100 32.93300
H  47.40100 20.28500 32.84000
H  48.56100 20.52600 31.59100
H  49.12200 20.42100 33.28100
H  48.92400 16.45200 34.09000
H  47.38700 15.61900 33.67100
H  47.85300 16.27000 36.29800
H  46.32500 16.12600 35.59800
H  53.49500 17.36000 28.47900
H  52.70300 17.77600 29.90900
H  53.13800 19.15900 28.80100
H  53.52500 18.96900 26.30400
H  54.00700 18.23500 24.76800
H  54.28200 17.42200 26.35700
H  47.61600 15.93400 23.58800
H  44.73200 16.23100 24.21000
H  47.02400 17.98100 22.58300
H  47.28800 18.66100 24.02700
H  45.60300 18.30000 23.56600
H  45.61700 13.58800 24.91200
H  46.53000 14.09800 23.42300
H  44.76100 13.32200 22.24200
H  44.02200 14.80400 22.77300
H  43.81600 13.19600 23.72200
H  42.29300 13.35700 28.44000
H  41.74600 14.88100 27.68700
H  41.34900 14.45700 29.43000
H  44.91700 15.43600 33.37600
H  42.85100 17.34900 36.57500
H  41.93100 18.11000 35.07400
H  43.36400 18.70700 35.65200
Mg 42.18300 41.27600 26.36900
C  41.32700 43.69200 28.67200
C  43.43800 39.33800 28.81000
C  43.08200 39.14500 23.94400
C  41.44700 43.67300 23.73400
N  42.17100 41.50600 28.55800
C  41.79400 42.52400 29.35700
C  41.89500 42.26500 30.89700
C  42.68100 40.92300 30.79300
C  42.86100 40.57900 29.27800
C  43.98600 40.66800 31.63700
C  40.53400 42.20500 31.63000
C  40.28900 43.03900 32.86900
H  39.41600 42.52700 33.93400
N  43.02600 39.47800 26.39800
C  43.53600 38.87100 27.49000
C  44.04200 37.62500 27.09600
C  43.60000 37.41000 25.74300
C  43.21700 38.72500 25.32200
C  44.76600 36.73800 28.09300
C  43.65200 36.10000 24.99000
O  43.24500 36.04300 23.82400
C  44.08600 34.83800 25.63800
N  42.36100 41.46000 24.05700
C  42.71500 40.34700 23.31600
C  42.64800 40.62800 21.85400
C  42.24300 42.10400 21.80800
C  41.86700 42.41400 23.33300
C  43.88700 40.12300 21.00800
C  41.04900 42.47100 20.88600
C  41.08800 43.84700 20.05000
N  41.58400 43.18700 26.16000
C  41.30000 44.03600 25.07600
C  40.78200 45.28400 25.53400
C  40.79700 45.25300 26.90300
C  41.31000 43.91100 27.27000
C  40.41700 46.38700 24.54800
C  40.53800 45.98400 28.13000
O  40.19200 47.15400 28.30800
C  40.77100 44.90800 29.25900
C  41.54700 45.51600 30.41900
O  42.78300 45.64500 30.56500
O  40.58800 45.80000 31.32900
C  41.09100 46.34600 32.65600
H  43.65200 38.61200 29.59800
H  43.39800 38.38300 23.22800
H  41.25000 44.45000 22.99300
H  42.43400 42.99900 31.49600
H  42.02500 40.11900 31.12500
H  44.00000 39.89300 32.40400
H  44.29700 41.65600 31.97700
H  44.79100 40.29900 31.00000
H  40.26800 41.19700 31.94900
H  39.73600 42.49300 30.94500
H  39.74100 43.90400 32.49400
H  41.27800 43.34400 33.21000
H  45.07400 37.46100 28.84800
H  45.61900 36.23000 27.64400
H  44.16800 35.93100 28.51700
H  45.15600 34.85900 25.84400
H  43.72400 33.94300 25.13100
H  43.57700 34.79100 26.60100
H  41.84200 39.98700 21.49600
H  43.06700 42.76400 21.53700
H  44.45200 40.97300 20.62400
H  43.57200 39.45600 20.20600
H  44.55200 39.59000 21.68700
H  40.18000 42.50900 21.54400
H  40.96800 41.69500 20.12500
H  40.25500 44.47600 20.36500
H  41.03300 43.62200 18.98500
H  42.01700 44.39700 20.20000
H  39.77200 45.98600 23.76600
H  41.38800 46.73900 24.19900
H  39.83000 47.18800 24.99600
H  39.79000 44.52700 29.54500
H  41.55500 47.32700 32.56100
H  41.82600 45.79000 33.23700
H  40.25300 46.39900 33.35100

