158

Mg -3.04000 16.97500 26.73900
C  -3.66700 14.84800 29.44900
C  -3.57900 19.57000 29.02700
C  -3.42700 19.08300 24.22000
C  -3.41800 14.23200 24.61100
N  -3.68200 17.17300 29.05300
C  -3.64000 16.16800 29.97900
C  -3.68900 16.70400 31.41800
C  -3.88100 18.22700 31.18300
C  -3.69400 18.34400 29.68600
C  -5.18000 18.94300 31.76100
C  -2.65200 16.15700 32.44500
C  -2.24800 17.05700 33.53800
H  -1.83600 16.34300 34.87000
N  -3.08100 19.02000 26.68900
C  -3.32000 19.94000 27.71500
C  -3.23400 21.26500 27.09000
C  -3.19000 21.14200 25.72400
C  -3.22500 19.68300 25.46100
C  -3.27200 22.56300 27.98600
C  -3.21800 22.21700 24.70500
O  -3.19900 22.00300 23.54700
C  -3.15700 23.63600 25.04000
N  -3.53400 16.69500 24.77600
C  -3.55100 17.72400 23.90500
C  -3.60400 17.20600 22.42600
C  -3.34000 15.71100 22.59100
C  -3.47600 15.51100 24.12100
C  -4.93600 17.63600 21.65200
C  -1.95800 15.33600 21.87500
C  -0.69100 15.32700 22.72000
N  -3.29200 14.93800 26.94400
C  -3.44600 13.94200 25.99400
C  -3.67700 12.69500 26.67200
C  -3.78800 12.98800 28.06500
C  -3.58700 14.31500 28.11700
C  -3.96400 11.35000 26.09200
C  -4.08500 12.47000 29.37000
O  -4.38000 11.39500 29.89200
C  -4.00500 13.67500 30.34200
C  -2.92100 13.27900 31.27600
O  -1.76400 13.41700 30.98900
O  -3.45300 12.78500 32.39500
C  -2.47200 12.44400 33.47500
H  -3.62600 20.38300 29.75400
H  -3.53900 19.75200 23.36400
H  -3.29000 13.35300 23.97600
H  -4.63900 16.39500 31.85400
H  -3.05100 18.72200 31.68800
H  -4.81300 19.69000 32.46500
H  -5.81300 18.24900 32.31500
H  -5.77900 19.41200 30.98000
H  -1.72000 16.06100 31.88600
H  -3.11200 15.24300 32.82100
H  -3.13400 17.64400 33.77600
H  -1.37600 17.68900 33.37000
H  -3.50800 22.42500 29.04100
H  -4.11900 23.14800 27.62800
H  -2.33800 23.12600 27.99400
H  -3.96700 23.87000 25.73100
H  -3.21000 24.30200 24.17800
H  -2.20600 23.76200 25.55600
H  -2.80500 17.67300 21.85000
H  -4.06200 15.15900 21.99100
H  -5.55400 16.75200 21.80900
H  -4.84800 17.79000 20.57700
H  -5.51700 18.44900 22.08800
H  -1.66300 15.93800 21.01600
H  -2.05200 14.30000 21.54900
H  -0.65100 16.05600 23.52900
H  0.22500 15.53700 22.16800
H  -0.59700 14.28200 23.01500
H  -4.24100 10.71300 26.93200
H  -3.20300 10.87500 25.47200
H  -4.89500 11.55000 25.56100
H  -4.94000 13.90000 30.85300
H  -2.90700 11.75500 34.19900
H  -2.30400 13.33500 34.08000
H  -1.49100 12.03000 33.24200
Mg 7.41500 3.47700 27.05700
C  9.16400 2.07500 29.82900
C  5.31200 5.08400 29.20800
C  5.70100 4.61200 24.37200
C  9.00500 1.19800 25.01100
N  7.26900 3.52600 29.23800
C  8.16200 3.00600 30.19000
C  7.80900 3.58400 31.54800
C  6.50100 4.35400 31.31300
C  6.31700 4.31700 29.82600
C  5.17900 3.92700 32.08300
C  9.08200 4.36900 32.10900
C  8.88200 5.13200 33.42900
H  9.70800 4.66400 34.66900
N  5.75500 4.81500 26.85300
C  4.99100 5.36600 27.80200
C  3.92900 6.15800 27.25300
C  4.16100 6.17700 25.82900
C  5.23300 5.13000 25.64800
C  3.09200 7.10700 28.13500
C  3.47800 6.93100 24.80300
O  3.83500 6.76700 23.66500
C  2.38900 7.88500 25.07000
N  7.32200 2.97700 25.02300
C  6.65900 3.72400 24.08000
C  6.94900 3.18900 22.65200
C  8.18000 2.21600 22.84000
C  8.11400 2.06100 24.37700
C  5.75900 2.53800 21.90100
C  9.51900 2.85300 22.30800
C  9.79700 2.28700 20.89700
N  8.86700 1.95400 27.37200
C  9.36500 1.12000 26.45600
C  10.31900 0.23100 27.03000
C  10.32600 0.62800 28.42600
C  9.41000 1.68600 28.53200
C  10.93300 -0.97100 26.43200
C  10.84100 0.37100 29.73600
O  11.67100 -0.48100 30.08900
C  10.13300 1.30600 30.73600
C  9.54000 0.57000 31.95100
O  8.62300 -0.22700 31.92500
O  10.20000 1.00100 33.10900
C  9.81000 0.33600 34.45200
H  4.68100 5.59500 29.93800
H  5.29600 4.99400 23.43300
H  9.49300 0.47800 24.35000
H  7.62000 2.76100 32.23700
H  6.67100 5.39900 31.57100
H  5.44000 3.17500 32.82800
H  4.44500 3.62900 31.33400
H  4.80900 4.80600 32.61000
H  9.37000 5.02800 31.29100
H  9.93400 3.71100 32.27800
H  7.90600 5.08200 33.91100
H  9.17400 6.16600 33.24400
H  3.68200 7.37000 29.01300
H  2.24700 6.49300 28.44800
H  2.76600 7.99600 27.59500
H  2.05700 8.24200 24.09500
H  2.96300 8.68500 25.53600
H  1.56100 7.48900 25.65900
H  7.19700 4.08900 22.09000
H  8.09800 1.21600 22.41600
H  4.88100 2.81600 22.48400
H  5.86400 1.45300 21.88600
H  5.57700 2.98600 20.92400
H  10.31900 2.60800 23.00700
H  9.48700 3.94200 22.27300
H  9.63900 2.91800 20.02200
H  9.12900 1.46000 20.65700
H  10.81100 1.88900 20.85600
H  11.39600 -1.45300 27.29200
H  11.71200 -0.60100 25.76500
H  10.25000 -1.59600 25.85600
H  10.84700 2.05100 31.08700
H  8.97300 -0.35000 34.32200
H  9.48800 1.11600 35.14200
H  10.67800 -0.11800 34.93000

