158

Mg 17.27900 -1.21300 27.75300
C  16.40300 0.92000 30.40700
C  19.09400 -3.07700 29.98500
C  18.67200 -2.78900 25.09800
C  15.87400 1.15600 25.50000
N  17.67500 -1.00800 29.98000
C  17.15800 -0.07900 30.86600
C  17.48300 -0.46300 32.27900
C  18.53400 -1.64300 32.08900
C  18.46900 -1.95100 30.58000
C  19.96900 -1.24200 32.55500
C  16.27200 -0.77900 33.13000
C  16.35000 -0.13000 34.54900
H  17.81500 0.07800 35.12200
N  18.57700 -2.72100 27.61200
C  19.14700 -3.40400 28.61200
C  19.70800 -4.56100 28.10000
C  19.59600 -4.46000 26.69700
C  18.93400 -3.30000 26.39800
C  20.26300 -5.64800 28.94600
C  20.07400 -5.55200 25.69600
O  19.95300 -5.42300 24.51500
C  20.92800 -6.70900 26.08900
N  17.09300 -0.90300 25.51900
C  17.94600 -1.60800 24.76600
C  17.88600 -1.07100 23.33900
C  16.67700 -0.07400 23.40300
C  16.64200 0.18900 24.91000
C  19.19500 -0.34000 23.03600
C  15.27000 -0.68700 22.84100
C  14.88700 -0.43400 21.32700
N  16.14400 0.55700 27.89000
C  15.61300 1.36000 26.88900
C  14.84800 2.38500 27.46100
C  15.16300 2.33600 28.87200
C  15.95000 1.20300 29.04900
C  13.89700 3.36400 26.87100
C  14.99300 2.99100 30.17800
O  14.32300 3.95800 30.53300
C  15.77400 2.04000 31.20900
C  16.87500 2.86900 31.87400
O  18.03800 2.96200 31.50900
O  16.30900 3.58000 32.87300
C  17.01500 4.45600 33.71800
H  19.61600 -3.64500 30.75800
H  19.32700 -3.17200 24.31200
H  15.46900 1.94900 24.86800
H  18.01500 0.44900 32.55100
H  18.34500 -2.53000 32.69400
H  19.90800 -0.23600 32.97000
H  20.64800 -1.17000 31.70500
H  20.36700 -1.91100 33.31700
H  15.92000 -1.81100 33.12700
H  15.45000 -0.23200 32.66900
H  15.86700 -0.75700 35.29900
H  15.80800 0.81600 34.54400
H  19.89300 -5.63900 29.97100
H  21.32300 -5.39400 28.94600
H  20.08400 -6.68300 28.65500
H  20.43500 -7.53000 26.60900
H  21.78200 -6.44300 26.71100
H  21.29900 -7.20400 25.19100
H  17.79300 -1.96400 22.72000
H  16.97300 0.80000 22.82300
H  19.20200 0.73000 23.24300
H  19.38400 -0.34300 21.96200
H  20.01600 -0.70800 23.65100
H  14.48100 -0.25000 23.45300
H  15.05900 -1.73500 23.05400
H  15.37600 0.49000 21.01900
H  13.82900 -0.30700 21.09700
H  15.26800 -1.26300 20.73000
H  13.32600 3.91200 27.61900
H  13.24300 2.86100 26.15800
H  14.58400 4.07000 26.40500
H  15.07200 1.69300 31.96700
H  16.63100 5.47500 33.67300
H  18.08600 4.29600 33.59400
H  16.79200 4.24400 34.76300
Mg 47.84100 15.72100 28.58900
C  45.77600 15.68700 31.59500
C  49.95500 17.83400 30.42900
C  49.61400 16.19700 25.86300
C  45.22000 14.10600 26.93300
N  47.77700 16.72100 30.73500
C  46.99900 16.32300 31.82900
C  47.50000 16.85200 33.13900
C  48.60900 17.91400 32.68300
C  48.83700 17.48100 31.20300
C  48.40400 19.40100 33.12500
C  47.92200 15.61400 34.04000
C  48.02400 15.74400 35.56900
H  47.78300 17.14100 36.14400
N  49.55200 16.80100 28.14600
C  50.31200 17.55400 29.08800
C  51.50600 17.93200 28.44100
C  51.42200 17.49800 27.04600
C  50.16000 16.81700 26.96900
C  52.67900 18.68600 29.06700
C  52.43000 17.63100 25.85400
O  52.15000 17.31100 24.70700
C  53.87600 18.15300 26.02900
N  47.51500 15.15400 26.55800
C  48.33300 15.50600 25.58800
C  47.86100 14.89500 24.25500
C  46.60700 14.04400 24.72900
C  46.39500 14.43100 26.17600
C  47.64400 15.97000 23.22500
C  46.78900 12.46600 24.68700
C  48.00400 11.83100 25.43900
N  45.88800 14.99300 29.10900
C  44.93000 14.39400 28.31600
C  43.69200 14.04700 29.05400
C  44.00700 14.53000 30.37400
C  45.32800 15.10900 30.37400
C  42.46700 13.28700 28.49200
C  43.53700 14.57600 31.70400
O  42.46000 14.14500 32.17600
C  44.61400 15.34700 32.52100
C  44.09600 16.55800 33.05100
O  44.17100 17.70500 32.58800
O  43.40000 16.20700 34.21500
C  42.30600 17.00000 34.69600
H  50.71400 18.42200 30.94900
H  50.10500 16.28300 24.89100
H  44.38300 13.63000 26.41700
H  46.68000 17.33400 33.67100
H  49.56800 17.60300 33.09700
H  48.43300 20.04700 32.24800
H  49.25700 19.61500 33.77000
H  47.46900 19.58500 33.65500
H  48.89400 15.40900 33.59000
H  47.33400 14.77400 33.67100
H  49.06200 15.45400 35.73100
H  47.30400 15.06400 36.02300
H  53.61700 18.13100 29.06800
H  52.40200 18.94300 30.08900
H  52.65600 19.66000 28.57900
H  54.32000 18.38600 25.06200
H  54.46200 17.55300 26.72500
H  53.80700 19.11900 26.52900
H  48.62100 14.20000 23.89900
H  45.76500 14.37200 24.12000
H  47.88300 16.99200 23.51700
H  46.60500 15.93900 22.89900
H  48.23900 15.72500 22.34500
H  46.89600 12.18800 23.63900
H  45.82400 12.06000 24.99200
H  48.59500 11.09100 24.90000
H  47.72100 11.45300 26.42200
H  48.80400 12.55100 25.61100
H  42.44300 13.15700 27.41000
H  41.54500 13.79000 28.78400
H  42.38800 12.29500 28.93800
H  44.87000 14.74700 33.39400
H  41.41100 16.38500 34.59700
H  42.08600 17.88100 34.09300
H  42.37300 17.45400 35.68400

