158

Mg 51.15200 44.78900 42.27000
C  47.92100 45.17800 40.86100
C  51.01400 41.37800 41.21900
C  54.31800 44.57000 42.80500
C  51.40300 48.35900 42.47500
N  49.57100 43.44500 41.16600
C  48.36300 43.85200 40.67500
C  47.60300 42.68800 40.03400
C  48.61200 41.43900 40.19300
C  49.80600 42.10600 40.94100
C  48.07800 40.08000 40.92600
C  47.29000 42.93000 38.50700
C  45.81400 42.77000 38.10700
H  45.55000 41.92200 36.81200
N  52.53400 43.17700 42.10800
C  52.26400 41.86600 41.63200
C  53.56900 41.18700 41.62300
C  54.57000 42.02500 42.18800
C  53.81800 43.32500 42.45500
C  53.56900 39.80800 41.02900
C  56.02800 41.72700 42.28500
O  56.43200 40.61100 42.01000
C  56.96100 42.71200 42.95500
N  52.59900 46.32400 42.65000
C  53.91000 45.89400 42.75700
C  54.81000 47.14900 43.15000
C  53.88200 48.33900 42.80200
C  52.55000 47.65300 42.65500
C  55.41900 47.21000 44.59400
C  54.34600 49.11500 41.48100
C  54.73400 50.56800 41.53100
N  49.97500 46.41800 41.90700
C  50.17500 47.76800 42.10700
C  48.95700 48.45500 41.69200
C  48.07100 47.47800 41.17300
C  48.71200 46.25000 41.35700
C  48.75800 49.83800 41.64000
C  46.76200 47.30800 40.66300
O  45.91600 48.14800 40.39800
C  46.53500 45.80600 40.40900
C  45.29100 45.29500 41.17000
O  44.58300 44.35200 40.88900
O  45.05300 46.00500 42.27000
C  43.87200 45.64200 43.09600
H  50.81900 40.37800 40.82700
H  55.39500 44.68900 42.94500
H  51.56100 49.43300 42.35500
H  46.68100 42.56900 40.60400
H  49.01300 41.07800 39.24600
H  48.56500 40.05900 41.90100
H  48.29100 39.16700 40.37000
H  47.04400 40.18800 41.25400
H  48.00500 42.46100 37.83100
H  47.46900 43.97000 38.23500
H  45.49000 43.76900 37.81500
H  45.19600 42.32600 38.88800
H  54.51200 39.78500 40.48300
H  52.77100 39.61100 40.31300
H  53.62600 39.03500 41.79500
H  56.52400 42.97900 43.91800
H  57.02600 43.57100 42.28700
H  58.01500 42.43800 42.96700
H  55.66400 47.08200 42.47600
H  53.86800 49.00500 43.66500
H  54.98300 46.45700 45.25000
H  55.27100 48.19400 45.04000
H  56.49500 47.07200 44.48900
H  53.54500 49.11000 40.74200
H  55.20900 48.69400 40.96500
H  54.03500 51.10700 42.17000
H  54.57700 51.07900 40.58100
H  55.74100 50.75500 41.90300
H  49.26300 50.29800 42.49000
H  47.67700 49.97300 41.66300
H  49.17500 50.27800 40.73400
H  46.39000 45.66200 39.33900
H  44.03000 44.77500 43.73800
H  42.94300 45.58500 42.53000
H  43.80600 46.55900 43.68100
Mg 48.46500 34.98300 26.87500
C  46.27600 33.53900 29.38900
C  48.74600 37.71400 28.91400
C  49.67700 36.47500 24.21000
C  47.46900 32.25300 24.83200
N  47.69300 35.45900 28.91000
C  46.97600 34.68000 29.74100
C  46.94300 35.31300 31.18400
C  47.36000 36.85100 30.88800
C  47.93500 36.69200 29.46300
C  46.09900 37.79800 30.83800
C  47.89200 34.41900 32.03900
C  49.29500 34.91900 32.53900
H  49.58400 35.20600 34.00900
N  49.24400 36.74700 26.69100
C  49.36100 37.76700 27.63000
C  50.32000 38.73900 27.09800
C  50.49300 38.46000 25.67900
C  49.77800 37.16000 25.51200
C  50.83900 39.91000 27.86200
C  51.25900 39.32400 24.68200
O  51.34300 38.99400 23.53700
C  51.99500 40.53900 25.10100
N  48.55200 34.38700 24.77700
C  49.18000 35.24500 23.85800
C  49.27300 34.57600 22.48600
C  48.82900 33.11900 22.74300
C  48.25200 33.21600 24.22900
C  48.53300 35.24200 21.33200
C  49.95100 32.00300 22.69100
C  50.14800 31.46400 21.21300
N  47.17200 33.28300 27.01300
C  46.81900 32.35100 26.08500
C  45.86400 31.38000 26.57200
C  45.57400 31.81800 27.88400
C  46.37400 32.96800 28.13800
C  45.26000 30.23500 25.85600
C  44.76800 31.59600 29.08200
O  43.88000 30.74700 29.26500
C  45.11200 32.80800 30.05700
C  45.45600 32.26800 31.48100
O  46.30400 31.48800 31.88000
O  44.64600 32.98800 32.35300
C  44.78900 32.57600 33.77100
H  48.98800 38.54300 29.58200
H  50.17700 36.96400 23.37000
H  47.18800 31.44000 24.16000
H  45.91100 35.26600 31.53000
H  48.15300 37.23300 31.53100
H  46.00900 38.41400 31.73300
H  45.22900 37.15700 30.69600
H  46.25600 38.53300 30.04900
H  48.03400 33.49500 31.48000
H  47.34900 34.21900 32.96300
H  49.70400 35.80700 32.05800
H  50.04000 34.22100 32.15500
H  51.91800 39.82500 27.99400
H  50.47400 39.92800 28.88900
H  50.70400 40.85500 27.33700
H  51.30100 41.37400 25.19700
H  52.67300 40.86300 24.31200
H  52.60200 40.23900 25.95600
H  50.32400 34.48800 22.21000
H  47.99700 32.74800 22.14500
H  47.85100 34.57100 20.80900
H  49.19700 35.60600 20.54800
H  47.88500 36.01800 21.73800
H  49.64000 31.20000 23.35900
H  50.90500 32.38800 23.05200
H  51.16000 31.73000 20.90700
H  49.42600 31.91600 20.53400
H  50.02500 30.38700 21.09300
H  44.90000 30.45000 24.85000
H  44.40500 29.98500 26.48400
H  46.02300 29.45600 25.86900
H  44.24900 33.46800 30.14300
H  45.37600 33.28000 34.36100
H  45.18500 31.58000 33.97000
H  43.81500 32.62600 34.25900

