158

Mg 8.96800 3.02500 28.38500
C  10.58300 1.48700 31.11400
C  7.21900 4.94500 30.46000
C  7.55800 4.31900 25.60400
C  10.71500 0.75700 26.27900
N  8.79000 3.10900 30.57700
C  9.67400 2.51700 31.44400
C  9.36200 2.99500 32.90400
C  8.22800 4.03100 32.64700
C  8.03000 4.03500 31.12100
C  6.88700 3.89700 33.49800
C  10.65400 3.74000 33.48400
C  10.39600 4.57300 34.78800
H  11.33000 4.32900 36.02000
N  7.53600 4.42400 28.10400
C  6.93100 5.11800 29.08300
C  6.07500 6.13200 28.54700
C  6.08300 5.97600 27.10200
C  7.07900 4.84900 26.86200
C  5.22400 7.15400 29.37100
C  5.38600 6.75500 26.00800
O  5.42500 6.46800 24.83200
C  4.35500 7.77400 26.27900
N  9.02800 2.53000 26.31500
C  8.42300 3.26300 25.33000
C  8.89300 2.94000 23.85700
C  10.06900 2.09700 24.21700
C  9.95300 1.74000 25.68500
C  7.79200 2.31700 23.01200
C  11.50400 2.65800 23.95700
C  11.70600 4.17700 24.10800
N  10.34900 1.44300 28.53700
C  10.95100 0.58100 27.63400
C  11.89200 -0.39300 28.33900
C  11.71600 -0.01100 29.69400
C  10.89300 1.06800 29.73900
C  12.77400 -1.41500 27.72500
C  12.25700 -0.23800 31.02800
O  13.01700 -1.15500 31.40600
C  11.50600 0.67000 32.00400
C  10.73700 -0.12000 32.99200
O  9.78500 -0.91300 32.75200
O  11.23000 0.04100 34.30000
C  10.58400 -0.59200 35.44500
H  6.67900 5.63000 31.11600
H  7.14600 4.81500 24.72300
H  11.23100 0.12800 25.55100
H  9.02100 2.20400 33.57200
H  8.55300 5.07200 32.65400
H  6.18400 3.29400 32.92400
H  6.63300 4.90900 33.81400
H  7.05200 3.30600 34.39900
H  11.19300 4.32100 32.73700
H  11.31600 2.92800 33.78400
H  9.38600 4.32400 35.11400
H  10.51700 5.63600 34.58100
H  4.21900 6.73400 29.38500
H  5.08200 8.05600 28.77600
H  5.58500 7.23200 30.39700
H  3.82100 8.18800 25.42400
H  4.91900 8.63800 26.63100
H  3.58600 7.37000 26.93700
H  9.17800 3.85800 23.34200
H  9.98900 1.20500 23.59600
H  6.85100 2.40600 23.55400
H  7.95300 1.28900 22.68700
H  7.70700 3.04600 22.20500
H  11.74300 2.42300 22.92000
H  12.19900 2.25200 24.69100
H  12.63600 4.47400 24.59300
H  10.93400 4.64100 24.72200
H  11.57600 4.56400 23.09700
H  12.23100 -2.00800 26.98900
H  13.04400 -2.19600 28.43500
H  13.53600 -0.86900 27.16800
H  12.14600 1.26900 32.65200
H  9.99400 0.17600 35.94600
H  11.29600 -1.01300 36.15500
H  9.78600 -1.23700 35.07700
Mg 17.80400 -2.04200 28.04700
C  16.93600 -0.08500 30.83200
C  19.97600 -3.77300 29.94100
C  19.25900 -3.09700 25.25000
C  15.81200 0.26000 26.26800
N  18.31600 -1.87600 30.13400
C  17.87800 -1.06400 31.15600
C  18.31500 -1.54800 32.50500
C  19.36700 -2.62300 32.13700
C  19.19500 -2.87600 30.66200
C  20.84600 -2.33900 32.60200
C  17.00600 -2.10100 33.33300
C  17.06900 -1.71600 34.87200
H  18.49200 -1.92200 35.44000
N  19.29400 -3.44000 27.64200
C  20.03400 -4.04600 28.54000
C  20.75700 -5.08800 27.89900
C  20.52200 -5.05200 26.50100
C  19.70100 -3.79700 26.41400
C  21.63000 -6.11600 28.60500
C  20.89000 -5.97900 25.38400
O  20.60100 -5.68200 24.24900
C  21.76100 -7.16900 25.64400
N  17.56600 -1.51500 26.08500
C  18.35100 -2.00200 25.08100
C  17.87800 -1.45900 23.69200
C  16.70200 -0.53500 24.05100
C  16.68100 -0.63100 25.55400
C  18.95300 -0.64900 22.90600
C  15.35900 -0.92400 23.34700
C  14.56400 0.22200 22.79000
N  16.43800 -0.33500 28.42900
C  15.67700 0.44200 27.61700
C  14.87700 1.42900 28.33900
C  15.40300 1.35700 29.62800
C  16.27800 0.24900 29.62800
C  13.92500 2.37300 27.71100
C  15.36200 1.92000 30.97400
O  14.81400 2.90100 31.45900
C  16.44400 0.98000 31.78300
C  17.58000 1.90900 32.30500
O  18.62200 2.15500 31.79400
O  17.03500 2.49200 33.42700
C  17.88900 3.38900 34.15900
H  20.66200 -4.47400 30.42100
H  19.78300 -3.46900 24.36700
H  15.24500 0.95000 25.63800
H  18.85400 -0.71900 32.96400
H  19.16800 -3.54400 32.68500
H  20.86700 -1.86600 33.58400
H  21.44900 -1.76600 31.89900
H  21.41900 -3.24700 32.79100
H  16.88500 -3.14800 33.05300
H  16.14800 -1.56900 32.92400
H  16.41500 -2.33500 35.48600
H  16.71300 -0.70400 35.06500
H  22.53200 -6.41200 28.07000
H  21.07000 -7.04100 28.74700
H  21.98500 -5.67900 29.53800
H  22.71800 -6.85100 26.05800
H  21.83200 -7.57700 24.63600
H  21.28900 -7.87000 26.33100
H  17.53700 -2.32800 23.12900
H  16.82600 0.49600 23.71700
H  19.90100 -0.82600 23.41600
H  18.76000 0.41800 22.79900
H  19.07100 -1.13900 21.94000
H  14.73900 -1.31100 24.15600
H  15.50400 -1.75100 22.65100
H  14.96500 1.18900 23.09300
H  13.56000 0.24700 23.21300
H  14.40200 0.08100 21.72100
H  14.49200 3.26900 27.45500
H  13.12300 2.54400 28.42800
H  13.59900 1.85700 26.80700
H  15.86900 0.57500 32.61600
H  18.92600 3.35800 33.82400
H  17.80500 3.08300 35.20200
H  17.30400 4.28100 33.93500

