158

Mg 54.75200 23.75200 45.43100
C  52.29400 25.88700 44.26300
C  52.85400 21.04200 44.27700
C  57.46900 21.70900 45.73700
C  56.73600 26.59600 46.13300
N  52.81400 23.53700 44.36500
C  51.96800 24.53700 44.02200
C  50.67900 24.03200 43.41700
C  50.73800 22.49400 43.88200
C  52.22800 22.28900 44.22400
C  49.81300 22.16600 45.04300
C  50.53400 24.21700 41.93900
C  51.72100 24.19300 41.09100
H  52.49600 22.90300 40.71400
N  55.15200 21.61700 44.96900
C  54.21300 20.68400 44.57500
C  54.88500 19.44900 44.50600
C  56.21200 19.62300 44.89300
C  56.36900 21.08300 45.16500
C  54.16900 18.16300 44.02600
C  57.26700 18.54600 44.84800
O  57.02600 17.36600 44.61900
C  58.70600 18.90900 45.09600
N  56.83900 24.12300 45.68500
C  57.64800 23.09600 46.04600
C  58.99300 23.59700 46.58500
C  58.76500 25.19700 46.74900
C  57.37700 25.37300 46.10600
C  59.57100 22.87300 47.83800
C  59.81500 26.13900 46.21000
C  60.99500 26.62500 47.08700
N  54.64900 25.89900 45.24100
C  55.53200 26.91000 45.61600
C  54.81300 28.17800 45.50600
C  53.56300 27.81300 44.91400
C  53.50000 26.37700 44.80000
C  55.37900 29.46900 45.97100
C  52.34400 28.35400 44.40600
O  51.96600 29.55900 44.32400
C  51.46100 27.13300 43.97200
C  51.21800 27.38000 42.52700
O  51.94900 27.35500 41.55300
O  49.90500 27.60400 42.36400
C  49.39300 28.08500 41.05100
H  52.16800 20.32700 43.81800
H  58.25700 21.05300 46.11200
H  57.24200 27.43500 46.61600
H  49.84600 24.55800 43.88300
H  50.42100 21.85600 43.05700
H  48.87100 22.68300 44.85900
H  50.16200 22.38900 46.05100
H  49.57200 21.11100 44.91300
H  49.77100 24.95700 41.69800
H  49.93300 23.35900 41.63700
H  52.38400 24.87500 41.62400
H  51.56300 24.58900 40.08800
H  54.75100 17.68900 43.23600
H  53.14100 18.19200 43.66600
H  54.34800 17.54900 44.90800
H  59.01400 19.81700 44.57700
H  59.30500 18.09000 44.69600
H  58.75400 18.98800 46.18200
H  59.67400 23.30100 45.78700
H  58.61500 25.33100 47.82000
H  59.68600 23.41200 48.77900
H  60.55500 22.44100 47.65900
H  58.88700 22.04500 48.02900
H  59.21000 26.96200 45.82900
H  60.40200 25.63700 45.44000
H  60.66900 26.54200 48.12300
H  61.18200 27.64400 46.74500
H  61.84100 25.94400 46.98900
H  56.29200 29.71400 45.42800
H  55.64600 29.32800 47.01800
H  54.62600 30.24700 45.84300
H  50.53500 27.12100 44.54600
H  49.99100 28.92800 40.70600
H  48.40700 28.54800 41.09600
H  49.50400 27.26200 40.34500
Mg 27.03300 49.90100 26.79500
C  24.96900 50.97500 29.49300
C  29.56400 49.42700 29.09700
C  29.11300 49.37200 24.25200
C  24.52800 51.17500 24.62200
N  27.22300 50.19300 28.99800
C  26.23700 50.48500 29.82800
C  26.72000 50.37400 31.25800
C  28.21100 49.95200 31.20100
C  28.38300 49.82700 29.64600
C  29.26800 50.81800 31.96200
C  25.77500 49.49800 32.17000
C  25.28500 50.05200 33.51600
H  26.20000 49.91200 34.77000
N  28.99600 49.29600 26.68600
C  29.81800 49.08100 27.74300
C  31.05300 48.51700 27.24700
C  30.99700 48.53500 25.81000
C  29.65500 49.08100 25.50800
C  32.07700 47.84600 28.21000
C  32.05600 48.16600 24.78900
O  31.97500 48.16800 23.56000
C  33.36000 47.74600 25.27300
N  26.87500 50.33200 24.82300
C  27.89200 49.91200 23.94300
C  27.45000 50.21400 22.54000
C  25.94600 50.46300 22.65500
C  25.73000 50.74400 24.10900
C  28.26300 51.44000 22.04700
C  24.97700 49.42600 22.10400
C  25.32900 47.95200 22.44300
N  25.11000 50.81700 26.96300
C  24.26600 51.33600 26.01600
C  23.12200 51.94700 26.61500
C  23.31600 51.83100 27.97300
C  24.56300 51.22100 28.17100
C  21.94000 52.51500 25.96300
C  22.71600 52.15700 29.23900
O  21.64900 52.65100 29.56000
C  23.81900 51.69900 30.26300
C  24.31800 52.87300 31.03700
O  25.11900 53.77500 30.67600
O  23.57000 52.96300 32.17900
C  24.04000 53.96300 33.17000
H  30.44000 49.23100 29.71800
H  29.70100 48.93200 23.44400
H  23.72000 51.48800 23.95700
H  26.70100 51.41100 31.59500
H  28.38600 48.92400 31.51600
H  29.73800 51.41200 31.17800
H  29.91900 50.12600 32.49600
H  28.77100 51.41200 32.72900
H  26.21900 48.51200 32.30600
H  24.85400 49.40800 31.59400
H  24.29900 49.64300 33.73700
H  25.07600 51.11700 33.41100
H  32.34000 46.86000 27.82700
H  31.72400 47.91500 29.23900
H  33.00700 48.35200 27.94900
H  33.76000 48.58100 25.84900
H  34.02900 47.44200 24.46800
H  33.39400 46.80200 25.81600
H  27.82700 49.53600 21.77500
H  25.68400 51.38400 22.13400
H  29.09400 51.73000 22.69000
H  27.64200 52.33500 22.07100
H  28.78800 51.33400 21.09700
H  24.99800 49.59500 21.02800
H  23.98000 49.49700 22.53800
H  26.07100 47.75300 23.21600
H  25.74100 47.53500 21.52400
H  24.44800 47.36400 22.70000
H  21.87500 52.09500 24.96000
H  22.15600 53.58200 26.02100
H  21.04100 52.35900 26.55900
H  23.38700 50.99700 30.97500
H  24.98600 53.62400 33.59200
H  23.31400 53.86800 33.97700
H  24.02200 54.98800 32.80000

