158

Mg 54.23700 23.51800 44.21200
C  51.80900 26.13800 43.52900
C  51.94400 21.15200 43.15200
C  56.75900 21.42700 44.11200
C  56.48600 26.12600 45.16100
N  52.18100 23.67200 43.06900
C  51.40100 24.77100 43.03300
C  49.95200 24.35100 42.68700
C  50.00400 22.82800 43.09200
C  51.50900 22.49600 43.07500
C  49.28000 22.43500 44.42300
C  49.61900 24.68500 41.16800
C  50.54800 24.28700 40.00400
H  51.14300 25.40000 39.02800
N  54.35200 21.56000 43.69300
C  53.32400 20.71500 43.37600
C  53.80900 19.38500 43.27600
C  55.20500 19.44600 43.35700
C  55.52200 20.86800 43.74400
C  53.05600 18.13500 42.95800
C  56.17400 18.37800 43.12600
O  55.82900 17.19300 42.91000
C  57.69300 18.59600 42.87600
N  56.34400 23.80300 44.31800
C  57.08600 22.70600 44.49300
C  58.42500 22.93500 45.22800
C  58.41700 24.48800 45.39200
C  56.97700 24.83900 44.86200
C  58.58000 22.00000 46.49100
C  59.53800 25.22800 44.56100
C  60.59200 25.88700 45.52600
N  54.19400 25.71700 44.40500
C  55.14200 26.55200 44.84600
C  54.53500 27.83600 45.11400
C  53.25000 27.72500 44.60700
C  53.14900 26.44000 43.99500
C  55.12800 29.04000 45.77700
C  51.97300 28.43600 44.42200
O  51.69900 29.57800 44.78400
C  51.04500 27.48700 43.60800
C  50.80800 28.04800 42.30400
O  51.68100 28.59400 41.63500
O  49.43900 28.28600 42.15800
C  48.95500 28.82800 40.88000
H  51.19700 20.36400 43.03300
H  57.46800 20.65400 44.41300
H  57.18100 26.86300 45.56900
H  49.24600 24.93400 43.27800
H  49.52800 22.23900 42.30800
H  50.02100 22.14100 45.16800
H  48.48800 21.69500 44.31200
H  48.77100 23.30400 44.83900
H  49.56000 25.76800 41.06400
H  48.57700 24.39200 41.04200
H  49.85000 23.67600 39.43200
H  51.37900 23.69700 40.39100
H  52.00400 18.31200 43.18100
H  53.31800 17.34800 43.66600
H  53.18800 17.89500 41.90300
H  58.20200 18.56400 43.84000
H  57.89500 19.56000 42.41000
H  58.07000 17.81100 42.22000
H  59.12800 22.65400 44.44400
H  58.49500 24.73900 46.45000
H  57.58400 21.89900 46.92200
H  59.27200 22.46600 47.19100
H  58.97900 21.02700 46.20400
H  59.01100 26.01300 44.01900
H  59.99900 24.58100 43.81500
H  61.60600 25.55900 45.29600
H  60.34500 25.73200 46.57600
H  60.52700 26.96600 45.38500
H  56.01800 28.65300 46.27200
H  54.44100 29.40400 46.54100
H  55.36500 29.76500 44.99900
H  50.14800 27.47400 44.22800
H  49.12000 28.24200 39.97600
H  49.38500 29.80300 40.64700
H  47.87100 28.94000 40.90100
Mg 16.61200 52.59700 25.69600
C  18.44100 51.04600 28.25800
C  14.11800 53.11100 27.92500
C  14.82200 53.99000 23.14100
C  18.96200 51.41300 23.35200
N  16.38400 52.22400 27.83000
C  17.29200 51.74400 28.69200
C  16.83400 51.80400 30.14000
C  15.29700 52.15300 29.91400
C  15.25100 52.60200 28.50700
C  14.34500 50.94300 30.36700
C  17.55100 52.88500 30.95900
C  17.65700 52.75500 32.50500
H  16.78900 51.86100 33.29500
N  14.70700 53.53500 25.61600
C  13.86400 53.64800 26.63000
C  12.66000 54.31700 26.16900
C  12.75700 54.47500 24.77900
C  14.16400 54.06100 24.43800
C  11.52200 54.60800 27.03300
C  11.74600 54.94200 23.78400
O  12.05500 54.95100 22.60800
C  10.36200 55.44500 24.00900
N  16.84300 52.65900 23.60300
C  16.05900 53.42600 22.78200
C  16.67600 53.68400 21.36000
C  18.05200 53.00900 21.58200
C  17.92900 52.27100 22.91300
C  15.88000 53.26500 20.12200
C  19.27500 53.91700 21.52400
C  20.41900 53.56600 20.51700
N  18.30800 51.42800 25.67800
C  19.19100 51.03700 24.69300
C  20.22900 50.22100 25.26400
C  20.00500 50.15600 26.65300
C  18.84200 50.98100 26.87300
C  21.26500 49.64700 24.39700
C  20.46900 49.65000 27.91900
O  21.41900 48.89700 28.19400
C  19.45900 50.22600 28.99000
C  18.97500 49.07400 29.91600
O  18.41300 48.06900 29.59100
O  19.58000 49.15600 31.15400
C  19.47700 48.04200 32.13800
H  13.30700 53.28100 28.63600
H  14.23500 54.54600 22.40800
H  19.67800 51.11600 22.58200
H  16.90500 50.83100 30.62600
H  15.17700 53.05300 30.51800
H  13.69500 51.33600 31.14900
H  14.80700 50.07700 30.84000
H  13.69900 50.64400 29.54100
H  17.12600 53.85300 30.69400
H  18.57900 52.85000 30.59900
H  17.58500 53.73600 32.97400
H  18.70300 52.59700 32.76800
H  10.68800 53.90700 26.99300
H  11.10600 55.58000 26.77000
H  11.80600 54.76700 28.07300
H  9.82800 54.78600 24.69300
H  9.86800 55.41600 23.03800
H  10.37800 56.47900 24.35400
H  16.73900 54.75500 21.16800
H  18.19300 52.29200 20.77200
H  16.48500 53.00200 19.25400
H  15.11300 53.98200 19.82900
H  15.14800 52.49100 20.35300
H  19.80300 53.82200 22.47300
H  19.03500 54.92600 21.18800
H  20.49000 54.28600 19.70300
H  20.30700 52.62100 19.98500
H  21.37000 53.45900 21.04000
H  21.72600 50.42800 23.79100
H  20.67600 49.02500 23.72400
H  22.03500 49.09600 24.93700
H  20.10500 50.91400 29.53500
H  18.53700 47.49300 32.10300
H  19.79800 48.43000 33.10500
H  20.29400 47.41300 31.78300

