158

Mg 1.04200 7.69600 25.88500
C  1.84600 9.98600 28.52600
C  1.26300 5.14200 28.11800
C  0.21700 5.67700 23.41000
C  1.44500 10.39300 23.72700
N  1.34600 7.66300 28.11700
C  1.67900 8.64400 29.02900
C  1.75700 8.11800 30.46300
C  1.66300 6.57800 30.28100
C  1.39900 6.40400 28.73700
C  3.03500 5.87200 30.56200
C  0.65300 8.78800 31.31800
C  0.86300 8.70400 32.84400
H  2.12300 8.00800 33.39000
N  0.82300 5.65600 25.79800
C  0.84600 4.80000 26.84400
C  0.56500 3.46500 26.38800
C  0.29900 3.60200 24.94900
C  0.40500 5.05300 24.65400
C  0.68200 2.20700 27.33100
C  -0.08700 2.52700 23.93100
O  0.02100 2.64700 22.70300
C  -0.38500 1.21400 24.42300
N  1.07300 7.96500 23.80400
C  0.47900 7.02200 23.06900
C  0.47000 7.46300 21.54700
C  0.81300 8.99600 21.68600
C  1.04800 9.17100 23.16800
C  1.38500 6.56100 20.65000
C  -0.31400 9.97300 21.10700
C  -1.67500 9.97300 21.77900
N  1.43400 9.85500 26.04000
C  1.59300 10.75000 25.06000
C  1.82400 12.05100 25.63300
C  2.02300 11.79000 26.97100
C  1.73900 10.41400 27.19800
C  2.04500 13.35900 24.89100
C  2.39500 12.42200 28.22600
O  2.79200 13.54800 28.55700
C  2.24300 11.25000 29.29800
C  3.58400 10.99500 29.93600
O  4.52900 10.48700 29.38300
O  3.58400 11.40700 31.21700
C  4.87500 11.33800 31.96700
H  1.41500 4.30500 28.80300
H  -0.08700 5.06700 22.55700
H  1.55100 11.18900 22.98700
H  2.69800 8.34600 30.96300
H  0.80000 6.20600 30.83300
H  3.50300 5.51600 29.64400
H  2.95100 4.95900 31.15300
H  3.72400 6.46600 31.16200
H  -0.32300 8.34600 31.11500
H  0.41100 9.80800 31.01900
H  0.02000 8.12200 33.21400
H  0.67400 9.71200 33.21400
H  -0.33400 1.91900 27.60300
H  1.06200 2.38400 28.33700
H  1.28700 1.42400 26.87400
H  0.49300 0.69200 24.80300
H  -0.93300 0.58300 23.72200
H  -1.10100 1.40000 25.22300
H  -0.55100 7.33100 21.19000
H  1.75900 9.28800 21.23100
H  1.73500 5.67600 21.18200
H  2.26500 7.13900 20.36600
H  0.81500 6.21600 19.78800
H  -0.52500 9.71600 20.06800
H  -0.04500 11.02900 21.13500
H  -1.69300 10.75100 22.54200
H  -1.75900 9.04900 22.35100
H  -2.45700 9.97900 21.01900
H  2.42500 13.44400 23.87200
H  2.70600 13.95600 25.52000
H  1.05700 13.82000 24.90100
H  1.45800 11.54100 29.99600
H  4.78700 12.10600 32.73500
H  5.64900 11.66100 31.27100
H  5.10800 10.33200 32.31700
Mg 17.08800 -2.99200 27.57900
C  16.24900 -1.02400 30.24400
C  18.65700 -5.19000 29.68900
C  17.88600 -4.76600 24.89000
C  15.55500 -0.56100 25.42100
N  17.37600 -3.10800 29.69000
C  16.93000 -2.18600 30.60600
C  17.27200 -2.68900 32.06900
C  18.09500 -3.98900 31.81600
C  18.01500 -4.13400 30.29700
C  19.54200 -4.04400 32.45300
C  16.01100 -2.92100 32.93900
C  16.11800 -2.54200 34.48600
H  17.43500 -1.91800 35.07600
N  18.05300 -4.83000 27.34300
C  18.72100 -5.51700 28.32300
C  19.34200 -6.73400 27.70400
C  19.04900 -6.67200 26.27400
C  18.29400 -5.40300 26.11800
C  20.00000 -7.80400 28.55100
C  19.42000 -7.72300 25.25000
O  19.16200 -7.61400 24.01100
C  20.17600 -8.95100 25.55400
N  16.81200 -2.73100 25.42800
C  17.25300 -3.55500 24.52500
C  17.00000 -3.07500 23.03600
C  16.21700 -1.70200 23.27900
C  16.22400 -1.63400 24.82000
C  18.23100 -2.92700 22.11000
C  14.67000 -1.71300 22.88200
C  13.52200 -2.19600 23.79600
N  15.99300 -1.18200 27.77200
C  15.43300 -0.30700 26.82500
C  14.78700 0.79700 27.50400
C  15.05700 0.53200 28.89200
C  15.83300 -0.64800 28.96800
C  14.01200 1.94400 26.84400
C  14.91400 1.06900 30.16100
O  14.43300 2.08200 30.48900
C  15.61400 0.09000 31.17700
C  16.60400 0.80800 31.93300
O  17.77500 1.08000 31.59400
O  15.95400 1.19200 33.07700
C  16.79100 2.08000 33.95900
H  19.18800 -5.84500 30.38300
H  18.14900 -5.29100 23.97000
H  15.11300 0.20800 24.78500
H  17.96100 -2.00900 32.56900
H  17.53800 -4.85800 32.16600
H  19.80200 -3.06800 32.86300
H  20.28600 -4.28800 31.69500
H  19.66900 -4.78700 33.24100
H  15.66000 -3.95100 32.88200
H  15.19900 -2.34000 32.50000
H  15.85100 -3.37600 35.13500
H  15.36900 -1.75700 34.58400
H  19.41400 -8.72200 28.53700
H  20.13100 -7.45500 29.57500
H  20.98100 -8.01400 28.12400
H  21.11000 -8.90200 26.11300
H  20.40900 -9.43600 24.60600
H  19.43700 -9.55400 26.08200
H  16.22900 -3.74700 22.66200
H  16.64900 -0.76100 22.93700
H  18.49200 -1.88000 21.95600
H  18.14900 -3.59400 21.25200
H  19.16700 -3.15400 22.62000
H  14.62800 -2.24900 21.93300
H  14.45300 -0.66800 22.66200
H  12.68300 -2.45200 23.14900
H  13.16300 -1.33200 24.35600
H  13.83600 -2.98400 24.48100
H  13.94800 1.80300 25.76500
H  14.41200 2.89800 27.18800
H  12.99500 1.89300 27.23200
H  14.82100 -0.27400 31.83100
H  17.80400 1.71600 34.12800
H  16.39700 2.13000 34.97300
H  16.96700 3.06000 33.51500

