158

Mg 8.27900 3.93900 27.73100
C  9.56000 2.41500 30.61200
C  6.50600 6.05600 29.49200
C  7.09900 5.18800 24.70900
C  10.04600 1.44100 25.82800
N  8.07000 4.12400 29.82900
C  8.72600 3.51200 30.87900
C  8.32900 4.10800 32.22000
C  7.26000 5.14900 31.78200
C  7.26600 5.14700 30.25900
C  5.83300 4.77300 32.35100
C  9.51500 4.76800 32.84900
C  9.44700 5.32700 34.30600
H  10.42600 4.61800 35.32500
N  6.92600 5.38200 27.19200
C  6.42400 6.24000 28.10800
C  5.68600 7.22800 27.46700
C  5.81800 6.97700 26.02700
C  6.60000 5.77700 25.93500
C  5.02700 8.24500 28.20100
C  5.15200 7.78700 24.82900
O  5.23500 7.47400 23.62700
C  4.48200 9.10200 25.17100
N  8.43800 3.28800 25.55300
C  7.88600 4.00200 24.52300
C  8.31200 3.43000 23.17800
C  9.27500 2.23900 23.52200
C  9.25200 2.29300 25.05000
C  7.16300 3.03300 22.22100
C  10.71700 2.43600 22.98000
C  11.42800 1.31300 22.23000
N  9.51500 2.28100 28.04400
C  10.13900 1.35500 27.22200
C  10.85100 0.40700 28.02100
C  10.66300 0.81400 29.36800
C  9.80800 1.92100 29.35200
C  11.52400 -0.86100 27.64600
C  11.04300 0.58200 30.74200
O  11.79500 -0.25700 31.26900
C  10.30700 1.51300 31.60900
C  9.44700 0.68200 32.45900
O  8.41300 0.07600 32.14100
O  9.91900 0.80600 33.79700
C  9.19700 0.15900 34.90100
H  5.82600 6.61300 30.14000
H  6.81500 5.73900 23.81000
H  10.43000 0.59800 25.24900
H  8.02200 3.35900 32.95000
H  7.52400 6.17400 32.04300
H  5.77900 4.16400 33.25300
H  5.14700 4.37300 31.60500
H  5.38100 5.68400 32.74300
H  9.76900 5.62200 32.22100
H  10.37900 4.11200 32.95600
H  8.50400 5.04100 34.77100
H  9.55800 6.41100 34.34300
H  5.24900 8.32300 29.26500
H  3.95100 8.07000 28.19000
H  5.16200 9.24900 27.80000
H  3.82100 9.52000 24.41200
H  5.23800 9.85100 25.40500
H  3.80700 8.99700 26.02100
H  8.73700 4.27400 22.63400
H  8.96200 1.21600 23.31400
H  6.13300 2.99700 22.57400
H  7.44900 2.08200 21.77300
H  7.10400 3.69500 21.35700
H  11.29300 2.67800 23.87400
H  10.68400 3.30200 22.31800
H  11.51800 1.76000 21.24000
H  10.75100 0.46000 22.27400
H  12.32200 1.10600 22.81800
H  12.56700 -0.70700 27.37100
H  11.02500 -1.32300 26.79500
H  11.32500 -1.51900 28.49200
H  11.14600 1.90300 32.18600
H  9.65100 -0.83100 34.93000
H  8.12100 0.00300 34.81500
H  9.34200 0.65100 35.86200
Mg 47.48000 25.02400 27.75000
C  48.25800 27.35700 30.36400
C  46.75200 22.70800 30.26300
C  47.05800 22.85400 25.36600
C  48.75600 27.35800 25.35100
N  47.47500 25.10600 30.07700
C  47.79800 26.15700 30.90900
C  47.52600 25.77500 32.41800
C  47.26200 24.23900 32.31700
C  47.14900 23.98400 30.79500
C  48.28400 23.25900 33.05900
C  46.44800 26.56500 33.10600
C  46.18200 26.14800 34.55400
H  46.32500 27.10200 35.70100
N  46.84900 23.12400 27.78900
C  46.63000 22.31500 28.89900
C  46.10200 21.05500 28.43000
C  46.13000 21.09100 26.98200
C  46.70200 22.40500 26.64400
C  45.89000 19.90200 29.33700
C  45.65700 20.03700 25.98100
O  45.51500 20.19900 24.80300
C  45.11000 18.68600 26.54900
N  47.76100 25.11600 25.58400
C  47.53200 24.04600 24.79800
C  47.88600 24.30600 23.35100
C  48.27700 25.84400 23.36600
C  48.31500 26.11000 24.85500
C  48.82600 23.29400 22.76700
C  47.19400 26.73300 22.75100
C  47.72300 27.53500 21.58600
N  48.27800 26.96400 27.78300
C  48.79900 27.74400 26.69800
C  49.24300 29.03900 27.24800
C  49.08700 28.90000 28.63000
C  48.51000 27.60700 28.97700
C  49.95200 30.12800 26.50000
C  49.35800 29.50700 29.90500
O  49.96000 30.56500 30.13600
C  48.74700 28.62000 31.05500
C  49.70600 28.55500 32.22300
O  50.91300 28.20400 32.09900
O  49.05500 28.89700 33.36400
C  49.75300 29.01700 34.59700
H  46.52200 21.99900 31.06100
H  47.07000 22.06800 24.60900
H  49.18100 28.01500 24.59000
H  48.47000 26.02100 32.90500
H  46.29500 24.05600 32.78500
H  47.80300 22.75500 33.89700
H  49.16600 23.75600 33.46200
H  48.64000 22.60700 32.26100
H  45.48200 26.50800 32.60500
H  46.73600 27.61700 33.11500
H  46.86100 25.34900 34.85100
H  45.22200 25.63800 34.63400
H  44.90200 19.44400 29.30000
H  46.09200 20.17100 30.37400
H  46.51300 19.09400 28.95500
H  45.00000 18.03200 25.68400
H  44.04800 18.82800 26.75300
H  45.75400 18.25800 27.31700
H  46.95300 24.16800 22.80400
H  49.32000 26.01700 23.10000
H  48.38100 22.71100 21.96100
H  49.15000 22.59400 23.53700
H  49.73000 23.82500 22.46800
H  46.63000 27.26800 23.51400
H  46.43200 26.19600 22.18700
H  47.00100 27.65900 20.78000
H  48.65400 27.05900 21.27800
H  48.07100 28.53800 21.83300
H  49.27900 30.98200 26.42700
H  50.21900 29.78200 25.50100
H  50.80300 30.44500 27.10300
H  47.93300 29.29300 31.32300
H  50.81600 28.82000 34.45800
H  49.40600 28.28400 35.32600
H  49.67100 30.06600 34.87900

