158

Mg 47.21500 35.02400 28.03300
C  45.48200 32.98800 30.22800
C  47.34900 37.52900 30.47900
C  48.21600 37.12900 25.63900
C  46.46100 32.67400 25.39400
N  46.54400 35.25900 30.07300
C  46.05300 34.16400 30.79500
C  46.24200 34.43600 32.31700
C  46.31400 36.01100 32.31100
C  46.68700 36.35300 30.85100
C  45.18700 36.87900 32.88900
C  47.50500 33.66900 32.82600
C  47.63000 33.52500 34.31700
H  46.67500 34.34100 35.23900
N  47.90600 36.95300 28.09100
C  47.82400 37.80200 29.21300
C  48.56900 39.06900 28.83400
C  48.76700 39.05400 27.42000
C  48.27100 37.69700 26.98700
C  49.08500 40.28300 29.84800
C  49.28300 40.10300 26.47500
O  49.31700 39.90800 25.28000
C  49.57900 41.53700 26.86400
N  47.41000 34.84200 25.82800
C  47.87000 35.86900 25.09200
C  47.85600 35.54700 23.62000
C  47.63800 34.03800 23.59600
C  47.01700 33.87200 24.98300
C  46.78100 36.37800 22.90500
C  48.88000 33.12200 23.43500
C  48.58900 31.75000 22.87300
N  46.09000 33.27200 27.81900
C  45.98500 32.41600 26.75000
C  45.42200 31.12300 27.22600
C  45.12600 31.33600 28.58200
C  45.51300 32.65300 28.85900
C  45.17200 29.84200 26.40300
C  44.51300 30.80200 29.78700
O  44.13000 29.65700 30.00700
C  44.49400 31.87200 30.80600
C  45.09300 31.31900 32.02600
O  46.13100 30.71600 32.12100
O  44.28800 31.65300 33.08800
C  44.67800 31.07400 34.44200
H  47.47300 38.32100 31.22100
H  48.45800 37.93600 24.94400
H  46.25100 31.94100 24.61200
H  45.34600 34.09700 32.83500
H  47.15600 36.23900 32.96300
H  44.35200 36.23800 33.17200
H  44.88000 37.53500 32.07500
H  45.56400 37.51400 33.69100
H  48.45700 34.07100 32.48000
H  47.60300 32.65800 32.43200
H  48.62600 33.80500 34.65800
H  47.71300 32.49100 34.65200
H  50.15800 40.47100 29.81600
H  48.97700 39.90700 30.86600
H  48.44900 41.12400 29.57400
H  50.35600 41.61800 27.62400
H  48.59100 41.87500 27.17500
H  49.92200 42.13000 26.01600
H  48.81100 35.77300 23.14600
H  46.90000 33.85800 22.81400
H  47.27700 36.84100 22.05200
H  46.40200 37.30100 23.34300
H  45.94300 35.83600 22.46500
H  49.36500 32.99400 24.40300
H  49.50200 33.58600 22.67000
H  47.56100 31.38700 22.87600
H  49.05000 30.96100 23.46700
H  48.98600 31.64900 21.86300
H  45.66000 29.89200 25.43000
H  44.10800 29.62100 26.31700
H  45.60300 28.98900 26.92800
H  43.49500 32.22900 31.05700
H  44.16000 31.57700 35.25900
H  45.75500 31.18500 34.57300
H  44.40900 30.03100 34.60800
Mg 6.19900 56.65300 42.52800
C  4.90800 53.52300 41.73800
C  9.23400 55.69700 41.15300
C  7.09700 59.94300 42.19500
C  2.99600 57.57500 43.56400
N  6.92100 54.91300 41.36700
C  6.25100 53.70000 41.25100
C  7.15200 52.63200 40.68800
C  8.56200 53.28600 40.87900
C  8.24900 54.76500 41.15300
C  9.43200 52.67000 42.04900
C  6.88400 52.11200 39.15000
C  7.11400 50.61700 38.94700
H  6.46500 50.12600 37.77500
N  7.97600 57.67700 41.87600
C  9.08700 57.11900 41.47400
C  10.10700 58.12600 41.30200
C  9.55700 59.33000 41.69500
C  8.17400 59.00400 41.97900
C  11.52500 57.76200 40.96900
C  10.35500 60.62500 41.91300
O  11.48600 60.77000 41.56000
C  9.76300 61.72600 42.74000
N  5.22800 58.47500 42.80000
C  5.78500 59.74100 42.45400
C  4.71400 60.84800 42.57400
C  3.39400 60.05500 42.95000
C  3.85500 58.58400 43.12400
C  4.94200 62.11400 43.41900
C  2.10500 60.19000 41.98900
C  0.74800 60.62100 42.63000
N  4.34700 55.76900 42.81500
C  3.15200 56.23100 43.30500
C  2.20300 55.15600 43.46200
C  2.87500 54.02200 42.91500
C  4.12300 54.49800 42.40500
C  0.80800 55.23900 43.93900
C  2.74700 52.63100 42.61700
O  1.82600 51.81700 42.81300
C  4.11700 52.25100 41.89700
C  3.75100 51.64200 40.65100
O  3.65800 52.19600 39.60800
O  3.50100 50.28100 40.85600
C  3.11100 49.38800 39.73500
H  10.27600 55.42000 40.98200
H  7.37100 60.99500 42.08900
H  2.02700 57.91200 43.93600
H  7.06000 51.73600 41.30200
H  9.08500 53.24800 39.92300
H  8.89600 51.87600 42.57000
H  9.61200 53.50500 42.72600
H  10.34300 52.28800 41.58700
H  7.53200 52.64500 38.45400
H  5.90400 52.52600 38.91400
H  6.78000 50.08700 39.83900
H  8.20300 50.62800 38.90400
H  11.87400 58.57100 40.32800
H  11.64200 56.78600 40.49800
H  12.13600 57.72100 41.87100
H  9.08800 61.29400 43.47800
H  9.20900 62.43000 42.12000
H  10.53100 62.34200 43.20800
H  4.73300 61.24600 41.56000
H  3.14500 60.31500 43.97900
H  5.99800 62.28400 43.62800
H  4.44900 62.02900 44.38800
H  4.64900 63.02700 42.90100
H  2.05300 59.17100 41.60400
H  2.34400 60.96600 41.26200
H  -0.03000 59.85900 42.58600
H  0.33900 61.52300 42.17500
H  1.05600 60.86200 43.64800
H  0.16000 55.57000 43.12700
H  0.80100 56.02000 44.69900
H  0.46800 54.26700 44.29500
H  4.60800 51.49400 42.50900
H  3.02500 49.92000 38.78800
H  2.10800 49.02200 39.95200
H  3.89600 48.63400 39.66800

