158

Mg 41.57800 8.96700 29.39900
C  43.27000 10.27300 32.14500
C  39.31200 7.74400 31.64000
C  39.88300 7.61300 26.89900
C  44.00600 10.15100 27.35600
N  41.37400 8.96200 31.71800
C  42.09800 9.67800 32.60700
C  41.57300 9.52400 34.05200
C  40.42900 8.50400 33.85200
C  40.33600 8.41100 32.28100
C  40.56400 7.16400 34.54100
C  41.15600 10.83400 34.76800
C  40.24800 10.78700 36.09400
H  40.54000 11.73800 37.22400
N  39.82500 7.79100 29.24600
C  39.00300 7.45800 30.25100
C  37.84300 6.73300 29.79400
C  37.94400 6.68300 28.34200
C  39.25200 7.42100 28.09100
C  36.81100 6.13800 30.75300
C  37.03100 6.04600 27.36400
O  37.16600 6.28600 26.19400
C  35.86200 5.39200 27.75500
N  41.89800 8.95900 27.40900
C  41.05000 8.35400 26.52100
C  41.58700 8.45400 25.08700
C  42.81200 9.41900 25.20300
C  42.93900 9.54800 26.75200
C  41.89700 7.16800 24.29200
C  42.63500 10.78500 24.46900
C  43.86400 11.27900 23.70400
N  43.29000 9.95300 29.60600
C  44.19900 10.38200 28.67900
C  45.24900 11.15100 29.29000
C  44.92000 11.04900 30.70300
C  43.74600 10.34200 30.80800
C  46.25400 11.82700 28.47600
C  45.33200 11.51300 32.04700
O  46.33500 12.10000 32.45000
C  44.27300 11.04400 33.05500
C  45.01600 10.31500 34.18200
O  45.51500 9.21000 34.03500
O  44.94700 10.97500 35.33600
C  45.69500 10.42100 36.46700
H  38.59900 7.29200 32.33300
H  39.32900 7.16400 26.07100
H  44.66800 10.57900 26.60100
H  42.31200 9.13000 34.74900
H  39.47200 8.84600 34.24600
H  39.55200 6.84700 34.79200
H  41.16700 7.36600 35.42600
H  40.98600 6.39700 33.89200
H  40.66800 11.49800 34.05400
H  42.04300 11.41500 35.02200
H  40.41700 9.79200 36.50500
H  39.17400 10.87800 35.93200
H  36.91900 5.05400 30.74600
H  35.89600 6.49800 30.28300
H  36.96000 6.41200 31.79700
H  35.73700 4.53600 27.09200
H  34.99700 6.05400 27.79600
H  35.87100 4.95600 28.75400
H  40.80000 8.93600 24.50800
H  43.74300 8.93900 24.90200
H  42.20500 6.32300 24.90700
H  42.63500 7.25200 23.49500
H  40.91100 6.95100 23.88000
H  42.53100 11.55000 25.23900
H  41.80500 10.67500 23.77100
H  44.37500 10.42500 23.25900
H  44.51700 11.80600 24.40100
H  43.45900 12.00500 22.99900
H  47.06100 11.11200 28.31500
H  46.79300 12.57700 29.05500
H  45.90600 12.22800 27.52400
H  43.85100 11.98100 33.41600
H  45.15800 9.55800 36.86000
H  45.83600 11.20300 37.21400
H  46.68900 10.17300 36.09700
Mg -12.28800 38.48800 42.19100
C  -10.00500 35.89000 41.22100
C  -10.70100 40.56500 39.95200
C  -14.65400 40.49800 42.80900
C  -14.32300 35.72400 43.67300
N  -10.55300 38.14700 40.74600
C  -9.73300 37.05300 40.56100
C  -8.58800 37.34100 39.52700
C  -8.75300 38.92200 39.25600
C  -10.08100 39.26400 40.01700
C  -7.54000 39.86800 39.78800
C  -8.72900 36.37900 38.25200
C  -7.75800 35.16900 38.23700
H  -7.03200 34.97000 36.93700
N  -12.66900 40.33700 41.52500
C  -11.84600 41.08500 40.65500
C  -12.40400 42.42400 40.68500
C  -13.55800 42.42800 41.45800
C  -13.66500 41.04900 41.97000
C  -11.71400 43.63100 39.95900
C  -14.36900 43.66300 41.78500
O  -14.20600 44.68600 41.19200
C  -15.37100 43.79400 43.02300
N  -14.32500 38.04100 43.01100
C  -14.98100 39.16000 43.21800
C  -16.40800 38.82300 43.62400
C  -16.41200 37.25600 43.86800
C  -14.93300 36.98900 43.50100
C  -16.90200 39.70600 44.79400
C  -17.42200 36.39800 43.09200
C  -18.12400 35.23000 43.97200
N  -12.14700 36.33200 42.54000
C  -13.01900 35.39300 43.19400
C  -12.32500 34.10900 43.32000
C  -11.13900 34.30000 42.59600
C  -11.09000 35.63100 42.07700
C  -12.84200 32.89200 43.98200
C  -9.90300 33.64400 42.26500
O  -9.42100 32.55900 42.62000
C  -9.20800 34.65200 41.25800
C  -7.78700 34.75300 41.71400
O  -6.92800 34.01500 41.23500
O  -7.71100 35.68200 42.75200
C  -6.45000 35.89200 43.42000
H  -10.14600 41.31700 39.38800
H  -15.43400 41.24600 42.95800
H  -14.88900 35.00800 44.27200
H  -7.69300 37.01600 40.05600
H  -8.88400 39.06500 38.18300
H  -6.74600 39.20500 40.13200
H  -7.82400 40.41100 40.69000
H  -7.14600 40.45300 38.95700
H  -8.79500 37.01600 37.37000
H  -9.73800 35.97800 38.34900
H  -8.36300 34.27700 38.40400
H  -7.03900 35.20400 39.05500
H  -11.93600 44.65100 40.27400
H  -11.89500 43.60500 38.88500
H  -10.64300 43.50800 40.12400
H  -15.03800 43.24200 43.90200
H  -16.38700 43.46800 42.80200
H  -15.35300 44.84700 43.30200
H  -16.92500 39.07600 42.69800
H  -16.53900 37.08900 44.93800
H  -17.74000 40.40200 44.75200
H  -16.08100 40.30700 45.18600
H  -17.09300 39.02000 45.62000
H  -17.00500 35.97400 42.17900
H  -18.23500 37.05600 42.78600
H  -17.40300 34.62400 44.52000
H  -18.56000 34.40600 43.40800
H  -18.94000 35.60100 44.59100
H  -13.86300 32.78000 43.61700
H  -13.01500 32.99600 45.05300
H  -12.20000 32.01400 43.91000
H  -9.17400 34.12200 40.30700
H  -5.65100 36.13000 42.71900
H  -6.21800 35.06400 44.09000
H  -6.69800 36.76300 44.02700

