158

Mg 36.45500 49.08200 24.61200
C  36.50700 47.40300 27.68600
C  35.27100 51.91300 26.12900
C  36.06300 50.60500 21.54500
C  37.69800 46.18100 23.11600
N  36.00200 49.64200 26.68300
C  36.06800 48.75300 27.82700
C  35.74500 49.57600 29.07200
C  35.40900 51.00100 28.49100
C  35.56300 50.82700 26.99200
C  34.11600 51.64700 29.08600
C  36.67700 49.50400 30.28800
C  35.98200 49.10500 31.63100
H  34.53200 49.31300 31.83700
N  35.88400 50.99800 23.90200
C  35.39000 52.00800 24.76200
C  35.09100 53.16100 23.98400
C  35.20400 52.74100 22.57100
C  35.74400 51.45400 22.62900
C  34.24300 54.30400 24.49600
C  34.78800 53.40600 21.26300
O  34.76900 52.90100 20.15700
C  34.41400 54.92800 21.30900
N  36.89600 48.46300 22.62400
C  36.56300 49.25100 21.53200
C  36.81800 48.50800 20.23100
C  37.53000 47.22100 20.74000
C  37.44100 47.24100 22.22600
C  35.49700 48.33200 19.28800
C  38.83400 46.82500 20.05600
C  40.05700 46.96000 20.90000
N  36.81500 47.02900 25.22200
C  37.40400 46.02300 24.47300
C  37.56700 44.87200 25.37600
C  37.24100 45.41000 26.65600
C  36.81700 46.76800 26.48100
C  38.04600 43.49800 25.04500
C  37.08500 45.07600 28.00300
O  37.32000 43.99500 28.56700
C  36.68100 46.30700 28.77500
C  35.37200 46.00200 29.51500
O  34.27100 46.37500 29.14100
O  35.57700 45.12500 30.55000
C  34.44500 44.48400 31.10300
H  35.02000 52.80200 26.71100
H  36.02200 50.99300 20.52500
H  38.14000 45.32600 22.60000
H  34.78600 49.12100 29.32000
H  36.22500 51.66300 28.78000
H  33.67500 51.07000 29.89900
H  33.35500 51.67000 28.30600
H  34.37100 52.66300 29.38700
H  37.06000 50.52400 30.29500
H  37.39600 48.69900 30.13800
H  36.47100 49.74100 32.36900
H  36.07200 48.02500 31.74200
H  34.09800 55.17400 23.85600
H  34.65700 54.73800 25.40600
H  33.34900 53.80900 24.87300
H  35.04500 55.47300 22.01200
H  33.36800 54.87400 21.60900
H  34.35600 55.30300 20.28800
H  37.48900 49.17200 19.68500
H  36.98500 46.30900 20.49600
H  35.22000 47.30400 19.05200
H  35.94300 48.60500 18.33200
H  34.59800 48.89300 19.54200
H  38.88800 47.45700 19.16900
H  38.78900 45.86500 19.54200
H  40.95800 47.07200 20.29700
H  40.21500 46.08400 21.52900
H  39.98400 47.86800 21.49900
H  38.91700 43.39000 24.39900
H  37.16700 42.97600 24.66700
H  38.24400 42.97400 25.98000
H  37.36400 46.56500 29.58400
H  33.98700 45.10500 31.87200
H  34.79600 43.57000 31.58300
H  33.66100 44.12600 30.43500
Mg -11.74700 38.50900 41.97300
C  -9.92700 35.79400 40.84000
C  -9.55800 40.64400 40.42300
C  -14.03700 40.96100 42.23600
C  -13.94400 36.17900 43.22200
N  -9.97900 38.24600 40.73200
C  -9.33400 37.06200 40.44600
C  -7.99500 37.28700 39.69400
C  -7.82100 38.83200 39.79900
C  -9.17400 39.28200 40.35000
C  -6.66200 39.24600 40.68100
C  -8.11100 36.72900 38.21100
C  -7.07900 35.70600 37.75200
H  -6.16200 36.22300 36.61600
N  -11.84900 40.55200 41.26300
C  -10.80500 41.24100 40.75900
C  -11.16900 42.57700 40.70500
C  -12.51700 42.71400 41.15100
C  -12.87900 41.40300 41.63200
C  -10.35000 43.67100 40.03700
C  -13.38200 44.04000 41.19100
O  -12.87700 45.08000 40.87700
C  -14.82100 44.12800 41.55100
N  -13.62600 38.60900 42.65300
C  -14.40000 39.68700 42.66600
C  -15.86600 39.36600 42.97500
C  -15.85400 37.87000 43.40400
C  -14.36900 37.48800 43.08700
C  -16.52500 40.37700 44.09200
C  -16.84400 36.98300 42.71000
C  -17.84400 36.20300 43.65800
N  -11.84000 36.41000 42.20400
C  -12.75700 35.61700 42.85700
C  -12.41600 34.24900 42.82400
C  -11.27100 34.18800 42.04900
C  -10.97200 35.58900 41.69600
C  -13.20200 33.11600 43.36900
C  -10.27400 33.42200 41.40900
O  -10.03400 32.24900 41.46400
C  -9.39000 34.39700 40.52900
C  -7.98500 34.13500 40.86300
O  -7.23000 33.50600 40.13800
O  -7.71700 34.72500 42.09100
C  -6.25100 34.77500 42.37900
H  -8.70200 41.28900 40.21800
H  -14.78700 41.74400 42.36200
H  -14.74800 35.55900 43.62200
H  -7.19300 36.76600 40.21500
H  -7.62200 39.30300 38.83600
H  -5.95000 38.48800 41.00700
H  -7.06500 39.74500 41.56200
H  -6.10200 39.97700 40.09900
H  -8.00000 37.58700 37.54700
H  -9.13300 36.40000 38.02600
H  -7.63700 34.83500 37.40900
H  -6.50600 35.32000 38.59500
H  -10.90100 43.95200 39.14000
H  -9.37300 43.33800 39.68600
H  -10.44100 44.53400 40.69700
H  -15.41900 43.45500 40.93700
H  -15.24300 45.10700 41.32200
H  -14.81800 43.91900 42.62100
H  -16.36400 39.47100 42.01100
H  -15.89200 37.80700 44.49100
H  -15.85500 41.09000 44.57200
H  -16.90400 39.96400 45.02600
H  -17.33600 40.92800 43.61500
H  -16.32800 36.20700 42.14300
H  -17.49900 37.56200 42.05900
H  -17.69000 36.34500 44.72800
H  -17.82600 35.14900 43.38400
H  -18.86000 36.56600 43.50500
H  -13.32600 33.25700 44.44300
H  -12.72600 32.19600 43.02900
H  -14.18600 33.22800 42.91200
H  -9.51000 34.12100 39.48100
H  -5.74200 35.47800 41.72000
H  -5.88800 33.75900 42.22600
H  -6.12500 34.98700 43.44100

