158

Mg 24.18200 -6.87400 46.62800
C  25.85800 -4.20100 45.33700
C  21.50000 -5.98800 44.32600
C  22.68100 -9.85000 47.14900
C  26.85800 -7.84800 48.34700
N  23.75300 -5.27500 44.98800
C  24.63800 -4.25400 44.70600
C  24.03700 -3.35600 43.62400
C  22.51700 -3.80600 43.52600
C  22.58100 -5.08900 44.31900
C  21.45000 -2.73600 43.91800
C  24.86800 -3.48800 42.31100
C  25.14300 -2.20500 41.47900
H  24.65100 -2.17600 40.02200
N  22.25100 -7.82100 45.99300
C  21.32200 -7.30400 45.00200
C  20.16800 -8.15600 45.05000
C  20.46300 -9.21300 45.96600
C  21.81100 -8.99800 46.42000
C  18.93500 -7.91900 44.18200
C  19.49100 -10.33200 46.37200
O  18.40400 -10.45200 45.77300
C  19.84000 -11.32800 47.49600
N  24.66600 -8.59800 47.62200
C  23.83900 -9.62000 47.77300
C  24.42500 -10.63900 48.79000
C  25.82700 -10.05000 49.12600
C  25.77300 -8.72600 48.36000
C  23.53900 -11.01800 49.96200
C  27.13700 -10.92800 48.85700
C  28.03000 -11.16700 50.14500
N  25.99100 -6.26200 46.76300
C  27.05900 -6.70400 47.55300
C  28.10700 -5.71100 47.56800
C  27.68000 -4.74600 46.68500
C  26.37200 -5.11800 46.24000
C  29.31400 -5.76700 48.49200
C  28.02100 -3.43600 46.18500
O  28.90100 -2.62700 46.41800
C  26.85300 -3.06100 45.23500
C  26.35600 -1.79300 45.68400
O  26.87400 -0.71900 45.26900
O  25.17100 -1.90900 46.37300
C  24.73400 -0.68500 47.11300
H  20.61900 -5.77800 43.71500
H  22.28300 -10.84000 47.38200
H  27.68500 -8.09600 49.01500
H  24.01900 -2.29200 43.85700
H  22.27800 -4.07300 42.49700
H  20.88500 -3.11200 44.77000
H  20.73100 -2.58600 43.11300
H  21.84500 -1.80300 44.32100
H  24.37600 -4.18500 41.63300
H  25.80100 -3.99800 42.55200
H  26.22400 -2.27500 41.36400
H  24.99100 -1.29500 42.06100
H  18.83700 -8.78700 43.52900
H  19.02400 -7.11600 43.45100
H  17.98800 -7.82100 44.71300
H  20.40600 -12.07000 46.93200
H  18.94200 -11.79100 47.90600
H  20.40900 -10.78700 48.25300
H  24.55000 -11.59100 48.27600
H  25.75500 -9.81700 50.18900
H  22.73900 -10.28000 50.03200
H  23.99200 -11.05200 50.95200
H  23.13100 -12.00600 49.74900
H  27.82300 -10.52400 48.11300
H  26.70300 -11.86400 48.50500
H  28.00400 -12.23700 50.35300
H  27.66300 -10.66200 51.03800
H  29.05500 -10.82500 50.00100
H  29.35200 -4.83400 49.05500
H  30.21000 -5.87400 47.88100
H  29.12200 -6.56000 49.21400
H  27.18100 -3.02500 44.19600
H  24.07500 -0.07600 46.49400
H  25.59700 -0.06600 47.36000
H  24.28800 -1.00400 48.05500
Mg 17.28600 -2.43100 28.12500
C  16.54300 -0.40900 30.82300
C  19.37000 -4.42900 30.14000
C  18.54300 -3.95200 25.34000
C  15.52800 -0.22900 26.05400
N  17.84100 -2.40800 30.24600
C  17.32600 -1.53600 31.20200
C  17.91300 -1.88400 32.59500
C  18.92100 -3.00800 32.35600
C  18.68400 -3.38500 30.83100
C  20.39600 -2.77700 32.68900
C  16.70200 -2.15400 33.57200
C  16.90200 -1.46500 34.98200
H  18.23400 -0.83800 35.35800
N  18.71500 -4.03200 27.82900
C  19.45100 -4.69600 28.74500
C  20.24500 -5.72800 28.07600
C  20.10200 -5.53500 26.67800
C  19.02000 -4.50600 26.52900
C  20.93300 -6.79100 28.84500
C  20.86100 -6.27400 25.47800
O  20.43100 -6.20800 24.32900
C  22.03800 -7.06200 25.69500
N  17.12000 -2.02700 25.93800
C  17.73200 -2.86000 25.04400
C  17.32400 -2.32800 23.57100
C  16.11200 -1.41600 23.84500
C  16.28900 -1.22400 25.37000
C  18.47500 -1.82800 22.73600
C  14.77000 -2.00300 23.51500
C  13.80500 -1.08500 22.71600
N  16.34100 -0.63100 28.27300
C  15.57700 0.12100 27.37400
C  14.80400 1.16100 28.03600
C  15.25500 0.98200 29.39600
C  16.25300 -0.02900 29.45800
C  13.92200 2.18400 27.37000
C  15.05400 1.51000 30.68700
O  14.27100 2.35800 31.05400
C  15.83800 0.67500 31.69100
C  16.80900 1.59800 32.32300
O  17.91800 1.73200 31.88600
O  16.32600 2.05500 33.45200
C  17.22600 2.94000 34.21000
H  19.78500 -5.18500 30.80900
H  18.94400 -4.40700 24.43200
H  14.75800 0.32900 25.51600
H  18.39400 -0.92200 32.77600
H  18.64000 -3.78500 33.06600
H  20.99100 -3.06900 31.82400
H  20.76600 -3.28500 33.58000
H  20.63000 -1.73800 32.92500
H  16.66600 -3.22900 33.75100
H  15.76300 -1.85600 33.10400
H  16.63900 -2.24400 35.69700
H  16.13000 -0.69600 35.02700
H  20.92100 -7.73500 28.30000
H  20.32600 -7.02700 29.71900
H  21.94200 -6.43200 29.04700
H  22.91000 -6.41200 25.78100
H  22.22000 -7.57900 24.75300
H  21.91700 -7.81100 26.47800
H  16.96300 -3.24300 23.10200
H  16.28300 -0.37200 23.58100
H  18.35200 -0.93700 22.12100
H  18.80800 -2.54400 21.98500
H  19.28600 -1.48400 23.37700
H  14.06000 -2.12700 24.33200
H  14.86900 -2.95900 23.00200
H  12.81200 -0.86200 23.10500
H  13.60200 -1.64000 21.80100
H  14.39900 -0.19800 22.49400
H  13.30700 2.66600 28.13000
H  13.28800 1.71600 26.61700
H  14.44500 2.95700 26.80700
H  15.25000 0.19000 32.47000
H  16.77400 3.92800 34.30200
H  18.27200 3.03100 33.91700
H  17.27000 2.45200 35.18400

