158

Mg 1.09100 7.67900 25.52000
C  1.76800 9.72600 28.22500
C  0.98800 4.97700 27.59400
C  0.53300 5.72200 22.85800
C  1.32400 10.45500 23.43800
N  1.27000 7.39200 27.64400
C  1.53500 8.34500 28.58700
C  1.65500 7.76000 29.98900
C  1.59800 6.18700 29.66600
C  1.19500 6.15100 28.25500
C  2.93000 5.42900 29.92300
C  0.50700 8.17200 30.91900
C  0.62100 7.91900 32.47800
H  1.90500 7.28800 33.04400
N  0.86800 5.66500 25.24400
C  0.82400 4.66200 26.23900
C  0.41500 3.37300 25.67700
C  0.51500 3.60400 24.23700
C  0.65600 5.03500 24.07600
C  0.22000 2.07600 26.38300
C  0.46500 2.69000 23.05500
O  0.80000 2.99300 21.88400
C  0.25700 1.19200 23.40500
N  1.20900 8.08500 23.38500
C  0.83100 7.11000 22.47100
C  0.53100 7.61800 21.06100
C  0.75000 9.17700 21.27300
C  1.10000 9.29000 22.77900
C  1.36500 7.00700 19.88600
C  -0.32100 10.21600 20.80200
C  0.18700 11.01100 19.49800
N  1.55000 9.68100 25.71000
C  1.55900 10.71800 24.83100
C  1.77400 12.00800 25.52400
C  1.95000 11.57400 26.81000
C  1.72000 10.23200 26.91600
C  1.73900 13.38400 24.96000
C  2.29100 12.11400 28.10200
O  2.64100 13.20800 28.40800
C  1.95400 10.95700 29.12600
C  3.04000 10.88100 30.08400
O  4.19700 10.44000 29.87100
O  2.64300 11.42100 31.27400
C  3.67700 11.38200 32.26800
H  0.89600 4.06400 28.18600
H  0.03500 5.27200 21.99600
H  1.12000 11.26400 22.73300
H  2.60100 8.02000 30.46500
H  0.91300 5.74500 30.38900
H  2.85600 4.65200 30.68400
H  3.67900 6.13300 30.28600
H  3.38200 4.97600 29.04000
H  -0.34200 7.65300 30.47400
H  0.33300 9.23900 30.78000
H  -0.19300 7.24900 32.75300
H  0.54100 8.89400 32.95800
H  -0.63700 1.75200 25.79300
H  -0.12800 2.04600 27.41600
H  1.03800 1.36300 26.27600
H  1.08000 0.81300 24.01100
H  0.41200 0.71800 22.43500
H  -0.75500 0.88500 23.66800
H  -0.52300 7.48800 20.81300
H  1.67500 9.44600 20.76300
H  2.34500 6.69600 20.24800
H  1.61500 7.71700 19.09800
H  0.92500 6.08400 19.50900
H  -0.45100 10.90600 21.63600
H  -1.22700 9.65300 20.57700
H  -0.59700 11.68500 19.15100
H  0.57900 10.33500 18.73900
H  0.99700 11.71300 19.69800
H  0.75700 13.78900 25.20400
H  1.79600 13.34400 23.87300
H  2.56200 14.01200 25.30200
H  0.97000 11.24700 29.49500
H  3.52700 11.96200 33.17800
H  4.57800 11.71500 31.75100
H  3.74200 10.35400 32.62300
Mg 35.91800 1.43400 29.71600
C  33.88300 2.66800 32.18000
C  38.62700 1.42600 31.96300
C  37.88800 0.76100 27.17100
C  33.27600 2.05700 27.38500
N  36.20600 2.07800 31.74500
C  35.21500 2.42300 32.62600
C  35.79700 2.60700 34.04000
C  37.33300 2.31100 33.89800
C  37.39800 1.88600 32.41500
C  38.29500 3.56800 34.07700
C  35.02300 1.99900 35.25100
C  35.83000 1.45000 36.47700
H  36.15100 2.44700 37.58400
N  38.02100 0.96700 29.62100
C  38.92500 1.06000 30.66100
C  40.17200 0.63500 30.12900
C  40.03500 0.45200 28.75100
C  38.59300 0.72700 28.44400
C  41.47400 0.44100 30.95500
C  41.05300 0.01600 27.59500
O  40.68700 -0.06100 26.43200
C  42.42100 -0.35100 27.91200
N  35.62300 1.41100 27.60900
C  36.63900 1.03100 26.77600
C  36.14400 0.92700 25.26500
C  34.57000 1.22000 25.43900
C  34.49500 1.53200 26.91900
C  36.89600 1.90600 24.29600
C  33.61500 0.17600 24.97100
C  33.21000 -0.96000 25.93100
N  33.94600 2.09300 29.72900
C  33.06100 2.37800 28.72800
C  31.73200 2.78800 29.33500
C  32.06700 2.93500 30.68900
C  33.40100 2.49800 30.85800
C  30.49000 2.99700 28.54800
C  31.51800 3.30500 31.97700
O  30.35300 3.61200 32.23400
C  32.66800 3.12500 32.99000
C  32.83300 4.51800 33.60900
O  33.65000 5.35600 33.20100
O  32.05400 4.49600 34.74100
C  32.21700 5.72600 35.52500
H  39.39700 1.56400 32.72400
H  38.55400 0.54200 26.33400
H  32.46300 2.18300 26.66700
H  35.63900 3.65900 34.27900
H  37.65200 1.44600 34.48000
H  37.80000 4.34600 34.65800
H  38.79100 3.96500 33.19200
H  39.11000 3.25000 34.72700
H  34.64500 1.08100 34.80000
H  34.19900 2.60600 35.62500
H  36.78600 1.03400 36.16000
H  35.30900 0.63100 36.97300
H  42.15500 1.24600 30.67700
H  42.01100 -0.47400 30.70700
H  41.08000 0.59700 31.95900
H  43.03700 -0.53300 27.03100
H  42.37400 -1.32300 28.40300
H  42.85100 0.51700 28.41300
H  36.22700 -0.07300 24.83900
H  34.23300 2.09700 24.88700
H  36.12700 2.53000 23.84000
H  37.48300 1.33400 23.57800
H  37.61200 2.47100 24.89200
H  34.04100 -0.25500 24.06600
H  32.71300 0.71900 24.69000
H  32.13000 -1.07800 25.84800
H  33.43500 -0.95100 26.99800
H  33.46800 -1.87400 25.39700
H  30.56100 2.34200 27.68000
H  30.16500 4.00900 28.31000
H  29.74800 2.48700 29.16300
H  32.33300 2.39100 33.72200
H  31.72900 6.47400 34.90100
H  33.25800 6.01700 35.66600
H  31.72800 5.40700 36.44600

