158

Mg 47.46300 15.84800 27.78100
C  45.41800 16.13800 30.67500
C  49.78800 17.74300 29.45200
C  49.04500 16.03300 24.94200
C  44.63500 14.55400 26.13100
N  47.55400 16.87400 29.77900
C  46.73100 16.68200 30.82300
C  47.33700 17.26600 32.14200
C  48.54400 18.02800 31.60900
C  48.66500 17.56900 30.20900
C  48.57900 19.55300 31.89500
C  47.64100 16.24500 33.18100
C  47.34800 16.58100 34.61700
H  46.90400 18.02500 34.87100
N  49.28200 16.51800 27.34600
C  50.14900 17.27000 28.15100
C  51.37800 17.40100 27.45100
C  51.22300 16.90600 26.07900
C  49.82500 16.42400 26.06300
C  52.65400 17.96100 27.96200
C  52.20300 16.73100 24.89200
O  51.83100 16.20700 23.81900
C  53.52600 17.40600 24.85900
N  47.01300 15.11200 25.77200
C  47.82800 15.42700 24.79200
C  47.08900 15.27600 23.43200
C  45.84000 14.39600 23.80400
C  45.74800 14.69900 25.34600
C  46.52000 16.71800 22.89600
C  46.10100 12.89100 23.61600
C  45.17600 12.18200 22.56900
N  45.42300 15.35900 28.23800
C  44.44500 14.85600 27.45400
C  43.24200 14.62800 28.24300
C  43.62000 15.01600 29.53600
C  44.89900 15.56300 29.44900
C  41.97400 14.08200 27.70900
C  43.18100 15.10700 30.86900
O  42.23100 14.60600 31.47200
C  44.25700 15.91600 31.68700
C  43.67400 17.14600 32.19700
O  43.67300 18.27600 31.63000
O  43.19900 16.91700 33.44400
C  42.60900 18.06600 34.03600
H  50.57000 18.31600 29.95500
H  49.56900 16.09400 23.98600
H  43.93900 14.02400 25.47600
H  46.59900 17.96000 32.54600
H  49.46500 17.73000 32.11000
H  49.27100 19.68200 32.72700
H  47.60600 19.83700 32.29700
H  48.88700 20.10100 31.00600
H  48.67100 15.92500 33.02500
H  47.00100 15.40300 32.92100
H  48.11900 16.32400 35.34300
H  46.42100 16.05400 34.84300
H  53.47400 17.26600 27.77900
H  52.50200 18.00000 29.04100
H  52.79800 18.98600 27.62200
H  54.25500 16.91600 25.50500
H  53.39200 18.48500 24.92800
H  53.95500 17.30300 23.86300
H  47.77400 14.83100 22.71000
H  44.95900 14.70500 23.24000
H  46.87400 17.51700 23.54700
H  45.43600 16.79100 22.98500
H  46.85500 16.98400 21.89400
H  45.94000 12.36400 24.55700
H  47.11500 12.80700 23.22500
H  44.46300 12.88900 22.14500
H  44.71900 11.36500 23.12700
H  45.60800 11.75500 21.66400
H  41.83700 13.04600 28.01800
H  41.95800 14.05800 26.61900
H  41.21200 14.70200 28.18100
H  44.65700 15.34200 32.52300
H  41.57100 18.09700 33.70800
H  43.07700 19.01200 33.76400
H  42.59100 18.02700 35.12500
Mg 27.57500 51.08100 25.67300
C  25.62200 52.44800 28.27700
C  29.72100 49.72200 27.98500
C  29.37600 49.98100 22.99100
C  25.23400 52.56400 23.43000
N  27.72000 51.28400 27.85400
C  26.79200 51.77900 28.73200
C  27.12800 51.46700 30.19500
C  28.53500 50.78400 30.04800
C  28.75100 50.54500 28.54300
C  29.62800 51.58100 30.75100
C  26.06600 50.47800 30.87900
C  25.16800 50.99600 31.98600
H  25.06500 50.13400 33.21100
N  29.30900 49.97700 25.51700
C  29.99200 49.44700 26.60800
C  31.01300 48.61400 26.02600
C  30.94000 48.67600 24.62100
C  29.80100 49.55400 24.28700
C  32.00000 47.75900 26.86300
C  31.81300 47.90600 23.58700
O  31.65900 48.07500 22.38100
C  32.91600 46.89900 23.99100
N  27.42500 51.38800 23.52300
C  28.36700 50.89200 22.67100
C  27.87100 51.03800 21.22600
C  26.56400 51.90900 21.32300
C  26.34100 51.94100 22.82300
C  28.86700 51.66400 20.24900
C  25.29400 51.40700 20.50800
C  24.22700 50.59800 21.20100
N  25.88400 52.37600 25.79000
C  24.95900 52.76000 24.81700
C  23.77500 53.48500 25.31400
C  24.01600 53.31500 26.75600
C  25.31300 52.65200 26.93100
C  22.67400 54.10900 24.46900
C  23.36600 53.54100 28.04900
O  22.30100 54.06300 28.34800
C  24.45700 53.04100 29.08500
C  24.80200 54.15700 29.91100
O  25.70700 54.93600 29.70600
O  23.90000 54.17400 30.93600
C  24.24200 54.90300 32.20000
H  30.38000 49.23600 28.70700
H  30.00800 49.62100 22.17600
H  24.44300 52.84100 22.73100
H  27.21500 52.43300 30.69200
H  28.55900 49.78000 30.47200
H  29.18300 52.34300 31.39100
H  30.28000 52.07500 30.03100
H  30.19900 50.89000 31.37100
H  26.43400 49.46100 31.00900
H  25.41500 50.30600 30.02200
H  24.15000 51.09500 31.61200
H  25.60000 51.95600 32.26600
H  32.01600 48.04900 27.91300
H  33.03200 47.88500 26.53500
H  31.82900 46.68900 26.74400
H  33.66100 47.40100 24.60800
H  33.54700 46.62400 23.14600
H  32.55400 45.98300 24.45800
H  27.58200 50.03500 20.91300
H  26.64600 52.95300 21.02100
H  28.86300 51.05700 19.34500
H  29.84900 51.71700 20.71900
H  28.54800 52.67500 19.99300
H  25.60200 50.80500 19.65400
H  24.77600 52.27900 20.10900
H  23.91500 49.77900 20.55300
H  23.33500 51.13800 21.51900
H  24.56800 50.24500 22.17500
H  22.97500 54.67200 23.58500
H  22.07500 54.72600 25.13800
H  22.06300 53.25800 24.16900
H  23.99100 52.25300 29.67600
H  23.43800 55.39300 32.75100
H  24.84000 55.76600 31.90800
H  24.85500 54.31400 32.88200

