158

Mg 47.27700 33.70000 26.47700
C  45.90300 32.56000 29.42000
C  48.25800 36.54700 28.28900
C  48.57900 35.08100 23.68800
C  46.48600 30.83400 24.78100
N  47.08800 34.43200 28.62400
C  46.50300 33.79000 29.66200
C  46.71800 34.45200 31.00500
C  47.10100 35.86100 30.51500
C  47.62000 35.58600 29.09000
C  45.94500 36.93500 30.58800
C  47.83200 33.85000 31.86600
C  47.81900 33.88300 33.41400
H  46.80900 34.79400 34.13300
N  48.46600 35.49800 26.08000
C  48.69900 36.54500 26.87700
C  49.48100 37.54300 26.13300
C  49.55700 37.14800 24.75200
C  48.87800 35.83400 24.79400
C  50.12200 38.82400 26.73200
C  50.10300 37.90500 23.50800
O  50.20500 37.45800 22.38200
C  50.38700 39.35500 23.73500
N  47.40200 33.07000 24.43900
C  47.92000 33.85300 23.45400
C  47.92000 33.08700 22.10700
C  47.52900 31.62700 22.55100
C  47.12600 31.83000 24.01000
C  46.99900 33.70600 20.95600
C  48.70100 30.48900 22.38400
C  50.10700 30.79600 22.99100
N  46.32500 32.05100 26.89500
C  46.04700 30.86700 26.12500
C  45.33900 29.86000 26.99300
C  45.19100 30.53400 28.21700
C  45.88900 31.80900 28.17900
C  44.93800 28.42200 26.63100
C  44.61300 30.39000 29.47600
O  43.92600 29.52800 30.00900
C  44.98100 31.76400 30.28600
C  45.23600 31.55500 31.73700
O  46.15400 30.93000 32.25000
O  44.10300 31.95900 32.42300
C  43.97000 31.41300 33.76500
H  48.49200 37.42800 28.89100
H  48.81900 35.57400 22.74300
H  46.42300 29.87800 24.25700
H  45.75100 34.40000 31.50500
H  47.95400 36.22900 31.08500
H  45.12100 36.44600 31.10800
H  45.65400 37.27200 29.59300
H  46.27100 37.84100 31.09900
H  48.73700 34.43900 31.71900
H  48.10500 32.82500 31.61700
H  48.84200 33.90000 33.78800
H  47.55900 32.85500 33.66400
H  49.99900 38.69300 27.80700
H  49.54100 39.68700 26.40600
H  51.09500 39.09000 26.32000
H  49.46100 39.76200 24.14100
H  50.53500 39.79100 22.74700
H  51.30000 39.49400 24.31300
H  48.93600 33.07600 21.71100
H  46.60900 31.36200 22.03000
H  47.48500 33.41200 20.02500
H  46.76900 34.77200 20.94200
H  46.09700 33.09600 20.92900
H  48.79200 30.17000 21.34500
H  48.37700 29.66300 23.01800
H  50.27000 30.13600 23.84300
H  50.31600 31.81700 23.31000
H  50.78400 30.53300 22.17900
H  45.81200 27.77200 26.60300
H  44.38000 28.32400 25.70000
H  44.24300 28.15300 27.42700
H  44.03200 32.29600 30.22100
H  43.89900 30.32600 33.79000
H  43.01000 31.55200 34.26300
H  44.67900 31.87600 34.45100
Mg 9.18100 48.89400 26.22900
C  7.09500 49.36500 28.94700
C  11.83800 49.95500 28.10000
C  11.10300 48.43300 23.51500
C  6.32800 48.17700 24.22700
N  9.38100 49.62300 28.31100
C  8.44800 49.68700 29.26800
C  9.05800 50.17000 30.57000
C  10.49300 50.64500 30.08400
C  10.63000 50.01300 28.73100
C  10.77100 52.19400 30.05100
C  9.22400 49.00000 31.60300
C  8.29500 49.05800 32.84500
H  8.42600 48.01500 33.95100
N  11.20700 49.00700 25.86600
C  12.09300 49.50800 26.79000
C  13.44600 49.33900 26.26200
C  13.34000 48.83700 24.97800
C  11.87000 48.77300 24.66400
C  14.73700 49.68800 26.90300
C  14.36000 48.43700 23.93800
O  14.08800 47.81300 22.89200
C  15.77800 48.67000 24.23700
N  8.75900 48.31400 24.14800
C  9.74400 48.31000 23.20000
C  9.19400 47.84500 21.87200
C  7.64100 47.88900 22.03600
C  7.54500 48.08400 23.58300
C  9.50100 48.68600 20.60300
C  6.95800 46.52800 21.55000
C  6.34300 46.64300 20.15200
N  7.16500 48.78500 26.42300
C  6.08500 48.59100 25.58400
C  4.81600 48.72400 26.21400
C  5.17100 48.96000 27.55000
C  6.59100 48.98500 27.64200
C  3.46600 48.72900 25.50400
C  4.69100 49.19200 28.88400
O  3.50800 49.21600 29.29200
C  5.89100 49.39000 29.81100
C  5.93300 48.21000 30.66700
O  6.65700 47.20100 30.72700
O  4.99400 48.52600 31.69900
C  4.70100 47.46800 32.59700
H  12.69400 50.34100 28.65700
H  11.78300 48.32800 22.66600
H  5.41900 48.06600 23.63300
H  8.40400 50.98500 30.87900
H  11.29400 50.13400 30.61700
H  9.92200 52.83600 30.29000
H  11.11200 52.52700 29.07100
H  11.46700 52.43200 30.85500
H  10.20700 48.89000 32.06200
H  9.21000 48.05300 31.06200
H  7.25600 49.04400 32.51500
H  8.49200 50.01800 33.32100
H  14.73800 49.98100 27.95200
H  15.25400 50.48600 26.37000
H  15.34700 48.78600 26.88300
H  16.01600 48.00800 25.07000
H  15.86000 49.72500 24.49700
H  16.29900 48.27900 23.36300
H  9.70500 46.89900 21.68900
H  7.20500 48.76100 21.54800
H  10.03300 49.58400 20.91900
H  8.70900 48.95200 19.90300
H  10.21900 48.10800 20.02100
H  6.08800 46.20700 22.12300
H  7.59100 45.64500 21.46400
H  5.36000 46.17400 20.11300
H  7.07200 46.14600 19.51200
H  6.30300 47.64100 19.71500
H  3.14000 47.91900 24.85200
H  3.34200 49.68100 24.98900
H  2.65300 48.74700 26.22900
H  5.87200 50.35400 30.32000
H  5.31200 47.39000 33.49600
H  4.47300 46.47200 32.21600
H  3.73300 47.73700 33.02100

