158

Mg 50.70200 44.54400 41.88800
C  47.79900 46.15200 40.86500
C  49.51800 41.57500 40.86800
C  53.88100 43.33700 41.91600
C  51.88500 47.66200 42.79400
N  48.87700 44.01400 40.83200
C  47.76200 44.74200 40.74800
C  46.54500 43.87800 40.18000
C  47.09900 42.48800 40.59000
C  48.60500 42.68400 40.76700
C  46.31000 41.67100 41.68900
C  46.30700 44.13000 38.63300
C  44.98600 43.91500 37.99700
H  44.85400 43.07100 36.74600
N  51.53500 42.68900 41.52800
C  50.86300 41.60400 41.15000
C  51.74300 40.42400 41.23200
C  53.02600 40.93900 41.43300
C  52.85100 42.39200 41.59000
C  51.37300 39.03200 40.96600
C  54.25300 40.09300 41.40600
O  54.19800 38.87100 41.28300
C  55.63500 40.65700 41.58200
N  52.57400 45.42100 42.35000
C  53.69700 44.69800 42.32300
C  54.86100 45.45500 42.87800
C  54.29500 46.93600 43.07600
C  52.83900 46.68800 42.70100
C  55.51900 44.81400 44.23000
C  54.81400 48.00200 41.98700
C  55.49500 49.29900 42.58700
N  49.98900 46.54300 41.87800
C  50.57400 47.68800 42.25000
C  49.64100 48.79000 42.12500
C  48.51200 48.23200 41.57000
C  48.77100 46.86100 41.41100
C  49.90600 50.16900 42.60100
C  47.24200 48.54600 41.01300
O  46.68800 49.63200 40.95600
C  46.66100 47.13500 40.63600
C  45.35800 46.93300 41.27900
O  45.19400 46.15000 42.22700
O  44.30700 47.65300 40.70400
C  43.10400 47.61400 41.55200
H  49.02700 40.60300 40.78000
H  54.92200 43.00800 41.89700
H  52.31400 48.60500 43.14000
H  45.54100 43.89800 40.60400
H  47.10800 41.82700 39.72300
H  45.66900 42.27600 42.33100
H  47.00800 41.20500 42.38400
H  45.68000 40.84800 41.35100
H  46.94800 43.45100 38.07100
H  46.61600 45.16200 38.46700
H  44.64000 44.90900 37.71300
H  44.40900 43.41100 38.77200
H  51.87800 38.72600 40.05000
H  50.30800 38.87200 40.80100
H  51.72200 38.32300 41.71700
H  55.80800 40.84100 42.64300
H  55.80000 41.55100 40.98200
H  56.38600 39.90300 41.34400
H  55.56500 45.42800 42.04600
H  54.33100 47.27100 44.11200
H  56.59800 44.77200 44.08300
H  55.34800 43.73800 44.24200
H  55.13900 45.33500 45.11000
H  53.92900 48.21600 41.38700
H  55.53400 47.51600 41.32900
H  54.84300 50.10500 42.25100
H  56.45600 49.33100 42.07300
H  55.54200 49.27600 43.67500
H  50.74900 50.68400 42.13900
H  50.04700 50.15600 43.68200
H  49.02000 50.78400 42.44300
H  46.34700 47.14800 39.59200
H  42.74600 46.58500 41.54800
H  42.34800 48.25500 41.09800
H  43.41300 47.98500 42.52900
Mg 9.11700 47.74900 25.48500
C  6.90400 48.12800 28.12600
C  11.65300 48.57800 27.63400
C  11.24100 47.05100 22.99700
C  6.38300 47.41500 23.28400
N  9.26700 48.10400 27.63800
C  8.23300 48.12100 28.55800
C  8.69800 48.37400 29.97800
C  10.12600 49.00700 29.69100
C  10.41700 48.46000 28.24100
C  10.26800 50.61500 29.87900
C  8.75100 47.12000 30.88500
C  9.06400 47.48800 32.35200
H  9.24600 46.33000 33.33500
N  11.14100 47.77300 25.32700
C  12.02700 48.24600 26.30700
C  13.34300 48.16400 25.79300
C  13.25400 47.53500 24.49400
C  11.83000 47.42300 24.22900
C  14.59500 48.50800 26.58900
C  14.41900 47.21900 23.60400
O  14.31400 46.65400 22.49000
C  15.79700 47.41700 24.04700
N  8.84800 47.36700 23.44800
C  9.87800 46.99400 22.68700
C  9.41300 46.50100 21.30200
C  7.91300 46.51200 21.42800
C  7.67400 47.21400 22.81200
C  9.99700 47.39100 20.17300
C  7.39600 45.06700 21.30800
C  6.01300 44.97500 20.72900
N  7.06900 47.93800 25.54900
C  6.02200 47.81500 24.57900
C  4.76400 48.01200 25.24800
C  5.09000 48.17300 26.57900
C  6.44600 48.06300 26.78400
C  3.38600 47.86800 24.67100
C  4.48400 48.45300 27.85700
O  3.29300 48.58800 28.08600
C  5.63600 48.32600 28.96100
C  5.46500 47.27500 29.85900
O  5.47300 46.05100 29.54800
O  5.26500 47.68700 31.10500
C  5.29800 46.71900 32.19700
H  12.40700 49.00900 28.29500
H  11.90400 46.62100 22.24200
H  5.53900 47.28200 22.60400
H  8.06200 49.10400 30.47900
H  10.93300 48.59800 30.30000
H  9.26500 51.00700 30.05300
H  10.67600 51.17000 29.03400
H  10.98500 50.85800 30.66300
H  9.54700 46.47800 30.50800
H  7.87400 46.48900 30.74200
H  8.18400 48.06600 32.63500
H  9.92600 48.14900 32.44100
H  14.38700 48.79900 27.61800
H  15.09800 49.38500 26.18300
H  15.32200 47.69900 26.67300
H  16.14000 46.88100 24.93200
H  15.83500 48.48100 24.28200
H  16.40300 47.09000 23.20200
H  9.85300 45.52900 21.08000
H  7.57300 47.24800 20.69900
H  11.03500 47.69900 20.29700
H  9.30500 48.23100 20.11400
H  9.86800 46.90800 19.20400
H  7.25800 44.78900 22.35300
H  8.09600 44.43400 20.76300
H  5.25300 44.44500 21.30200
H  6.07700 44.51200 19.74400
H  5.53100 45.93600 20.55000
H  3.24300 48.73700 24.03000
H  2.74300 47.86800 25.55100
H  3.33600 46.97500 24.04700
H  5.76500 49.29200 29.44900
H  4.34300 46.61800 32.71300
H  5.97800 47.08900 32.96400
H  5.59700 45.68100 32.05500

