158

Mg 24.18300 -4.85700 45.02600
C  26.17200 -2.16400 43.79600
C  21.65800 -3.64700 43.13900
C  22.41900 -7.65300 45.90300
C  26.97800 -6.08200 46.67300
N  23.99500 -3.09700 43.48500
C  24.86500 -2.09300 43.30200
C  24.32200 -1.15800 42.20200
C  22.77400 -1.45100 42.27100
C  22.75000 -2.79400 43.03800
C  22.14000 -0.34200 43.09400
C  24.97900 -1.55400 40.85000
C  25.69900 -0.47700 40.02100
H  25.41000 -0.36200 38.60900
N  22.27500 -5.61200 44.53000
C  21.38900 -4.90300 43.79900
C  20.13200 -5.72400 43.74700
C  20.30600 -6.81900 44.69200
C  21.69300 -6.70300 45.14300
C  19.01300 -5.30900 42.82900
C  19.26700 -7.83700 45.02100
O  18.21900 -7.70500 44.41700
C  19.47700 -8.96000 46.07000
N  24.68000 -6.62600 45.96700
C  23.76600 -7.66400 46.20200
C  24.45800 -8.88900 46.89300
C  25.81200 -8.31700 47.25300
C  25.86200 -6.94200 46.58300
C  23.70400 -9.46800 48.11500
C  26.99800 -9.23400 46.82000
C  27.71600 -10.06500 47.92300
N  26.18900 -4.34000 45.20100
C  27.19700 -4.89400 45.95000
C  28.42200 -4.18400 45.74700
C  28.08900 -3.19300 44.90100
C  26.71100 -3.24500 44.66800
C  29.69600 -4.53100 46.40100
C  28.59400 -1.99700 44.25500
O  29.78200 -1.59500 44.31000
C  27.37300 -1.32300 43.45500
C  27.16700 0.14100 43.95100
O  26.41300 0.48100 44.85100
O  27.91600 1.04400 43.25300
C  28.03900 2.37400 43.88400
H  20.75000 -3.26900 42.66500
H  21.86600 -8.51200 46.28900
H  27.81500 -6.37500 47.31000
H  24.58700 -0.12200 42.41100
H  22.33900 -1.48500 41.27200
H  21.51800 -0.80600 43.86000
H  21.60000 0.26800 42.37000
H  22.91100 0.27800 43.55300
H  24.21500 -1.92200 40.16500
H  25.78300 -2.26000 41.05400
H  26.77000 -0.60000 40.17600
H  25.46700 0.51600 40.40800
H  19.06600 -4.32700 42.35800
H  18.08200 -5.45600 43.37500
H  18.91500 -5.96100 41.96000
H  19.71100 -8.52200 47.04000
H  20.25700 -9.65300 45.75700
H  18.55600 -9.52000 46.23900
H  24.37900 -9.60700 46.07700
H  25.85500 -8.20800 48.33700
H  23.12000 -10.28500 47.69100
H  22.89400 -8.80600 48.42100
H  24.33900 -9.81200 48.93200
H  27.73100 -8.57400 46.35700
H  26.67200 -9.77600 45.93200
H  28.76400 -10.25000 47.68700
H  27.22100 -11.03500 47.96700
H  27.67200 -9.51200 48.86200
H  29.90900 -5.42700 45.81800
H  29.51200 -4.81100 47.43900
H  30.46000 -3.77300 46.23000
H  27.44800 -1.29300 42.36800
H  27.11600 2.93400 44.03700
H  28.70700 3.03500 43.33100
H  28.38800 2.14500 44.89100
Mg 48.74500 25.03600 28.44600
C  49.59700 27.26800 30.90200
C  47.76200 22.77200 30.81900
C  47.64300 23.13000 25.95000
C  50.23900 27.26500 26.12100
N  48.78500 25.02600 30.69700
C  48.92100 26.12700 31.39800
C  48.48400 25.90700 32.87300
C  48.13300 24.38900 32.88100
C  48.18800 24.03000 31.38800
C  48.81300 23.36900 33.76400
C  47.35200 26.85900 33.35200
C  47.77600 27.91500 34.33300
H  46.97500 28.13900 35.59900
N  48.03500 23.07100 28.41300
C  47.73600 22.30300 29.49100
C  47.22300 21.06900 28.99400
C  46.96300 21.25400 27.60000
C  47.53700 22.56900 27.26400
C  46.94000 19.87900 29.85100
C  46.40900 20.25500 26.49400
O  46.38800 20.46400 25.30500
C  45.99800 18.93300 26.92500
N  48.92200 25.13700 26.34900
C  48.22700 24.27300 25.49500
C  48.23700 24.72000 24.10300
C  49.15300 26.01800 24.15300
C  49.48600 26.21100 25.60900
C  48.74300 23.70100 22.99700
C  48.47500 27.10700 23.35800
C  49.44400 27.95600 22.55600
N  49.76400 26.87600 28.52300
C  50.27200 27.67800 27.49200
C  50.77400 28.92200 28.03800
C  50.59600 28.81200 29.41400
C  49.88600 27.54800 29.59900
C  51.33500 30.11000 27.12800
C  50.79400 29.48200 30.63200
O  51.26700 30.54700 30.97200
C  50.09200 28.50000 31.68800
C  51.16600 28.13700 32.65800
O  52.06400 27.37700 32.40600
O  51.01200 28.83400 33.87300
C  51.95500 28.43800 34.94300
H  47.30000 22.16400 31.60000
H  47.06900 22.58700 25.19600
H  50.78200 27.84900 25.37500
H  49.34000 26.06000 33.53100
H  47.08500 24.35400 33.17900
H  49.00300 23.72900 34.77500
H  49.70700 22.99100 33.26800
H  48.12300 22.52700 33.72600
H  46.43400 26.36200 33.66400
H  47.06700 27.46600 32.49300
H  47.56700 28.89400 33.90200
H  48.83400 27.82900 34.58000
H  47.05000 20.07100 30.91900
H  47.69800 19.11700 29.67500
H  45.93100 19.56100 29.59000
H  45.78400 18.27900 26.07900
H  45.08300 19.01700 27.51000
H  46.80700 18.42700 27.45200
H  47.20100 24.99300 23.90300
H  50.06300 25.76800 23.60700
H  48.78200 22.73000 23.49100
H  49.66500 23.97800 22.48600
H  47.94300 23.64100 22.26000
H  48.02800 27.84700 24.02200
H  47.71900 26.72400 22.67200
H  50.47300 27.61400 22.66200
H  49.36200 28.97400 22.93700
H  49.29000 27.96900 21.47700
H  51.42000 31.02800 27.70900
H  50.72600 30.35900 26.26000
H  52.33900 29.94100 26.73700
H  49.38900 29.09800 32.26900
H  51.88200 29.29700 35.61000
H  52.94500 28.42500 34.48600
H  51.74500 27.47900 35.41800

