158

Mg 30.57600 59.58500 38.24500
C  27.66100 57.79800 37.54700
C  32.39400 56.83200 37.26600
C  33.29400 61.50100 38.21300
C  28.56900 62.45500 38.49100
N  30.06100 57.59700 37.43100
C  28.82200 57.04700 37.22800
C  28.94500 55.66600 36.55800
C  30.42800 55.29200 36.77100
C  31.04100 56.62500 37.17000
C  30.56700 54.22100 37.93700
C  28.45500 55.78400 35.08500
C  27.15800 54.91300 34.77500
H  26.13500 55.51000 33.66700
N  32.56400 59.20300 37.87700
C  33.17100 58.00900 37.50200
C  34.62200 58.17300 37.49000
C  34.90000 59.51300 37.88000
C  33.57200 60.11000 37.98400
C  35.64300 57.03400 37.11500
C  36.27500 60.11300 38.13600
O  37.29400 59.46600 37.92400
C  36.52400 61.42100 38.56700
N  30.84200 61.65700 38.35100
C  32.04600 62.15500 38.33000
C  32.05700 63.70300 38.64400
C  30.52300 64.04900 38.68600
C  29.90700 62.62500 38.35300
C  32.72700 64.09400 40.01300
C  30.12000 65.20400 37.57100
C  31.17000 66.37500 37.38900
N  28.54100 60.03600 38.27500
C  27.88300 61.22300 38.44500
C  26.45400 61.00000 38.33600
C  26.38200 59.67800 37.99200
C  27.63600 59.10200 38.01500
C  25.28000 61.97500 38.52800
C  25.42600 58.67000 37.63400
O  24.23500 58.77800 37.51900
C  26.18100 57.37000 37.40200
C  25.82500 56.40300 38.51500
O  26.52400 56.09300 39.46700
O  24.50500 56.02100 38.34100
C  24.06100 55.01000 39.37600
H  32.97900 55.93900 37.03700
H  34.10200 62.22500 38.34400
H  28.00000 63.38300 38.57100
H  28.34200 54.97900 37.15100
H  30.92600 54.95900 35.86100
H  31.39000 54.29900 38.64800
H  30.78500 53.29500 37.40400
H  29.57900 54.09000 38.37900
H  29.27700 55.51800 34.42000
H  28.29400 56.85400 34.94800
H  26.56700 54.52100 35.60200
H  27.52200 54.04900 34.21900
H  35.17200 56.37000 36.39000
H  35.86800 56.39000 37.96500
H  36.56700 57.39500 36.66300
H  37.56000 61.51800 38.89000
H  36.03100 61.75800 39.47900
H  36.30900 62.14000 37.77700
H  32.54800 64.17400 37.79300
H  30.07600 64.40300 39.61400
H  33.31800 63.25700 40.38400
H  32.00500 64.33200 40.79500
H  33.36900 64.95200 39.81300
H  29.13000 65.52000 37.90100
H  30.01800 64.58600 36.67900
H  30.51600 67.23300 37.23500
H  31.67200 66.25500 36.42900
H  31.79400 66.43500 38.28200
H  24.94800 62.32600 37.55100
H  25.52300 62.72700 39.27900
H  24.40000 61.49100 38.95000
H  25.86900 56.99800 36.42600
H  24.00400 55.35900 40.40700
H  24.65000 54.09700 39.28700
H  23.13700 54.62300 38.94800
Mg 7.71100 53.85700 40.03300
C  7.25500 50.46600 40.15400
C  11.00500 53.50600 39.05400
C  7.84900 57.17600 39.36500
C  4.12800 54.19900 40.68300
N  8.97200 52.14400 39.60500
C  8.54700 50.82000 39.65800
C  9.76000 49.88700 39.36700
C  10.98700 50.85000 39.37700
C  10.29600 52.26100 39.34600
C  12.04100 50.61800 40.42000
C  9.54300 49.13600 37.99900
C  9.36000 49.99100 36.71300
H  8.31400 49.50200 35.66900
N  9.26400 55.19000 39.33600
C  10.49000 54.83400 38.91100
C  11.18000 55.98700 38.58500
C  10.35100 57.10000 38.66700
C  9.11400 56.54200 39.15700
C  12.66400 55.84800 38.15800
C  10.71100 58.51500 38.20400
O  11.85000 58.72100 37.78300
C  9.77600 59.66300 38.30900
N  6.20100 55.45100 40.06400
C  6.59000 56.73900 39.84000
C  5.37200 57.73200 40.00400
C  4.25500 56.71400 40.50700
C  4.87600 55.36200 40.36100
C  5.57800 59.08900 40.78600
C  2.79400 56.91300 39.92600
C  1.62200 56.98100 40.98500
N  5.96300 52.58500 40.44600
C  4.64700 52.85900 40.68400
C  3.99700 51.54300 40.95900
C  5.00200 50.63100 40.80500
C  6.15000 51.25600 40.38300
C  2.58400 51.39600 41.53100
C  5.26000 49.21700 40.95600
O  4.57000 48.28300 41.33200
C  6.73000 49.03600 40.48600
C  6.64100 48.14000 39.30600
O  6.12000 48.31300 38.22700
O  7.19900 46.94900 39.62300
C  6.77900 45.77200 38.84000
H  12.07300 53.37200 38.86700
H  8.00900 58.25600 39.31800
H  3.12600 54.49600 40.99800
H  9.78600 49.14900 40.16800
H  11.50300 50.81700 38.41700
H  12.91800 50.40500 39.80800
H  11.76200 49.68400 40.90700
H  12.26100 51.40200 41.14400
H  8.83900 48.31100 38.10600
H  10.48600 48.59900 37.89100
H  10.33200 49.95300 36.22200
H  9.10100 51.03500 36.89200
H  12.68800 56.06000 37.08900
H  13.12600 54.91500 38.48100
H  13.12700 56.64300 38.74200
H  9.60200 59.82500 39.37200
H  8.88200 59.51400 37.70300
H  10.29500 60.49500 37.83300
H  5.05700 58.03800 39.00700
H  4.28000 56.79400 41.59300
H  4.76300 59.22800 41.49700
H  5.49100 59.93700 40.10600
H  6.50900 59.09000 41.35400
H  2.60200 56.08400 39.24400
H  2.75500 57.80400 39.29900
H  1.03200 57.85600 40.71600
H  1.99700 57.11200 42.00000
H  0.91600 56.15300 41.05000
H  2.17100 52.38800 41.71800
H  2.78500 50.94600 42.50300
H  1.94300 50.77600 40.90500
H  7.31700 48.55900 41.27100
H  6.69300 44.95700 39.55800
H  7.57900 45.37500 38.21500
H  5.88400 45.95000 38.24400

