158

Mg 40.90000 8.37700 29.25700
C  42.43900 9.78300 32.09900
C  38.49100 7.01000 31.28400
C  39.68400 6.97200 26.50400
C  43.85600 9.30200 27.54500
N  40.53900 8.33500 31.51700
C  41.23600 9.10500 32.44500
C  40.47800 9.11900 33.81700
C  39.33700 8.12500 33.52500
C  39.43900 7.79400 31.98600
C  39.45900 6.68800 34.21600
C  40.07300 10.50300 34.32700
C  39.97900 10.57700 35.83600
H  40.95100 11.49300 36.61800
N  39.20200 7.17600 28.93300
C  38.33400 6.70600 29.90900
C  37.26100 6.02400 29.22400
C  37.56000 6.03400 27.87000
C  38.86300 6.69400 27.70500
C  36.08400 5.38400 29.92800
C  36.68100 5.53300 26.73100
O  36.97700 5.61000 25.55100
C  35.22200 5.06900 27.01500
N  41.67100 8.20500 27.34800
C  40.92400 7.61700 26.35200
C  41.65200 7.58000 25.03900
C  42.89000 8.62900 25.23200
C  42.81800 8.68400 26.84700
C  42.16200 6.20700 24.53100
C  42.92700 9.92900 24.44800
C  42.15800 11.08700 25.01500
N  42.78700 9.32800 29.70000
C  43.76000 9.71700 28.86700
C  44.70600 10.62200 29.59300
C  44.26600 10.63700 30.92400
C  43.05100 9.85000 30.90100
C  45.87300 11.30700 29.04900
C  44.53900 11.14900 32.25400
O  45.44600 11.75200 32.73500
C  43.35000 10.50800 33.07300
C  44.05300 9.61400 34.04600
O  44.79100 8.71100 33.69700
O  43.56200 9.84200 35.31400
C  43.95900 8.84000 36.31700
H  37.60900 6.80500 31.89300
H  39.29900 6.57800 25.56100
H  44.55400 9.88600 26.94100
H  41.08300 8.60900 34.56600
H  38.33100 8.42000 33.82400
H  39.92100 5.93100 33.58200
H  38.47500 6.26200 34.41200
H  40.02600 6.64000 35.14600
H  39.11500 10.75300 33.87100
H  40.72200 11.20200 33.79800
H  40.00600 9.58200 36.28100
H  38.96000 10.92400 36.00500
H  35.09900 5.75700 29.64600
H  36.19000 5.46700 31.00900
H  36.12500 4.33100 29.64700
H  35.20000 4.09100 27.49600
H  34.72700 5.03800 26.04400
H  34.81300 5.88600 27.61000
H  41.11200 8.03300 24.20800
H  43.75100 8.03700 24.92100
H  41.84600 6.09900 23.49400
H  41.70600 5.35300 25.03100
H  43.24500 6.08500 24.56100
H  42.40500 9.61300 23.54500
H  43.94900 10.15100 24.13800
H  41.66200 11.55700 24.16600
H  42.91500 11.70200 25.50300
H  41.46800 10.77600 25.80000
H  45.87800 11.36900 27.96100
H  46.71700 10.65400 29.27100
H  46.00400 12.27400 29.53500
H  42.93800 11.39400 33.55600
H  43.75700 9.12800 37.34800
H  45.02900 8.63500 36.28100
H  43.32100 7.97000 36.16600
Mg 9.13600 47.46100 25.51200
C  7.16000 47.28600 28.32100
C  11.72000 48.76600 27.44500
C  10.97100 47.88100 22.73400
C  6.31500 46.73500 23.45800
N  9.34400 47.93400 27.65900
C  8.44100 47.68000 28.68600
C  9.03900 48.08200 30.04100
C  10.32000 48.90600 29.63500
C  10.48600 48.55000 28.16800
C  10.26500 50.43400 29.77800
C  9.27900 46.91900 31.03500
C  8.53200 46.92700 32.36100
H  8.88800 45.87100 33.37700
N  11.06400 48.13700 25.17700
C  12.01200 48.44300 26.12400
C  13.33100 48.48400 25.52300
C  13.09000 48.21800 24.12100
C  11.60900 48.13300 23.98600
C  14.59000 48.72000 26.32000
C  14.10100 48.01100 23.03100
O  13.78600 47.80700 21.87400
C  15.56200 48.03900 23.34400
N  8.56600 47.67100 23.29000
C  9.64300 47.65700 22.43900
C  9.21100 47.15900 21.05600
C  7.70400 46.84900 21.30000
C  7.45300 47.04900 22.74600
C  9.36600 48.28700 19.97200
C  7.35600 45.33300 20.92700
C  6.15700 45.13400 20.03500
N  7.15800 47.06100 25.72500
C  6.09600 46.79500 24.82400
C  4.88400 46.63500 25.56800
C  5.26100 46.71500 26.93600
C  6.64400 46.99900 26.95900
C  3.57400 46.40900 25.06600
C  4.75400 46.62800 28.28500
O  3.68800 46.20600 28.70400
C  6.03600 46.83600 29.27700
C  6.18900 45.45200 29.84800
O  6.85100 44.54200 29.43500
O  5.54100 45.51200 31.06300
C  5.66200 44.42300 31.96500
H  12.51000 49.08600 28.12700
H  11.55000 47.98600 21.81400
H  5.47800 46.36600 22.86200
H  8.29900 48.72000 30.52500
H  11.13000 48.53000 30.25900
H  9.48900 50.63200 30.51700
H  10.13600 50.97600 28.84100
H  11.21700 50.72200 30.22400
H  10.34000 46.86700 31.27700
H  9.07000 45.99900 30.48900
H  7.46400 46.85200 32.15500
H  8.59500 47.94300 32.75200
H  14.48200 48.73600 27.40500
H  14.97400 49.72200 26.13000
H  15.30000 47.95600 26.00300
H  16.15800 48.06500 22.43200
H  15.65500 47.05500 23.80500
H  15.87800 48.89700 23.93700
H  9.74300 46.22200 20.89100
H  7.08300 47.56500 20.76300
H  8.91600 47.87200 19.07000
H  10.43200 48.45700 19.81800
H  8.92000 49.25200 20.21000
H  7.30600 44.70000 21.81200
H  8.16800 44.92000 20.32800
H  6.51600 44.86500 19.04200
H  5.49200 45.99500 19.97900
H  5.60100 44.36800 20.57600
H  3.48800 45.85200 24.13300
H  3.16800 47.38000 24.78400
H  2.95200 45.95400 25.83600
H  5.83500 47.57100 30.05700
H  6.22400 44.72100 32.85100
H  6.21700 43.59800 31.51700
H  4.76100 43.91900 32.31600

