158

Mg 54.36600 24.14200 44.76300
C  52.12400 26.60200 43.97600
C  52.24800 21.77800 43.82400
C  56.96100 21.96800 44.98000
C  56.84600 26.77100 45.31000
N  52.46300 24.22300 43.83100
C  51.64200 25.33800 43.70300
C  50.22800 24.92700 43.35800
C  50.19000 23.37600 43.48400
C  51.73600 23.05200 43.74400
C  49.22200 22.73000 44.55800
C  49.74400 25.37700 41.89500
C  48.23900 24.96500 41.54200
H  47.98900 24.26700 40.21400
N  54.63200 22.06000 44.38700
C  53.56000 21.32400 43.99000
C  54.05000 19.96900 44.04600
C  55.40900 19.90500 44.39000
C  55.78000 21.33600 44.54200
C  53.09100 18.74800 43.81700
C  56.26600 18.65500 44.63200
O  55.63500 17.64600 44.64000
C  57.70500 18.71100 44.87700
N  56.65400 24.37100 44.80900
C  57.38800 23.27000 45.14400
C  58.78400 23.60400 45.73100
C  58.87200 25.14300 45.51600
C  57.40000 25.51600 45.11600
C  58.99600 23.30800 47.28100
C  59.86600 25.71700 44.46000
C  59.42200 25.56000 42.95000
N  54.47700 26.27700 44.84300
C  55.45600 27.20100 45.13700
C  54.85600 28.46700 45.25400
C  53.55600 28.28700 44.89000
C  53.38600 26.97400 44.54900
C  55.55500 29.76300 45.62800
C  52.21500 28.94000 44.70700
O  51.87400 30.09600 44.98800
C  51.33700 27.93100 43.91200
C  51.17400 28.45500 42.54500
O  52.08400 28.42100 41.70700
O  49.89500 28.89700 42.39400
C  49.56100 29.29300 41.02500
H  51.46400 21.05100 43.60000
H  57.80000 21.31400 45.22800
H  57.56900 27.58400 45.40600
H  49.55200 25.30500 44.12400
H  49.94900 22.95800 42.50700
H  48.92300 23.48100 45.28900
H  49.85100 22.03600 45.11500
H  48.30600 22.32200 44.13000
H  50.43300 25.04700 41.11800
H  49.72000 26.46600 41.86300
H  47.62800 25.86700 41.58800
H  47.94000 24.27300 42.32900
H  52.99400 18.59800 42.74200
H  52.15000 19.02600 44.29200
H  53.30000 17.77700 44.26700
H  58.11300 17.70500 44.97100
H  58.17100 19.26800 45.69000
H  58.10400 19.11200 43.94500
H  59.58400 23.10600 45.18300
H  59.12000 25.60100 46.47400
H  58.30100 22.54500 47.63100
H  58.75200 24.17100 47.90100
H  60.04000 23.17400 47.56600
H  60.85000 25.27800 44.62300
H  60.03900 26.76300 44.71400
H  58.86300 26.42800 42.59900
H  58.75600 24.71600 42.77300
H  60.25400 25.36300 42.27400
H  54.97500 30.60100 46.01500
H  56.15900 30.10500 44.78700
H  56.17700 29.48400 46.47800
H  50.39200 27.83100 44.44500
H  49.13900 30.28600 41.17400
H  48.76100 28.67700 40.61500
H  50.42600 29.30000 40.36200
Mg -11.47400 37.88400 43.30900
C  -9.52100 35.23800 42.14000
C  -9.40300 40.05900 41.98900
C  -13.80600 40.26900 43.94300
C  -14.00700 35.44800 44.12600
N  -9.70900 37.59100 42.13400
C  -9.03100 36.47800 41.87900
C  -7.63700 36.80200 41.23000
C  -7.49200 38.36100 41.33100
C  -8.89300 38.70900 41.89100
C  -6.34500 38.79500 42.29500
C  -7.66500 36.29800 39.76400
C  -6.53700 35.55800 39.24600
H  -5.76000 36.33200 38.15700
N  -11.68000 39.91400 42.94800
C  -10.65800 40.62100 42.28700
C  -11.02600 42.02700 42.16100
C  -12.36600 42.14300 42.79100
C  -12.69700 40.75400 43.27100
C  -10.07300 43.11000 41.67200
C  -13.23700 43.38700 42.94800
O  -12.71600 44.53900 42.78800
C  -14.66200 43.26100 43.27200
N  -13.55900 37.84400 43.94100
C  -14.21000 38.97900 44.20800
C  -15.61700 38.68400 44.78800
C  -15.72300 37.14500 44.92400
C  -14.36500 36.79100 44.23800
C  -15.81900 39.43000 46.23000
C  -17.05800 36.47400 44.50100
C  -17.32600 36.33100 43.00800
N  -11.77200 35.73000 43.25000
C  -12.81300 34.87600 43.63600
C  -12.47700 33.53400 43.37300
C  -11.21300 33.61600 42.64700
C  -10.81500 34.99100 42.68300
C  -13.19100 32.28300 43.77200
C  -10.08100 32.79900 42.09400
O  -9.87200 31.60400 41.94500
C  -8.99100 33.85100 41.64900
C  -7.68500 33.37100 42.21800
O  -7.05000 32.40800 41.77900
O  -7.20100 34.17600 43.24000
C  -5.90900 33.78200 43.71800
H  -8.61400 40.78500 41.78000
H  -14.57000 41.01700 44.16400
H  -14.65900 34.60600 44.36500
H  -6.81000 36.36000 41.78600
H  -7.32600 38.94400 40.42500
H  -5.40600 38.94300 41.76100
H  -6.20900 38.12900 43.14800
H  -6.58900 39.80000 42.63900
H  -7.82700 37.15000 39.10300
H  -8.49400 35.62400 39.54900
H  -6.88900 34.58700 38.89900
H  -5.84900 35.27000 40.04000
H  -10.17400 43.43800 40.63800
H  -9.02400 42.88800 41.86900
H  -10.23500 44.02000 42.25000
H  -15.30100 42.48500 42.85000
H  -15.12800 44.20000 42.97400
H  -14.75800 43.08100 44.34200
H  -16.36800 39.15400 44.15300
H  -15.42700 36.81900 45.92100
H  -15.13100 40.25000 46.43400
H  -15.66300 38.75500 47.07200
H  -16.80400 39.89700 46.21600
H  -17.90900 37.01500 44.91400
H  -16.88800 35.52000 45.00000
H  -16.84600 37.17100 42.50600
H  -18.39200 36.27400 42.78600
H  -16.89800 35.41600 42.59800
H  -13.72300 32.39900 44.71600
H  -12.56100 31.39600 43.83100
H  -14.00200 32.11200 43.06500
H  -9.01800 33.85200 40.55900
H  -6.11300 32.81800 44.18600
H  -5.50100 34.50500 44.42400
H  -5.17200 33.73200 42.91700

