158

Mg 47.58300 34.79800 28.30500
C  46.20500 33.11800 30.89500
C  47.91900 37.64200 30.28900
C  48.92600 36.62900 25.65800
C  46.84100 32.26500 26.15300
N  47.07600 35.32600 30.30200
C  46.60900 34.47400 31.22200
C  46.65400 35.10000 32.62100
C  46.77700 36.61300 32.33800
C  47.24900 36.53700 30.84700
C  45.43000 37.41700 32.52900
C  47.85200 34.52200 33.46500
C  47.50200 33.95000 34.81600
H  47.98300 34.75200 36.02300
N  48.34000 36.88000 28.00100
C  48.46000 37.77200 29.01200
C  49.15100 38.92800 28.46500
C  49.43800 38.72600 27.14100
C  48.87600 37.39200 26.82600
C  49.55800 40.11200 29.33700
C  50.29400 39.53000 26.20600
O  50.48800 39.20400 25.02200
C  50.97900 40.77600 26.64300
N  47.84700 34.51200 26.23600
C  48.42100 35.35600 25.38800
C  48.52900 34.78100 23.94900
C  48.11000 33.32400 24.18600
C  47.55600 33.36700 25.56100
C  47.78200 35.57200 22.78300
C  49.22200 32.20700 24.02900
C  48.76600 30.97100 23.27000
N  46.59200 33.11300 28.40000
C  46.45000 32.07300 27.47800
C  45.77800 30.93700 28.04000
C  45.60700 31.38100 29.39700
C  46.18900 32.59300 29.58300
C  45.29500 29.68100 27.37000
C  45.13900 30.92300 30.68600
O  44.60200 29.84400 30.99100
C  45.43400 32.09600 31.74600
C  46.09200 31.47400 32.90300
O  47.22800 31.15300 32.88100
O  45.26100 31.25200 34.00800
C  45.90200 30.53700 35.13100
H  48.01600 38.49200 30.96800
H  49.40900 37.08100 24.78900
H  46.74800 31.43000 25.45600
H  45.74400 34.88000 33.17900
H  47.54500 37.05700 32.97100
H  45.31000 37.98700 31.60800
H  45.52800 38.05300 33.40900
H  44.58400 36.74900 32.68900
H  48.50300 35.34300 33.76500
H  48.29800 33.72700 32.86800
H  48.14800 33.07800 34.91700
H  46.46200 33.63900 34.90600
H  50.63400 40.12600 29.50900
H  49.05900 39.98000 30.29700
H  49.21000 41.06200 28.93000
H  51.36100 41.31100 25.77400
H  51.84200 40.45300 27.22600
H  50.31200 41.45600 27.17200
H  49.59000 34.72800 23.70700
H  47.27200 32.95800 23.59200
H  47.44000 36.51300 23.21300
H  46.86700 35.03400 22.53600
H  48.44200 35.73600 21.93100
H  49.48600 31.85700 25.02800
H  50.20300 32.52400 23.67400
H  49.11700 30.12700 23.86500
H  49.26700 31.02200 22.30300
H  47.70700 31.00000 23.01200
H  45.98300 29.32900 26.60100
H  44.30000 29.92300 26.99600
H  45.28300 28.95300 28.18100
H  44.56400 32.53300 32.23600
H  45.54600 30.92200 36.08600
H  46.99100 30.50200 35.14500
H  45.60700 29.49300 35.23400
Mg -9.71700 39.37800 42.43300
C  -8.07600 36.42500 41.50200
C  -7.16000 41.17500 40.92700
C  -11.65100 42.19100 42.46600
C  -12.50500 37.50100 43.43800
N  -7.95000 38.89200 41.18200
C  -7.36100 37.60400 41.10400
C  -6.08500 37.64400 40.19200
C  -5.60600 39.11600 40.54600
C  -6.96900 39.79400 40.85500
C  -4.60300 39.46900 41.65500
C  -6.17100 37.42200 38.64300
C  -5.74200 36.04700 38.15900
H  -4.57000 35.94100 37.10500
N  -9.42400 41.39700 41.88400
C  -8.29100 41.96300 41.33700
C  -8.41700 43.37300 41.23400
C  -9.63300 43.72700 41.83600
C  -10.34400 42.40400 42.09100
C  -7.37300 44.22600 40.63500
C  -10.18300 45.15800 41.96200
O  -9.51900 46.11100 41.49200
C  -11.46800 45.39300 42.69400
N  -11.79800 39.81000 42.87100
C  -12.28900 40.99800 42.78900
C  -13.76100 41.04300 43.37200
C  -14.08800 39.59100 43.69300
C  -12.68200 38.90000 43.43600
C  -14.00900 42.04300 44.51800
C  -15.24200 39.01400 42.84600
C  -14.93800 38.78800 41.31700
N  -10.19300 37.33500 42.66300
C  -11.38500 36.74300 43.06700
C  -11.10400 35.25900 42.95400
C  -9.82900 35.15600 42.42200
C  -9.34100 36.44000 42.15400
C  -11.97800 34.12000 43.40300
C  -8.76800 34.18200 41.98400
O  -8.77000 32.97000 42.01000
C  -7.55700 35.05900 41.41000
C  -6.36800 34.90700 42.33600
O  -5.89900 35.75700 43.13700
O  -5.75700 33.69500 42.13100
C  -4.61700 33.23500 43.01100
H  -6.21800 41.60400 40.58100
H  -12.25900 43.08800 42.59900
H  -13.44000 37.13600 43.86800
H  -5.20000 37.11500 40.54600
H  -5.28900 39.53700 39.59200
H  -4.75400 40.43700 42.13300
H  -3.57800 39.46000 41.28400
H  -4.60900 38.65200 42.37600
H  -5.52700 38.07500 38.05500
H  -7.20800 37.60800 38.36500
H  -6.66800 35.63100 37.76200
H  -5.41000 35.50400 39.04500
H  -6.95700 44.83900 41.43400
H  -7.71500 44.89500 39.84600
H  -6.51200 43.67500 40.25500
H  -12.30000 45.14500 42.03500
H  -11.52100 46.45300 42.94100
H  -11.47400 44.89000 43.66100
H  -14.38100 41.38700 42.54500
H  -14.42300 39.43700 44.71900
H  -14.40400 41.53700 45.40000
H  -14.64700 42.87800 44.22700
H  -13.00700 42.29900 44.86400
H  -16.12900 39.64800 42.85900
H  -15.71800 38.14600 43.30400
H  -13.91900 38.92600 40.95700
H  -15.64100 39.33700 40.69000
H  -15.05400 37.71700 41.15500
H  -11.43600 33.20000 43.18300
H  -12.95600 34.24100 42.93700
H  -12.03000 34.16600 44.49100
H  -7.34200 34.77900 40.37900
H  -4.85600 33.00200 44.04900
H  -3.83500 33.99400 43.05400
H  -4.15900 32.37600 42.52000

