158

Mg 47.01600 24.40500 28.17300
C  47.59800 26.76100 30.61800
C  46.08200 22.28300 30.63900
C  46.74600 22.05600 25.79300
C  48.47600 26.59100 25.76200
N  46.73000 24.60300 30.39600
C  46.96200 25.63600 31.21000
C  46.61000 25.37400 32.64600
C  46.36900 23.83100 32.59600
C  46.40500 23.55200 31.14100
C  47.30500 22.97000 33.45700
C  45.51400 26.25100 33.19100
C  45.05200 26.00900 34.66200
H  45.47800 26.94800 35.74400
N  46.55400 22.36700 28.23100
C  46.08300 21.73400 29.34500
C  45.66500 20.39700 28.95100
C  45.73800 20.35100 27.51900
C  46.36400 21.62200 27.09400
C  45.04700 19.40500 29.94700
C  45.15800 19.22600 26.54400
O  45.16900 19.28400 25.31200
C  44.57100 18.01200 27.18900
N  47.57600 24.29600 26.06900
C  47.17800 23.26300 25.31200
C  47.42500 23.47800 23.85000
C  47.92900 24.99300 23.76800
C  48.03700 25.33800 25.29100
C  48.49100 22.54600 23.23000
C  46.86300 25.82400 23.10500
C  45.42100 26.05300 23.74600
N  47.76200 26.31200 28.10400
C  48.36500 27.04900 27.11200
C  48.89500 28.23200 27.69700
C  48.56500 28.25000 29.04600
C  47.91400 27.03000 29.22800
C  49.65800 29.32100 26.93100
C  48.59800 29.06700 30.31100
O  48.97200 30.21900 30.51900
C  47.92100 28.04800 31.33800
C  48.88600 27.80400 32.44200
O  49.99700 27.24600 32.46400
O  48.23800 28.26500 33.58900
C  49.04700 28.11600 34.83900
H  45.66100 21.71200 31.46900
H  46.52000 21.36800 24.97500
H  48.87300 27.29200 25.02500
H  47.47200 25.63400 33.26100
H  45.37600 23.65200 33.00800
H  48.21300 22.78000 32.88400
H  46.77700 22.07400 33.78500
H  47.49000 23.51500 34.38200
H  44.59800 25.96400 32.67600
H  45.64700 27.32000 33.02500
H  45.41300 25.00400 34.88400
H  43.96900 25.92100 34.58300
H  44.02500 19.13800 29.67800
H  45.20200 19.81900 30.94300
H  45.68000 18.51900 29.99200
H  43.58600 18.30300 27.55400
H  45.15600 17.61200 28.01800
H  44.46600 17.24400 26.42200
H  46.44900 23.38400 23.37400
H  48.92800 25.15700 23.36300
H  48.05900 21.88900 22.47600
H  48.89300 21.89500 24.00600
H  49.29500 23.14900 22.80800
H  46.69400 25.42600 22.10400
H  47.41200 26.76500 23.08700
H  45.25000 27.10800 23.96100
H  45.23500 25.48000 24.65500
H  44.64200 25.81300 23.02200
H  49.05900 30.22000 26.78900
H  49.96200 29.06000 25.91700
H  50.53800 29.56000 27.52800
H  46.99500 28.54900 31.61900
H  49.60900 27.18500 34.91300
H  48.48000 28.31200 35.74900
H  49.72400 28.97100 34.83500
Mg -12.71000 37.54100 41.50200
C  -10.61600 35.17600 40.09800
C  -10.65200 39.87800 40.08300
C  -15.14800 39.80700 41.67700
C  -14.84900 35.05700 42.56500
N  -10.89000 37.49200 40.06300
C  -10.17500 36.44500 39.67300
C  -8.95100 36.83900 38.94600
C  -8.84000 38.39800 39.17100
C  -10.17300 38.64300 39.83400
C  -7.68700 38.92600 40.04300
C  -9.11100 36.37100 37.41900
C  -7.75600 35.65700 36.97700
H  -6.79300 36.57400 36.06100
N  -12.85400 39.62100 41.00700
C  -11.87200 40.36300 40.54900
C  -12.32400 41.73700 40.50600
C  -13.67400 41.78900 40.89900
C  -13.95900 40.34800 41.20100
C  -11.39600 42.80900 40.04200
C  -14.53700 43.08800 40.92500
O  -14.15100 44.17300 40.46400
C  -15.98100 42.99000 41.29600
N  -14.67900 37.42800 42.01200
C  -15.51100 38.52100 41.95400
C  -16.94100 38.06100 42.21500
C  -16.81900 36.62400 42.78300
C  -15.41700 36.34300 42.48600
C  -17.82700 38.88200 43.08100
C  -17.82900 35.56600 42.21800
C  -17.61500 35.11100 40.77100
N  -12.68500 35.62400 41.51400
C  -13.56000 34.72100 42.03500
C  -13.03500 33.40600 41.99000
C  -11.88400 33.50300 41.20700
C  -11.74800 34.84200 40.96700
C  -13.71100 32.21100 42.61900
C  -10.69700 32.80000 40.65500
O  -10.34200 31.68300 40.67900
C  -9.93400 33.82000 39.78500
C  -8.57300 33.80800 40.37200
O  -8.26900 34.32900 41.43700
O  -7.75300 33.25800 39.44100
C  -6.29400 33.13600 39.86400
H  -9.95600 40.59500 39.64200
H  -15.96100 40.51500 41.85100
H  -15.56600 34.30700 42.90500
H  -8.15300 36.30500 39.46200
H  -8.88800 38.97100 38.24500
H  -7.92700 39.32200 41.03000
H  -6.97800 39.57500 39.53100
H  -7.05100 38.05700 40.21300
H  -9.37500 37.25200 36.83400
H  -10.00400 35.77500 37.23100
H  -7.98400 34.80500 36.33600
H  -7.22000 35.36300 37.87900
H  -11.58800 43.78300 40.49200
H  -11.28300 42.87800 38.96000
H  -10.36500 42.60500 40.33400
H  -16.46200 42.21400 40.70000
H  -16.48700 43.94800 41.17800
H  -16.05200 42.68300 42.33900
H  -17.37300 38.02700 41.21500
H  -17.06600 36.62200 43.84500
H  -17.31800 39.35900 43.91900
H  -18.69200 38.33300 43.45200
H  -18.19700 39.77100 42.57000
H  -18.82000 36.01000 42.31000
H  -17.95200 34.70800 42.87900
H  -17.05600 34.17700 40.83700
H  -17.03000 35.82200 40.18700
H  -18.63000 34.99900 40.39100
H  -13.79600 31.40900 41.88600
H  -14.71700 32.44200 42.96900
H  -13.18900 31.89300 43.52200
H  -10.05700 33.57400 38.73000
H  -6.16300 32.85500 40.90900
H  -5.68200 34.00200 39.61000
H  -5.73500 32.35400 39.35000

