158

Mg 28.55700 58.42600 42.33400
C  25.85700 56.75100 40.84400
C  30.65000 56.64500 40.19100
C  31.06400 60.72900 42.69800
C  26.34600 60.47200 43.88100
N  28.23700 57.01700 40.62700
C  27.04800 56.38500 40.24800
C  27.27900 55.31800 39.18200
C  28.79700 55.06900 39.29800
C  29.31200 56.35600 40.03000
C  29.29800 53.72700 40.07200
C  26.90000 55.73500 37.74700
C  26.04700 54.72100 37.09000
H  26.43800 54.31100 35.62500
N  30.71700 58.48000 41.87600
C  31.33700 57.63200 40.97900
C  32.74900 57.89300 40.94500
C  32.85900 59.11400 41.67900
C  31.49700 59.51000 42.09100
C  33.76100 57.04200 40.20000
C  34.17900 59.83500 41.90600
O  35.24900 59.48700 41.32600
C  34.19900 60.98700 42.86400
N  28.66400 60.33100 43.18400
C  29.77000 61.07600 43.22100
C  29.52200 62.39000 44.04700
C  28.07600 62.12600 44.68900
C  27.63100 60.96000 43.82200
C  30.64000 62.81400 45.02300
C  27.11900 63.30100 44.50400
C  26.20300 63.64200 45.70500
N  26.44800 58.49200 42.48400
C  25.68500 59.46700 43.06500
C  24.28900 59.17500 42.91500
C  24.29000 57.99000 42.15000
C  25.64800 57.71800 41.83100
C  23.06800 59.89100 43.46900
C  23.48900 56.93300 41.56900
O  22.28000 56.63000 41.67300
C  24.48300 56.14600 40.58700
C  24.44500 54.67100 40.89900
O  24.89400 54.19800 41.97000
O  23.88800 53.99400 39.88100
C  23.74000 52.52600 40.27300
H  31.27200 55.91400 39.67000
H  31.75700 61.57000 42.77800
H  25.64500 61.07700 44.46000
H  26.75400 54.41200 39.48400
H  29.35700 55.14900 38.36600
H  30.04000 53.99500 40.82400
H  29.80400 53.17800 39.27800
H  28.53000 53.14500 40.58100
H  27.75000 55.93200 37.09400
H  26.29700 56.63500 37.87600
H  25.03400 55.12100 37.05700
H  26.07100 53.79400 37.66400
H  34.57200 56.68000 40.83100
H  34.20100 57.62300 39.39000
H  33.26300 56.15400 39.81000
H  33.79300 61.88300 42.39500
H  35.22900 61.12000 43.19600
H  33.57300 60.69200 43.70600
H  29.39500 63.22300 43.35500
H  28.19400 61.98900 45.76400
H  30.18400 62.83000 46.01200
H  30.93800 63.81000 44.69400
H  31.38500 62.02200 44.95200
H  26.46000 63.25100 43.63700
H  27.75300 64.18000 44.38800
H  26.81000 64.28800 46.34000
H  25.79800 62.86000 46.34800
H  25.25000 64.01900 45.33300
H  22.72900 59.38400 44.37200
H  22.31000 59.88300 42.68600
H  23.27400 60.91700 43.77300
H  24.23500 56.16900 39.52600
H  24.66900 51.99700 40.05600
H  23.01800 52.04800 39.61000
H  23.35900 52.42200 41.28900
Mg -12.39100 16.16000 43.15000
C  -9.39400 14.62100 42.14300
C  -11.31000 18.96000 41.60800
C  -15.54000 17.46200 43.53200
C  -13.55300 13.04600 44.10800
N  -10.55600 16.65100 41.92500
C  -9.38900 15.95800 41.76200
C  -8.26400 16.82200 41.23700
C  -8.91000 18.22800 41.37900
C  -10.35600 18.00000 41.63900
C  -8.23300 19.22500 42.30400
C  -7.92800 16.42500 39.73200
C  -6.47000 16.35400 39.51600
H  -5.98800 16.91000 38.19300
N  -13.35100 18.06100 42.65500
C  -12.68500 19.03800 41.98600
C  -13.54500 20.18200 41.86000
C  -14.85400 19.79600 42.42000
C  -14.63000 18.38400 42.89300
C  -13.17600 21.38200 41.03900
C  -16.09800 20.69100 42.37900
O  -16.03000 21.79500 41.91700
C  -17.44700 20.17100 42.86400
N  -14.29200 15.26700 43.54200
C  -15.36400 16.09200 43.79200
C  -16.55800 15.28500 44.46600
C  -15.96700 13.83100 44.60800
C  -14.51300 14.02300 43.99600
C  -17.14900 15.86300 45.77400
C  -16.90400 12.77900 43.88000
C  -16.43700 12.05900 42.63900
N  -11.54100 14.28300 43.43800
C  -12.15500 13.07100 43.79400
C  -11.23600 11.94000 43.58100
C  -10.10000 12.54600 43.03900
C  -10.40400 13.91500 42.87200
C  -11.48200 10.49800 44.00600
C  -8.76800 12.34600 42.56000
O  -8.07100 11.31500 42.61600
C  -8.24600 13.65600 41.96700
C  -7.01200 14.09800 42.67400
O  -6.90100 14.59700 43.81300
O  -5.92900 13.81700 41.83900
C  -4.62300 14.47900 42.08200
H  -10.82500 19.85300 41.20900
H  -16.55300 17.84900 43.65500
H  -13.98600 12.06100 44.29600
H  -7.37300 16.71500 41.85600
H  -8.96800 18.77200 40.43700
H  -7.19600 18.89000 42.31900
H  -8.57400 19.22200 43.33900
H  -8.19900 20.22300 41.86700
H  -8.30900 17.08000 38.94900
H  -8.34800 15.43100 39.57700
H  -6.12900 15.32000 39.58200
H  -5.87800 16.99000 40.17300
H  -12.09200 21.46100 40.95100
H  -13.60200 22.19300 41.62900
H  -13.75600 21.43600 40.11700
H  -17.40900 19.79000 43.88500
H  -17.71100 19.39400 42.14600
H  -18.24200 20.91400 42.93300
H  -17.35700 15.34800 43.72800
H  -15.76800 13.41600 45.59600
H  -16.48000 15.76000 46.62800
H  -18.05400 15.27000 45.90600
H  -17.52200 16.88500 45.70900
H  -17.90900 13.13700 43.66000
H  -17.21100 11.94800 44.51500
H  -15.58000 12.63000 42.28000
H  -17.21500 11.98300 41.87900
H  -16.06000 11.05100 42.81200
H  -10.90700 9.86900 43.32800
H  -12.53900 10.27800 44.15900
H  -10.93700 10.30500 44.93000
H  -7.90600 13.51100 40.94200
H  -4.50700 15.15700 41.23600
H  -3.81600 13.75600 42.19600
H  -4.58200 15.20700 42.89200

