158

Mg 15.71800 -2.10700 27.34000
C  15.08800 -0.05800 30.05600
C  17.88600 -3.95700 29.34600
C  16.88400 -3.76800 24.63700
C  14.07200 0.12200 25.16100
N  16.57200 -1.93300 29.41200
C  15.93500 -1.11800 30.41900
C  16.41000 -1.55800 31.81400
C  17.50600 -2.66200 31.47600
C  17.40700 -2.85200 29.93200
C  19.04400 -2.34400 31.86400
C  15.23500 -1.92200 32.74900
C  15.29300 -1.19100 34.10300
H  16.52800 -0.37500 34.47300
N  16.97800 -3.68900 27.04900
C  17.78400 -4.32700 27.98700
C  18.21100 -5.61800 27.48600
C  18.02300 -5.58000 26.07700
C  17.26700 -4.31500 25.85000
C  18.87900 -6.69200 28.36400
C  18.35900 -6.52600 25.00300
O  18.04600 -6.40700 23.79500
C  19.17100 -7.76300 25.38000
N  15.58300 -1.71700 25.13200
C  16.20700 -2.58700 24.28300
C  15.83800 -2.20900 22.85600
C  14.63200 -1.25900 22.98100
C  14.77800 -0.88200 24.48700
C  16.96500 -1.60000 22.06000
C  13.22000 -1.84600 22.69700
C  12.62100 -1.71500 21.25000
N  14.75300 -0.36800 27.48700
C  14.03200 0.36900 26.55300
C  13.42500 1.51100 27.20200
C  13.68100 1.29700 28.61700
C  14.56900 0.20300 28.70000
C  12.56900 2.60600 26.55800
C  13.46400 1.82000 29.90500
O  12.76400 2.83400 30.23600
C  14.35700 0.94300 30.93200
C  15.31400 1.78800 31.68000
O  16.54900 1.87500 31.52100
O  14.61800 2.69300 32.41700
C  15.40100 3.66600 33.18700
H  18.52200 -4.56700 29.99100
H  16.99300 -4.43900 23.78300
H  13.40300 0.71000 24.53000
H  16.88200 -0.63800 32.15800
H  17.19800 -3.56100 32.01100
H  19.41400 -3.00200 32.65000
H  19.01300 -1.31600 32.22400
H  19.58600 -2.34900 30.91800
H  15.28800 -2.96500 33.06100
H  14.30300 -1.61500 32.27500
H  15.32500 -1.97200 34.86300
H  14.40600 -0.62900 34.39500
H  18.67400 -7.72100 28.06800
H  18.71700 -6.66200 29.44200
H  19.94700 -6.58900 28.17600
H  19.63700 -8.04300 24.43500
H  18.60900 -8.60700 25.78000
H  19.96500 -7.35200 26.00200
H  15.46100 -3.11800 22.38700
H  14.88600 -0.42000 22.33400
H  16.57500 -1.05400 21.20000
H  17.61000 -2.44700 21.82500
H  17.54700 -0.81900 22.54800
H  12.48700 -1.50100 23.42500
H  13.22600 -2.92200 22.87100
H  11.61600 -1.29500 21.28400
H  12.47200 -2.70400 20.81700
H  13.24300 -1.04800 20.65200
H  12.97800 3.11400 25.68500
H  12.42400 3.42000 27.26900
H  11.68900 2.02600 26.27900
H  13.63900 0.52800 31.63900
H  16.22400 4.12900 32.64200
H  15.78900 3.22400 34.10500
H  14.69600 4.46500 33.41700
Mg 40.22500 10.23500 29.19300
C  42.03500 11.20600 31.85000
C  37.80600 8.86100 31.30900
C  38.53200 8.66200 26.50000
C  42.83100 10.76700 27.06300
N  39.98300 10.09900 31.28300
C  40.77400 10.74300 32.19800
C  40.18900 10.68100 33.60900
C  39.02300 9.59700 33.48200
C  38.94200 9.49000 31.91600
C  39.18700 8.30800 34.37900
C  39.99200 12.02000 34.33600
C  39.15900 12.07100 35.57900
H  39.57100 12.85000 36.82500
N  38.25500 9.24500 28.98900
C  37.44200 8.74400 30.01200
C  36.30200 8.15800 29.43400
C  36.50700 8.11000 28.00900
C  37.79900 8.70400 27.78700
C  35.27500 7.42900 30.21800
C  35.52000 7.71800 26.85800
O  35.86900 7.84000 25.70800
C  34.07800 7.49200 27.20700
N  40.58300 9.79900 27.02600
C  39.77100 9.16700 26.13800
C  40.37800 9.18900 24.72900
C  41.64000 10.12000 24.95800
C  41.73200 10.15400 26.46300
C  40.60700 7.74800 24.21900
C  41.64700 11.49500 24.21800
C  40.73600 12.58500 24.69700
N  42.01600 10.99300 29.32300
C  42.99500 11.17700 28.37000
C  44.17600 11.86700 28.97300
C  43.82000 11.83500 30.32500
C  42.55000 11.29700 30.48400
C  45.45800 12.44600 28.26400
C  44.29700 12.23000 31.66000
O  45.31600 12.80500 31.96700
C  43.19600 11.74300 32.64800
C  43.73000 10.76000 33.58200
O  43.92000 9.59300 33.31900
O  44.19100 11.38300 34.68300
C  44.81700 10.61900 35.74900
H  37.03800 8.47400 31.98300
H  38.13300 8.08300 25.66500
H  43.63800 10.99800 26.36400
H  40.93500 10.22800 34.26100
H  38.05900 10.04000 33.73400
H  39.98500 8.50000 35.09800
H  39.48100 7.46600 33.75300
H  38.24100 8.16300 34.90000
H  39.59900 12.82500 33.71400
H  40.99900 12.26500 34.67400
H  38.94900 11.01300 35.73200
H  38.32800 12.66900 35.20400
H  34.36800 8.00300 30.02800
H  35.43300 7.28400 31.28700
H  35.24300 6.45900 29.72300
H  33.56300 8.25400 27.79200
H  33.96400 6.49500 27.63100
H  33.52800 7.55800 26.26800
H  39.67800 9.74300 24.10300
H  42.50400 9.57800 24.57500
H  39.65900 7.42600 23.78900
H  40.90900 7.03500 24.98700
H  41.29500 7.68600 23.37600
H  41.44100 11.38200 23.15300
H  42.63500 11.95400 24.19500
H  41.33200 13.36500 25.17200
H  40.05100 12.13800 25.41700
H  40.06500 13.02800 23.96100
H  45.54000 13.53000 28.18800
H  45.59300 11.84700 27.36200
H  46.32000 12.14400 28.85800
H  42.84400 12.61800 33.19400
H  45.52400 9.84100 35.46300
H  44.06700 10.25200 36.44900
H  45.45600 11.35100 36.24200

