158

Mg 42.59300 40.64600 25.67500
C  41.69500 42.81800 28.18400
C  43.53000 38.37300 28.09200
C  43.80700 38.62100 23.18600
C  42.05600 43.09900 23.32400
N  42.54800 40.68700 27.84600
C  41.98700 41.57800 28.67300
C  41.94600 41.11300 30.21000
C  42.78500 39.78200 30.11800
C  42.94900 39.55500 28.57600
C  44.02200 39.74700 30.93000
C  40.59000 41.11900 30.92500
C  40.43900 40.65300 32.39400
H  39.70900 41.52200 33.46200
N  43.46900 38.75200 25.62600
C  43.75400 37.98300 26.75200
C  44.28400 36.72800 26.27700
C  44.29900 36.67200 24.81400
C  43.85300 38.06500 24.47900
C  44.59400 35.55700 27.21700
C  44.71400 35.60500 23.86100
O  44.83700 35.82300 22.63900
C  45.07000 34.18200 24.36900
N  42.83000 40.82400 23.46600
C  43.27300 39.79900 22.68500
C  43.31800 40.18500 21.20600
C  42.69000 41.62800 21.31100
C  42.51500 41.91200 22.77700
C  44.76600 40.14100 20.50400
C  41.35800 41.89100 20.54100
C  40.18500 40.99600 21.01300
N  42.00200 42.55800 25.67600
C  41.88300 43.48800 24.69000
C  41.62300 44.73800 25.27600
C  41.46600 44.51900 26.63300
C  41.75500 43.19300 26.86200
C  41.46500 46.00900 24.53400
C  41.13100 45.12500 27.88600
O  40.73200 46.23100 28.23000
C  41.17600 44.00700 28.95300
C  42.05900 44.50500 30.01600
O  43.28900 44.51100 29.97100
O  41.28900 44.79300 31.09300
C  41.95600 45.42600 32.23000
H  43.87400 37.65200 28.83700
H  44.29000 38.11700 22.34700
H  41.89900 43.95000 22.65700
H  42.55600 41.86400 30.71300
H  42.15300 38.95800 30.44800
H  44.10300 38.73700 31.33100
H  44.05800 40.56900 31.64600
H  44.81300 39.91700 30.19900
H  39.95500 40.64900 30.17400
H  40.35300 42.18100 30.86000
H  41.46800 40.39100 32.64200
H  39.85100 39.73600 32.35100
H  43.81200 34.82700 27.00700
H  44.61800 35.80200 28.27900
H  45.57700 35.14700 26.98500
H  45.22700 33.57000 23.48100
H  44.21700 33.66300 24.80600
H  45.91200 34.14100 25.05900
H  42.63900 39.47000 20.74100
H  43.34400 42.39000 20.88500
H  45.20700 41.09900 20.23000
H  44.61100 39.84200 19.46700
H  45.37400 39.37100 20.97700
H  41.56800 41.62000 19.50600
H  41.04000 42.93400 20.54200
H  40.03600 40.17800 20.30800
H  39.31400 41.59700 21.27600
H  40.48300 40.44800 21.90700
H  40.53700 45.87800 23.97900
H  42.33200 46.43400 24.02800
H  41.09300 46.66400 25.32200
H  40.16000 43.80100 29.28900
H  42.13400 44.63800 32.96200
H  41.40600 46.28500 32.61500
H  42.94400 45.86400 32.09100
Mg 30.89000 58.12000 40.23200
C  28.16400 55.99400 39.28200
C  33.02600 55.60700 39.55700
C  33.29400 60.38400 40.13100
C  28.40100 60.71800 40.50700
N  30.64600 56.16800 39.35400
C  29.45800 55.44400 39.12500
C  29.77800 54.01100 38.78400
C  31.17100 53.86100 39.38300
C  31.69200 55.26300 39.45500
C  31.25200 53.19300 40.78900
C  29.76700 53.77200 37.24700
C  28.93600 52.59400 36.75500
H  27.93000 52.94400 35.56200
N  32.95900 58.02200 39.96000
C  33.60000 56.90100 39.71900
C  35.03000 57.19100 39.54900
C  35.07100 58.61200 39.61100
C  33.72100 59.06400 39.94400
C  36.08400 56.13700 39.39200
C  36.35200 59.42300 39.23000
O  37.32100 58.82000 38.92900
C  36.28600 60.92500 39.03600
N  30.80800 60.20100 40.45800
C  31.98900 60.87000 40.46700
C  31.78100 62.42400 40.67100
C  30.18900 62.49200 40.91300
C  29.74800 61.06400 40.63700
C  32.67800 63.19600 41.60800
C  29.55000 63.61600 40.02500
C  28.30000 64.34300 40.59100
N  28.71300 58.36600 39.91300
C  27.85600 59.48600 40.07400
C  26.50900 59.10400 39.68800
C  26.55000 57.73800 39.39200
C  27.89800 57.34000 39.50000
C  25.33700 59.96000 39.76500
C  25.78100 56.54600 39.05700
O  24.56100 56.39900 38.84600
C  26.84300 55.39400 39.09900
C  26.43600 54.45000 40.23700
O  27.01900 54.30400 41.31900
O  25.31800 53.73900 39.83000
C  24.68500 52.79500 40.78100
H  33.60900 54.69200 39.43300
H  33.94400 61.26200 40.16100
H  27.73900 61.56700 40.69000
H  29.10100 53.34300 39.31600
H  31.81400 53.33300 38.67800
H  31.63300 53.94200 41.48200
H  31.78100 52.24200 40.72400
H  30.23700 53.09100 41.17400
H  30.72000 53.51500 36.78300
H  29.32500 54.63400 36.74800
H  28.31000 52.31200 37.60200
H  29.51100 51.73700 36.40300
H  36.22000 55.90600 38.33500
H  35.93200 55.20200 39.93100
H  36.99900 56.52400 39.84100
H  35.66600 61.25800 38.20400
H  37.32400 61.19900 38.84900
H  36.13800 61.50800 39.94500
H  32.03800 62.91700 39.73300
H  29.85800 62.61500 41.94400
H  32.10800 63.53000 42.47600
H  32.98700 64.11700 41.11400
H  33.53800 62.60500 41.92500
H  29.15900 63.13400 39.12900
H  30.29500 64.40100 39.89800
H  28.48200 65.41000 40.46200
H  28.01400 63.97100 41.57500
H  27.41200 64.14200 39.99200
H  24.54300 59.46500 39.20500
H  25.68700 60.94100 39.44100
H  25.00200 60.11000 40.79100
H  26.59300 54.91700 38.15200
H  24.43800 51.87300 40.25500
H  23.80800 53.14500 41.32400
H  25.43800 52.50300 41.51300

