158

Mg 25.85700 0.37000 28.75300
C  27.76800 0.06600 31.66200
C  23.07500 0.47100 30.70100
C  24.07200 0.64000 25.88700
C  28.66700 -0.54400 26.80200
N  25.50900 0.45700 30.94500
C  26.41100 0.36000 31.94600
C  25.80200 0.46500 33.36700
C  24.29700 0.65100 33.06700
C  24.25300 0.54700 31.51400
C  23.48900 -0.50600 33.72600
C  26.42900 1.53000 34.20000
C  26.91700 1.13200 35.58400
H  26.65500 2.06900 36.82000
N  23.85000 0.53500 28.33600
C  22.83900 0.51100 29.27200
C  21.53900 0.55500 28.56300
C  21.83500 0.77300 27.16700
C  23.25600 0.75900 27.04900
C  20.13200 0.52100 29.25900
C  20.80300 1.07500 25.96500
O  21.14600 1.29800 24.79100
C  19.36800 1.25700 26.33300
N  26.37100 0.04600 26.60900
C  25.45300 0.34000 25.68100
C  26.00700 0.33100 24.23900
C  27.56400 -0.03500 24.58900
C  27.54500 -0.23500 26.07700
C  25.47100 -0.68000 23.18300
C  28.48500 1.10900 24.26600
C  29.88200 0.68700 23.69000
N  27.86200 0.00500 29.12800
C  28.93500 -0.45400 28.25000
C  30.05300 -0.84000 29.06700
C  29.67600 -0.59900 30.40400
C  28.31200 -0.05800 30.37000
C  31.35500 -1.52900 28.70300
C  30.15500 -0.67400 31.76100
O  31.19800 -1.07800 32.29200
C  28.97100 -0.24200 32.63400
C  28.65400 -1.33400 33.58800
O  28.17000 -2.40500 33.33600
O  28.96100 -0.96700 34.86000
C  28.83500 -2.08600 35.79700
H  22.15700 0.49200 31.29100
H  23.56600 0.84700 24.94200
H  29.52900 -0.76900 26.17000
H  26.12200 -0.48500 33.79400
H  23.95500 1.64600 33.35300
H  23.80800 -1.47300 33.33700
H  22.42900 -0.44200 33.47700
H  23.59800 -0.50200 34.81000
H  25.70300 2.31500 34.41500
H  27.20500 2.08400 33.67100
H  28.00400 1.14800 35.50300
H  26.55600 0.12800 35.80800
H  19.63600 1.48300 29.38600
H  20.19600 0.19500 30.29700
H  19.44300 -0.14200 28.73500
H  18.79900 0.33200 26.42200
H  19.10700 1.55700 25.31800
H  19.25400 2.06200 27.06000
H  25.95200 1.37100 23.91600
H  27.79200 -0.94000 24.02500
H  26.25500 -1.19500 22.62800
H  24.79700 -0.13600 22.52100
H  24.82100 -1.43100 23.63200
H  28.75100 1.73100 25.12000
H  28.03500 1.83600 23.59000
H  30.02600 0.70900 22.61000
H  30.10600 -0.32700 24.02200
H  30.52700 1.45300 24.12100
H  31.08600 -2.18300 27.87300
H  31.77100 -2.08700 29.54100
H  32.12800 -0.79100 28.48300
H  29.32400 0.62200 33.19800
H  29.38500 -2.96700 35.46600
H  27.79200 -2.37300 35.93700
H  29.35200 -1.80200 36.71300
Mg 40.30800 8.35900 29.65900
C  42.28400 9.71500 32.23200
C  37.95900 7.53700 31.98000
C  38.55700 6.78800 27.19100
C  42.90700 9.03100 27.45000
N  40.27500 8.51100 31.82900
C  41.10300 9.24500 32.70600
C  40.50200 9.36200 34.03800
C  39.31100 8.40400 34.09500
C  39.12800 8.14500 32.50300
C  39.54200 7.07300 34.84900
C  40.04300 10.82800 34.47900
C  39.60000 10.93500 35.97000
H  40.52300 11.68500 36.86200
N  38.45500 7.35200 29.64600
C  37.61500 7.19200 30.67100
C  36.44800 6.37900 30.20700
C  36.57000 6.38600 28.80700
C  37.90600 6.86900 28.48900
C  35.32500 6.00200 31.12500
C  35.54900 6.00300 27.67000
O  35.71700 6.17500 26.48400
C  34.23100 5.39200 28.10000
N  40.74400 7.84100 27.63700
C  39.88200 7.16600 26.85400
C  40.36300 7.14300 25.38100
C  41.70900 7.95600 25.40700
C  41.83100 8.36000 26.94700
C  40.59300 5.65200 24.90200
C  41.74800 9.14400 24.39000
C  40.90300 10.28200 24.58900
N  42.26800 9.13000 29.72800
C  43.19900 9.42700 28.75600
C  44.39100 9.95400 29.31600
C  44.03700 10.24100 30.69300
C  42.72300 9.64900 30.88900
C  45.61300 10.20700 28.57100
C  44.46800 10.76200 31.96400
O  45.53100 11.27300 32.34300
C  43.30600 10.52100 32.90900
C  43.83700 9.81100 34.08500
O  44.28600 8.68100 33.94400
O  43.59400 10.51600 35.22400
C  44.01900 9.87700 36.45400
H  37.22400 7.43800 32.78200
H  38.11000 6.20800 26.38200
H  43.68800 9.17900 26.70100
H  41.27300 9.00700 34.72300
H  38.43400 8.89900 34.51100
H  40.49100 7.05400 35.38500
H  39.51500 6.16600 34.24500
H  38.86800 7.07000 35.70600
H  39.28100 11.20400 33.79600
H  40.89100 11.46200 34.22300
H  39.48900 9.94300 36.40900
H  38.62300 11.41700 35.94500
H  35.57400 6.23900 32.15900
H  35.22900 4.91600 31.10200
H  34.40500 6.53100 30.87700
H  33.77200 6.09000 28.80000
H  34.54400 4.47800 28.60400
H  33.59100 5.25600 27.22800
H  39.56300 7.39800 24.68600
H  42.57200 7.37800 25.07800
H  40.58700 5.69800 23.81300
H  39.74500 5.03500 25.20000
H  41.48700 5.21100 25.34200
H  41.69200 8.56000 23.47100
H  42.75500 9.53100 24.54700
H  40.16200 10.13500 23.80300
H  41.40700 11.21000 24.31800
H  40.46800 10.34400 25.58600
H  45.56800 11.17400 28.07000
H  45.74100 9.46600 27.78200
H  46.45300 10.25700 29.26400
H  42.83200 11.41100 33.32400
H  45.06700 10.08300 36.67300
H  43.80600 8.81200 36.54400
H  43.41300 10.29300 37.25900

