158

Mg 43.70000 42.32600 26.29100
C  43.16200 44.85900 28.80400
C  44.83200 40.24400 28.74700
C  44.34300 40.14600 23.90400
C  42.38700 44.63200 23.93300
N  44.08800 42.58100 28.48700
C  43.72800 43.63400 29.33300
C  43.85000 43.17500 30.77700
C  44.73000 41.85100 30.68900
C  44.46100 41.50900 29.21100
C  46.26400 42.23000 30.81200
C  42.38100 43.05100 31.45400
C  42.13200 43.83900 32.70700
H  42.94500 43.47100 33.98300
N  44.37500 40.34900 26.32300
C  44.80800 39.69800 27.37200
C  45.14500 38.33200 27.01500
C  45.00400 38.24100 25.55200
C  44.55000 39.63500 25.17200
C  45.54300 37.31400 28.13600
C  45.28800 37.16500 24.56800
O  45.38700 37.34500 23.36200
C  45.48100 35.80000 25.12900
N  43.51800 42.45000 24.27300
C  43.91100 41.42300 23.45600
C  43.77000 41.73800 21.94800
C  42.87000 43.01300 22.01400
C  42.89400 43.41400 23.52700
C  45.04100 41.90100 21.13300
C  41.35100 42.78400 21.51100
C  40.60900 41.52800 22.07200
N  43.07900 44.35900 26.28900
C  42.56400 45.16900 25.27000
C  42.19800 46.39400 25.82900
C  42.34000 46.28200 27.23600
C  42.87800 45.07100 27.45100
C  41.62000 47.54800 25.06200
C  42.07700 47.04900 28.40500
O  41.40400 48.02400 28.63200
C  42.58900 46.07100 29.52400
C  43.51200 46.72000 30.55800
O  44.73200 46.69400 30.58300
O  42.79100 47.28100 31.52300
C  43.57800 48.09600 32.52800
H  45.06200 39.59600 29.59500
H  44.42100 39.46500 23.05300
H  42.02900 45.36400 23.20600
H  44.39800 43.93700 31.33200
H  44.45600 41.11500 31.44400
H  46.36200 43.29800 30.61700
H  46.98300 41.69000 30.19600
H  46.53000 42.03500 31.85100
H  42.26400 41.98700 31.66300
H  41.55200 43.26200 30.77900
H  41.05200 43.75700 32.83300
H  42.28800 44.90500 32.53900
H  45.17400 37.52300 29.14000
H  46.62600 37.19100 28.12700
H  45.25600 36.28200 27.93700
H  44.54500 35.68200 25.67400
H  46.20000 36.04000 25.91200
H  45.85300 35.06000 24.42000
H  43.28600 40.91500 21.42200
H  43.27900 43.79000 21.36800
H  45.79900 41.23700 21.54900
H  45.25100 42.97000 21.16000
H  44.89600 41.50800 20.12600
H  41.25200 42.87500 20.42900
H  40.81400 43.61500 21.96900
H  40.40500 40.85600 21.23900
H  39.63100 41.70000 22.52100
H  41.32600 40.95200 22.65800
H  40.60000 47.37000 24.72100
H  42.14800 47.57200 24.10900
H  41.64700 48.46600 25.64900
H  41.73500 45.75700 30.12500
H  43.97400 47.45600 33.31700
H  42.93700 48.87100 32.94900
H  44.39100 48.57300 31.98000
Mg 1.96600 41.37900 25.38500
C  4.03900 41.62600 28.15000
C  -0.69900 40.61500 27.47300
C  -0.06800 41.19600 22.61200
C  4.72100 41.65400 23.39500
N  1.77300 41.15400 27.52600
C  2.69000 41.27500 28.46400
C  2.16000 41.26000 29.80200
C  0.69600 40.71500 29.62200
C  0.57600 40.80900 28.08700
C  0.48000 39.34200 30.21500
C  2.12800 42.63500 30.53400
C  1.99900 42.57200 32.09800
H  1.80500 41.22600 32.86800
N  -0.13200 41.02000 25.10900
C  -1.06700 40.65900 26.07700
C  -2.29900 40.36700 25.43300
C  -2.18100 40.58400 24.03800
C  -0.75600 41.02600 23.89400
C  -3.52100 39.88300 26.17900
C  -3.14200 40.36000 22.95500
O  -2.86900 40.63100 21.75700
C  -4.55500 40.04900 23.29600
N  2.29800 41.44300 23.30100
C  1.26800 41.39300 22.35500
C  1.95300 41.24600 20.93400
C  3.43300 41.77300 21.24800
C  3.49700 41.55100 22.73900
C  1.86500 39.82500 20.33900
C  3.74200 43.25700 20.72300
C  3.63100 44.47100 21.51500
N  3.97500 41.51700 25.63200
C  5.04000 41.60500 24.74700
C  6.29200 41.83600 25.44600
C  5.96900 41.80400 26.79000
C  4.56800 41.66400 26.85600
C  7.66500 42.15700 24.88700
C  6.52400 41.82000 28.14600
O  7.70600 41.94000 28.54100
C  5.24800 41.72500 29.11100
C  5.52000 40.57900 29.97500
O  5.33500 39.39100 29.76700
O  5.94600 41.12400 31.09900
C  6.10900 40.20000 32.16100
H  -1.60900 40.52700 28.07000
H  -0.65600 40.97700 21.71800
H  5.49600 41.76900 22.63400
H  2.79200 40.52700 30.30300
H  0.10100 41.43900 30.17900
H  -0.34300 39.43000 30.92400
H  1.29700 38.77200 30.65800
H  0.01300 38.74000 29.43600
H  1.38300 43.31400 30.11900
H  3.07900 43.13400 30.34700
H  1.14500 43.23500 32.23900
H  2.85900 43.07200 32.54300
H  -3.31700 39.59900 27.21100
H  -3.90500 39.04500 25.59700
H  -4.32200 40.61700 26.26000
H  -4.94900 40.79600 23.98400
H  -4.85000 39.13300 23.81000
H  -5.04600 40.06900 22.32300
H  1.45700 41.94700 20.26200
H  4.17600 41.04700 20.91700
H  2.85600 39.37300 20.36800
H  1.48900 39.77200 19.31700
H  1.15800 39.22000 20.90700
H  3.27800 43.46700 19.75900
H  4.79200 43.17400 20.44300
H  3.21000 44.21300 22.48700
H  2.96100 45.16800 21.01300
H  4.60900 44.93500 21.64600
H  7.75500 41.50900 24.01500
H  8.38400 41.96900 25.68400
H  7.87900 43.15800 24.51300
H  5.15800 42.63700 29.70100
H  6.69700 39.30900 31.94300
H  5.14900 39.90900 32.58800
H  6.61200 40.70200 32.98800

