158

Mg 9.51500 4.57700 28.17300
C  10.85800 3.20200 31.07800
C  7.54600 6.64400 30.08500
C  8.25800 5.81600 25.40100
C  11.22200 2.05000 26.38600
N  9.25200 4.85400 30.34200
C  9.96100 4.25700 31.33500
C  9.61200 4.85300 32.69000
C  8.44300 5.92300 32.37400
C  8.39500 5.85500 30.85100
C  7.07400 5.58100 33.00400
C  10.91400 5.43500 33.38400
C  11.52700 4.70900 34.60300
H  11.86200 5.59700 35.80900
N  8.03900 6.07100 27.76900
C  7.48200 6.82800 28.68900
C  6.81100 7.97500 27.99900
C  6.94900 7.73400 26.58900
C  7.80100 6.49800 26.53300
C  5.89600 8.96800 28.68200
C  6.35200 8.35300 25.38800
O  6.48100 7.88400 24.25500
C  5.62100 9.63400 25.50100
N  9.72500 4.00300 26.19100
C  9.06000 4.71600 25.24400
C  9.47100 4.21500 23.81800
C  10.27100 2.87700 24.10300
C  10.44100 2.99500 25.63400
C  8.38000 3.97900 22.77600
C  11.58700 2.75400 23.29000
C  11.69100 1.68300 22.24300
N  10.66900 2.92300 28.60300
C  11.29400 1.98100 27.79800
C  12.09100 1.08800 28.61000
C  11.95100 1.51400 29.94000
C  11.07300 2.62300 29.81500
C  12.88300 -0.02700 28.07300
C  12.29500 1.30800 31.25400
O  12.98800 0.40300 31.68900
C  11.52700 2.30700 32.09300
C  10.55800 1.59600 32.98500
O  9.36500 1.38200 32.75500
O  11.18400 1.20000 34.16400
C  10.36900 0.47600 35.12200
H  6.90700 7.25900 30.72100
H  8.06200 6.36100 24.47500
H  11.72000 1.29300 25.77600
H  9.34900 3.99900 33.31300
H  8.80000 6.84900 32.82400
H  6.83800 6.37200 33.71600
H  7.13200 4.64800 33.56400
H  6.34600 5.51200 32.19500
H  10.54700 6.34900 33.85200
H  11.67300 5.69000 32.64400
H  12.42500 4.17200 34.29900
H  10.86400 3.91100 34.93700
H  6.27600 9.98400 28.58200
H  5.83600 8.66400 29.72700
H  4.90700 8.98000 28.22400
H  4.70000 9.33400 26.00200
H  5.46400 10.07300 24.51600
H  6.32900 10.21100 26.09500
H  10.13300 4.96100 23.37900
H  9.60800 2.01500 24.02700
H  7.47500 4.42200 23.19000
H  8.29600 2.91600 22.55100
H  8.64600 4.51000 21.86200
H  12.48200 2.65400 23.90400
H  11.81000 3.71600 22.82800
H  10.67700 1.42100 21.94300
H  12.18900 0.84700 22.73300
H  12.24000 2.16600 21.43500
H  13.39100 0.48300 27.25500
H  12.21100 -0.85300 27.84200
H  13.57100 -0.33800 28.85800
H  12.20900 2.80800 32.78000
H  10.36500 1.03300 36.05900
H  10.81200 -0.43500 35.52600
H  9.36500 0.17600 34.82200
Mg 8.72700 48.95500 26.36900
C  6.36700 49.26000 28.93900
C  11.17000 49.87200 28.47200
C  10.89200 48.75800 23.79500
C  6.01600 48.63400 24.04700
N  8.73600 49.42700 28.48200
C  7.69700 49.49300 29.39000
C  8.15900 49.92700 30.76800
C  9.65100 50.39000 30.51400
C  9.92600 49.85000 29.08500
C  9.89600 51.88900 30.51700
C  8.02500 48.70400 31.74400
C  8.78400 48.73100 33.07800
H  8.35700 47.82100 34.19500
N  10.82900 49.13400 26.18100
C  11.62000 49.55200 27.17700
C  12.98000 49.51000 26.70700
C  12.94300 49.07100 25.30900
C  11.52900 48.96000 25.05300
C  14.23200 49.86800 27.56000
C  14.16300 48.77000 24.38100
O  14.07300 48.38200 23.21500
C  15.53500 48.93500 24.90400
N  8.43400 48.75700 24.28300
C  9.54200 48.53100 23.45300
C  9.18700 48.46000 21.97800
C  7.65300 48.19500 22.05000
C  7.30300 48.49300 23.54000
C  9.61900 49.79500 21.19100
C  7.19200 46.85300 21.48400
C  6.36300 46.82700 20.16000
N  6.62100 48.97300 26.36600
C  5.63900 48.86200 25.40800
C  4.36400 48.72900 26.05000
C  4.50500 49.00300 27.39200
C  5.97300 49.04500 27.58200
C  3.12200 48.37000 25.39900
C  3.79900 49.05500 28.65100
O  2.63800 49.01400 28.89500
C  5.00200 49.18600 29.68900
C  4.93200 47.94300 30.57100
O  5.17400 46.87800 30.12300
O  4.47400 48.27200 31.84900
C  4.22500 47.04200 32.66400
H  11.98100 50.20300 29.12400
H  11.61700 48.59300 22.99500
H  5.28100 48.35000 23.29100
H  7.53300 50.75600 31.09900
H  10.29500 49.93100 31.26500
H  9.05700 52.37800 31.01400
H  10.07900 52.31500 29.53100
H  10.74000 52.21800 31.12300
H  8.21500 47.72200 31.31100
H  6.99100 48.82700 32.06600
H  8.68800 49.75100 33.44800
H  9.85000 48.52700 32.98000
H  13.99600 49.98100 28.61800
H  14.61700 50.78500 27.11400
H  15.08000 49.18500 27.50400
H  16.15400 48.87700 24.01000
H  15.82300 48.09500 25.53600
H  15.79600 49.89200 25.35700
H  9.84400 47.65000 21.66200
H  7.17800 48.92800 21.39700
H  10.03200 49.79900 20.18200
H  10.29600 50.45300 21.73500
H  8.78900 50.43700 20.89500
H  6.54800 46.37300 22.22000
H  8.04000 46.21900 21.22500
H  5.81500 47.76500 20.07500
H  5.56900 46.08600 20.26200
H  6.87200 46.53800 19.24100
H  3.32700 47.45700 24.83900
H  2.84000 49.12200 24.66300
H  2.49400 48.07200 26.23900
H  4.90900 50.06400 30.32700
H  3.16300 47.12200 32.89700
H  4.68400 47.16000 33.64500
H  4.51000 46.05900 32.28900

