158

Mg 26.23300 1.63000 29.68600
C  28.23900 1.17200 32.58200
C  23.51400 2.34500 31.69100
C  24.27700 1.74900 26.94700
C  28.95100 0.48900 27.81200
N  26.00000 1.84700 31.90100
C  26.93600 1.65300 32.86700
C  26.29600 1.90900 34.23000
C  24.77100 2.18300 33.84900
C  24.76400 2.07700 32.38300
C  23.72700 1.28300 34.54700
C  26.88000 2.96800 35.20000
C  26.09400 3.21700 36.50700
H  27.02200 3.34300 37.81400
N  24.18400 1.80000 29.34400
C  23.26900 2.27000 30.32300
C  21.93500 2.40300 29.71200
C  22.13000 2.05200 28.33500
C  23.58800 1.85900 28.16200
C  20.76700 2.74200 30.61400
C  21.14800 1.90300 27.20800
O  21.49100 1.58000 26.07700
C  19.74200 2.19700 27.43000
N  26.60200 1.29700 27.57500
C  25.62200 1.46000 26.67500
C  26.04700 0.90800 25.34500
C  27.55600 0.57000 25.55900
C  27.74600 0.77100 27.06900
C  25.08800 -0.16700 24.68900
C  28.62200 1.36200 24.69900
C  29.18500 0.59500 23.57400
N  28.17100 1.03500 30.03300
C  29.18500 0.69400 29.17600
C  30.41000 0.41700 29.92200
C  30.08700 0.63600 31.27200
C  28.67300 0.95300 31.30200
C  31.81600 0.02300 29.31600
C  30.58900 0.71200 32.60600
O  31.78100 0.57100 33.01100
C  29.43100 1.03300 33.49400
C  29.31600 -0.22800 34.39300
O  28.56000 -1.22300 34.13200
O  30.14400 -0.15800 35.43100
C  30.07200 -1.21200 36.43800
H  22.68100 2.68000 32.31200
H  23.86800 1.86900 25.94100
H  29.76400 -0.01400 27.28400
H  26.24400 0.94800 34.74200
H  24.66600 3.18600 34.26100
H  24.14000 1.12800 35.54400
H  23.63500 0.30100 34.08200
H  22.80900 1.80600 34.81600
H  27.12000 3.80000 34.53900
H  27.84700 2.59500 35.53900
H  25.32200 2.49500 36.77500
H  25.58500 4.17100 36.36900
H  20.37400 3.61100 30.08500
H  20.81900 3.02500 31.66600
H  20.03200 1.97000 30.38900
H  19.20500 1.91700 26.52400
H  19.57800 3.26400 27.57600
H  19.36700 1.61800 28.27500
H  26.03500 1.77700 24.68700
H  27.71500 -0.49400 25.38400
H  24.39900 0.36300 24.03100
H  24.61200 -0.73700 25.48700
H  25.72500 -0.90200 24.19700
H  29.28000 1.81700 25.43900
H  28.16900 2.14800 24.09500
H  30.23700 0.35100 23.72600
H  29.26800 1.13300 22.63000
H  28.72700 -0.37400 23.37700
H  32.33300 0.86500 28.85700
H  31.62200 -0.77700 28.60200
H  32.46300 -0.32200 30.12300
H  29.56700 1.87300 34.17500
H  30.20800 -2.16300 35.92300
H  29.17200 -1.07300 37.03700
H  30.96900 -1.06800 37.04000
Mg 56.49800 22.87800 45.21000
C  54.80100 25.70300 44.33800
C  53.85900 20.99200 43.88400
C  58.52200 20.15100 45.15400
C  59.28700 24.84200 45.89000
N  54.58000 23.33800 43.98400
C  54.06900 24.58900 43.85000
C  52.68800 24.47600 43.09100
C  52.31000 23.02200 43.38500
C  53.65400 22.38400 43.71500
C  51.20800 22.98000 44.47100
C  52.87400 24.78200 41.53300
C  51.68000 25.53700 40.88700
H  50.91900 24.80800 39.84400
N  56.15900 20.88000 44.76300
C  55.04200 20.29200 44.28900
C  55.18000 18.82500 44.19200
C  56.46600 18.56600 44.64000
C  57.10900 19.88700 44.93900
C  54.16000 17.83700 43.53600
C  57.08200 17.17300 44.74500
O  56.43900 16.13600 44.55500
C  58.39400 17.04300 45.40100
N  58.65700 22.54600 45.39000
C  59.22700 21.26000 45.45300
C  60.76100 21.36500 45.59700
C  60.94000 22.89700 45.84600
C  59.56600 23.49500 45.68800
C  61.33500 20.37500 46.66100
C  62.03400 23.57000 45.08600
C  63.27400 24.11600 45.82800
N  56.92800 24.87700 45.40400
C  58.11500 25.57900 45.64200
C  57.84600 26.98100 45.69300
C  56.52900 27.06000 45.19100
C  56.05100 25.74000 44.94200
C  58.81500 27.99800 46.26500
C  55.53700 27.99600 44.81100
O  55.54100 29.17000 44.80800
C  54.39900 27.14300 44.27100
C  53.99600 27.72000 42.92000
O  54.74800 27.74300 41.97400
O  52.71800 28.19200 43.13100
C  52.03200 28.93000 42.05200
H  53.00900 20.42800 43.49500
H  59.20600 19.30400 45.05700
H  60.18600 25.41200 46.13600
H  51.98500 25.16300 43.56300
H  51.90400 22.58200 42.47400
H  51.42700 22.01600 44.93000
H  50.15100 22.93600 44.21000
H  51.34800 23.78000 45.19800
H  52.99000 23.81800 41.03700
H  53.80700 25.33600 41.43200
H  52.00800 26.52100 40.55100
H  50.98200 25.83300 41.67000
H  53.24300 18.31800 43.19400
H  53.92700 17.10300 44.30600
H  54.71600 17.30600 42.76300
H  58.55500 17.75200 46.21300
H  59.22600 17.04200 44.69700
H  58.49500 16.05600 45.85300
H  61.27400 21.08400 44.67800
H  61.09500 23.08800 46.90800
H  62.15400 20.89000 47.16300
H  61.73300 19.47300 46.19600
H  60.62800 20.07500 47.43500
H  61.71400 24.33100 44.37400
H  62.45000 22.79100 44.44800
H  63.16000 23.94900 46.89900
H  63.64800 25.12600 45.65900
H  64.08200 23.48900 45.45300
H  58.45300 28.97700 45.95300
H  59.88800 27.89800 46.10200
H  58.73100 28.06200 47.35000
H  53.61100 27.34700 44.99600
H  52.51100 28.80200 41.08100
H  51.98700 30.00100 42.25000
H  51.04000 28.50100 41.91300

