158

Mg 8.54200 3.52300 27.48400
C  9.57900 1.96400 30.41700
C  6.48100 5.61300 29.33200
C  7.32800 4.81000 24.55500
C  9.97900 0.91200 25.58100
N  7.99700 3.76900 29.62200
C  8.65600 2.99900 30.61900
C  8.40300 3.56300 32.02500
C  7.33100 4.68400 31.66200
C  7.22200 4.70400 30.09700
C  6.01700 4.53800 32.41000
C  9.62000 4.22000 32.69700
C  9.59100 4.29200 34.25400
H  10.70200 3.53100 35.02100
N  7.16400 5.16800 27.00000
C  6.44700 5.88500 27.90200
C  5.80400 6.95900 27.15400
C  5.96300 6.75600 25.77000
C  6.87300 5.53200 25.72300
C  5.06300 8.05300 27.85900
C  5.39600 7.46100 24.59200
O  5.57100 7.17400 23.39100
C  4.50000 8.62500 24.85500
N  8.63400 2.85400 25.32700
C  8.03400 3.60800 24.37900
C  8.34500 2.99200 22.97600
C  9.40500 1.92300 23.36400
C  9.25800 1.81600 24.82800
C  7.10100 2.43600 22.23300
C  10.82500 2.21700 22.94500
C  11.45400 1.08800 22.07800
N  9.63700 1.87500 27.86200
C  10.09700 0.89500 27.00200
C  10.86100 -0.09700 27.81200
C  10.73500 0.38400 29.12900
C  9.93700 1.49300 29.16400
C  11.67300 -1.27300 27.36200
C  11.13800 0.12900 30.49300
O  11.90200 -0.68900 30.97700
C  10.31100 1.08500 31.40800
C  9.40600 0.16700 32.25100
O  8.59600 -0.65300 31.84600
O  9.66200 0.41300 33.56600
C  9.12300 -0.58700 34.49800
H  6.04400 6.43900 29.89600
H  6.99400 5.25400 23.61500
H  10.43400 0.04200 25.10300
H  7.94000 2.84600 32.70300
H  7.75200 5.66300 31.88700
H  5.23000 4.71700 31.67700
H  5.87300 5.29800 33.17800
H  6.01800 3.59700 32.96100
H  9.74300 5.25700 32.38400
H  10.45200 3.61400 32.33900
H  8.58200 4.10100 34.61900
H  9.79600 5.32100 34.54800
H  5.35000 9.09400 27.70900
H  5.12000 7.90200 28.93700
H  4.01100 7.98700 27.58100
H  3.50800 8.34100 25.20500
H  4.52100 9.29400 23.99500
H  4.89600 9.28400 25.62800
H  8.82300 3.69300 22.29000
H  9.15700 0.93600 22.97300
H  6.26800 2.66000 22.89900
H  7.13100 1.37700 21.97700
H  6.93900 3.04900 21.34700
H  11.40700 2.40300 23.84700
H  11.05000 3.13500 22.40200
H  10.94300 0.12500 22.10100
H  12.42400 0.72600 22.41800
H  11.45800 1.36600 21.02400
H  11.59200 -1.51000 26.30100
H  11.55200 -2.13500 28.01700
H  12.72700 -1.00100 27.42200
H  11.01900 1.59400 32.06300
H  9.95400 -1.22600 34.79500
H  8.35300 -1.22400 34.06400
H  8.68200 -0.17900 35.40700
Mg -1.38200 34.68100 26.40500
C  -2.69500 33.06100 29.22000
C  0.25400 36.84600 28.47900
C  -0.34500 36.17900 23.68800
C  -3.33000 32.38900 24.39300
N  -1.03000 34.77300 28.66700
C  -1.70700 34.01200 29.61800
C  -1.21300 34.36100 31.00600
C  -0.21900 35.61000 30.73500
C  -0.30000 35.75100 29.20400
C  -0.52000 36.89400 31.47400
C  -0.52900 33.23100 31.80300
C  -1.16300 32.87700 33.14900
H  -0.31100 32.27800 34.37400
N  -0.21800 36.37800 26.10000
C  0.38900 37.00300 27.04300
C  1.16200 38.10800 26.41100
C  1.05100 37.95800 25.01400
C  0.08300 36.83800 24.85000
C  2.10700 38.94700 27.20800
C  1.84100 38.75700 23.90600
O  1.80200 38.49600 22.73000
C  2.76500 39.72300 24.33200
N  -1.91000 34.42700 24.36900
C  -1.20000 35.13800 23.46500
C  -1.60500 34.80100 22.02900
C  -2.32000 33.41800 22.20300
C  -2.51400 33.34500 23.76600
C  -2.27500 35.85600 21.30000
C  -1.41900 32.26200 21.59300
C  0.03500 32.08200 22.17800
N  -2.77300 33.15600 26.70500
C  -3.40700 32.31100 25.83100
C  -4.14500 31.34700 26.51200
C  -3.95700 31.66600 27.90600
C  -3.10100 32.76000 27.96000
C  -4.94500 30.30700 25.93200
C  -4.38600 31.27900 29.26700
O  -5.22800 30.52800 29.70000
C  -3.48000 32.19600 30.20500
C  -4.47400 32.94700 31.00000
O  -5.35200 33.63500 30.56000
O  -4.38300 32.55500 32.34900
C  -5.43100 33.01200 33.20900
H  0.75400 37.51000 29.18800
H  0.15900 36.68100 22.86000
H  -3.77200 31.68000 23.69100
H  -2.07700 34.73600 31.55500
H  0.82500 35.42500 30.98700
H  0.36200 37.43000 31.82700
H  -1.10500 36.76400 32.38500
H  -1.21800 37.52200 30.92000
H  0.48900 33.48900 32.09300
H  -0.45000 32.31100 31.22300
H  -1.88900 32.11300 32.87000
H  -1.65000 33.80100 33.46200
H  3.11100 38.62200 26.93400
H  1.97500 38.82700 28.28300
H  1.95800 40.00000 26.97000
H  3.14700 40.15000 23.40500
H  3.57100 39.27800 24.91500
H  2.21100 40.52400 24.82100
H  -0.66400 34.63000 21.50700
H  -3.30700 33.41400 21.74000
H  -2.32400 36.76500 21.89900
H  -3.26800 35.52500 20.99500
H  -1.77000 36.06500 20.35600
H  -1.29600 32.48600 20.53400
H  -2.00000 31.36800 21.81800
H  0.16000 31.01300 22.35000
H  0.12700 32.57200 23.14700
H  0.76000 32.62300 21.56900
H  -5.85200 30.83200 25.63000
H  -5.20100 29.62600 26.74300
H  -4.50800 29.76300 25.09400
H  -2.78100 31.55100 30.73800
H  -5.06200 33.21100 34.21600
H  -6.31800 32.38000 33.24300
H  -5.88600 33.91600 32.80500

