158

Mg -1.22500 17.60000 25.65600
C  -1.91300 15.49100 28.53200
C  -2.14500 20.25600 27.62900
C  -1.25500 19.45600 22.92600
C  -1.13100 14.61900 23.72900
N  -1.71900 17.85000 27.91200
C  -2.02800 16.91100 28.83600
C  -2.52800 17.50300 30.16700
C  -2.53200 18.99600 29.87800
C  -2.07100 19.06800 28.38800
C  -3.89600 19.65000 30.16000
C  -1.75100 17.00700 31.44600
C  -2.03200 17.78400 32.75800
H  -1.85700 16.91200 33.99700
N  -1.63800 19.54600 25.36300
C  -1.89400 20.51000 26.27600
C  -1.80200 21.84600 25.62000
C  -1.74400 21.59800 24.20500
C  -1.53100 20.15800 24.10200
C  -1.80800 23.02800 26.52900
C  -1.60500 22.57200 23.09900
O  -1.48400 22.31400 21.91200
C  -1.64600 24.05700 23.47000
N  -1.21800 17.14000 23.64500
C  -1.14500 18.09900 22.69900
C  -0.81700 17.54800 21.29100
C  -0.63700 16.06700 21.61400
C  -1.00500 15.93700 23.05400
C  -2.03700 17.73100 20.35300
C  0.80600 15.51200 21.30700
C  1.95500 15.49800 22.38100
N  -1.44400 15.50600 26.06000
C  -1.38600 14.45800 25.14200
C  -1.49100 13.18000 25.88000
C  -1.71900 13.54300 27.20800
C  -1.67300 14.97500 27.23200
C  -1.47100 11.74900 25.32200
C  -1.94800 13.06600 28.55000
O  -2.14300 11.94500 29.06100
C  -2.05000 14.32800 29.41900
C  -0.85400 14.23100 30.24900
O  0.26000 14.70000 30.03800
O  -1.18000 13.47800 31.37800
C  -0.13200 13.13400 32.33500
H  -2.54100 21.09600 28.20200
H  -1.20100 20.07800 22.03000
H  -0.97500 13.89700 22.92500
H  -3.52100 17.10700 30.37500
H  -1.78100 19.45800 30.51900
H  -4.52200 19.18200 30.91900
H  -4.52700 19.55800 29.27600
H  -3.77100 20.64100 30.59600
H  -0.70800 17.02100 31.12800
H  -1.96200 15.97000 31.70900
H  -3.06600 18.03200 32.51800
H  -1.47000 18.71800 32.71900
H  -0.99100 23.00600 27.24900
H  -2.70800 22.89600 27.13000
H  -1.97200 24.05100 26.19100
H  -1.74700 24.57200 22.51500
H  -0.67000 24.11700 23.95100
H  -2.44400 24.45200 24.09800
H  0.10600 17.96800 20.89300
H  -1.29200 15.34000 21.13400
H  -1.75300 18.40600 19.54500
H  -2.81700 18.11800 21.00800
H  -2.33800 16.74000 20.01500
H  1.15200 16.08800 20.44900
H  0.71800 14.47000 20.99700
H  2.42900 14.52000 22.46700
H  1.56900 15.80300 23.35400
H  2.68200 16.23000 22.03000
H  -0.65200 11.72700 24.60200
H  -2.36500 11.50700 24.74800
H  -1.41000 11.02800 26.13700
H  -2.85500 14.29500 30.15400
H  0.83200 13.60600 32.14800
H  0.04700 12.06000 32.38400
H  -0.43300 13.33400 33.36300
Mg 26.38100 51.02500 27.58500
C  24.31300 51.99400 30.15200
C  28.80200 50.19800 29.98600
C  28.46100 50.32900 25.04400
C  24.11600 52.42500 25.37600
N  26.58300 51.15700 29.90200
C  25.52400 51.43100 30.70600
C  25.89100 51.03400 32.13000
C  27.40400 50.54400 31.98900
C  27.64600 50.61100 30.55200
C  28.38700 51.28200 32.99700
C  24.99700 50.03500 32.80500
C  24.28000 50.49300 34.09300
H  25.15700 50.94700 35.26900
N  28.27400 50.30100 27.54600
C  29.12300 49.98200 28.59000
C  30.33200 49.38400 28.12600
C  30.33800 49.50900 26.68000
C  28.98700 50.09100 26.34800
C  31.44100 48.78900 28.89100
C  31.40100 49.07300 25.61700
O  31.16100 49.08200 24.41800
C  32.74300 48.55300 26.01800
N  26.31300 51.33400 25.53500
C  27.22700 50.86600 24.67900
C  26.87800 51.06200 23.20500
C  25.45700 51.63900 23.33400
C  25.24100 51.87800 24.84500
C  27.83100 51.95600 22.33000
C  24.27000 50.75500 22.79800
C  23.07900 51.59700 22.25100
N  24.52900 52.03300 27.68900
C  23.67900 52.49100 26.71900
C  22.47900 52.98600 27.23300
C  22.69900 52.82300 28.60300
C  23.97700 52.30300 28.83000
C  21.31600 53.45700 26.53900
C  22.06000 53.06800 29.91200
O  21.02500 53.63600 30.18800
C  23.12400 52.40200 30.95900
C  23.49800 53.43900 31.97600
O  24.55300 54.05200 31.96800
O  22.44800 53.73900 32.79400
C  22.84200 54.58700 33.86700
H  29.54100 49.82600 30.69900
H  29.09100 50.05500 24.19500
H  23.30100 52.74400 24.72200
H  25.87700 52.00800 32.61900
H  27.44500 49.48000 32.22400
H  29.23000 51.73500 32.47500
H  28.77600 50.60800 33.76000
H  27.87100 52.16300 33.37900
H  25.54600 49.12600 33.05100
H  24.20600 49.85700 32.07700
H  23.66600 49.67400 34.46600
H  23.65200 51.31900 33.75900
H  31.05800 48.78700 29.91200
H  32.41200 49.28400 28.91100
H  31.56500 47.77100 28.52400
H  33.30400 48.36100 25.10400
H  32.57400 47.61500 26.54700
H  33.18300 49.28200 26.69900
H  26.75300 50.07600 22.75900
H  25.33300 52.60700 22.84900
H  28.75400 51.98600 22.90800
H  27.41500 52.94300 22.12700
H  28.08500 51.43800 21.40500
H  23.84600 50.21700 23.64700
H  24.66000 50.04200 22.07200
H  22.15000 51.16900 22.62900
H  23.05200 51.51200 21.16400
H  23.09100 52.66400 22.47200
H  20.52800 52.98700 27.12700
H  21.32100 53.09300 25.51100
H  21.29200 54.54300 26.62900
H  22.54800 51.61600 31.44800
H  23.10200 55.59200 33.53400
H  23.56400 54.02400 34.45700
H  21.95700 54.68400 34.49700

