158

Mg -2.03300 16.91100 26.45400
C  -2.37000 14.56000 29.07300
C  -2.96800 19.31700 28.74000
C  -2.34200 19.05900 23.87700
C  -1.92900 14.25700 24.16900
N  -2.71900 16.90600 28.73400
C  -2.56700 15.86200 29.59000
C  -2.73400 16.24300 31.06300
C  -2.86300 17.80500 30.91200
C  -2.96300 18.03600 29.37600
C  -4.08600 18.42900 31.73600
C  -1.73900 15.74200 32.23700
C  -1.67000 16.59100 33.47800
H  -1.24900 15.98500 34.76400
N  -2.32000 18.90600 26.36400
C  -2.72000 19.72400 27.40400
C  -2.71400 21.06400 26.88600
C  -2.61500 21.02800 25.53500
C  -2.35700 19.64500 25.17800
C  -2.98700 22.26600 27.78900
C  -2.84600 22.20300 24.54400
O  -2.98000 22.03500 23.34800
C  -3.13800 23.64600 24.94900
N  -2.26800 16.67000 24.33100
C  -2.32300 17.73900 23.53400
C  -2.30700 17.27700 22.06000
C  -1.78700 15.84300 22.16900
C  -1.95900 15.55800 23.63100
C  -3.68100 17.45900 21.33700
C  -0.36800 15.57400 21.75700
C  0.87600 16.08800 22.50100
N  -2.15500 14.82500 26.49100
C  -2.03000 13.85700 25.48000
C  -2.10800 12.53800 26.03800
C  -2.18500 12.75400 27.40200
C  -2.23700 14.13700 27.65000
C  -2.11500 11.27000 25.15700
C  -2.34200 12.08600 28.68800
O  -2.41400 10.90200 28.98000
C  -2.49000 13.26700 29.79900
C  -1.39500 12.97200 30.80200
O  -0.24500 13.44200 30.81000
O  -1.87800 12.05300 31.72400
C  -1.10900 11.57000 32.85600
H  -3.12800 20.13600 29.44400
H  -2.35600 19.69400 22.98900
H  -1.69900 13.54400 23.37500
H  -3.68700 15.89800 31.46500
H  -1.94700 18.33400 31.17300
H  -4.46300 17.69200 32.44500
H  -4.89900 18.66500 31.04900
H  -3.76100 19.31600 32.27900
H  -0.71700 15.67200 31.86400
H  -2.15000 14.77400 32.52300
H  -2.69700 16.90700 33.65800
H  -1.03400 17.46300 33.32600
H  -2.74400 22.15200 28.84600
H  -4.03600 22.55700 27.73000
H  -2.33700 23.09800 27.51900
H  -2.41300 23.91900 25.71700
H  -4.08500 23.54000 25.47800
H  -3.17600 24.32300 24.09600
H  -1.52900 17.89000 21.60600
H  -2.37300 15.06600 21.68000
H  -4.20800 18.14100 22.00400
H  -4.32500 16.58200 21.39200
H  -3.61500 17.78100 20.29700
H  -0.15200 15.69700 20.69600
H  -0.23900 14.49200 21.77000
H  1.44200 16.73500 21.83100
H  1.59000 15.30100 22.74700
H  0.57300 16.58000 23.42400
H  -1.43400 11.34100 24.30800
H  -3.12700 10.91400 24.96200
H  -1.62400 10.49100 25.74000
H  -3.51300 13.17000 30.16300
H  -0.14800 12.05500 33.02400
H  -0.84200 10.52300 32.71300
H  -1.68600 11.66200 33.77600
Mg 0.80700 43.62000 25.82100
C  2.93100 43.56100 28.67100
C  -1.69000 42.63400 27.89300
C  -1.05000 43.12700 23.07700
C  3.68900 43.95700 23.70400
N  0.66200 43.12500 28.07000
C  1.59600 43.39600 29.05300
C  0.89400 43.30300 30.48500
C  -0.58700 43.05700 30.12400
C  -0.52300 42.90900 28.61400
C  -1.22200 41.76900 30.74200
C  1.18200 44.53800 31.37300
C  0.97800 44.39800 32.94900
H  0.80500 43.04700 33.62100
N  -1.11200 42.94000 25.52200
C  -1.93700 42.54500 26.54200
C  -3.29400 42.24100 25.99700
C  -3.12100 42.33800 24.57800
C  -1.71900 42.78300 24.34900
C  -4.44200 41.84500 26.84700
C  -4.19900 42.14500 23.48300
O  -3.86100 42.16200 22.33900
C  -5.66100 41.86900 23.82500
N  1.26900 43.70300 23.75300
C  0.26200 43.44000 22.84200
C  0.92500 43.40000 21.39700
C  2.35000 43.90500 21.56400
C  2.46800 43.90300 23.13100
C  0.73500 42.14700 20.56800
C  2.56000 45.27200 20.98300
C  1.90000 46.53100 21.77200
N  2.94700 43.79900 26.07100
C  3.87500 43.91000 25.09100
C  5.21100 43.94400 25.81500
C  4.84900 43.72900 27.14800
C  3.48800 43.70500 27.30600
C  6.57800 44.07500 25.21600
C  5.43800 43.44600 28.41900
O  6.62100 43.27000 28.71600
C  4.23600 43.51600 29.48500
C  4.09200 42.34900 30.40800
O  3.34500 41.40800 30.45700
O  5.07800 42.43000 31.36800
C  5.17000 41.42700 32.44200
H  -2.58900 42.35100 28.44500
H  -1.60800 43.01900 22.14400
H  4.57200 43.92900 23.06300
H  1.25100 42.46100 31.08000
H  -1.11100 43.99400 30.31200
H  -2.23000 42.05600 31.04000
H  -0.81500 41.48000 31.71100
H  -1.07200 40.93500 30.05600
H  0.51200 45.36300 31.13100
H  2.23400 44.75300 31.18700
H  0.24500 45.13800 33.27100
H  1.87600 44.83800 33.38100
H  -5.22100 41.39600 26.23000
H  -4.98400 42.66800 27.31300
H  -4.13700 41.09500 27.57700
H  -6.26200 41.93000 22.91800
H  -6.05600 42.67000 24.45000
H  -5.72900 40.85900 24.22800
H  0.32800 44.11300 20.82900
H  2.99100 43.13800 21.12900
H  -0.00800 41.54500 21.09100
H  1.70500 41.66500 20.44900
H  0.55100 42.23900 19.49700
H  2.09100 45.37200 20.00500
H  3.58200 45.57300 20.75300
H  1.98900 46.36900 22.84600
H  0.85400 46.71700 21.53000
H  2.43700 47.45500 21.55600
H  7.18300 44.79200 25.77000
H  6.55800 44.44700 24.19100
H  7.14600 43.15100 25.10900
H  4.41100 44.33600 30.18200
H  4.23600 41.42500 33.00300
H  5.96800 41.79000 33.08900
H  5.39300 40.45400 32.00400

