158

Mg 25.38300 2.44400 29.58400
C  27.44600 2.26200 32.24000
C  22.68800 2.92400 31.81300
C  23.15000 2.07700 27.04000
C  27.86100 1.04400 27.53200
N  25.09300 2.48600 31.75900
C  26.10500 2.60800 32.56100
C  25.69100 3.01300 34.00800
C  24.13000 3.07300 33.88400
C  23.94700 2.78300 32.39300
C  23.51900 1.98100 34.72500
C  26.39400 4.32800 34.50700
C  27.28500 4.19500 35.80700
H  26.91300 5.11900 36.91800
N  23.21100 2.61600 29.44600
C  22.25600 2.78400 30.47900
C  20.96900 2.97800 29.89600
C  21.04500 2.66500 28.54600
C  22.48300 2.40500 28.23500
C  19.78500 3.36700 30.76200
C  19.94400 2.60000 27.41200
O  20.10200 2.30100 26.24900
C  18.62200 3.00200 27.87200
N  25.48700 1.60400 27.53300
C  24.46200 1.82500 26.66500
C  24.90200 1.52500 25.17700
C  26.40400 1.18400 25.39000
C  26.60300 1.27400 26.90600
C  24.04000 0.45400 24.47900
C  27.46600 1.86400 24.54800
C  27.85000 3.27500 25.11100
N  27.32600 1.75800 29.79000
C  28.19500 1.26700 28.87000
C  29.49500 1.09700 29.53700
C  29.23600 1.50500 30.88700
C  27.89800 1.83700 30.97900
C  30.70700 0.44600 29.00700
C  29.78400 1.69000 32.25100
O  30.93400 1.41100 32.67700
C  28.63600 2.09700 33.16100
C  28.50300 1.06800 34.27100
O  27.79800 0.06700 34.26000
O  29.35400 1.37600 35.33800
C  29.25900 0.43700 36.43600
H  21.89400 3.10100 32.54200
H  22.44700 1.98800 26.20900
H  28.61900 0.72500 26.81300
H  25.84100 2.28300 34.80300
H  23.64100 4.01200 34.14700
H  24.07500 1.29000 35.35800
H  22.87400 1.33900 34.12600
H  22.86700 2.60000 35.34100
H  25.67300 5.12400 34.69000
H  27.20500 4.57800 33.82300
H  28.29200 4.34100 35.41600
H  27.16200 3.19100 36.21100
H  19.11400 4.07200 30.27100
H  20.07900 3.69100 31.76000
H  19.17500 2.46600 30.83300
H  17.78700 2.90700 27.17700
H  18.62400 4.01800 28.26700
H  18.46600 2.38100 28.75400
H  24.74400 2.47600 24.66900
H  26.46200 0.13200 25.11100
H  23.41300 0.89000 23.70100
H  23.30500 -0.01900 25.13000
H  24.63100 -0.30400 23.96400
H  27.08500 2.08800 23.55100
H  28.38600 1.28100 24.52600
H  27.52100 3.63100 26.08700
H  27.46200 4.00100 24.39700
H  28.94000 3.25300 25.08000
H  30.75600 -0.48000 29.58000
H  31.56300 1.01900 29.36400
H  30.68600 0.30600 27.92600
H  28.93000 2.98800 33.71600
H  30.28400 0.34700 36.79600
H  29.05700 -0.62200 36.28000
H  28.65600 0.75000 37.28800
Mg 47.59600 16.50400 28.63100
C  45.60400 16.26200 31.57400
C  49.81100 18.33200 30.50800
C  49.23200 17.02700 25.81700
C  45.04500 14.66500 26.89800
N  47.69200 17.20400 30.80100
C  46.76600 17.00300 31.78800
C  47.18500 17.60700 33.12300
C  48.41500 18.53500 32.74500
C  48.74300 17.95900 31.27500
C  48.17400 20.09900 32.75400
C  47.36900 16.47800 34.20300
C  46.83100 16.82400 35.57200
H  46.65200 18.34100 35.92500
N  49.33300 17.46300 28.25200
C  50.15100 18.16400 29.07500
C  51.40300 18.53900 28.43100
C  51.21800 18.16200 27.06200
C  49.87200 17.58000 26.96800
C  52.53400 19.22000 29.20000
C  52.24100 18.17000 25.95800
O  52.01000 17.83700 24.83200
C  53.66600 18.59000 26.27900
N  47.21600 15.87900 26.64100
C  48.09900 16.21800 25.66500
C  47.64100 15.68300 24.33900
C  46.26900 14.89900 24.66500
C  46.13300 15.16000 26.14300
C  47.29500 16.74200 23.27700
C  46.23100 13.35900 24.16600
C  45.08100 12.94200 23.21500
N  45.68800 15.61600 29.13700
C  44.83100 14.90400 28.29200
C  43.61600 14.67900 29.00200
C  43.85900 15.13300 30.33000
C  45.17100 15.71600 30.33400
C  42.33900 14.07600 28.44300
C  43.32700 15.33200 31.65600
O  42.25100 14.87300 32.10800
C  44.39500 16.04000 32.49900
C  43.74600 17.22400 33.04100
O  43.73300 18.30800 32.44000
O  43.04800 16.93600 34.18700
C  42.11100 17.91100 34.74500
H  50.48200 18.94000 31.11800
H  49.68100 17.26300 24.85000
H  44.29200 14.14900 26.29900
H  46.36100 18.25600 33.41800
H  49.27900 18.30100 33.36800
H  47.25500 20.50900 33.17200
H  48.26300 20.47800 31.73600
H  48.98700 20.45900 33.38600
H  48.43800 16.32200 34.34300
H  46.88500 15.54500 33.91500
H  47.47700 16.43000 36.35600
H  45.79800 16.48900 35.65600
H  52.15200 19.87500 29.98300
H  53.03400 19.82500 28.44400
H  53.31600 18.56900 29.59200
H  54.17000 18.14600 27.13800
H  53.64200 19.67900 26.32100
H  54.27000 18.29300 25.42200
H  48.44900 15.08600 23.91600
H  45.39400 15.45900 24.33500
H  47.70400 17.67800 23.66000
H  46.25200 16.88700 22.99800
H  47.87700 16.42600 22.41100
H  46.08500 12.65700 24.98700
H  47.24000 13.32900 23.75600
H  45.72800 12.72300 22.36600
H  44.34400 13.71700 23.00000
H  44.59600 12.04900 23.60900
H  42.18600 13.05900 28.80600
H  42.37400 13.99100 27.35700
H  41.45900 14.68600 28.64400
H  44.67100 15.37400 33.31600
H  42.55500 18.90700 34.74000
H  41.69800 17.71500 35.73400
H  41.32700 17.97300 33.99000

