158

Mg 15.80000 -1.70500 27.24700
C  15.01200 0.52500 29.91000
C  18.18500 -3.26400 29.36900
C  17.49500 -2.92600 24.66500
C  14.24700 0.59400 25.14700
N  16.46200 -1.35800 29.32300
C  15.82600 -0.56800 30.24800
C  16.35300 -0.81300 31.64200
C  17.59600 -1.79000 31.35500
C  17.46600 -2.19800 29.95000
C  18.98700 -1.15000 31.64500
C  15.22800 -1.26300 32.55000
C  15.19000 -0.74500 33.98800
H  16.45600 -0.18200 34.64000
N  17.23600 -3.31100 27.06200
C  18.11300 -3.79800 28.03900
C  18.87700 -4.85500 27.51000
C  18.63600 -4.78500 26.10200
C  17.68100 -3.63800 25.86800
C  19.66600 -5.85400 28.30500
C  19.30600 -5.61600 25.02000
O  19.19400 -5.29500 23.82700
C  20.23500 -6.77000 25.33800
N  15.95100 -1.18600 25.26400
C  16.75700 -1.82300 24.37500
C  16.67500 -1.27200 22.96200
C  15.38900 -0.34700 23.11900
C  15.14100 -0.29200 24.62100
C  17.98100 -0.53000 22.63800
C  14.04400 -0.93700 22.44800
C  13.14500 0.08200 21.59500
N  14.71400 0.18600 27.43800
C  14.03400 0.87600 26.52300
C  13.30400 2.00800 27.12600
C  13.68400 1.91600 28.48400
C  14.54700 0.76100 28.60800
C  12.49400 3.03500 26.50300
C  13.63300 2.58700 29.76800
O  13.12300 3.61800 30.22300
C  14.40700 1.68200 30.78200
C  15.43200 2.54300 31.50200
O  16.54100 2.83100 31.05500
O  14.89000 3.05800 32.64600
C  15.88500 3.84600 33.46700
H  18.95200 -3.79300 29.93900
H  18.04200 -3.24700 23.77600
H  13.57700 1.18700 24.52200
H  16.76100 0.06600 32.14200
H  17.45400 -2.64900 32.01000
H  18.93800 -0.09100 31.90200
H  19.67100 -1.18100 30.79700
H  19.46900 -1.67000 32.47400
H  15.19200 -2.35000 32.61500
H  14.30200 -0.93900 32.07400
H  14.84000 -1.54900 34.63600
H  14.59500 0.16700 34.03000
H  20.73000 -5.81600 28.06900
H  19.30400 -6.85900 28.08600
H  19.51200 -5.69800 29.37200
H  19.65300 -7.60100 25.73500
H  21.03100 -6.46200 26.01700
H  20.68400 -7.02000 24.37700
H  16.62300 -2.12800 22.28900
H  15.61200 0.63100 22.69200
H  17.76400 0.52700 22.49000
H  18.38300 -0.96000 21.72000
H  18.79300 -0.71800 23.34100
H  13.43500 -1.35500 23.24900
H  14.26700 -1.77700 21.79000
H  13.59900 1.07300 21.60000
H  12.14400 0.11500 22.02500
H  13.06500 -0.23300 20.55400
H  11.87900 2.70300 25.66700
H  13.13800 3.81200 26.09100
H  12.05700 3.39900 27.43300
H  13.62400 1.30000 31.43600
H  15.43400 3.81000 34.45800
H  15.84900 4.86000 33.06900
H  16.90500 3.55000 33.22000
Mg 49.11700 47.36000 42.12700
C  45.78200 47.49000 41.25100
C  49.31900 44.18600 40.75100
C  52.42200 47.70900 41.87100
C  48.85400 50.73800 43.11900
N  47.67900 45.96900 41.05000
C  46.34400 46.24400 40.90300
C  45.69900 45.05000 40.11200
C  46.79800 43.88900 40.16200
C  48.02400 44.68300 40.65300
C  46.48800 42.71900 41.20800
C  45.31200 45.54300 38.69200
C  43.90600 45.07500 38.16400
H  43.80800 44.57100 36.78900
N  50.66000 46.04000 41.57500
C  50.50000 44.75200 41.15200
C  51.87400 44.18600 41.00000
C  52.82800 45.22500 41.22000
C  51.97500 46.40700 41.59900
C  52.19900 42.78100 40.44600
C  54.37800 45.11400 41.12000
O  54.89700 44.05700 40.87000
C  55.20800 46.28700 41.30300
N  50.38100 48.97900 42.33400
C  51.77100 48.81000 42.26300
C  52.54500 50.11500 42.62800
C  51.37800 51.07000 43.07900
C  50.08400 50.18800 42.85400
C  53.65700 49.94200 43.68400
C  51.19700 52.32800 42.25100
C  51.02900 53.59600 43.11100
N  47.67700 48.89000 42.19600
C  47.68800 50.21000 42.72600
C  46.39700 50.82300 42.60700
C  45.58200 49.75100 42.03200
C  46.42300 48.62900 41.82200
C  45.80900 52.14300 42.91400
C  44.32600 49.37200 41.67800
O  43.26900 49.93700 41.74900
C  44.32500 47.96400 41.18200
C  43.42600 47.09100 41.96600
O  43.54100 46.81000 43.10900
O  42.54900 46.56700 41.10200
C  41.51200 45.62200 41.50200
H  49.31200 43.14100 40.43600
H  53.44600 48.00300 41.63000
H  48.85300 51.66800 43.69000
H  44.77300 44.77100 40.61500
H  47.03300 43.47500 39.18200
H  45.68000 42.86900 41.92500
H  47.38700 42.63600 41.81800
H  46.20700 41.77200 40.74700
H  46.06400 45.25600 37.95700
H  45.22500 46.62900 38.68400
H  43.15800 45.86300 38.24100
H  43.57200 44.30800 38.86300
H  51.30300 42.16100 40.46200
H  52.76200 42.10300 41.08700
H  52.61300 42.82100 39.43900
H  54.84400 47.05500 40.62100
H  56.26000 46.07200 41.11900
H  55.10400 46.53200 42.36000
H  53.02500 50.45100 41.70800
H  51.39700 51.28700 44.14700
H  53.31800 49.04100 44.19500
H  53.63400 50.86600 44.26100
H  54.57500 49.74400 43.12900
H  50.38400 52.29900 41.52600
H  52.11200 52.40700 41.66300
H  52.01400 53.98300 43.37200
H  50.26500 53.35000 43.84900
H  50.51300 54.38400 42.56300
H  45.77000 52.27100 43.99600
H  44.74800 52.13800 42.66600
H  46.34300 53.02600 42.56300
H  43.96100 48.02200 40.15600
H  42.04500 44.70200 41.74400
H  40.78200 45.42500 40.71800
H  40.99800 46.03300 42.37000

