158

Mg 17.19100 -0.36500 27.68200
C  16.40000 1.47300 30.65800
C  19.13500 -2.36300 29.53300
C  18.38200 -1.64200 24.83100
C  15.68800 2.19900 25.83600
N  17.95700 -0.20000 29.81600
C  17.33600 0.45600 30.87100
C  17.59500 -0.21700 32.22500
C  18.56600 -1.36400 31.81200
C  18.62000 -1.26300 30.29400
C  20.00300 -1.29400 32.49600
C  16.37100 -0.73900 32.98800
C  16.30900 -0.46200 34.51200
H  17.60600 0.03100 35.22500
N  18.54800 -1.87400 27.23200
C  19.19900 -2.70400 28.18700
C  19.81300 -3.82300 27.53200
C  19.58700 -3.56700 26.07200
C  18.78000 -2.34200 25.99900
C  20.41600 -4.96700 28.32100
C  19.84800 -4.48200 24.90700
O  19.43900 -4.28000 23.75300
C  20.68600 -5.70500 25.08800
N  17.16900 0.23200 25.68900
C  17.68100 -0.49300 24.69600
C  17.58300 0.18400 23.27800
C  16.66200 1.39800 23.64100
C  16.41300 1.27300 25.13500
C  18.98900 0.57300 22.66900
C  15.31700 1.31200 22.79500
C  14.27800 0.40800 23.28300
N  16.02800 1.27800 28.10200
C  15.42900 2.25600 27.24600
C  14.71100 3.23500 27.98900
C  15.09600 2.98000 29.30000
C  15.93300 1.77600 29.34700
C  14.04600 4.48900 27.49100
C  14.92700 3.49200 30.67700
O  14.31000 4.46300 31.05700
C  15.83600 2.55300 31.62900
C  16.87600 3.27600 32.30900
O  18.04200 3.31300 31.96900
O  16.40700 3.93500 33.45700
C  17.35400 4.62500 34.36900
H  19.51800 -3.16600 30.16600
H  18.63000 -2.07900 23.86100
H  15.16100 3.01300 25.33300
H  18.16300 0.39800 32.92300
H  18.25600 -2.37600 32.07300
H  19.90000 -2.24500 33.01700
H  20.09000 -0.42600 33.15000
H  20.86600 -1.22900 31.83300
H  16.23700 -1.78100 32.69600
H  15.48500 -0.24500 32.58900
H  16.00800 -1.38700 35.00400
H  15.48400 0.19400 34.78900
H  19.92600 -5.92400 28.14000
H  20.33200 -4.83800 29.40000
H  21.48900 -5.12300 28.21200
H  21.61300 -5.46300 25.60900
H  20.93000 -6.04800 24.08300
H  20.12400 -6.54500 25.49500
H  17.09700 -0.46700 22.55200
H  17.19900 2.34100 23.53900
H  19.00400 1.58000 22.25400
H  19.36600 -0.21200 22.01300
H  19.71900 0.42200 23.46400
H  15.59600 0.97500 21.79700
H  14.89200 2.31100 22.69300
H  13.78400 -0.04900 22.42600
H  13.57700 0.95200 23.91600
H  14.57200 -0.41900 23.93000
H  14.76200 4.89600 26.77800
H  13.80400 5.13900 28.33200
H  13.21000 4.07200 26.93000
H  15.19800 2.04200 32.35000
H  17.16100 4.27800 35.38400
H  17.29300 5.70600 34.24500
H  18.38500 4.31000 34.20600
Mg -10.39200 17.49200 40.96000
C  -6.69400 17.52700 40.62800
C  -10.17700 20.80600 40.25500
C  -13.64400 17.35200 40.21600
C  -10.21800 13.97400 41.07600
N  -8.56200 18.97100 40.59200
C  -7.22900 18.81200 40.49600
C  -6.51300 20.14100 40.13100
C  -7.57800 21.19500 40.50000
C  -8.87400 20.27000 40.47400
C  -7.39700 21.85700 41.86600
C  -5.98300 20.18200 38.62100
C  -4.55700 19.88500 38.37400
H  -4.33300 18.90600 37.29300
N  -11.76100 18.87600 40.42600
C  -11.50700 20.21600 40.17800
C  -12.72600 20.87500 39.88400
C  -13.76600 19.89300 39.87100
C  -13.06700 18.61200 40.12000
C  -12.66100 22.36800 39.44300
C  -15.26800 20.18700 39.61500
O  -15.69200 21.30200 39.55800
C  -16.28300 19.07500 39.60600
N  -11.78300 15.82500 40.73500
C  -13.06000 16.08700 40.52600
C  -13.84600 14.74800 40.43100
C  -12.72800 13.70800 40.82500
C  -11.45600 14.52700 40.83000
C  -15.09000 14.71300 41.28000
C  -12.52900 12.58800 39.74700
C  -13.74000 11.66800 39.51200
N  -8.82800 16.03500 40.99300
C  -9.00100 14.63100 41.07000
C  -7.67600 13.98000 41.10100
C  -6.73600 15.06900 41.05000
C  -7.52100 16.30000 40.87300
C  -7.30800 12.47400 41.15500
C  -5.31200 15.52000 41.17800
O  -4.34500 14.90700 41.53000
C  -5.23900 17.08100 40.85400
C  -4.50900 17.86200 41.81700
O  -3.45300 18.45100 41.60700
O  -5.18800 17.80500 43.02100
C  -4.59000 18.50100 44.21100
H  -10.11900 21.89000 40.38100
H  -14.70500 17.31100 39.96200
H  -10.14200 12.88500 41.10500
H  -5.64400 20.25300 40.77900
H  -7.75500 21.96400 39.74800
H  -6.43200 21.61900 42.31400
H  -8.27800 21.68200 42.48300
H  -7.28300 22.93400 41.74600
H  -6.10200 21.23300 38.35900
H  -6.65700 19.55300 38.04000
H  -3.99400 19.39700 39.17000
H  -3.98500 20.75100 38.04100
H  -13.63200 22.77100 39.15500
H  -12.01300 22.61000 38.60000
H  -12.26200 22.95100 40.27200
H  -16.02700 18.54500 38.68800
H  -17.23700 19.58900 39.49200
H  -16.14800 18.49700 40.51900
H  -14.11000 14.72700 39.37300
H  -12.92400 13.26500 41.80100
H  -15.96700 14.72400 40.63300
H  -15.04100 15.58700 41.93000
H  -15.17300 13.75100 41.78700
H  -11.71600 11.91600 40.02200
H  -12.29000 13.06900 38.79900
H  -13.98400 11.63000 38.45000
H  -14.62600 11.89900 40.10300
H  -13.60900 10.63300 39.82900
H  -6.89700 12.04300 40.24200
H  -8.17100 11.86900 41.43500
H  -6.55300 12.29500 41.92000
H  -4.79300 17.16000 39.86300
H  -5.41500 18.51700 44.92300
H  -4.05200 19.41300 43.95600
H  -3.77500 17.91900 44.64300

