158

Mg 0.05100 6.89300 26.79700
C  1.22200 9.35500 29.14800
C  0.05000 4.58100 29.31200
C  -0.60800 4.65400 24.49400
C  0.44300 9.35400 24.25400
N  0.65000 6.97500 28.95000
C  0.89400 8.09000 29.68000
C  0.88800 7.73100 31.15200
C  0.84100 6.15800 31.19300
C  0.49300 5.86100 29.72200
C  2.08200 5.45200 31.67800
C  -0.42300 8.38600 31.78500
C  -0.42800 8.29800 33.34000
H  0.81300 7.91000 34.16400
N  -0.36600 4.83600 26.89700
C  -0.27100 4.12300 28.01100
C  -0.63800 2.78300 27.73200
C  -0.86800 2.71700 26.28500
C  -0.53700 4.11000 25.81900
C  -0.70500 1.73400 28.78400
C  -1.21800 1.58000 25.44500
O  -1.21300 1.63700 24.17200
C  -1.52600 0.20600 26.03300
N  -0.02900 7.02600 24.65600
C  -0.44300 5.95800 23.98400
C  -0.58900 6.30200 22.52800
C  -0.35900 7.80600 22.36100
C  0.04600 8.13500 23.82200
C  0.26100 5.36200 21.63100
C  -1.64400 8.66100 21.94600
C  -1.33400 10.00400 21.28100
N  0.79300 8.83500 26.64300
C  0.88400 9.73500 25.54100
C  1.33400 11.05000 26.02000
C  1.41900 10.93600 27.39700
C  1.11000 9.58700 27.74200
C  1.49900 12.37300 25.20600
C  1.80800 11.64000 28.62400
O  2.27400 12.76900 28.79400
C  1.69200 10.59200 29.76000
C  2.92400 10.65600 30.56100
O  3.94800 10.03600 30.32900
O  2.74300 11.35300 31.79000
C  3.80300 11.36800 32.79700
H  0.06600 3.93300 30.19000
H  -0.90800 3.99200 23.67900
H  0.47400 10.10400 23.46100
H  1.81200 8.10700 31.59300
H  0.01500 5.80600 31.81000
H  1.89000 5.07200 32.68100
H  2.95000 6.11100 31.68600
H  2.20700 4.52400 31.12000
H  -1.26100 7.78000 31.43900
H  -0.65100 9.43200 31.58100
H  -1.20400 7.59900 33.65200
H  -0.76900 9.28300 33.65700
H  -1.68200 1.85800 29.25100
H  -0.01600 2.00100 29.58600
H  -0.45000 0.84200 28.21300
H  -1.85800 -0.44800 25.22700
H  -2.28100 0.22000 26.82000
H  -0.56400 -0.17000 26.38200
H  -1.61500 6.16500 22.18600
H  0.43700 7.99000 21.63900
H  0.80300 4.61300 22.20800
H  0.90600 6.03000 21.06000
H  -0.43300 4.86900 20.95000
H  -2.17900 8.89700 22.86600
H  -2.18700 7.99800 21.27300
H  -1.50100 10.84700 21.95200
H  -1.85800 10.07700 20.32800
H  -0.26600 9.99400 21.06200
H  1.45900 12.25700 24.12300
H  2.46900 12.77700 25.49600
H  0.77000 13.14500 25.45200
H  0.82900 10.97300 30.30700
H  4.48500 12.13900 32.43800
H  4.41300 10.49100 33.01400
H  3.38300 11.71800 33.74000
Mg 1.09500 43.95600 25.15500
C  3.03500 43.81000 28.06800
C  -1.72000 43.10100 27.19600
C  -0.79000 43.20100 22.35000
C  3.79600 44.16000 23.30200
N  0.77100 43.57200 27.48600
C  1.74200 43.61600 28.42300
C  1.09700 43.31700 29.77500
C  -0.44700 42.94100 29.42000
C  -0.51700 43.20900 27.94700
C  -0.94000 41.52400 29.78000
C  1.15800 44.60500 30.69600
C  0.47000 44.48400 32.12800
H  0.34500 43.10700 32.84400
N  -1.01500 43.59400 24.77600
C  -1.93200 43.37000 25.80000
C  -3.21500 43.34900 25.18200
C  -3.03100 43.10800 23.72800
C  -1.54200 43.25700 23.52100
C  -4.54200 43.53400 26.00400
C  -4.10400 43.01600 22.71400
O  -3.94700 43.06900 21.50600
C  -5.51600 43.05700 23.20000
N  1.43800 43.68000 23.03400
C  0.51800 43.49500 22.00300
C  1.16700 43.45700 20.61800
C  2.63200 43.87400 20.95800
C  2.64700 43.94900 22.54800
C  1.17000 42.04800 19.89300
C  3.00500 45.25500 20.23600
C  2.53100 46.71500 20.82900
N  3.02000 44.02700 25.53900
C  3.98800 44.29300 24.67800
C  5.26300 44.44100 25.43900
C  4.88200 44.17600 26.75100
C  3.47700 43.96300 26.77700
C  6.58600 44.66500 24.86700
C  5.42000 43.95200 28.09200
O  6.58700 43.77800 28.43500
C  4.27900 43.84600 29.05300
C  4.29600 42.55400 29.81700
O  4.04700 41.46900 29.34300
O  4.58600 42.73600 31.17400
C  4.69500 41.55100 32.03400
H  -2.55200 42.82900 27.84900
H  -1.35300 42.83000 21.49100
H  4.69100 44.32100 22.69800
H  1.49400 42.50100 30.37800
H  -1.19900 43.53600 29.93800
H  -1.87700 41.65400 30.32200
H  -0.23700 41.07800 30.48300
H  -1.20700 41.00500 28.86000
H  0.72800 45.43400 30.13400
H  2.18700 44.83900 30.97000
H  -0.56000 44.81100 31.98100
H  1.10500 45.12700 32.73700
H  -5.13900 44.33700 25.57100
H  -4.46800 43.71900 27.07500
H  -5.10600 42.60500 25.92400
H  -5.67100 42.21300 23.87100
H  -6.13700 42.82300 22.33500
H  -5.77200 44.01200 23.66000
H  0.59400 44.20400 20.06900
H  3.31300 43.04600 20.76100
H  0.60600 41.38700 20.55000
H  2.09800 41.57800 19.56500
H  0.49900 42.21400 19.05100
H  2.60900 45.26000 19.22100
H  4.06700 45.34400 20.00700
H  2.25000 47.38100 20.01300
H  3.37300 47.18700 21.33500
H  1.66500 46.77000 21.49000
H  6.83700 45.72500 24.90200
H  6.68100 44.28000 23.85100
H  7.27300 44.01200 25.40500
H  4.31300 44.64100 29.79800
H  5.64700 41.04600 31.87000
H  3.84000 40.90900 31.82200
H  4.63300 41.90000 33.06500

