158

Mg 43.31400 42.26400 26.78400
C  42.15500 44.46300 29.30500
C  44.31200 40.18900 29.39100
C  44.76600 40.40000 24.49800
C  43.06900 44.96200 24.54800
N  43.23500 42.24000 29.05300
C  42.55200 43.22400 29.82400
C  42.52400 42.96800 31.38100
C  43.49600 41.73600 31.43900
C  43.75400 41.36600 29.87200
C  44.84000 41.90700 32.28500
C  41.07200 42.82100 31.86100
C  40.65700 43.38100 33.19900
H  41.58900 43.37300 34.35600
N  44.33900 40.46300 26.92100
C  44.65000 39.77300 28.05700
C  45.26200 38.51700 27.60800
C  45.15100 38.45600 26.22600
C  44.76500 39.79200 25.77500
C  45.67900 37.39300 28.48600
C  45.44200 37.29200 25.17300
O  45.25300 37.53500 23.95400
C  45.64800 35.90000 25.58400
N  43.84800 42.59700 24.73200
C  44.35400 41.63400 24.05000
C  44.45100 41.97200 22.60200
C  43.77200 43.45000 22.61800
C  43.52900 43.73700 23.99800
C  45.81900 41.84700 21.91400
C  42.47300 43.56000 21.65900
C  41.16200 42.82500 22.13600
N  42.73900 44.26500 26.88200
C  42.57400 45.22000 25.87700
C  42.05000 46.49200 26.43400
C  41.76300 46.18200 27.73400
C  42.28500 44.89900 27.99200
C  41.73000 47.71900 25.67500
C  41.09500 46.68200 28.95300
O  40.44000 47.72400 29.08800
C  41.41900 45.62700 30.01000
C  42.20300 46.39200 31.00100
O  43.39700 46.62900 30.87500
O  41.43500 46.74200 32.14000
C  42.14400 47.41200 33.18400
H  44.72100 39.57500 30.19600
H  45.26000 39.75600 23.76800
H  42.95900 45.82000 23.88300
H  43.08300 43.78800 31.83200
H  42.95600 40.93400 31.94200
H  45.02600 42.92100 32.63900
H  45.60900 41.60200 31.57500
H  45.01100 41.27100 33.15300
H  40.95200 41.73900 31.90200
H  40.42200 43.09700 31.03100
H  39.74100 42.93600 33.58800
H  40.48000 44.43400 32.98400
H  45.67200 37.87900 29.46200
H  46.67700 37.02000 28.26000
H  44.92700 36.60500 28.49900
H  46.32000 35.66000 26.40700
H  45.85100 35.35000 24.66500
H  44.65000 35.63300 25.93200
H  43.81900 41.25800 22.07400
H  44.44000 44.25400 22.30800
H  46.55900 41.50300 22.63600
H  45.98700 42.89800 21.67900
H  45.93200 41.35600 20.94800
H  42.81600 43.19200 20.69200
H  42.28500 44.62000 21.48900
H  41.17700 42.67700 23.21600
H  40.88900 41.90500 21.61900
H  40.33700 43.51200 21.95000
H  42.51900 47.73600 24.92400
H  41.75700 48.53000 26.40300
H  40.76200 47.65700 25.17600
H  40.47600 45.25200 30.41000
H  42.42100 48.41000 32.84400
H  43.03600 46.83500 33.42500
H  41.45800 47.48000 34.02800
Mg 10.23900 46.74400 25.54500
C  7.96800 46.90000 28.18200
C  12.66800 48.08200 27.59200
C  12.28600 46.68500 22.94600
C  7.53300 46.22600 23.40000
N  10.33200 47.45700 27.62400
C  9.28300 47.21200 28.54600
C  9.79400 47.55200 29.95100
C  11.17800 48.24800 29.74400
C  11.46300 47.87200 28.28800
C  11.15600 49.87800 29.84200
C  9.73500 46.28200 30.92500
C  9.35300 46.55500 32.39200
H  9.65900 45.55800 33.42200
N  12.18900 47.21400 25.31200
C  13.00500 47.71800 26.30400
C  14.35800 47.96300 25.75500
C  14.33200 47.43000 24.38400
C  12.87900 47.14500 24.16800
C  15.50700 48.58600 26.57100
C  15.54900 47.20500 23.44100
O  15.45200 46.68700 22.36700
C  16.97100 47.53200 23.84600
N  10.00500 46.49100 23.38100
C  10.98200 46.43500 22.52000
C  10.41900 46.09500 21.06100
C  8.86500 45.79900 21.40200
C  8.81500 46.19700 22.85900
C  10.76700 47.22300 20.05100
C  8.40600 44.31100 20.98100
C  7.50400 44.34400 19.75000
N  8.19000 46.61200 25.64300
C  7.20900 46.47300 24.71400
C  5.89500 46.54100 25.33600
C  6.18100 46.65100 26.72900
C  7.53000 46.70600 26.85900
C  4.64200 46.43600 24.62600
C  5.57000 46.72900 28.04000
O  4.38100 46.77900 28.31800
C  6.73200 46.79400 29.01900
C  6.53600 45.50900 29.80200
O  6.89200 44.38800 29.49200
O  5.89300 45.73800 30.93600
C  5.55000 44.58300 31.77000
H  13.49000 48.43700 28.21700
H  13.04500 46.51200 22.18000
H  6.71700 46.10800 22.68400
H  9.02800 48.24700 30.29500
H  11.99200 47.78800 30.30400
H  11.58700 50.29500 28.93200
H  11.84800 50.15500 30.63700
H  10.15000 50.23900 30.05400
H  10.75700 45.91100 30.83600
H  9.04700 45.56600 30.47600
H  8.26500 46.60500 32.41200
H  9.78200 47.50500 32.71200
H  15.27900 48.91700 27.58400
H  15.81400 49.52900 26.11800
H  16.36200 47.91100 26.62100
H  17.74800 47.58400 23.08300
H  17.11800 46.78100 24.62300
H  16.95600 48.45700 24.42300
H  10.92100 45.17800 20.75300
H  8.17700 46.44400 20.85500
H  11.51700 46.86700 19.34500
H  11.13100 48.20200 20.36000
H  9.86300 47.34900 19.45500
H  7.87400 43.86800 21.82400
H  9.32500 43.72900 20.91100
H  8.13600 43.86100 19.00500
H  7.08700 45.31700 19.48800
H  6.62100 43.76000 20.01100
H  4.45800 45.41100 24.30300
H  4.60300 47.11500 23.77400
H  3.84800 46.76200 25.29700
H  6.69400 47.64200 29.70300
H  6.53200 44.37500 32.19300
H  5.25200 43.65600 31.28100
H  4.84000 44.91200 32.52900

