158

Mg 47.52900 35.09900 27.75900
C  45.74000 33.37900 30.33400
C  48.09700 37.70000 30.09900
C  48.30900 37.29800 25.24500
C  46.63400 32.75400 25.55400
N  46.86500 35.47000 30.02300
C  46.33200 34.55600 30.87800
C  46.41400 35.16900 32.28700
C  46.71900 36.70800 32.12300
C  47.26600 36.65700 30.67400
C  45.51400 37.67400 32.20300
C  47.57000 34.51800 33.13400
C  47.06700 34.34700 34.56500
H  47.71300 35.35500 35.55900
N  48.30400 37.13100 27.74800
C  48.50400 37.98900 28.80800
C  49.13700 39.18700 28.35300
C  49.27900 39.11300 26.97100
C  48.62200 37.81000 26.60700
C  49.53800 40.25800 29.36500
C  50.01600 39.98700 25.97900
O  50.28100 39.60300 24.88600
C  50.75600 41.27800 26.42300
N  47.47500 35.09200 25.64800
C  47.71100 36.09300 24.79700
C  47.68100 35.66000 23.32900
C  47.33800 34.09700 23.53000
C  47.16700 33.93200 25.01800
C  46.64100 36.36700 22.49100
C  48.36400 33.16500 22.84500
C  47.90900 32.00700 22.00200
N  46.52300 33.43700 27.89200
C  46.37200 32.47200 26.87400
C  45.73000 31.29700 27.45400
C  45.47400 31.54300 28.85000
C  45.90100 32.93000 29.03300
C  45.23600 30.09300 26.62700
C  44.89200 31.05900 30.07200
O  44.26100 30.05000 30.36800
C  44.97800 32.25400 31.07100
C  45.45800 31.87400 32.42700
O  46.50500 31.31300 32.68200
O  44.44100 32.05100 33.28200
C  44.47200 31.31500 34.54500
H  48.40700 38.38000 30.89600
H  48.64300 38.04800 24.52500
H  46.35200 32.04800 24.77000
H  45.47000 34.87900 32.74800
H  47.52700 37.06900 32.75900
H  45.44000 38.15600 33.17800
H  44.57400 37.12600 32.15000
H  45.42500 38.46100 31.45400
H  48.45100 35.14700 33.00500
H  47.83100 33.55900 32.68500
H  47.37000 33.38400 34.97600
H  45.97900 34.36000 34.63600
H  48.82500 40.19400 30.18700
H  49.51600 41.25800 28.93300
H  50.54800 40.08100 29.73500
H  51.48400 40.90100 27.14200
H  49.99300 41.96800 26.78200
H  51.36100 41.68100 25.61100
H  48.60500 35.85200 22.78300
H  46.36700 33.89700 23.07600
H  46.67800 36.11900 21.43000
H  46.59200 37.45300 22.57300
H  45.66100 35.96900 22.75300
H  49.03900 32.79800 23.61800
H  49.04600 33.75900 22.23600
H  48.13700 32.24700 20.96300
H  46.83800 31.82800 22.08900
H  48.37100 31.05200 22.25400
H  44.26200 30.32500 26.19400
H  45.04900 29.21500 27.24600
H  45.96100 29.92400 25.83200
H  43.99600 32.69300 31.24900
H  45.37800 30.73100 34.71000
H  43.63200 30.63400 34.68000
H  44.37200 32.13300 35.25800
Mg -4.65000 25.23100 26.24200
C  -3.59000 26.75500 29.14600
C  -6.27700 22.87400 28.40900
C  -5.88000 23.65500 23.60000
C  -2.93200 27.46100 24.38900
N  -4.94000 24.89000 28.58700
C  -4.41900 25.72900 29.49900
C  -4.98000 25.42600 30.87100
C  -5.59800 23.98200 30.69800
C  -5.69500 23.93100 29.10700
C  -4.74700 22.89100 31.21200
C  -6.03800 26.49900 31.35200
C  -6.04800 26.86500 32.80700
H  -5.57400 25.80400 33.79300
N  -5.85400 23.45400 26.08900
C  -6.41700 22.66000 27.06500
C  -7.31300 21.64500 26.38900
C  -7.18100 21.87500 24.97200
C  -6.30300 23.01800 24.85400
C  -7.93600 20.46900 27.07000
C  -7.81300 21.11500 23.81000
O  -7.71600 21.42200 22.64300
C  -8.56000 19.81000 24.07800
N  -4.40500 25.45700 24.21100
C  -5.06700 24.75700 23.29200
C  -4.77700 25.32600 21.88700
C  -3.66300 26.38200 22.12600
C  -3.76700 26.50400 23.65500
C  -4.27900 24.33300 20.82800
C  -3.85400 27.63100 21.28000
C  -4.76600 28.63300 21.95700
N  -3.42700 26.72100 26.61300
C  -2.75100 27.60600 25.78700
C  -1.84800 28.47500 26.45900
C  -2.25600 28.15600 27.77300
C  -3.22100 27.14800 27.82100
C  -1.01300 29.62000 25.94200
C  -2.03500 28.63200 29.07800
O  -1.21600 29.49200 29.41100
C  -2.94300 27.73000 30.06400
C  -2.03900 27.11400 31.00900
O  -1.36100 26.07100 30.78800
O  -2.06800 27.89600 32.15900
C  -1.32700 27.21300 33.24900
H  -6.75700 22.20400 29.12600
H  -6.20600 23.14600 22.69000
H  -2.35800 28.01200 23.64100
H  -4.24000 25.34300 31.66600
H  -6.59200 23.89200 31.13600
H  -4.05700 23.22400 31.98700
H  -4.01900 22.42800 30.54600
H  -5.27000 22.12400 31.78400
H  -7.09300 26.28500 31.17900
H  -5.85200 27.47000 30.89400
H  -7.07800 27.03600 33.12200
H  -5.55700 27.83000 32.93500
H  -8.91300 20.26600 26.62900
H  -8.12500 20.69200 28.12000
H  -7.33600 19.56000 27.05700
H  -9.43600 20.05100 24.68000
H  -7.85500 19.10600 24.52100
H  -8.82000 19.18600 23.22300
H  -5.64000 25.88600 21.52800
H  -2.69100 25.93200 21.92600
H  -4.96500 24.25500 19.98500
H  -4.23600 23.31100 21.20600
H  -3.26700 24.56900 20.50000
H  -4.02300 27.32600 20.24700
H  -2.90900 28.17500 21.26600
H  -4.19600 29.27400 22.62900
H  -5.50700 27.99000 22.43200
H  -5.24800 29.26600 21.21200
H  0.03900 29.47400 26.18600
H  -1.30000 30.55900 26.41600
H  -1.01900 29.73200 24.85700
H  -3.82700 28.21000 30.48400
H  -0.28500 27.05600 32.97000
H  -1.63900 26.20800 33.53500
H  -1.29700 27.81400 34.15800

