158

Mg 40.69400 8.42000 28.90900
C  42.41200 9.79400 31.57600
C  38.75000 6.80500 31.06900
C  38.87500 7.53300 26.22300
C  43.21200 9.79400 26.78200
N  40.64300 8.17200 31.16100
C  41.37300 8.99500 31.94800
C  40.84000 8.78800 33.44500
C  39.75000 7.62900 33.30100
C  39.70000 7.48400 31.74300
C  39.90800 6.36100 34.07800
C  40.33400 10.17700 34.05400
C  40.43600 10.23300 35.59900
H  40.71600 11.54600 36.34100
N  39.14800 7.20600 28.69600
C  38.39800 6.68500 29.70900
C  37.23800 6.03400 29.16800
C  37.19200 6.34200 27.74800
C  38.43300 7.03300 27.46200
C  36.35700 5.18200 29.98900
C  36.12600 5.98000 26.77200
O  36.25000 6.30200 25.62100
C  34.80900 5.37400 27.18800
N  41.05800 8.47500 26.80400
C  40.10400 8.15200 25.90200
C  40.36400 8.63300 24.44200
C  41.84800 9.03400 24.65400
C  42.08200 9.15300 26.18600
C  40.20100 7.55500 23.36400
C  42.37800 10.18000 23.75800
C  41.71500 11.49500 24.14000
N  42.46600 9.43800 29.08500
C  43.30800 10.00300 28.13000
C  44.42300 10.56700 28.85200
C  44.13000 10.58700 30.16500
C  42.88900 9.91400 30.26300
C  45.49200 11.24200 28.26100
C  44.57400 11.09400 31.50700
O  45.58100 11.64000 31.85600
C  43.35700 10.69200 32.42200
C  43.95800 9.94700 33.61400
O  44.33700 8.78000 33.65600
O  43.98900 10.79000 34.76300
C  44.56500 10.27200 36.01200
H  38.11800 6.29800 31.80200
H  38.16200 7.44500 25.40100
H  44.02700 10.16500 26.15700
H  41.71200 8.35800 33.93800
H  38.72700 7.96200 33.47500
H  39.00200 6.22200 34.66900
H  40.64900 6.52500 34.85900
H  40.16300 5.51600 33.43800
H  39.26600 10.37600 34.14500
H  40.67400 11.07300 33.53400
H  41.12100 9.44300 35.90700
H  39.49100 9.94400 36.06000
H  35.81100 4.47100 29.36900
H  35.53600 5.72700 30.45300
H  36.87000 4.58100 30.74000
H  34.10500 5.49700 26.36500
H  34.53200 5.83800 28.13500
H  34.98900 4.31400 27.36600
H  39.72700 9.44600 24.09300
H  42.51800 8.20000 24.44700
H  40.93800 7.63900 22.56500
H  39.29600 7.55600 22.75700
H  40.19600 6.57000 23.83100
H  42.46100 9.91900 22.70300
H  43.44400 10.23300 23.97600
H  41.18300 11.84700 23.25700
H  42.41100 12.25600 24.49400
H  41.00100 11.45200 24.96300
H  45.22800 11.98000 27.50300
H  46.18000 10.45600 27.95200
H  45.99600 11.83400 29.02600
H  42.89200 11.62500 32.73900
H  43.69800 9.97600 36.60200
H  45.06800 11.03700 36.60300
H  45.28000 9.45100 35.96800
Mg -11.71500 37.82700 42.03900
C  -9.10900 35.32800 41.33200
C  -9.76000 40.13200 40.67900
C  -14.33600 39.69100 42.32200
C  -13.73100 35.03000 43.06400
N  -9.56000 37.71500 41.04600
C  -8.74100 36.61100 40.82700
C  -7.68900 37.07200 39.82900
C  -7.66500 38.67200 39.99800
C  -9.09300 38.86000 40.60800
C  -6.55700 39.17400 41.02000
C  -7.80400 36.57700 38.34000
C  -6.53000 35.99500 37.75200
H  -5.63200 36.69900 36.75900
N  -11.96700 39.66700 41.59800
C  -11.01700 40.48600 41.09200
C  -11.51600 41.82400 41.08500
C  -12.85800 41.72400 41.52900
C  -13.13600 40.28100 41.78900
C  -10.79800 42.96400 40.49600
C  -13.82400 42.91500 41.64900
O  -13.35700 44.02400 41.37700
C  -15.27100 42.76600 42.01500
N  -13.85900 37.38000 42.40300
C  -14.73100 38.41900 42.61800
C  -16.14800 37.92400 42.98100
C  -15.90800 36.37900 43.29600
C  -14.37900 36.25100 42.91500
C  -16.77600 38.68800 44.12000
C  -16.72600 35.39400 42.46600
C  -18.07100 35.06500 42.98300
N  -11.53400 35.63100 42.27800
C  -12.37500 34.72400 42.73600
C  -11.68000 33.46500 42.88700
C  -10.48300 33.66300 42.27500
C  -10.38200 35.01500 41.94700
C  -12.30500 32.21500 43.57700
C  -9.24400 33.04700 41.97600
O  -8.91400 31.89600 42.25900
C  -8.26900 34.11000 41.25500
C  -7.00400 34.17400 42.06600
O  -6.81600 34.67600 43.15700
O  -6.06200 33.35900 41.39000
C  -4.96900 33.07300 42.28900
H  -9.11100 40.94400 40.34400
H  -15.16700 40.39200 42.41700
H  -14.32700 34.21900 43.48900
H  -6.75300 36.81500 40.32500
H  -7.67400 39.14900 39.01800
H  -6.87700 39.16200 42.06200
H  -6.21300 40.15900 40.70500
H  -5.64400 38.59900 41.17500
H  -7.91700 37.43000 37.67000
H  -8.65300 35.90700 38.20000
H  -6.84400 35.07700 37.25400
H  -5.83700 35.80900 38.57300
H  -11.02500 43.16900 39.45000
H  -9.73800 42.87000 40.73200
H  -10.95200 43.87700 41.07200
H  -15.74000 42.37500 41.11200
H  -15.61300 43.79900 42.07000
H  -15.36700 42.24800 42.96900
H  -16.84100 38.06900 42.15200
H  -16.17100 36.09900 44.31600
H  -17.75800 38.94800 43.72500
H  -16.18300 39.55600 44.40700
H  -16.92600 38.17100 45.06800
H  -16.15500 34.49400 42.23800
H  -16.83300 35.85500 41.48400
H  -18.07900 33.97500 42.98400
H  -18.74900 35.46700 42.23000
H  -18.25700 35.43500 43.99100
H  -11.88100 31.30900 43.14300
H  -13.38200 32.28100 43.42400
H  -12.26700 32.20600 44.66600
H  -8.08700 33.63900 40.29000
H  -5.36400 32.37100 43.02300
H  -4.54900 33.94100 42.79500
H  -4.11100 32.60800 41.80200

