158

Mg 44.16200 4.18900 48.22300
C  41.68500 6.53400 47.04800
C  41.65300 1.78700 47.95300
C  46.50100 1.76600 48.43200
C  46.57900 6.53400 47.97200
N  41.91900 4.21400 47.65500
C  41.18300 5.28000 47.18000
C  39.81100 4.85000 46.66300
C  39.76700 3.39600 47.20400
C  41.20700 3.08500 47.63200
C  38.61600 3.06400 48.27300
C  39.61300 5.01700 45.12000
C  38.13600 5.26900 44.71200
H  37.72300 4.46200 43.42300
N  44.09000 1.99700 48.28300
C  42.90700 1.27900 48.07600
C  43.32600 -0.10600 48.14300
C  44.71000 -0.17700 48.41900
C  45.20900 1.22700 48.32600
C  42.42100 -1.26900 47.85600
C  45.45700 -1.46000 48.60300
O  44.88100 -2.54200 48.62500
C  46.92900 -1.46000 48.83600
N  46.22500 4.15100 47.98500
C  46.93800 3.00400 48.30100
C  48.45600 3.28700 48.33000
C  48.51400 4.83600 48.41700
C  47.09700 5.24900 48.04100
C  49.31300 2.54000 49.46100
C  49.58300 5.44700 47.57500
C  50.37300 6.55900 48.23000
N  44.19700 6.20900 47.73500
C  45.24900 7.03200 47.74200
C  44.79300 8.36600 47.49700
C  43.40000 8.28100 47.17300
C  43.09100 6.89900 47.28400
C  45.78600 9.55600 47.45200
C  42.23700 8.90600 46.69600
O  42.08600 10.07800 46.31200
C  41.01700 7.84900 46.75800
C  39.92500 8.19200 47.68600
O  39.66900 7.74900 48.81000
O  39.20900 9.21400 47.17500
C  37.89100 9.52700 47.78400
H  40.84900 1.05200 47.87400
H  47.26000 0.98800 48.53600
H  47.41000 7.24200 48.01300
H  39.10300 5.51500 47.15700
H  39.59300 2.74900 46.34400
H  39.09400 2.73900 49.19700
H  37.98300 2.27900 47.85800
H  38.12300 4.01100 48.48900
H  39.97100 4.10400 44.64300
H  40.24500 5.85400 44.82200
H  38.09100 6.35700 44.65800
H  37.56000 4.98000 45.59100
H  42.73400 -1.78500 46.94900
H  41.43600 -0.83400 47.68800
H  42.43800 -1.97100 48.69000
H  47.46000 -1.15000 47.93600
H  47.19900 -2.50200 49.00900
H  47.25800 -0.98100 49.75900
H  48.83500 2.87600 47.39500
H  48.63600 5.03300 49.48200
H  49.67800 1.67200 48.91300
H  48.70800 2.22400 50.31100
H  50.04300 3.17900 49.95800
H  49.10400 5.80800 46.66500
H  50.20500 4.63200 47.20500
H  51.41700 6.33100 48.44300
H  49.85800 6.87800 49.13700
H  50.38000 7.40800 47.54700
H  45.12100 10.41800 47.50000
H  46.37300 9.61500 46.53500
H  46.52900 9.51700 48.24800
H  40.57100 7.83300 45.76300
H  37.68100 10.59200 47.68500
H  37.74200 9.30000 48.83900
H  37.17400 9.09200 47.08700
Mg -1.83700 34.23100 26.43600
C  -3.08900 32.54300 29.12900
C  -0.40900 36.53200 28.62900
C  -0.88700 36.03100 23.75200
C  -3.66500 31.99100 24.28400
N  -1.90100 34.53300 28.60700
C  -2.30800 33.61200 29.49200
C  -1.76300 34.01300 30.95800
C  -0.88400 35.24900 30.68700
C  -1.08400 35.49300 29.17400
C  -1.12100 36.55500 31.49300
C  -1.12200 32.79400 31.78700
C  -1.69200 32.66700 33.23900
H  -0.69000 32.62100 34.45400
N  -0.86400 36.11100 26.26400
C  -0.33900 36.88400 27.30000
C  0.34600 38.04200 26.66400
C  0.27800 37.89300 25.27700
C  -0.52600 36.66900 25.02900
C  1.03100 39.06100 27.57800
C  0.88800 38.86600 24.24900
O  0.72700 38.71900 23.05900
C  1.74800 40.00600 24.76600
N  -2.19900 34.02800 24.30100
C  -1.59700 34.90700 23.45300
C  -1.85200 34.40500 22.02300
C  -2.53300 32.99900 22.22300
C  -2.81500 32.97200 23.68100
C  -2.67200 35.55700 21.28200
C  -1.60700 31.78300 21.82600
C  -0.21100 31.64000 22.30800
N  -3.16600 32.63800 26.59200
C  -3.78200 31.80200 25.70000
C  -4.54100 30.76600 26.34700
C  -4.28000 31.08900 27.65400
C  -3.49000 32.21500 27.78700
C  -5.31100 29.64400 25.74400
C  -4.54200 30.57100 28.93700
O  -5.20100 29.57900 29.28400
C  -3.71000 31.46200 29.99000
C  -4.72400 31.95500 31.02200
O  -5.52600 32.80200 30.81800
O  -4.48900 31.11300 32.10500
C  -5.36000 31.31900 33.25000
H  0.29400 37.08300 29.25800
H  -0.34500 36.48900 22.92300
H  -4.00000 31.12100 23.71600
H  -2.65600 34.24800 31.53700
H  0.13900 35.00400 30.97400
H  -1.56900 37.33300 30.87500
H  -0.13900 36.91400 31.80200
H  -1.72200 36.25300 32.35100
H  -0.04800 32.98100 31.79500
H  -1.21300 31.88500 31.19300
H  -2.16800 31.68600 33.23300
H  -2.40400 33.44800 33.50400
H  0.59500 40.02500 27.31800
H  2.11300 39.04300 27.44900
H  0.75100 38.91400 28.62100
H  2.22500 40.48600 23.91100
H  2.55000 39.72100 25.44800
H  1.00000 40.65000 25.22800
H  -0.90400 34.32200 21.49100
H  -3.48000 32.93000 21.68800
H  -2.02600 36.03100 20.54200
H  -3.02600 36.31300 21.98200
H  -3.56400 35.27000 20.72500
H  -1.80400 31.66100 20.76100
H  -2.11600 30.94100 22.29500
H  -0.02400 32.27000 23.17700
H  0.36300 32.06800 21.48600
H  0.16500 30.62000 22.39300
H  -4.95200 29.42300 24.73900
H  -6.33700 29.97700 25.58900
H  -5.40900 28.74700 26.35600
H  -2.89400 30.88800 30.42900
H  -6.25200 30.69300 33.22600
H  -5.59500 32.38300 33.29600
H  -4.93400 31.10600 34.23000

