158

Mg 2.12400 -0.30200 43.89000
C  5.58800 0.39400 43.27500
C  1.37500 2.48800 42.08200
C  -1.12000 -1.07800 44.09300
C  2.99700 -3.51100 44.85300
N  3.35500 1.22200 42.86000
C  4.74500 1.34100 42.63200
C  5.12100 2.48000 41.74000
C  3.75300 3.28900 41.58100
C  2.75100 2.29800 42.30700
C  3.73700 4.68900 42.29600
C  5.65100 1.96500 40.32600
C  6.99000 2.37400 39.94700
H  7.04200 3.26000 38.71100
N  0.33400 0.59700 43.25600
C  0.28400 1.72400 42.50000
C  -1.06500 2.05500 42.25000
C  -1.84600 0.99600 42.80400
C  -0.89000 0.08500 43.35600
C  -1.45200 3.17200 41.28100
C  -3.37500 0.97100 42.66600
O  -3.87700 1.91800 42.10900
C  -4.27200 -0.08500 43.17700
N  1.14300 -1.94700 44.48700
C  -0.17400 -1.93800 44.60300
C  -0.58500 -3.32600 45.01900
C  0.59600 -4.19100 44.76100
C  1.67900 -3.13500 44.69700
C  -1.22000 -3.41500 46.44000
C  0.57000 -5.05600 43.42900
C  -0.18900 -6.46400 43.45500
N  3.87800 -1.28700 44.28000
C  4.08600 -2.59000 44.71000
C  5.45200 -2.78700 44.82900
C  6.10800 -1.57200 44.36300
C  5.05800 -0.77000 44.02100
C  6.04900 -4.00300 45.35600
C  7.42400 -0.99700 44.14000
O  8.56500 -1.44200 44.36900
C  7.17400 0.41500 43.47200
C  7.59600 1.43300 44.57000
O  7.20500 1.47600 45.72100
O  8.09800 2.57500 43.95200
C  8.16100 3.91400 44.62100
H  1.16100 3.45300 41.61900
H  -2.17200 -1.33900 44.22400
H  3.07900 -4.53600 45.22000
H  5.81400 3.14600 42.25500
H  3.46700 3.46500 40.54400
H  4.68100 5.09000 42.66600
H  3.10000 4.64800 43.18000
H  3.08200 5.43000 41.83800
H  4.83400 2.09900 39.61700
H  5.68600 0.89600 40.53700
H  7.56700 1.47300 39.73700
H  7.45200 3.00900 40.70300
H  -2.17600 2.83100 40.54000
H  -0.61400 3.63100 40.75600
H  -1.94700 3.92600 41.89300
H  -5.28900 0.22500 42.93700
H  -4.11200 0.10300 44.23900
H  -4.04200 -1.10500 42.86700
H  -1.45600 -3.55900 44.40700
H  0.76500 -4.94800 45.52700
H  -0.48100 -3.67300 47.20000
H  -2.03000 -4.13900 46.52900
H  -1.62000 -2.42400 46.65100
H  1.55800 -5.16900 42.98200
H  0.08400 -4.36700 42.73900
H  -0.26200 -6.73100 44.50900
H  0.45900 -7.18500 42.95600
H  -1.14400 -6.46600 42.93100
H  5.36500 -4.45300 46.07600
H  6.89800 -3.78900 46.00500
H  6.35000 -4.72500 44.59700
H  7.76000 0.58500 42.56900
H  9.03500 3.83000 45.26700
H  7.27500 4.09500 45.23000
H  8.22600 4.63400 43.80600
Mg 24.04700 -6.80300 46.26000
C  26.29500 -4.68900 44.64400
C  21.60500 -5.93100 44.03300
C  22.05700 -9.33600 47.49100
C  26.81600 -8.14800 48.00200
N  23.92700 -5.39100 44.56500
C  24.98500 -4.56200 44.13100
C  24.53900 -3.87600 42.91400
C  23.01200 -4.23500 42.85600
C  22.81100 -5.23300 43.91100
C  22.02200 -3.07000 42.94300
C  25.31600 -4.25400 41.64200
C  25.80700 -3.05200 40.77900
H  25.40400 -3.22400 39.26800
N  22.00500 -7.43700 45.92500
C  21.18000 -6.94600 44.99100
C  19.88900 -7.62300 44.99000
C  19.96300 -8.57000 46.08500
C  21.42600 -8.56600 46.54200
C  18.65800 -7.24700 44.12900
C  18.82200 -9.46500 46.60700
O  17.74800 -9.59200 46.06200
C  18.93200 -10.31700 47.88600
N  24.42000 -8.63700 47.46100
C  23.41800 -9.51100 47.82200
C  23.95800 -10.56700 48.83300
C  25.52100 -10.26800 48.82700
C  25.60800 -8.90400 48.13800
C  23.33700 -10.46600 50.26400
C  26.38600 -11.28500 48.02300
C  27.31400 -12.26300 48.80300
N  26.07000 -6.50800 46.36400
C  27.06700 -7.06100 47.20600
C  28.32500 -6.38900 47.05500
C  28.00000 -5.42100 46.04200
C  26.64000 -5.55900 45.65500
C  29.62400 -6.74600 47.74600
C  28.68400 -4.34600 45.31100
O  29.80900 -3.84100 45.35800
C  27.59700 -3.86700 44.27500
C  27.32000 -2.36500 44.58800
O  26.68500 -1.95000 45.53000
O  27.83800 -1.58200 43.58300
C  27.48600 -0.13200 43.69300
H  20.76600 -5.68000 43.38000
H  21.41900 -10.05000 48.01600
H  27.72200 -8.53200 48.47400
H  24.67800 -2.80500 43.06000
H  22.79100 -4.64300 41.87000
H  21.06300 -3.24900 42.45600
H  22.38300 -2.16300 42.45900
H  21.84700 -2.77400 43.97700
H  24.72300 -4.96500 41.06700
H  26.20300 -4.80700 41.95200
H  26.86600 -2.86800 40.96000
H  25.37700 -2.08000 41.02100
H  17.99000 -6.68700 44.78300
H  17.92100 -8.00500 43.86300
H  18.98800 -6.67500 43.26200
H  19.52000 -9.83200 48.66500
H  19.47300 -11.22500 47.62200
H  18.00200 -10.53200 48.41300
H  23.87500 -11.56000 48.39300
H  25.77700 -10.13900 49.87800
H  22.82800 -9.50500 50.33700
H  24.09000 -10.69300 51.01900
H  22.58300 -11.25300 50.28400
H  27.02500 -10.70700 47.35500
H  25.80900 -11.93400 47.36400
H  27.39600 -11.95500 49.84600
H  28.30300 -12.06200 48.39200
H  27.12200 -13.32900 48.68500
H  29.75500 -7.76700 47.38500
H  29.39000 -6.74000 48.81100
H  30.50300 -6.15600 47.49000
H  28.01900 -4.09900 43.29700
H  26.45200 0.04900 43.98700
H  27.68900 0.41000 42.77000
H  28.19700 0.22200 44.44000

