158

Mg -0.07300 6.87700 25.65400
C  1.05300 9.06400 28.09000
C  -0.01400 4.34100 27.94700
C  -0.89800 4.77000 23.27700
C  0.35200 9.50100 23.37700
N  0.57400 6.65900 27.76000
C  0.82700 7.74300 28.57700
C  0.95300 7.33500 30.02800
C  0.99500 5.74400 29.95300
C  0.42800 5.55600 28.52100
C  2.30000 5.07600 30.25100
C  -0.12200 7.98600 31.04500
C  -0.07300 7.51500 32.46800
H  1.22900 7.50500 33.18600
N  -0.47400 4.84400 25.63000
C  -0.43400 3.98600 26.66000
C  -0.99600 2.70000 26.21300
C  -1.38300 2.79000 24.82000
C  -0.86400 4.17600 24.52900
C  -1.14200 1.52800 27.20100
C  -2.02600 1.81500 23.83500
O  -2.37800 2.17500 22.70600
C  -2.12900 0.46700 24.23800
N  -0.17300 7.14000 23.65700
C  -0.48900 6.09600 22.84200
C  -0.86200 6.54300 21.43000
C  -0.52000 8.04400 21.49100
C  -0.04900 8.27300 22.92100
C  -0.09100 5.77200 20.31400
C  -1.63200 9.00200 21.11700
C  -1.05900 10.19600 20.31800
N  0.56900 8.88600 25.72900
C  0.64500 9.83500 24.69100
C  1.14700 11.07500 25.18600
C  1.22000 10.84500 26.57100
C  0.90300 9.50800 26.83000
C  1.38100 12.25300 24.35500
C  1.50900 11.47900 27.86300
O  1.81700 12.66200 28.16000
C  1.28400 10.33100 28.90400
C  2.32100 10.30300 29.95800
O  3.46200 9.84100 29.82300
O  1.84000 10.90000 31.16100
C  2.98000 11.00300 32.04100
H  0.15800 3.57300 28.70400
H  -1.17800 4.20200 22.38700
H  0.47100 10.29000 22.63200
H  1.91100 7.75100 30.34300
H  0.26900 5.29100 30.62800
H  2.68800 4.69200 29.30700
H  2.19900 4.30100 31.01100
H  3.00500 5.79300 30.67000
H  -1.12400 7.92200 30.62000
H  0.10900 9.05100 31.04800
H  -0.53100 6.53100 32.56500
H  -0.83700 8.16700 32.89300
H  -1.92600 1.50800 27.95800
H  -0.14600 1.57400 27.64100
H  -1.03300 0.58700 26.66200
H  -2.81500 0.48500 25.08600
H  -1.10300 0.18400 24.47100
H  -2.53300 -0.25200 23.52500
H  -1.93600 6.38200 21.34000
H  0.27800 8.26700 20.78200
H  0.45300 4.87900 20.62200
H  0.57200 6.46800 19.80100
H  -0.83300 5.41100 19.60100
H  -2.16600 9.31500 22.01400
H  -2.40800 8.54000 20.50700
H  -1.51900 10.22800 19.33100
H  0.02500 10.29400 20.24700
H  -1.36700 11.04300 20.93200
H  2.16000 11.83600 23.71700
H  1.77200 13.10000 24.91900
H  0.53500 12.42300 23.68900
H  0.33700 10.75400 29.23800
H  3.82000 11.52100 31.57700
H  3.44700 10.15400 32.53900
H  2.56500 11.60200 32.85200
Mg 1.42200 41.77700 25.53200
C  3.07700 41.91800 28.58600
C  -1.42300 40.76900 27.25000
C  0.04700 40.98500 22.53400
C  4.48200 42.62200 23.84000
N  0.86000 41.59700 27.74100
C  1.68900 41.73400 28.81000
C  0.85300 41.60300 30.17600
C  -0.61500 41.19100 29.66600
C  -0.41600 41.24300 28.15600
C  -1.06000 39.78800 30.24800
C  0.88600 42.86500 31.13300
C  1.41700 42.74900 32.61400
H  1.31200 41.42100 33.44500
N  -0.38400 41.00500 25.03600
C  -1.44000 40.58200 25.80200
C  -2.56900 40.18800 24.98900
C  -2.09800 40.13700 23.66900
C  -0.79700 40.74400 23.63000
C  -3.97500 39.83700 25.59100
C  -2.86100 39.82000 22.41800
O  -2.34000 39.73300 21.30100
C  -4.29700 39.40500 22.42600
N  2.10500 42.00000 23.50400
C  1.34200 41.56000 22.44000
C  2.04000 41.65500 21.12200
C  3.39000 42.32900 21.46800
C  3.32800 42.42600 23.01400
C  2.17700 40.32400 20.33500
C  3.61200 43.68300 20.76100
C  2.84800 44.85200 21.35800
N  3.38000 42.38200 26.04000
C  4.54500 42.55000 25.28800
C  5.69200 42.59900 26.17100
C  5.15000 42.41800 27.46700
C  3.74500 42.18400 27.34400
C  7.10500 42.78100 25.78500
C  5.46800 42.32000 28.87000
O  6.56900 42.49400 29.35400
C  4.16900 41.99000 29.68900
C  4.36000 40.82600 30.53800
O  3.99100 39.68600 30.32100
O  5.11300 41.22100 31.59700
C  5.32000 40.29800 32.68100
H  -2.31500 40.52100 27.82900
H  -0.34000 40.60100 21.58800
H  5.44300 42.83700 23.36700
H  1.28900 40.79900 30.76900
H  -1.25500 42.02600 29.94900
H  -1.01700 38.96500 29.53400
H  -2.11200 39.85600 30.52300
H  -0.53900 39.44100 31.14100
H  -0.07300 43.37700 31.21700
H  1.52500 43.59500 30.63700
H  1.21600 43.59300 33.27300
H  2.49400 42.77800 32.44500
H  -4.68200 40.52400 25.12500
H  -4.13800 39.93600 26.66400
H  -4.21500 38.82800 25.25600
H  -4.89600 40.22000 22.83100
H  -4.34800 38.45100 22.95100
H  -4.74500 39.47800 21.43500
H  1.28000 42.24200 20.60700
H  4.22300 41.70900 21.13600
H  1.36100 40.29200 19.61400
H  2.12300 39.51800 21.06700
H  3.11400 40.32300 19.77700
H  3.37700 43.53900 19.70600
H  4.65800 43.97000 20.86200
H  2.08200 44.56200 22.07700
H  2.29600 45.36300 20.56900
H  3.50500 45.57800 21.83900
H  7.30700 42.34200 24.80800
H  7.76600 42.32300 26.52000
H  7.43900 43.81100 25.65900
H  4.15800 42.86000 30.34600
H  6.39100 40.14700 32.81200
H  4.82700 39.33700 32.53600
H  4.88000 40.79200 33.54700

