158

Mg 43.91000 4.69800 46.66700
C  42.09800 7.63500 46.24300
C  41.09300 2.87400 45.85200
C  45.93500 2.20000 46.01300
C  46.79000 6.80400 47.20600
N  41.83800 5.23600 46.10500
C  41.36000 6.50000 46.13200
C  39.81600 6.51700 46.02600
C  39.44400 4.97400 45.90600
C  40.81700 4.29100 46.02100
C  38.44200 4.55700 46.97200
C  39.20500 7.35800 44.77900
C  40.06200 7.72900 43.59900
H  39.61600 7.23100 42.27800
N  43.57400 2.80500 46.26800
C  42.34700 2.21300 46.02100
C  42.68100 0.82400 45.73200
C  44.01300 0.55800 45.84200
C  44.58600 1.89200 46.03000
C  41.50000 -0.05600 45.37200
C  44.68600 -0.76200 45.81900
O  43.99300 -1.80500 45.67900
C  46.15600 -0.98700 46.23200
N  46.17600 4.57400 46.41300
C  46.67200 3.35200 46.28100
C  48.18400 3.35000 46.49800
C  48.55200 4.85600 46.89900
C  47.14100 5.44200 46.83800
C  48.69500 2.25400 47.58500
C  49.63500 5.58300 46.02000
C  50.88600 6.12600 46.74800
N  44.40800 6.82300 46.70200
C  45.53800 7.50400 46.91800
C  45.30000 8.98300 46.90400
C  43.92200 9.03100 46.68300
C  43.43600 7.72300 46.59400
C  46.25700 10.10100 47.00400
C  42.79900 9.94000 46.56800
O  42.67800 11.16400 46.55200
C  41.57100 9.04400 46.36400
C  40.76900 9.31600 47.56500
O  40.83800 8.64100 48.51100
O  39.98000 10.41300 47.33300
C  39.19000 10.86600 48.51400
H  40.17100 2.37000 45.55700
H  46.68000 1.42400 45.82600
H  47.53900 7.50200 47.58600
H  39.46200 6.98100 46.94700
H  39.08300 4.76600 44.89900
H  37.58800 4.11500 46.45900
H  38.03900 5.42600 47.49300
H  38.98500 4.04100 47.76400
H  38.99100 8.31200 45.25900
H  38.28000 6.86700 44.47900
H  41.04600 7.26800 43.67400
H  40.22700 8.80500 43.65800
H  41.52100 -1.08200 45.73900
H  41.33300 -0.05200 44.29500
H  40.64600 0.34800 45.91500
H  46.30400 -2.06700 46.23700
H  46.34500 -0.62500 47.24300
H  46.75800 -0.58400 45.41700
H  48.65200 3.12600 45.54000
H  48.81900 5.04800 47.93800
H  48.98400 2.72800 48.52300
H  49.53400 1.64100 47.25700
H  47.91300 1.54800 47.86600
H  49.23500 6.45700 45.50600
H  49.96400 4.88600 45.24900
H  50.85200 5.89800 47.81400
H  50.99600 7.19900 46.59500
H  51.81100 5.67600 46.38600
H  45.82500 11.09600 46.90200
H  46.95000 10.05600 46.16300
H  46.72000 10.12200 47.99000
H  41.03500 9.48600 45.52400
H  39.56100 11.80600 48.92300
H  38.97200 10.12700 49.28500
H  38.18200 11.04900 48.14100
Mg 48.55600 34.89200 26.49400
C  46.42200 33.60600 29.00300
C  49.02500 37.65100 28.42000
C  50.15600 36.24800 23.88800
C  47.64500 32.13000 24.51700
N  47.71000 35.54600 28.48000
C  47.08400 34.73400 29.39500
C  47.14100 35.36400 30.75800
C  47.85800 36.73300 30.54700
C  48.26200 36.58000 29.06700
C  46.98000 37.98900 30.84100
C  47.97100 34.37200 31.71300
C  47.64600 34.49800 33.19500
H  46.72800 35.58700 33.57800
N  49.50500 36.76500 26.18100
C  49.58500 37.76300 27.13700
C  50.37300 38.82000 26.53700
C  50.49800 38.56500 25.15600
C  50.04600 37.18000 24.96400
C  50.83500 40.03700 27.30800
C  51.07200 39.47100 23.96300
O  51.08700 39.05300 22.82600
C  51.43200 40.88300 24.22300
N  48.79900 34.29700 24.52200
C  49.61600 34.99200 23.63000
C  50.07200 34.21000 22.42400
C  49.22900 32.85200 22.61100
C  48.51700 33.08600 23.99100
C  49.88900 34.97600 21.12900
C  50.17600 31.54200 22.58200
C  50.87500 31.19300 21.24000
N  47.30500 33.21200 26.67500
C  47.02800 32.17000 25.76300
C  46.00900 31.25700 26.29700
C  45.78500 31.78600 27.55800
C  46.53700 32.98900 27.73400
C  45.49200 30.02800 25.57400
C  44.92400 31.62700 28.75300
O  44.08900 30.76200 29.04200
C  45.25100 32.85000 29.73100
C  45.54400 32.30000 31.09700
O  46.38400 31.39600 31.35500
O  44.51000 32.76300 31.98600
C  44.57800 32.38200 33.43200
H  49.31000 38.48200 29.06800
H  50.73800 36.60500 23.03600
H  47.52200 31.20000 23.95800
H  46.11800 35.51900 31.09900
H  48.78500 36.88000 31.10100
H  47.70100 38.74400 31.15400
H  46.28600 37.80200 31.66100
H  46.48900 38.18900 29.88900
H  49.04000 34.57000 31.78700
H  47.88500 33.33800 31.38000
H  48.54900 34.73100 33.76000
H  47.21900 33.59100 33.62300
H  50.54700 40.09500 28.35800
H  50.50700 40.95500 26.82100
H  51.91500 40.16300 27.23000
H  52.02700 40.92100 25.13600
H  50.49300 41.42200 24.35200
H  51.85900 41.35200 23.33700
H  51.11000 34.00000 22.68200
H  48.44300 32.77000 21.86100
H  49.03600 34.57200 20.58200
H  50.87500 34.85200 20.68300
H  49.51400 35.99600 21.21400
H  49.52700 30.73000 22.90800
H  50.93700 31.63600 23.35700
H  50.68100 31.97100 20.50100
H  50.47700 30.26600 20.82700
H  51.95400 31.24000 21.38500
H  44.42000 30.02900 25.77400
H  45.94200 29.17600 26.08300
H  45.66300 29.94000 24.50100
H  44.37300 33.49400 29.67600
H  44.95700 33.24200 33.98500
H  45.13100 31.47100 33.65900
H  43.51700 32.24200 33.63700

