158

Mg -1.92700 16.58300 26.36600
C  -2.18300 14.52500 29.19900
C  -2.31900 19.35000 28.30400
C  -1.81800 18.28400 23.50400
C  -1.82600 13.59700 24.45200
N  -2.17400 16.88400 28.55700
C  -2.27800 15.89400 29.51700
C  -2.69700 16.55600 30.84900
C  -2.46700 18.09400 30.63400
C  -2.30500 18.12000 29.07700
C  -3.67600 19.06300 31.11100
C  -2.17800 15.89400 32.08500
C  -1.93200 16.82700 33.25700
H  -1.45900 16.08700 34.42800
N  -1.91600 18.53000 26.00900
C  -2.16800 19.52500 26.90400
C  -2.20400 20.85700 26.22900
C  -2.02500 20.55300 24.79200
C  -1.93400 19.06200 24.70000
C  -2.48200 22.18700 26.96600
C  -2.03300 21.50500 23.60800
O  -1.84500 21.10100 22.47400
C  -2.32200 22.94900 23.75300
N  -1.99300 16.01400 24.24300
C  -1.89700 16.94600 23.22600
C  -2.02600 16.31200 21.84500
C  -1.84000 14.80600 22.10700
C  -1.88200 14.78900 23.69100
C  -3.24500 16.68200 20.92000
C  -0.50600 14.26400 21.52700
C  0.74100 14.82600 22.24000
N  -2.13000 14.51100 26.67000
C  -1.97700 13.41000 25.77200
C  -2.03600 12.16600 26.51500
C  -2.10800 12.54100 27.83100
C  -2.10200 13.97000 27.91100
C  -1.98300 10.81000 25.97100
C  -2.25500 11.99900 29.15600
O  -2.36300 10.82800 29.54600
C  -2.34000 13.27400 30.06700
C  -1.22600 13.11100 31.11900
O  -0.10800 13.58300 30.87100
O  -1.58100 12.51700 32.26900
C  -0.56900 12.44000 33.36200
H  -2.33800 20.28600 28.86500
H  -1.86900 18.76200 22.52400
H  -1.62300 12.74200 23.80400
H  -3.75900 16.31200 30.83600
H  -1.58200 18.51100 31.11400
H  -4.30800 19.42200 30.30000
H  -3.37600 19.90700 31.73200
H  -4.28600 18.37400 31.69500
H  -1.16500 15.70200 31.73000
H  -2.67000 14.99500 32.45500
H  -2.87600 17.33300 33.46100
H  -1.15000 17.55500 33.04100
H  -3.35000 22.76100 26.64100
H  -1.70200 22.94300 26.86800
H  -2.63700 22.03200 28.03400
H  -2.36300 23.54100 22.83900
H  -1.65700 23.31800 24.53400
H  -3.35000 22.99200 24.11400
H  -1.20300 16.71200 21.25300
H  -2.68900 14.24000 21.72100
H  -4.12400 16.87200 21.53600
H  -3.39600 15.94700 20.12900
H  -3.19000 17.61600 20.36200
H  -0.42600 14.57900 20.48700
H  -0.50400 13.17400 21.52700
H  1.30700 15.37700 21.48900
H  1.29000 14.00000 22.69200
H  0.57200 15.57500 23.01400
H  -1.24500 10.27500 26.56900
H  -1.74200 10.76800 24.90900
H  -2.96200 10.36300 26.14500
H  -3.31100 13.29100 30.56300
H  -1.02900 12.70900 34.31300
H  0.30400 13.02000 33.06500
H  -0.27100 11.39400 33.43000
Mg 30.14300 57.94800 41.52000
C  27.28900 56.25600 40.30200
C  32.03800 55.37900 40.22800
C  32.90000 59.91000 41.89100
C  28.00400 60.57000 42.17100
N  29.65100 56.02800 40.38600
C  28.45400 55.56700 40.03200
C  28.61700 54.22400 39.26100
C  30.04200 53.85700 39.70500
C  30.62200 55.18200 40.13900
C  30.00900 52.69200 40.76600
C  28.42900 54.53500 37.74500
C  27.07300 53.95900 37.15300
H  26.39400 54.60400 35.84500
N  32.10300 57.69200 41.19000
C  32.68300 56.55200 40.62400
C  34.08300 56.72000 40.41600
C  34.41600 58.05800 40.84300
C  33.11800 58.62600 41.32400
C  35.01700 55.60200 39.98500
C  35.76900 58.68600 40.81000
O  36.72500 57.99800 40.46300
C  35.97900 60.04900 41.20300
N  30.40400 59.98700 41.74800
C  31.66100 60.55400 42.00500
C  31.48700 62.10700 42.35200
C  29.96400 62.16600 42.65000
C  29.38400 60.78900 42.11900
C  32.36900 62.68000 43.46800
C  29.19000 63.37200 42.00300
C  28.32000 64.06300 42.99600
N  27.99600 58.34600 41.50900
C  27.33900 59.47900 41.69900
C  25.88800 59.26500 41.53900
C  25.83200 58.00000 40.98300
C  27.13300 57.51700 40.98500
C  24.80700 60.20100 41.87700
C  24.89500 56.96200 40.46800
O  23.68100 56.83700 40.37600
C  25.87400 55.88800 39.95000
C  25.44400 54.60000 40.64300
O  25.84300 54.12000 41.66400
O  24.43500 54.03800 39.90400
C  23.78700 52.81700 40.46200
H  32.62400 54.49900 39.95400
H  33.67500 60.52500 42.35300
H  27.34000 61.42600 42.30700
H  27.84000 53.51200 39.54100
H  30.60000 53.55700 38.81800
H  29.14300 52.03400 40.69900
H  30.27600 53.08700 41.74700
H  30.88600 52.07600 40.56900
H  29.27100 54.35200 37.07700
H  28.20300 55.59400 37.62100
H  26.32700 53.95600 37.94900
H  27.22900 52.92600 36.84200
H  35.69600 55.44500 40.82300
H  35.48000 55.98500 39.07500
H  34.70400 54.63500 39.59100
H  35.67700 60.13600 42.24700
H  35.31900 60.66700 40.59500
H  37.02100 60.35600 41.11200
H  31.82600 62.71700 41.51400
H  29.80300 62.10400 43.72700
H  33.15800 63.38000 43.19000
H  32.81100 61.83200 43.99000
H  31.76600 63.23100 44.19000
H  28.65100 62.98800 41.13700
H  29.91200 64.12800 41.69200
H  28.49900 65.13900 43.00300
H  28.55500 63.92000 44.05100
H  27.27100 63.91400 42.74100
H  24.70900 60.75100 40.94100
H  25.10300 60.98700 42.57100
H  23.81300 59.83700 42.13900
H  25.79800 55.80300 38.86600
H  22.73500 52.90000 40.18900
H  23.88500 52.75300 41.54500
H  24.13400 51.89100 40.00300

