158

Mg 35.20900 3.00600 29.19000
C  33.26800 4.01200 32.06900
C  37.95700 3.14100 31.36700
C  37.31400 2.65700 26.65200
C  32.52300 3.68900 27.21500
N  35.54200 3.53100 31.48600
C  34.58100 3.84400 32.42400
C  35.13700 3.93400 33.79300
C  36.68200 3.91500 33.50700
C  36.76200 3.54200 31.97600
C  37.54600 5.19700 33.76700
C  34.76700 2.61600 34.60600
C  34.51500 2.82800 36.10100
H  35.38500 3.68700 37.05500
N  37.30200 2.69000 29.02600
C  38.19900 2.68200 30.07100
C  39.51700 2.21200 29.55200
C  39.41400 2.07300 28.17100
C  37.95800 2.43900 27.87900
C  40.66900 1.80700 30.39400
C  40.29900 1.64100 27.11500
O  39.98700 1.62600 25.88400
C  41.73500 1.26600 27.47500
N  34.97200 3.26600 27.30400
C  35.96200 3.01200 26.35000
C  35.48400 3.15200 24.97800
C  33.93000 3.18200 25.09100
C  33.78100 3.37200 26.65800
C  36.10700 4.28900 24.14500
C  33.20900 1.92600 24.43200
C  32.72900 0.87800 25.40400
N  33.30200 3.76800 29.54200
C  32.19600 3.87100 28.60300
C  30.97000 4.10400 29.29500
C  31.35800 4.18500 30.68200
C  32.78200 3.99500 30.74200
C  29.65200 4.26300 28.48300
C  30.84400 4.33300 32.01600
O  29.74200 4.67600 32.42000
C  32.06000 4.19800 33.00300
C  32.28400 5.39400 33.79600
O  32.54500 6.50600 33.34200
O  32.01400 4.99700 35.09200
C  32.13900 6.00400 36.11500
H  38.82200 3.11900 32.03300
H  37.82700 2.53100 25.69700
H  31.69300 3.57500 26.51500
H  34.89000 4.86600 34.30100
H  37.28600 3.12300 33.94900
H  38.47700 4.91600 34.26000
H  37.05100 5.99000 34.32800
H  37.75200 5.58900 32.77100
H  35.68600 2.03100 34.63600
H  33.96500 1.94800 34.29300
H  34.47200 1.83500 36.54900
H  33.54100 3.27200 36.30700
H  40.75100 0.72600 30.28500
H  40.49000 2.13400 31.41900
H  41.52600 2.35700 30.00400
H  42.34100 2.07100 27.89100
H  42.19800 0.92700 26.54800
H  41.74400 0.38700 28.11900
H  35.84900 2.23900 24.50800
H  33.52200 4.02400 24.53300
H  35.41400 5.11500 23.98500
H  36.47100 3.88100 23.20300
H  36.92200 4.67400 24.75800
H  33.85600 1.49300 23.66900
H  32.39300 2.39300 23.88100
H  32.58600 -0.01800 24.80100
H  31.72200 1.02600 25.79400
H  33.38600 0.75000 26.26500
H  29.50300 5.34200 28.54200
H  28.94000 3.73900 29.12100
H  29.65500 3.97400 27.43200
H  31.95800 3.31000 33.62700
H  32.68000 5.58700 36.96400
H  31.15000 6.30700 36.46000
H  32.59100 6.93000 35.75900
Mg 48.97900 35.88300 27.43500
C  47.06100 33.99400 29.99900
C  49.08100 38.41500 29.65200
C  50.22400 37.66400 25.01700
C  48.50500 33.23100 25.24200
N  48.00600 36.18200 29.52700
C  47.44700 35.28800 30.42600
C  47.49900 35.93800 31.83400
C  47.68500 37.45900 31.60300
C  48.29900 37.36200 30.15600
C  46.39600 38.34100 31.54400
C  48.60300 35.23100 32.73100
C  48.25600 34.80100 34.16500
H  46.99400 35.38300 34.82400
N  49.72600 37.69900 27.44600
C  49.79100 38.57500 28.48000
C  50.59600 39.74600 28.11300
C  50.86000 39.56600 26.71800
C  50.21700 38.27800 26.30700
C  51.02000 40.77000 29.09300
C  51.62600 40.48800 25.82400
O  51.69100 40.28300 24.61600
C  52.28500 41.72100 26.46500
N  49.31400 35.47600 25.37300
C  49.92200 36.34000 24.59300
C  50.17200 35.81200 23.17900
C  49.96800 34.27500 23.42800
C  49.26400 34.25900 24.74800
C  49.26100 36.54200 22.15300
C  51.26500 33.39400 23.53800
C  51.20100 32.09100 22.80100
N  48.05800 33.96800 27.56500
C  47.83100 33.09800 26.51100
C  47.03600 31.98900 27.01900
C  46.78600 32.36400 28.30600
C  47.36600 33.53000 28.66700
C  46.54100 30.71700 26.30600
C  45.99700 31.88400 29.47100
O  45.30600 30.95200 29.69100
C  46.08600 33.12000 30.51200
C  46.24400 32.58300 31.88800
O  47.24100 32.05100 32.37400
O  45.06700 32.75600 32.44100
C  44.71200 32.15000 33.70200
H  49.03000 39.21700 30.39100
H  50.65200 38.33900 24.27200
H  48.39500 32.40800 24.53300
H  46.53100 35.84900 32.32500
H  48.36600 37.95200 32.29700
H  46.02400 38.38200 32.56800
H  45.58200 37.91500 30.95700
H  46.56100 39.36700 31.21600
H  49.44600 35.90400 32.88700
H  49.11100 34.41500 32.21700
H  49.01800 35.10800 34.88100
H  48.24700 33.72500 34.34300
H  50.80500 40.45300 30.11300
H  50.66800 41.75800 28.79800
H  52.10900 40.79400 29.12900
H  51.49000 42.42400 26.71100
H  52.78200 42.27600 25.66900
H  53.07600 41.38100 27.13300
H  51.18700 36.11800 22.92500
H  49.20800 33.95000 22.71700
H  49.60500 37.48500 21.72700
H  48.40800 36.81900 22.77300
H  49.05300 35.87600 21.31600
H  51.45600 33.25100 24.60200
H  52.15000 33.86200 23.10500
H  51.10500 31.22900 23.46200
H  52.05200 31.98500 22.12800
H  50.24700 31.98600 22.28600
H  47.31900 30.05800 25.92100
H  46.00800 31.10700 25.43900
H  45.83200 30.11100 26.87000
H  45.13800 33.63500 30.35700
H  45.47600 32.26300 34.47100
H  44.72900 31.07300 33.53700
H  43.77300 32.49900 34.13400

