158

Mg 36.32300 49.49600 25.76700
C  36.34200 47.70100 28.73300
C  34.67000 52.09700 27.45700
C  35.70200 51.07900 22.73400
C  37.23100 46.64200 24.07500
N  35.57900 49.81200 27.88900
C  35.85600 49.00200 28.97500
C  35.87300 49.82800 30.28200
C  35.06700 51.03400 29.85900
C  35.07900 51.03000 28.27500
C  33.65700 51.18400 30.38600
C  37.33900 50.02000 30.74500
C  37.64500 49.73700 32.20500
H  36.42200 49.80000 33.30100
N  35.48400 51.42800 25.23500
C  34.76900 52.22400 26.03400
C  34.18800 53.30700 25.28500
C  34.45800 53.08000 23.91500
C  35.27700 51.85000 23.89900
C  33.50900 54.49700 25.92300
C  33.98800 53.89300 22.64100
O  34.22900 53.55800 21.49200
C  33.07700 55.14300 22.82800
N  36.31000 48.97600 23.64200
C  36.25000 49.80700 22.59000
C  36.58400 49.18800 21.28600
C  37.21000 47.84700 21.78400
C  36.93000 47.83200 23.29500
C  35.40600 49.09000 20.29700
C  38.75200 47.76800 21.54000
C  39.31100 46.43300 20.91200
N  36.66700 47.57200 26.19900
C  37.16200 46.55300 25.47700
C  37.35600 45.35700 26.30000
C  37.05100 45.75200 27.60000
C  36.63800 47.08800 27.47700
C  37.98400 44.10500 25.72300
C  37.05900 45.35000 28.93400
O  37.19600 44.27200 29.47300
C  36.65700 46.65800 29.75100
C  35.63500 46.32700 30.78300
O  34.46300 46.37400 30.64600
O  36.30200 46.05200 31.95200
C  35.58000 45.40200 33.08400
H  34.20300 52.89600 28.03600
H  35.66500 51.63800 21.79600
H  37.50900 45.72400 23.55200
H  35.30300 49.29700 31.04600
H  35.56400 51.96800 30.12100
H  33.47400 52.22100 30.66800
H  33.50200 50.54100 31.25200
H  32.89200 50.94200 29.64700
H  37.72500 50.98800 30.42400
H  37.88900 49.23200 30.23300
H  38.27000 50.55700 32.55900
H  38.21300 48.80700 32.19900
H  33.78000 55.37200 25.33200
H  33.69800 54.61100 26.99000
H  32.44700 54.34500 25.72500
H  33.53600 56.10100 23.07600
H  32.41300 54.84300 23.63800
H  32.56600 55.26000 21.87200
H  37.35500 49.89900 20.99000
H  36.73100 46.98400 21.32200
H  34.54600 49.01000 20.96200
H  35.52200 48.18200 19.70600
H  35.25200 49.99300 19.70500
H  39.26400 47.87800 22.49600
H  39.01000 48.55500 20.83100
H  38.74700 45.53100 21.14900
H  40.36800 46.27000 21.12300
H  39.18500 46.78800 19.88900
H  37.60600 43.75600 24.76200
H  38.01900 43.27200 26.42500
H  39.06400 44.20800 25.61400
H  37.59100 46.88900 30.26500
H  34.56800 45.14400 32.77300
H  35.47600 46.16700 33.85300
H  36.25500 44.63100 33.45700
Mg 16.54500 51.56200 26.78200
C  18.71800 50.46100 29.47400
C  14.46300 52.62700 29.01900
C  14.70700 52.59700 24.20700
C  19.08800 50.45200 24.65600
N  16.71300 51.63000 28.95300
C  17.59600 51.17300 29.87900
C  17.21000 51.48800 31.34800
C  15.74600 51.97500 31.08300
C  15.58300 52.08200 29.58700
C  14.66100 51.07400 31.69000
C  18.14100 52.48600 32.10000
C  18.45800 52.13100 33.55600
H  17.33600 51.58000 34.44600
N  14.79500 52.49500 26.69700
C  14.02500 52.88900 27.76100
C  12.86600 53.56700 27.29100
C  13.01400 53.65900 25.91200
C  14.15900 52.79400 25.51000
C  11.90100 54.19300 28.21000
C  12.18200 54.37100 24.84300
O  12.37900 54.41600 23.66100
C  11.03100 55.21400 25.20600
N  16.90600 51.55300 24.76500
C  15.92400 51.96500 23.86600
C  16.43900 51.94100 22.40600
C  17.79600 51.18500 22.55500
C  17.99300 51.07300 24.07100
C  15.39900 51.44000 21.30700
C  18.89000 51.88500 21.71000
C  20.09000 51.02700 21.16300
N  18.49700 50.54600 26.96100
C  19.39200 50.17200 25.98300
C  20.56700 49.53400 26.58100
C  20.28800 49.52600 27.98300
C  19.10300 50.29300 28.13400
C  21.77100 49.10000 25.89300
C  20.75800 49.16800 29.27200
O  21.82600 48.63900 29.61700
C  19.74500 49.74800 30.31400
C  19.26600 48.77700 31.29500
O  18.36400 47.94200 31.08700
O  20.03400 48.77500 32.46600
C  19.52800 47.98500 33.58700
H  13.67600 52.84900 29.74300
H  14.25200 53.00800 23.30400
H  19.85800 50.31700 23.89300
H  17.22900 50.49600 31.80000
H  15.72100 53.00000 31.45100
H  14.12900 51.69000 32.41400
H  15.13100 50.24000 32.21000
H  14.04300 50.63000 30.91000
H  17.81100 53.52400 32.08400
H  19.09400 52.36100 31.58600
H  18.88400 52.96200 34.11900
H  19.25400 51.39800 33.42800
H  12.27400 54.09200 29.23000
H  10.89700 53.77800 28.12700
H  11.91600 55.26700 28.02500
H  11.46900 56.08300 25.69600
H  10.37800 54.67700 25.89400
H  10.50900 55.58000 24.32200
H  16.61500 52.94500 22.01900
H  17.63600 50.18600 22.14900
H  14.90300 52.25300 20.77700
H  14.69400 50.75600 21.78100
H  15.91200 50.88200 20.52400
H  19.19500 52.78100 22.25000
H  18.43200 52.24900 20.79000
H  20.93000 51.67900 21.40200
H  19.97100 50.87200 20.09100
H  20.08100 50.06800 21.68100
H  22.47600 49.04200 26.72300
H  22.10300 49.82600 25.15200
H  21.49300 48.13900 25.45900
H  20.43700 50.42300 30.81700
H  19.85600 46.95000 33.49300
H  18.44600 47.98400 33.44900
H  19.94600 48.39000 34.50800

