158

Mg 47.25900 24.99700 28.29400
C  48.37700 27.19400 30.85100
C  46.21600 22.88600 30.84100
C  46.42600 22.70900 25.95300
C  48.75700 27.02200 25.88800
N  47.31000 25.07700 30.55900
C  47.73900 26.03400 31.36700
C  47.60900 25.74100 32.87000
C  46.78800 24.36300 32.85500
C  46.72500 24.06800 31.31500
C  47.33600 23.19100 33.74300
C  46.68000 26.87500 33.41700
C  46.99300 27.63300 34.75600
H  45.96900 27.74400 35.82600
N  46.29400 23.11200 28.33200
C  46.02700 22.44400 29.49100
C  45.37500 21.17500 29.08500
C  45.31500 21.11400 27.68000
C  46.02800 22.34800 27.22800
C  44.93500 20.13100 30.08100
C  44.64200 20.12900 26.80000
O  44.69700 20.27100 25.58800
C  43.72600 19.02100 27.35500
N  47.61500 24.86700 26.17300
C  47.20800 23.74200 25.46600
C  47.70000 23.89200 24.01800
C  48.11200 25.43400 23.98800
C  48.23800 25.80700 25.42300
C  48.86100 22.96800 23.68700
C  47.03900 26.36500 23.25900
C  47.32100 26.75000 21.78400
N  48.41100 26.61000 28.30900
C  48.81300 27.39600 27.28200
C  49.56500 28.53000 27.73800
C  49.28300 28.51700 29.12900
C  48.59800 27.34400 29.45100
C  50.47900 29.53000 26.99500
C  49.61300 29.21700 30.34000
O  50.23600 30.24900 30.59800
C  48.94700 28.33200 31.54100
C  50.07200 27.87000 32.34800
O  50.75300 26.92500 32.01200
O  50.26900 28.74600 33.34900
C  51.30100 28.58400 34.47100
H  45.92400 22.23600 31.66800
H  46.27400 21.94700 25.18500
H  49.26100 27.67700 25.17400
H  48.56800 25.77200 33.38800
H  45.72100 24.40800 33.07600
H  48.14200 22.79900 33.12200
H  46.53500 22.46200 33.86300
H  47.52600 23.57200 34.74700
H  45.70000 26.41300 33.53900
H  46.40400 27.59000 32.64200
H  47.43100 28.61600 34.58500
H  47.81200 27.00900 35.11400
H  45.44000 19.18300 29.89800
H  43.88500 19.85000 30.00300
H  45.08900 20.48700 31.10000
H  42.83300 19.46200 27.79700
H  44.21800 18.45400 28.14500
H  43.44200 18.42500 26.48800
H  46.81900 23.75600 23.39100
H  49.09300 25.62200 23.55300
H  48.50800 22.32100 22.88400
H  49.07200 22.43300 24.61300
H  49.82700 23.36000 23.36700
H  46.98400 27.22900 23.92100
H  46.04700 25.91300 23.25600
H  47.13100 27.81400 21.64400
H  46.60700 26.23000 21.14500
H  48.33400 26.47100 21.49300
H  49.88500 30.13300 26.30800
H  51.16800 28.99700 26.33900
H  51.08400 30.16500 27.64300
H  48.18000 28.88800 32.08000
H  52.30700 28.89400 34.18800
H  51.32600 27.56900 34.86600
H  51.06600 29.26900 35.28500
Mg 17.18900 51.96700 25.96600
C  18.55100 50.73700 28.79900
C  14.36300 53.03400 27.85300
C  15.62500 53.10600 23.25300
C  19.63300 50.54400 23.97900
N  16.48000 51.81400 28.04700
C  17.29200 51.36200 29.06300
C  16.60400 51.55600 30.51300
C  15.29900 52.28500 30.10000
C  15.40400 52.43800 28.55900
C  13.97800 51.48200 30.57000
C  17.51300 52.44400 31.50300
C  17.76700 51.73300 32.80500
H  17.08100 52.41900 33.99000
N  15.24200 53.10200 25.67300
C  14.25300 53.43900 26.51500
C  13.21500 54.13700 25.82100
C  13.62000 54.22200 24.43300
C  14.85700 53.45200 24.43500
C  11.99900 54.66200 26.52500
C  12.99100 54.94000 23.28600
O  13.44100 54.92100 22.17100
C  11.83500 55.84800 23.48400
N  17.53100 51.72800 23.95200
C  16.77500 52.37500 23.00800
C  17.37500 52.30700 21.56400
C  18.82700 51.73400 21.82400
C  18.64800 51.29300 23.31600
C  16.57500 51.38900 20.54600
C  19.93700 52.70400 21.64400
C  19.77700 54.21600 21.97000
N  18.73300 50.78800 26.27600
C  19.68400 50.26600 25.40800
C  20.64000 49.48200 26.14900
C  20.30000 49.69300 27.46600
C  19.07700 50.42600 27.46800
C  21.76900 48.72900 25.63300
C  20.66100 49.38700 28.85700
O  21.61500 48.67300 29.28800
C  19.47000 50.01800 29.74400
C  18.81300 48.98700 30.59800
O  17.92300 48.18600 30.32600
O  19.45900 49.08600 31.80400
C  18.92000 48.33600 32.91500
H  13.59500 53.42000 28.52700
H  15.37900 53.72000 22.38400
H  20.50600 50.14300 23.46000
H  16.30300 50.58900 30.91500
H  15.25500 53.28000 30.54200
H  13.60800 50.83500 29.77400
H  13.29400 52.22200 30.98400
H  14.17400 50.87600 31.45400
H  17.02400 53.40200 31.68100
H  18.45800 52.60200 30.98300
H  18.84200 51.63300 32.95700
H  17.30600 50.74600 32.79900
H  11.94900 55.73400 26.71400
H  11.75700 54.22500 27.49400
H  11.22500 54.43200 25.79200
H  11.97500 56.48500 24.35700
H  10.95900 55.20200 23.54800
H  11.58100 56.39500 22.57600
H  17.41800 53.24100 21.00300
H  19.01900 50.94000 21.10200
H  17.00800 50.41400 20.31900
H  16.25000 51.84600 19.61100
H  15.63000 51.04400 20.96600
H  20.31100 52.70400 20.62000
H  20.78700 52.36800 22.23800
H  19.80500 54.79300 21.04600
H  20.65200 54.55100 22.52900
H  18.85400 54.46400 22.49400
H  22.30700 49.40000 24.96400
H  21.61500 47.88700 24.95800
H  22.43900 48.33300 26.39600
H  19.95200 50.78900 30.34600
H  19.80500 47.76400 33.19100
H  18.14600 47.57400 32.82400
H  18.72900 49.09700 33.67200

