158

Mg 8.72300 3.55600 27.07300
C  10.34100 2.16400 29.78500
C  6.90700 5.50400 29.33600
C  7.56600 5.14400 24.51400
C  10.39000 1.25100 25.03700
N  8.44900 3.60400 29.37800
C  9.32100 2.99900 30.21700
C  9.02700 3.51400 31.60600
C  7.84300 4.51800 31.46100
C  7.71800 4.56900 30.00400
C  6.46500 4.19800 32.08500
C  10.28500 4.18100 32.32400
C  9.86000 4.47300 33.83400
H  10.86600 4.17100 35.00200
N  7.33100 5.16600 26.93200
C  6.73800 5.85200 27.98300
C  5.86700 6.78100 27.37400
C  6.12400 6.83600 25.98000
C  7.07300 5.71400 25.74400
C  4.76400 7.47600 28.18800
C  5.50900 7.80400 24.92000
O  5.77600 7.73500 23.72700
C  4.61300 8.93100 25.46900
N  8.91500 3.25200 25.04700
C  8.38300 4.04200 24.16900
C  8.59700 3.63100 22.65700
C  9.59900 2.37900 22.87300
C  9.62700 2.28600 24.40100
C  7.31800 3.16900 21.85900
C  11.06900 2.61100 22.34900
C  11.75400 1.37700 21.71200
N  9.90000 1.84400 27.28300
C  10.54400 1.06400 26.42400
C  11.44400 0.10600 27.08500
C  11.40400 0.54600 28.36300
C  10.37400 1.60100 28.48400
C  12.21200 -1.01600 26.52400
C  11.95700 0.37600 29.68400
O  12.76300 -0.47500 30.02000
C  11.27800 1.38700 30.66600
C  10.66000 0.54800 31.66500
O  9.64500 -0.15600 31.44200
O  11.20400 0.83300 32.86900
C  10.47200 0.38000 34.06200
H  6.30300 6.10800 30.01700
H  7.11600 5.65100 23.65800
H  10.72800 0.40800 24.43000
H  8.65200 2.75900 32.29700
H  8.02500 5.51500 31.86200
H  5.79100 3.79600 31.32900
H  5.84100 5.00800 32.46200
H  6.58500 3.63100 33.00900
H  10.40500 5.12900 31.79900
H  11.19400 3.58700 32.22900
H  8.94200 3.96900 34.13800
H  9.64900 5.54100 33.88200
H  5.29500 8.40000 28.41800
H  4.58200 7.01900 29.16100
H  3.80700 7.65000 27.69600
H  3.54700 8.82100 25.66800
H  4.61800 9.69600 24.69200
H  5.21500 9.43300 26.22600
H  9.08200 4.53100 22.28000
H  9.14400 1.50800 22.40200
H  6.51700 3.28900 22.58900
H  7.30600 2.11300 21.59100
H  7.13000 3.78200 20.97700
H  11.70200 2.99400 23.14900
H  11.05700 3.43500 21.63500
H  12.72200 1.25800 22.20000
H  11.92700 1.55000 20.65000
H  11.15300 0.47000 21.78100
H  11.90800 -1.92100 27.05000
H  13.26700 -0.84000 26.73400
H  12.23400 -1.05400 25.43400
H  12.16300 1.89000 31.05600
H  11.04000 -0.24700 34.74900
H  9.64500 -0.26300 33.75900
H  10.08800 1.22000 34.64200
Mg 9.35400 47.69600 26.23500
C  7.51800 47.75700 29.27100
C  11.88600 49.24900 28.01900
C  11.05000 48.00700 23.43400
C  6.50100 46.91500 24.59300
N  9.75100 48.18500 28.53900
C  8.86900 48.09400 29.52200
C  9.47500 48.47900 30.84000
C  10.78000 49.26700 30.41500
C  10.80800 48.95600 28.86900
C  10.78700 50.81600 30.74400
C  9.78200 47.29100 31.79100
C  9.29300 47.40500 33.26100
H  9.29300 46.01400 34.02600
N  11.22400 48.35300 25.77100
C  12.18900 48.82400 26.68200
C  13.49900 48.72300 26.06300
C  13.23200 48.28300 24.71800
C  11.79600 48.23900 24.56300
C  14.78700 49.10400 26.81100
C  14.20200 47.90700 23.68000
O  14.00500 47.61600 22.48600
C  15.70200 47.78300 24.16400
N  8.78000 47.78200 24.32500
C  9.70300 47.85200 23.35300
C  9.01100 47.68700 22.00500
C  7.47200 47.59300 22.38300
C  7.61700 47.29000 23.85400
C  9.27700 48.78000 20.89400
C  6.77500 46.46300 21.61200
C  7.05800 46.27300 20.10400
N  7.33000 47.30000 26.79500
C  6.29100 47.02300 26.00200
C  5.12900 46.99400 26.82300
C  5.55600 47.23900 28.11600
C  6.95700 47.37900 28.07800
C  3.69300 47.03300 26.43200
C  5.09800 47.32700 29.46900
O  3.96800 47.28400 29.97300
C  6.40900 47.54400 30.32700
C  6.58000 46.35800 31.11900
O  7.15500 45.31200 30.79800
O  5.97800 46.58000 32.33100
C  6.07900 45.51400 33.38200
H  12.67000 49.76700 28.57500
H  11.58900 48.09100 22.48800
H  5.63700 46.73400 23.95100
H  8.87700 49.21100 31.38300
H  11.72400 48.89100 30.80800
H  9.76200 51.15600 30.89400
H  11.24600 51.23600 29.84900
H  11.34100 51.03900 31.65500
H  10.86200 47.14300 31.77600
H  9.40700 46.35500 31.37800
H  8.29600 47.84400 33.31000
H  10.04200 47.94400 33.84200
H  15.47500 48.26400 26.91300
H  14.49800 49.44900 27.80400
H  15.26300 49.85100 26.17600
H  15.90700 47.25100 25.09300
H  16.12600 48.78700 24.14700
H  16.37900 47.29600 23.46100
H  9.24700 46.67300 21.68300
H  7.06200 48.58900 22.21900
H  8.39600 49.12300 20.35100
H  10.09900 48.39700 20.28900
H  9.79900 49.62100 21.35000
H  5.70600 46.67100 21.65800
H  6.85400 45.52500 22.16100
H  6.32000 45.61400 19.64700
H  8.09700 46.00300 19.91200
H  6.87400 47.20000 19.56100
H  3.61700 47.22700 25.36200
H  3.21400 47.71500 27.13500
H  3.29000 46.05700 26.70400
H  6.31500 48.45900 30.91200
H  6.33000 46.05700 34.29400
H  6.83300 44.79400 33.06200
H  5.10400 45.02800 33.41100

