158

Mg 0.58600 7.79400 25.23800
C  0.97800 9.51500 28.28400
C  0.73400 4.82400 27.00600
C  0.40100 6.07500 22.43300
C  0.68500 10.78300 23.61000
N  0.97000 7.24000 27.37300
C  0.96800 8.08700 28.50800
C  0.99700 7.39200 29.90300
C  1.09600 5.85500 29.38300
C  0.91000 5.97100 27.84100
C  2.39400 5.21400 29.76300
C  -0.21300 7.78500 30.77600
C  0.06000 7.74900 32.32200
H  1.37000 7.18400 32.97100
N  0.43600 5.73000 24.83100
C  0.64900 4.67700 25.63000
C  0.66700 3.49500 24.84900
C  0.24100 3.82800 23.51600
C  0.33700 5.27000 23.58400
C  0.99600 2.24500 25.49600
C  -0.06400 2.92600 22.27400
O  -0.20600 3.38200 21.14400
C  -0.01300 1.42200 22.50900
N  0.45800 8.35600 23.25700
C  0.40200 7.47000 22.26000
C  0.50700 8.09400 20.92100
C  0.46500 9.61800 21.26800
C  0.55800 9.64300 22.79700
C  1.81100 7.72000 20.06700
C  -0.89100 10.25900 20.75400
C  -1.01600 11.78200 20.65200
N  0.69100 9.77100 25.74900
C  0.78300 10.89000 25.00400
C  0.86100 12.10500 25.80200
C  0.95400 11.57400 27.14800
C  0.85000 10.14400 27.01500
C  0.94700 13.58100 25.27700
C  1.20800 11.92800 28.53700
O  1.53500 13.02400 29.01200
C  1.00900 10.65500 29.34000
C  2.17700 10.42600 30.24900
O  3.27400 9.97200 29.85600
O  2.04600 11.00200 31.49900
C  3.23000 11.12400 32.34200
H  0.87400 3.93300 27.62200
H  0.41900 5.57800 21.46100
H  0.78600 11.65200 22.95600
H  1.94000 7.75500 30.31100
H  0.24900 5.31300 29.80300
H  2.96700 5.76300 30.51000
H  3.09800 5.12800 28.93500
H  2.29000 4.21300 30.18300
H  -1.04300 7.07900 30.78400
H  -0.59100 8.79000 30.58800
H  -0.67300 7.08900 32.78600
H  -0.11800 8.74400 32.72800
H  0.58500 1.34000 25.04900
H  0.73800 2.24000 26.55500
H  2.08300 2.30600 25.55300
H  -0.87000 1.13400 23.11800
H  0.94300 1.23300 22.99700
H  -0.09500 1.11700 21.46600
H  -0.38500 7.86100 20.33800
H  1.29300 10.28200 21.01900
H  1.71800 6.73500 19.60800
H  2.68100 7.60800 20.71300
H  1.99600 8.45700 19.28600
H  -1.57500 10.07000 21.58100
H  -1.22300 9.75400 19.84800
H  -1.60000 11.93800 19.74600
H  -0.09200 12.35500 20.56900
H  -1.57700 12.15300 21.51000
H  0.14500 14.21000 25.66400
H  0.95000 13.61100 24.18800
H  1.86400 14.12400 25.50600
H  0.05400 10.83900 29.83200
H  3.71900 10.16800 32.52800
H  2.92000 11.57700 33.28300
H  3.94100 11.84100 31.93100
Mg 25.82500 50.87900 26.42100
C  23.50200 51.88700 28.89000
C  28.09300 50.36200 29.02200
C  28.22200 50.76700 24.07900
C  23.52300 51.97700 24.04500
N  25.75400 51.07500 28.69500
C  24.68100 51.24900 29.41400
C  24.90500 50.96200 30.89600
C  26.48000 50.76200 30.88600
C  26.80400 50.73900 29.37000
C  27.27900 51.85300 31.62500
C  24.15700 49.71200 31.47100
C  23.14200 49.92500 32.64300
H  23.37000 49.17500 33.93800
N  27.82800 50.37100 26.50600
C  28.51700 50.18500 27.64900
C  29.85500 49.74300 27.24900
C  29.91300 49.86300 25.82900
C  28.62200 50.33600 25.39500
C  30.91100 49.31200 28.21100
C  31.06100 49.51800 24.91800
O  30.92200 49.64000 23.73300
C  32.30800 49.01300 25.51300
N  25.90700 51.28000 24.29500
C  26.98300 51.17500 23.52800
C  26.62400 51.49700 21.98900
C  25.08300 51.72100 22.06300
C  24.79400 51.64500 23.53700
C  27.49800 52.71800 21.64100
C  24.20400 50.70600 21.20100
C  23.85400 51.15600 19.77000
N  23.96300 51.80200 26.40400
C  23.10500 52.11400 25.36300
C  21.86200 52.64100 25.91300
C  21.99400 52.61700 27.28400
C  23.25600 52.05800 27.55200
C  20.73000 53.20400 25.05600
C  21.32500 52.89100 28.52100
O  20.21600 53.35400 28.78900
C  22.35500 52.41400 29.68600
C  22.74900 53.62100 30.47700
O  23.66900 54.41700 30.21000
O  21.81500 53.77900 31.48000
C  22.14300 54.86800 32.41200
H  28.84300 50.05700 29.75400
H  29.04000 50.84200 23.36000
H  22.69800 52.20300 23.36600
H  24.64200 51.86000 31.45600
H  26.66400 49.78500 31.33200
H  27.59900 51.69400 32.65500
H  26.80100 52.81200 31.42200
H  28.25600 51.97800 31.15900
H  24.91000 49.02300 31.85300
H  23.48000 49.28700 30.73000
H  22.16600 49.63100 32.25800
H  23.31700 50.97100 32.89300
H  31.04400 48.23200 28.26500
H  30.77800 49.77800 29.18800
H  31.85500 49.77900 27.92800
H  32.17100 48.25900 26.28800
H  32.81400 49.93500 25.80000
H  32.84800 48.56100 24.68200
H  26.91000 50.62800 21.39600
H  24.89400 52.71100 21.64800
H  28.57300 52.53600 21.61800
H  27.34600 53.62800 22.22100
H  27.30700 52.91800 20.58600
H  23.24100 50.60000 21.70200
H  24.63300 49.71700 21.04300
H  24.06700 50.39700 19.01800
H  24.45000 52.02900 19.50400
H  22.79000 51.38200 19.69800
H  19.87900 53.32600 25.72600
H  20.36200 52.55900 24.25800
H  21.04000 54.18500 24.69800
H  21.99800 51.66800 30.39600
H  23.03000 54.69400 33.02000
H  21.35900 55.07800 33.13900
H  22.31000 55.84900 31.96700

