158

Mg 35.49200 1.17100 29.04100
C  33.44300 2.49300 31.60000
C  38.09000 0.97200 31.45400
C  37.52300 0.44000 26.56000
C  32.84700 1.77700 26.77700
N  35.75500 1.72200 31.30500
C  34.72500 2.17000 32.07800
C  35.14100 2.24800 33.55900
C  36.63600 1.78800 33.53800
C  36.88200 1.50400 32.05100
C  37.67300 2.65400 34.25500
C  34.38000 1.55100 34.67700
C  34.18300 2.15000 36.11200
H  35.07700 3.29500 36.62300
N  37.47600 0.58600 29.00400
C  38.37000 0.56900 30.11100
C  39.66600 0.13200 29.57600
C  39.53100 0.07500 28.13100
C  38.14600 0.39200 27.82400
C  40.89700 -0.10900 30.45900
C  40.67200 -0.17000 27.05900
O  40.39900 -0.34400 25.84900
C  42.06100 -0.44900 27.42800
N  35.29600 1.06300 26.97700
C  36.29000 0.84300 26.15700
C  35.82100 0.71500 24.72400
C  34.30200 0.91700 24.73300
C  34.07100 1.28800 26.24500
C  36.50600 1.71200 23.73000
C  33.44800 -0.30600 24.27900
C  32.51600 -0.17100 23.07100
N  33.55700 1.84900 29.12800
C  32.62200 2.13600 28.10400
C  31.45000 2.78900 28.62300
C  31.76400 2.89700 29.99900
C  33.03200 2.39000 30.26200
C  30.34300 3.27700 27.87900
C  31.19700 3.32700 31.20800
O  30.10400 3.88000 31.44000
C  32.22200 3.00600 32.31800
C  32.55600 4.25300 33.02900
O  33.24300 5.19500 32.60700
O  31.82300 4.33100 34.17000
C  31.91600 5.54600 35.00700
H  38.90900 0.97800 32.17700
H  38.17400 0.06700 25.76600
H  32.00500 1.91500 26.09500
H  35.12200 3.31200 33.79600
H  36.75100 0.83000 34.04500
H  37.21900 3.59300 34.57200
H  38.49000 2.90500 33.57900
H  38.24300 2.23800 35.08600
H  34.71400 0.53300 34.87800
H  33.40500 1.24300 34.29900
H  34.36900 1.25100 36.70100
H  33.16000 2.46600 36.31500
H  41.43800 -0.92500 29.98000
H  40.58400 -0.39200 31.46400
H  41.45300 0.81300 30.63300
H  42.20900 -1.42600 27.88600
H  42.32400 0.34600 28.12500
H  42.65400 -0.33900 26.52000
H  36.14600 -0.26800 24.38400
H  34.01900 1.70200 24.03200
H  37.01900 2.52200 24.25000
H  35.77900 2.31500 23.18500
H  37.00800 1.13500 22.95400
H  32.83800 -0.56100 25.14600
H  34.02600 -1.21400 24.10800
H  31.51200 -0.46700 23.37600
H  32.81200 -0.80900 22.23800
H  32.48000 0.87900 22.78100
H  29.48700 2.62100 28.03300
H  30.53300 3.29300 26.80500
H  30.07100 4.30600 28.11300
H  31.66300 2.34500 32.98000
H  30.91800 5.94400 35.19500
H  32.55100 6.32800 34.59100
H  32.31800 5.04200 35.88600
Mg 6.89200 53.46400 40.92500
C  6.61500 49.93300 40.94500
C  10.28000 53.00700 40.13600
C  6.96100 56.65300 39.86400
C  3.37300 53.59000 40.80300
N  8.16900 51.63600 40.43000
C  7.90500 50.35600 40.67400
C  9.18700 49.48600 40.69300
C  10.36600 50.56500 40.72100
C  9.56100 51.83100 40.39900
C  11.18200 50.62600 42.04600
C  9.30900 48.47800 39.51200
C  9.11700 49.03000 38.08500
H  7.81400 48.76300 37.31100
N  8.47300 54.69700 40.20400
C  9.80100 54.35400 39.94400
C  10.54400 55.54800 39.65400
C  9.58300 56.62100 39.55300
C  8.26700 56.05600 39.87900
C  12.03500 55.57100 39.53800
C  9.90700 58.12700 39.36300
O  11.07400 58.41400 39.13600
C  8.93300 59.21400 39.58400
N  5.37800 54.93000 40.39600
C  5.69500 56.15000 40.08200
C  4.52100 57.10100 40.07900
C  3.33700 56.07000 40.30900
C  4.07400 54.79600 40.56600
C  4.63900 58.22800 41.16800
C  2.21800 55.92400 39.17400
C  0.75500 56.08600 39.64300
N  5.21800 52.11900 41.09200
C  3.89400 52.29200 41.09300
C  3.18200 51.14600 41.54700
C  4.21800 50.19900 41.45500
C  5.42400 50.82600 41.09900
C  1.71900 50.95500 41.97900
C  4.52400 48.76500 41.59700
O  3.83200 47.79200 41.92900
C  6.04800 48.63200 41.37100
C  6.09700 47.60800 40.31800
O  5.72300 47.78800 39.13600
O  6.57100 46.45300 40.88400
C  6.51100 45.29300 40.01200
H  11.33800 52.79200 40.29700
H  6.86900 57.67000 39.47800
H  2.28900 53.72400 40.79000
H  9.16600 49.00600 41.67200
H  11.16600 50.31000 40.02600
H  11.70600 49.68500 42.21700
H  10.58000 50.80100 42.93800
H  11.76300 51.54800 42.02900
H  8.71700 47.57000 39.62500
H  10.30500 48.03800 39.45700
H  9.90600 48.64200 37.44100
H  9.28400 50.08700 38.29600
H  12.44400 56.18800 40.33900
H  12.35000 56.04800 38.61000
H  12.41100 54.55600 39.66500
H  8.60600 59.04300 40.60900
H  8.06700 59.21200 38.92200
H  9.43000 60.18100 39.66000
H  4.43300 57.49000 39.06400
H  2.80200 56.43500 41.18600
H  4.04600 58.14000 42.07800
H  4.57600 59.19800 40.67600
H  5.67900 58.25100 41.49600
H  2.30900 54.96900 38.65700
H  2.36800 56.69700 38.42000
H  0.23600 55.14300 39.47100
H  0.26000 56.86700 39.06600
H  0.67300 56.31500 40.70600
H  1.30700 50.17100 41.34300
H  1.10900 51.84800 41.84600
H  1.75000 50.67800 43.03300
H  6.41300 48.31600 42.34800
H  7.20300 45.51600 39.20000
H  5.50800 45.15600 39.60900
H  6.77800 44.42100 40.60900

