158

Mg 45.69200 5.26600 47.33500
C  43.43300 7.88700 46.47700
C  42.95800 3.05900 46.91200
C  47.73100 2.64900 47.21200
C  48.28300 7.55300 47.45400
N  43.45900 5.45300 46.40900
C  42.82300 6.67500 46.23600
C  41.35100 6.46400 45.88500
C  41.17500 4.91400 46.26800
C  42.57700 4.41600 46.59200
C  40.27800 4.62700 47.41800
C  40.99400 6.78300 44.32800
C  39.97800 7.86000 44.02600
H  40.39000 8.83300 42.90900
N  45.43400 3.14900 47.09200
C  44.19800 2.45900 47.03900
C  44.49100 1.07200 46.92700
C  45.86600 0.81200 46.90600
C  46.43900 2.23900 47.00800
C  43.33700 0.06700 46.89600
C  46.51100 -0.60600 46.71900
O  45.80500 -1.58500 46.54200
C  48.01300 -0.69100 46.64200
N  47.72900 5.17100 47.22200
C  48.30000 3.95900 47.37200
C  49.87200 4.09700 47.52200
C  50.05400 5.65900 47.77300
C  48.59900 6.17100 47.49300
C  50.51200 3.24600 48.67700
C  51.08400 6.33700 46.83400
C  51.93700 7.62100 47.30800
N  45.86500 7.30000 47.14200
C  47.00900 8.12200 47.14400
C  46.56500 9.50200 47.00800
C  45.20300 9.43900 46.82200
C  44.78500 8.08400 46.80900
C  47.52500 10.59900 46.98500
C  44.03800 10.25900 46.62000
O  43.94500 11.47600 46.58000
C  42.86000 9.33400 46.28200
C  41.72500 9.55900 47.24000
O  41.48900 8.97300 48.29500
O  40.88000 10.44800 46.69400
C  39.56000 10.67100 47.45100
H  42.09800 2.39200 46.99300
H  48.45500 1.83300 47.26300
H  49.10900 8.21000 47.73100
H  40.81100 7.10800 46.57900
H  40.83300 4.32100 45.41900
H  40.49300 3.65800 47.87000
H  39.22400 4.78400 47.19000
H  40.42800 5.31100 48.25400
H  40.49500 5.91000 43.90700
H  41.92200 6.99500 43.79800
H  39.99800 8.47000 44.92900
H  39.04200 7.36400 43.77000
H  43.53400 -0.79700 47.53000
H  43.27700 -0.35700 45.89400
H  42.30500 0.38200 47.05300
H  48.54200 -0.39200 47.54700
H  48.32400 0.00100 45.85900
H  48.21900 -1.73900 46.42400
H  50.37700 3.95600 46.56700
H  50.32300 5.87700 48.80700
H  51.34600 2.64100 48.32200
H  49.72100 2.67700 49.16700
H  50.92300 3.71800 49.57000
H  50.60300 6.63700 45.90400
H  51.78300 5.51500 46.68100
H  52.79800 7.23900 47.85600
H  51.41600 8.18500 48.08100
H  52.08500 8.33200 46.49400
H  48.01500 10.77600 47.94300
H  46.90200 11.37600 46.54300
H  48.18900 10.15600 46.24200
H  42.52000 9.46600 45.25500
H  39.68400 11.33700 48.30500
H  39.07800 9.77100 47.83500
H  38.86300 11.08600 46.72300
Mg 49.33500 46.75500 43.68000
C  46.07500 47.01500 42.63600
C  49.61100 43.92000 41.81000
C  52.47100 46.90700 44.48500
C  48.94300 50.07500 45.04300
N  47.96700 45.65400 42.30200
C  46.64600 45.84900 42.09900
C  45.98500 44.78200 41.16300
C  47.04300 43.68600 41.23300
C  48.31500 44.51600 41.76500
C  46.67200 42.55500 42.29200
C  45.78900 45.44700 39.73700
C  44.43400 45.10400 39.07600
H  44.31100 44.77900 37.57200
N  50.82600 45.52700 43.14300
C  50.77600 44.38500 42.42100
C  52.11700 43.80500 42.43700
C  52.94500 44.57200 43.22000
C  52.10000 45.78900 43.60500
C  52.41400 42.59400 41.47200
C  54.38000 44.23500 43.65000
O  54.89100 43.20700 43.27700
C  55.15700 44.99200 44.77900
N  50.56200 48.35900 44.54700
C  51.79800 48.05500 44.81500
C  52.51800 49.29700 45.53200
C  51.38700 50.42800 45.58300
C  50.22100 49.63400 44.98600
C  53.33900 49.10000 46.78100
C  51.55900 51.62300 44.63100
C  52.85700 52.45000 44.77800
N  47.84800 48.20300 43.91200
C  47.81900 49.50400 44.51400
C  46.51200 50.11800 44.33000
C  45.80800 49.17300 43.58400
C  46.67800 48.00100 43.41200
C  46.24900 51.47100 44.67800
C  44.54900 48.91700 42.97300
O  43.56600 49.62000 42.94500
C  44.62600 47.44500 42.31100
C  43.56800 46.57700 43.00900
O  43.42400 46.47700 44.23200
O  42.82200 45.92400 42.05500
C  41.82800 45.07200 42.60300
H  49.57700 42.93600 41.33800
H  53.50100 46.93500 44.84500
H  48.73000 51.00200 45.58000
H  44.98400 44.49900 41.48900
H  47.34800 43.27900 40.26900
H  47.34200 42.52200 43.15100
H  46.86800 41.59200 41.82200
H  45.66700 42.72300 42.67900
H  46.56600 45.10700 39.05300
H  45.90200 46.52900 39.80300
H  43.72400 45.92500 39.17600
H  43.97300 44.25700 39.58500
H  51.66300 42.28100 40.74600
H  52.71700 41.77400 42.12300
H  53.36600 42.80500 40.98400
H  55.88700 44.29400 45.18800
H  54.46400 44.98100 45.62100
H  55.50600 46.00000 44.55700
H  53.27100 49.67100 44.83700
H  51.22200 50.81300 46.58900
H  54.39600 49.30600 46.61600
H  53.37100 48.11400 47.24500
H  53.08400 49.80200 47.57500
H  50.79800 52.34100 44.93700
H  51.51100 51.37700 43.57000
H  53.44100 52.35000 43.86200
H  53.53100 52.33700 45.62700
H  52.68900 53.52300 44.85900
H  47.12100 52.08000 44.43800
H  46.11800 51.51600 45.75900
H  45.32900 51.92700 44.31300
H  44.39500 47.49700 41.24700
H  42.13300 44.32700 43.33700
H  41.31300 44.45700 41.86400
H  41.05200 45.74100 42.97600

