158

Mg 16.78800 -2.21600 27.87900
C  15.47100 -0.10800 30.41800
C  18.88500 -3.60100 30.25300
C  18.53500 -3.64600 25.36800
C  15.27900 -0.03800 25.58600
N  17.21200 -1.75500 30.05900
C  16.42200 -1.04200 30.88400
C  16.84700 -1.23700 32.39600
C  18.04400 -2.20400 32.23500
C  18.04300 -2.55700 30.72300
C  19.40900 -1.63600 32.58600
C  15.71300 -1.75700 33.35100
C  15.99400 -1.61600 34.80300
H  17.20400 -0.90300 35.32500
N  18.20500 -3.72100 27.79200
C  18.96600 -4.13100 28.87800
C  19.81500 -5.20600 28.41000
C  19.78500 -5.31900 26.97200
C  18.83000 -4.14800 26.63700
C  20.74900 -5.98100 29.43600
C  20.46900 -6.18600 25.92800
O  20.39800 -5.98500 24.72400
C  21.42200 -7.39300 26.48000
N  17.00700 -1.74600 25.78700
C  17.69400 -2.61200 24.94900
C  17.35800 -2.42500 23.43900
C  16.13800 -1.46000 23.55400
C  16.10300 -1.11200 25.05700
C  18.52400 -1.71100 22.74700
C  14.75600 -1.93600 22.94800
C  13.71700 -2.47500 23.88800
N  15.55100 -0.40000 27.88100
C  15.01100 0.32100 26.86600
C  14.14300 1.26900 27.37900
C  14.30700 1.22400 28.81800
C  15.21100 0.13300 29.05500
C  13.20800 2.13800 26.55800
C  13.86900 1.79700 30.07700
O  13.05100 2.65600 30.30800
C  14.62900 0.98600 31.15300
C  15.39800 1.93000 31.89300
O  16.27500 2.63600 31.47400
O  15.04600 1.92100 33.21100
C  15.87800 2.76500 34.09600
H  19.61700 -3.99500 30.96000
H  19.17100 -4.19700 24.67200
H  14.82100 0.54800 24.78600
H  17.19000 -0.23800 32.66700
H  17.90600 -3.09500 32.84800
H  19.29300 -0.75900 33.22400
H  20.01900 -1.38400 31.71900
H  19.92300 -2.42800 33.13000
H  15.62000 -2.81700 33.11400
H  14.79500 -1.26900 33.02500
H  15.86800 -2.61300 35.22400
H  15.15800 -1.09700 35.27300
H  20.25600 -6.93900 29.59800
H  20.95200 -5.57200 30.42600
H  21.78100 -6.13700 29.12200
H  20.89800 -8.09500 27.12800
H  22.22000 -7.05400 27.14100
H  21.87400 -7.88900 25.62100
H  17.09000 -3.37200 22.97000
H  16.22800 -0.51600 23.01700
H  19.49600 -1.92700 23.19000
H  18.47300 -0.62300 22.70900
H  18.49400 -2.04200 21.70900
H  14.98500 -2.64200 22.14900
H  14.31100 -1.05600 22.48300
H  14.15700 -2.69200 24.86200
H  13.14900 -3.27500 23.41400
H  12.97000 -1.69400 24.02800
H  13.63700 2.77300 25.78200
H  12.75200 2.87200 27.22300
H  12.48900 1.41400 26.17400
H  13.91200 0.62500 31.89000
H  15.74200 2.48400 35.14000
H  15.72400 3.84400 34.06300
H  16.93700 2.76500 33.83700
Mg 46.03300 17.38100 29.14600
C  43.83700 16.80300 31.94300
C  48.19900 19.04100 31.08200
C  47.56700 18.17400 26.33300
C  43.33800 15.90900 27.15500
N  45.99600 17.88600 31.19200
C  45.03200 17.54700 32.17500
C  45.67900 17.80900 33.53000
C  46.77600 18.84800 33.19100
C  47.01800 18.61000 31.74100
C  46.31700 20.27900 33.61800
C  46.09300 16.50000 34.28700
C  45.54300 16.37200 35.77000
H  45.70400 17.71300 36.45500
N  47.72000 18.31600 28.75600
C  48.58100 18.89300 29.69500
C  49.76900 19.30500 29.05200
C  49.61700 19.19600 27.65000
C  48.29200 18.50900 27.51800
C  50.86600 19.77600 29.84600
C  50.53400 19.49700 26.56100
O  50.41800 19.01400 25.43600
C  51.59700 20.42300 26.78600
N  45.55500 16.98700 27.10300
C  46.30600 17.57000 26.14500
C  45.80700 17.25100 24.70500
C  44.58900 16.34700 25.04200
C  44.45900 16.45200 26.54200
C  45.37100 18.53900 23.87700
C  44.70400 14.83000 24.50000
C  43.72300 14.47700 23.37900
N  44.00300 16.38100 29.45800
C  43.07400 15.79600 28.55100
C  42.00000 15.26100 29.32500
C  42.30100 15.61100 30.67500
C  43.47900 16.31400 30.66100
C  40.75300 14.57400 28.81800
C  41.77100 15.58400 32.06800
O  40.72700 15.10600 32.50200
C  42.86500 16.25800 32.98100
C  42.30800 17.33400 33.71200
O  41.93400 18.41700 33.23200
O  42.16500 16.97700 35.02900
C  41.57600 17.99300 35.92600
H  48.91800 19.56900 31.71300
H  48.06000 18.47000 25.40400
H  42.54200 15.45400 26.56100
H  44.86000 18.22800 34.11400
H  47.68200 18.62500 33.75300
H  46.15400 20.83500 32.69500
H  47.12200 20.77000 34.16500
H  45.36100 20.20100 34.13600
H  47.16600 16.30400 34.27700
H  45.59200 15.72000 33.71300
H  46.25400 15.78700 36.35400
H  44.53000 16.00400 35.93300
H  51.78900 19.29300 29.52600
H  50.73700 19.47700 30.88600
H  50.95000 20.86300 29.86700
H  52.03300 20.79800 25.86000
H  52.36400 19.94900 27.39900
H  51.09500 21.24300 27.29800
H  46.51000 16.69900 24.08200
H  43.70400 16.84400 24.64300
H  45.47100 19.45800 24.45500
H  44.39400 18.59300 23.39700
H  46.09300 18.63400 23.06600
H  44.53900 14.14600 25.33200
H  45.72400 14.72900 24.12900
H  42.98300 13.80900 23.81900
H  44.30900 14.08300 22.54900
H  43.16800 15.36400 23.07000
H  39.88500 14.87500 29.40400
H  40.86300 13.49100 28.87300
H  40.64500 14.75300 27.74800
H  43.21900 15.42300 33.58500
H  42.04900 17.73300 36.87200
H  40.50400 17.88400 36.08800
H  41.69200 19.04700 35.67100

