158

Mg 0.26700 7.93200 26.81100
C  1.20800 9.92900 29.56600
C  -0.26600 5.44100 29.06300
C  -0.46300 6.00600 24.15700
C  0.77900 10.60800 24.67200
N  0.44900 7.74500 29.06700
C  0.75000 8.70100 29.98900
C  0.71500 8.08700 31.42600
C  0.57100 6.52400 31.15900
C  0.12600 6.57500 29.67500
C  1.83500 5.68900 31.40200
C  -0.39600 8.70100 32.40800
C  0.08500 8.59400 33.88200
H  -0.59000 7.46100 34.76800
N  -0.26800 6.02100 26.66300
C  -0.38000 5.11700 27.66900
C  -0.75100 3.84000 27.09800
C  -0.73400 3.94300 25.66500
C  -0.41700 5.38300 25.42300
C  -1.15300 2.74200 27.99200
C  -1.05200 2.93400 24.61700
O  -0.97400 3.21400 23.41900
C  -1.49000 1.53200 24.92800
N  0.33600 8.28300 24.69000
C  -0.17100 7.30700 23.82800
C  -0.34100 7.85600 22.36500
C  -0.13000 9.37000 22.65100
C  0.43900 9.43300 24.09300
C  0.68900 7.30400 21.43600
C  -1.40400 10.18500 22.37600
C  -1.52500 10.66100 20.90100
N  1.03800 9.82000 27.00700
C  1.19600 10.83400 26.03100
C  1.68800 12.02200 26.68700
C  1.84800 11.72600 28.08800
C  1.31300 10.41700 28.21200
C  1.90700 13.46300 26.02800
C  2.12600 12.23200 29.38800
O  2.56500 13.34900 29.70600
C  1.67100 11.17600 30.41700
C  2.75900 10.89400 31.37900
O  3.75200 10.27800 31.15500
O  2.43700 11.40700 32.57900
C  3.25100 11.13700 33.70800
H  -0.49200 4.54800 29.65000
H  -0.72500 5.51000 23.22000
H  0.77500 11.46300 23.99200
H  1.68900 8.34100 31.84500
H  -0.24500 6.11000 31.75100
H  1.51400 4.84200 32.00900
H  2.63100 6.17900 31.96400
H  2.24500 5.31800 30.46300
H  -1.30100 8.10800 32.27500
H  -0.66200 9.72600 32.15100
H  0.01600 9.61600 34.25600
H  1.15600 8.45800 34.03000
H  -2.19500 2.93300 28.25200
H  -0.52900 2.71500 28.88600
H  -1.24700 1.72000 27.62700
H  -1.70600 1.03100 23.98400
H  -2.41800 1.65100 25.48700
H  -0.69100 1.11100 25.53900
H  -1.31300 7.72600 21.88900
H  0.71600 9.65700 22.02600
H  0.94700 8.09700 20.73400
H  0.31000 6.51000 20.79200
H  1.56300 7.04800 22.03500
H  -1.43400 10.98900 23.11200
H  -2.27100 9.53300 22.48800
H  -2.37800 10.12500 20.48400
H  -0.59200 10.52200 20.35500
H  -1.81900 11.70700 20.81900
H  1.01100 14.06700 25.88500
H  2.33100 13.34400 25.03000
H  2.59300 14.06200 26.62600
H  0.82400 11.46700 31.03700
H  3.93400 10.29700 33.57700
H  2.54600 10.80000 34.46800
H  3.79000 12.05200 33.95600
Mg 7.90700 2.27100 27.54400
C  9.31800 0.89300 30.75600
C  5.91000 4.14600 29.64900
C  6.31400 3.17500 24.81900
C  9.68000 -0.27300 25.98400
N  7.67200 2.33700 29.99200
C  8.38400 1.84800 31.04800
C  8.04100 2.55400 32.38100
C  6.79200 3.38000 31.96600
C  6.82100 3.34200 30.41100
C  5.40500 3.00400 32.75100
C  9.16100 3.38800 32.95200
C  8.84000 4.30900 34.09700
H  9.48000 3.98900 35.45000
N  6.37300 3.49800 27.27600
C  5.69800 4.23900 28.26900
C  4.79200 5.19700 27.62000
C  5.02900 4.94700 26.19900
C  5.92400 3.88000 26.07800
C  3.76100 6.00800 28.38100
C  4.30700 5.64000 25.04100
O  4.48900 5.28000 23.90300
C  3.26200 6.68100 25.32800
N  8.01400 1.54000 25.67300
C  7.23900 2.07300 24.74200
C  7.44800 1.44900 23.37300
C  8.71600 0.45400 23.64600
C  8.78300 0.53800 25.15600
C  6.21500 0.57200 22.97300
C  10.07200 0.83200 22.89200
C  10.43500 -0.03000 21.63900
N  9.31300 0.76600 28.12700
C  9.98800 -0.16700 27.37300
C  10.89800 -0.94300 28.13200
C  10.63400 -0.55100 29.49900
C  9.72100 0.52200 29.43400
C  11.83200 -2.09200 27.64500
C  11.11700 -0.78300 30.91600
O  12.00300 -1.53700 31.27500
C  10.19500 0.18600 31.82900
C  9.32000 -0.54300 32.76500
O  8.27700 -1.10100 32.54300
O  9.81600 -0.43400 34.07300
C  9.29100 -1.27400 35.17000
H  5.37200 4.76800 30.36800
H  5.87200 3.49700 23.87400
H  10.25900 -1.02400 25.44200
H  7.68600 1.84500 33.12800
H  6.97400 4.44500 32.11100
H  5.35700 3.68400 33.60200
H  5.42600 1.97000 33.09400
H  4.47900 3.05700 32.17800
H  9.56400 3.95100 32.11000
H  10.04600 2.86100 33.30900
H  7.75100 4.26300 34.07400
H  9.09800 5.33200 33.82500
H  2.75500 5.61900 28.22500
H  3.83300 7.07600 28.17800
H  4.00000 5.86100 29.43400
H  2.40500 6.25100 25.84600
H  2.99600 6.89600 24.29300
H  3.65500 7.51600 25.90900
H  7.77500 2.09000 22.55400
H  8.47800 -0.58800 23.43100
H  6.30400 -0.51400 23.02100
H  5.86200 0.74400 21.95700
H  5.42800 0.83800 23.67900
H  10.92200 0.93100 23.56800
H  9.91800 1.81600 22.44800
H  9.64800 -0.72900 21.35700
H  11.30700 -0.66300 21.80300
H  10.67600 0.63900 20.81300
H  12.03100 -1.84000 26.60400
H  11.37700 -3.08300 27.66600
H  12.76700 -2.02000 28.20000
H  10.91000 0.81400 32.35900
H  9.05100 -2.31000 34.93000
H  8.42700 -0.72100 35.53800
H  10.06900 -1.23700 35.93200

