158

Mg 44.17300 4.62300 46.09200
C  42.35200 7.49500 46.36200
C  41.24000 2.87500 45.54100
C  46.00000 1.85100 45.44800
C  47.06900 6.45400 46.42600
N  42.07900 5.09300 45.95200
C  41.56300 6.38000 46.14400
C  40.05900 6.34600 46.31500
C  39.73900 4.82200 46.02000
C  41.10800 4.19200 45.89900
C  38.74500 4.16100 47.07500
C  39.20900 7.31700 45.41300
C  39.76800 7.90500 44.12300
H  39.15700 7.35900 42.86500
N  43.67600 2.67600 45.54700
C  42.42900 2.14800 45.36600
C  42.54900 0.75500 45.05500
C  43.96000 0.42800 45.05400
C  44.61700 1.69400 45.36400
C  41.38800 -0.16100 44.63300
C  44.60200 -0.97200 44.81400
O  43.84400 -1.90500 44.55200
C  46.01700 -1.24900 44.78700
N  46.34100 4.23000 45.71400
C  46.83000 2.95600 45.70200
C  48.33600 2.98800 45.85500
C  48.59700 4.46200 46.26400
C  47.28100 5.12500 46.08300
C  49.05100 1.97300 46.74700
C  49.69900 5.32700 45.56800
C  50.68800 6.08300 46.54300
N  44.65500 6.55300 46.40000
C  45.85700 7.12300 46.59000
C  45.65100 8.48900 46.94300
C  44.24700 8.70900 46.89700
C  43.75100 7.49700 46.49100
C  46.67300 9.55100 47.14100
C  43.15400 9.64600 47.10000
O  43.18400 10.85300 47.47100
C  41.88300 8.89900 46.74900
C  41.04800 9.02100 47.94700
O  40.98600 8.15400 48.82400
O  40.19100 10.10500 47.81900
C  39.24100 10.36500 48.89300
H  40.23200 2.47400 45.42100
H  46.66500 1.01300 45.23100
H  47.93600 6.94300 46.87500
H  39.83600 6.50100 47.37100
H  39.21500 4.71200 45.07100
H  39.39600 3.43000 47.55600
H  37.93700 3.79500 46.44200
H  38.42100 4.90700 47.80100
H  38.80700 8.09000 46.06800
H  38.26000 6.85600 45.13800
H  40.79800 7.57900 43.97600
H  39.58000 8.97800 44.07400
H  41.54400 -0.22600 43.55600
H  40.43100 0.26900 44.92900
H  41.51300 -1.12500 45.12500
H  46.11900 -2.31300 44.57500
H  46.51100 -1.11900 45.75000
H  46.47600 -0.64800 44.00200
H  48.77700 2.77300 44.88200
H  48.88900 4.41300 47.31300
H  49.73200 1.32800 46.19200
H  48.32000 1.39800 47.31500
H  49.59400 2.38500 47.59700
H  49.30900 5.98300 44.79000
H  50.23300 4.53300 45.04600
H  50.44100 7.13300 46.38900
H  51.72200 5.83300 46.30300
H  50.58600 5.86400 47.60600
H  46.59100 10.28700 46.34100
H  47.61800 9.04000 46.96000
H  46.64400 10.03900 48.11500
H  41.58700 9.47900 45.87500
H  39.41100 9.80800 49.81400
H  38.24000 10.14700 48.52200
H  39.24700 11.43000 49.12600
Mg 27.80000 51.74500 26.01300
C  26.02700 52.70300 28.98100
C  30.35700 50.68800 28.35600
C  29.69400 50.89500 23.41500
C  25.35900 53.17800 24.04100
N  28.14700 51.73100 28.43600
C  27.23100 52.12700 29.35800
C  27.69000 51.95300 30.79800
C  29.15400 51.40400 30.57000
C  29.28200 51.22500 29.06400
C  30.30800 52.21300 31.27100
C  26.72600 51.10400 31.69800
C  26.36800 51.72100 33.09800
H  27.21500 51.25900 34.30900
N  29.73900 50.94000 25.88100
C  30.58700 50.48500 26.94200
C  31.67500 49.73800 26.37200
C  31.62400 49.91000 24.96600
C  30.30200 50.61200 24.72900
C  32.66200 49.08600 27.28100
C  32.70200 49.49100 23.99600
O  32.56400 49.72900 22.85400
C  33.96000 48.83900 24.45800
N  27.66400 52.10200 24.01700
C  28.47300 51.55400 23.10400
C  28.00000 51.83600 21.72600
C  26.58600 52.47600 21.82200
C  26.49400 52.53300 23.40100
C  28.99200 52.77000 21.01200
C  25.42400 51.68800 21.14500
C  25.14600 50.20800 21.51900
N  26.04700 52.78600 26.35800
C  25.20800 53.41700 25.45500
C  24.14000 54.05200 26.12500
C  24.33100 53.78300 27.48200
C  25.55200 52.99600 27.61900
C  23.00100 54.76800 25.49400
C  23.81000 53.92400 28.82900
O  22.87000 54.46700 29.33000
C  24.91300 53.15400 29.85600
C  25.25200 54.35700 30.76100
O  26.10100 55.20700 30.60000
O  24.58900 54.29400 31.88800
C  24.75200 55.31800 32.92300
H  31.24500 50.43600 28.93900
H  30.22600 50.54300 22.52900
H  24.65500 53.63500 23.34300
H  27.69500 52.95100 31.23600
H  29.17700 50.34800 30.83800
H  30.82600 52.69100 30.44000
H  30.90400 51.45200 31.77400
H  29.88300 52.98400 31.91400
H  27.10400 50.10800 31.92700
H  25.74800 50.99400 31.23000
H  25.33000 51.42600 33.25100
H  26.45400 52.80700 33.13200
H  32.17600 48.80000 28.21400
H  33.44600 49.84000 27.35700
H  33.02200 48.16900 26.81500
H  34.71000 48.92300 23.67100
H  33.80700 47.79600 24.73600
H  34.24100 49.56700 25.21900
H  28.08300 50.88100 21.20700
H  26.51700 53.51400 21.49600
H  28.51700 53.64600 20.57100
H  29.45500 52.27600 20.15800
H  29.75500 53.18800 21.66900
H  25.48600 51.73200 20.05800
H  24.44400 52.15800 21.23000
H  24.07600 50.06800 21.67700
H  25.76100 49.84300 22.34100
H  25.41100 49.50100 20.73200
H  23.34800 55.35300 24.64200
H  22.71300 55.43400 26.30700
H  22.27900 54.00400 25.20500
H  24.34400 52.44400 30.45600
H  23.82900 55.41400 33.49500
H  25.01600 56.27400 32.47100
H  25.45700 54.97800 33.68300

