158

Mg 47.29900 15.91800 29.07800
C  45.36100 15.27400 31.93900
C  49.50600 17.53200 31.04500
C  48.81000 16.90100 26.16900
C  44.64800 14.71000 27.08600
N  47.28200 16.38900 31.22100
C  46.52900 15.92800 32.26500
C  47.03700 16.38500 33.62200
C  48.16900 17.35500 33.22300
C  48.30900 17.04900 31.74900
C  48.00400 18.85300 33.42500
C  47.49700 15.20900 34.51800
C  48.18900 15.43400 35.90100
H  47.82600 16.64600 36.72900
N  48.94000 16.91800 28.71400
C  49.82100 17.44100 29.65300
C  51.03800 17.92400 28.98300
C  50.73200 17.91400 27.62900
C  49.41900 17.23600 27.42300
C  52.18800 18.49200 29.78400
C  51.63700 18.41000 26.51500
O  51.34800 18.25300 25.29500
C  52.90900 19.19200 26.84800
N  46.78800 15.82700 26.86300
C  47.57400 16.33000 25.89300
C  46.88100 16.09100 24.46400
C  45.54500 15.33900 24.85100
C  45.68900 15.24300 26.32200
C  46.73000 17.42900 23.66000
C  45.35300 13.98200 24.12500
C  46.31700 12.79700 24.36100
N  45.41300 15.08600 29.38900
C  44.43800 14.61700 28.53200
C  43.36300 14.03600 29.35400
C  43.65800 14.28800 30.73200
C  44.92500 14.91400 30.60300
C  42.29000 13.18600 28.69300
C  43.26900 14.05600 32.06900
O  42.29700 13.46500 32.57100
C  44.33100 14.73800 32.96400
C  43.56600 15.75200 33.76800
O  42.88200 16.65900 33.38800
O  43.88500 15.56700 35.12700
C  43.16300 16.47600 36.07700
H  50.15900 18.03400 31.76200
H  49.42600 17.27600 25.34900
H  43.77100 14.40700 26.51000
H  46.17100 16.80800 34.13100
H  49.05000 17.08800 33.80700
H  47.70800 19.12000 34.43900
H  47.24200 19.07800 32.67800
H  48.71600 19.65100 33.21200
H  48.22500 14.64500 33.93400
H  46.68000 14.52100 34.73300
H  49.26500 15.56400 35.78300
H  48.02500 14.58200 36.56100
H  52.42900 19.50200 29.45500
H  53.00900 17.83400 29.49800
H  52.08300 18.60200 30.86400
H  53.48800 18.45600 27.40600
H  52.66500 20.01300 27.52200
H  53.31000 19.56000 25.90300
H  47.48200 15.36300 23.92000
H  44.69400 15.92300 24.50200
H  47.10400 18.33300 24.14100
H  45.70800 17.70200 23.39700
H  47.33900 17.36900 22.75800
H  45.33200 14.28200 23.07700
H  44.40000 13.63100 24.52100
H  46.73700 12.39000 23.44100
H  45.89400 11.89500 24.80300
H  47.10400 13.20200 24.99900
H  41.30700 13.49400 29.04900
H  42.53000 12.12400 28.75600
H  42.28200 13.50200 27.65000
H  44.74200 14.03300 33.68700
H  42.55500 15.92800 36.79700
H  42.76100 17.41400 35.69500
H  44.02700 16.60500 36.73000
Mg -2.03000 35.48200 26.73600
C  -3.72400 33.72600 29.31700
C  -0.84900 37.66100 29.16900
C  -0.48000 37.03100 24.38200
C  -3.62400 33.22500 24.48100
N  -2.24200 35.66700 28.97100
C  -2.90500 34.79500 29.81100
C  -2.82800 35.19800 31.27200
C  -2.03100 36.53700 31.11100
C  -1.71300 36.67600 29.69300
C  -2.69000 37.75500 31.74000
C  -1.99600 34.18000 32.12700
C  -1.85500 34.54000 33.53800
H  -2.66500 33.64000 34.44900
N  -0.84700 37.17800 26.76400
C  -0.46500 37.96600 27.86300
C  0.40300 39.04100 27.37600
C  0.54100 38.86800 25.97000
C  -0.37400 37.64900 25.61000
C  1.07700 40.03000 28.26700
C  1.33500 39.57400 24.84900
O  1.47100 39.11300 23.74100
C  2.20800 40.78600 25.30800
N  -2.06700 35.19900 24.78300
C  -1.16100 35.85800 24.07600
C  -0.97000 35.15800 22.64200
C  -2.00300 33.95200 22.63200
C  -2.58700 34.09400 24.02500
C  -1.09400 36.21300 21.50500
C  -1.31500 32.54100 22.36100
C  -2.14000 31.59300 21.40200
N  -3.48800 33.90400 26.82300
C  -4.03200 33.11600 25.83800
C  -4.98900 32.20200 26.41600
C  -4.85100 32.42300 27.80700
C  -3.97000 33.41200 28.00300
C  -5.77900 31.17500 25.67900
C  -5.23000 31.91400 29.13600
O  -5.78900 30.87000 29.43800
C  -4.63300 32.87500 30.15500
C  -5.71200 33.67100 30.75400
O  -6.55700 34.17500 30.04900
O  -5.77300 33.54600 32.13000
C  -6.91600 34.20400 32.81200
H  -0.58000 38.38800 29.93700
H  0.05600 37.51600 23.56300
H  -3.94300 32.46200 23.76800
H  -3.82000 35.36000 31.69500
H  -1.05300 36.37900 31.56700
H  -3.72500 37.52200 31.98900
H  -2.64600 38.64700 31.11600
H  -2.31500 38.06800 32.71400
H  -0.98200 34.32200 31.75300
H  -2.47300 33.20100 32.10900
H  -2.08000 35.57800 33.78200
H  -0.80500 34.48300 33.82400
H  0.55200 40.98000 28.16800
H  2.09400 40.17500 27.90200
H  1.15200 39.82500 29.33400
H  2.42500 41.41100 24.44200
H  3.07200 40.40100 25.84900
H  1.63300 41.38600 26.01300
H  0.08300 34.88100 22.70300
H  -2.63600 34.21100 21.78400
H  -1.63500 37.09400 21.85200
H  -1.69400 35.84400 20.67400
H  -0.12200 36.51900 21.11700
H  -1.03500 32.08800 23.31200
H  -0.36000 32.73500 21.87300
H  -1.54700 31.10000 20.63100
H  -2.98100 32.12400 20.95600
H  -2.53100 30.79900 22.03700
H  -5.67300 31.32900 24.60500
H  -6.73900 31.19700 26.19400
H  -5.40400 30.18400 25.93800
H  -4.17500 32.23700 30.91100
H  -7.77800 34.15400 32.14700
H  -6.61100 35.22800 33.02800
H  -7.11000 33.63500 33.72200

