158

Mg 48.47100 34.97500 27.70500
C  46.42500 33.61700 30.10300
C  48.47900 37.94000 29.51000
C  50.27300 36.44600 25.23000
C  47.72000 32.21400 25.58500
N  47.69800 35.64300 29.69500
C  46.87200 34.88900 30.48900
C  46.68600 35.58200 31.82100
C  46.89800 37.07500 31.41000
C  47.73100 36.90100 30.09900
C  45.52900 37.84400 31.10800
C  47.54300 35.09900 33.03100
C  48.69000 35.97200 33.57200
H  48.33200 36.88800 34.71700
N  49.45900 36.86500 27.53600
C  49.32700 37.89100 28.37000
C  50.19100 39.04600 27.83000
C  50.81700 38.51200 26.65200
C  50.20600 37.20300 26.43800
C  50.17500 40.47700 28.25600
C  51.80100 39.18500 25.71000
O  52.27800 38.71900 24.65200
C  52.45800 40.44100 26.22300
N  48.92900 34.44300 25.68800
C  49.71500 35.21900 24.85600
C  49.96300 34.50900 23.45600
C  49.15200 33.15200 23.61400
C  48.54400 33.21200 25.06700
C  49.50800 35.45500 22.24300
C  49.89600 31.87000 23.36500
C  50.35200 31.55400 21.89200
N  47.41300 33.18000 27.75500
C  47.16500 32.16100 26.89100
C  46.28800 31.13300 27.46500
C  45.99800 31.66000 28.74300
C  46.68200 32.87500 28.86700
C  45.92700 29.84900 26.76500
C  45.33200 31.40700 29.98900
O  44.67300 30.42600 30.21500
C  45.51400 32.71200 30.89700
C  45.90900 32.27800 32.28500
O  46.91300 31.72300 32.64600
O  44.97600 32.75300 33.15200
C  45.12000 32.60500 34.58100
H  48.41400 38.93600 29.95300
H  50.85700 36.85900 24.40500
H  47.48400 31.42200 24.87000
H  45.64300 35.43900 32.10400
H  47.36800 37.74400 32.13100
H  44.57200 37.32200 31.07100
H  45.71100 38.24900 30.11300
H  45.43400 38.56100 31.92300
H  47.94600 34.09300 32.91500
H  46.92500 35.07400 33.92900
H  49.16000 36.52800 32.76000
H  49.44300 35.25900 33.90800
H  49.93900 41.14500 27.42800
H  51.06600 40.66000 28.85800
H  49.22500 40.57200 28.78000
H  52.84900 40.13300 27.19200
H  51.80600 41.31400 26.26600
H  53.29400 40.61300 25.54500
H  51.04800 34.43500 23.53200
H  48.26500 33.31500 23.00200
H  50.46200 35.84000 21.88400
H  48.94700 36.34300 22.53300
H  48.97100 34.92300 21.45800
H  49.32200 31.01800 23.72900
H  50.73700 32.09300 24.02200
H  49.96200 30.59200 21.55900
H  51.42800 31.52400 21.71900
H  50.04800 32.34500 21.20700
H  46.85900 29.38200 26.44500
H  45.36700 30.05000 25.85200
H  45.29000 29.18300 27.34600
H  44.53300 33.18600 30.86300
H  44.50000 31.81100 34.99800
H  44.77000 33.48700 35.11700
H  46.13700 32.38800 34.90800
Mg 10.20300 47.11700 26.04400
C  8.09000 47.33700 28.65300
C  12.74400 48.59300 27.85300
C  12.34200 47.10900 23.23700
C  7.57400 46.72400 23.87800
N  10.42300 47.77600 28.04000
C  9.46800 47.67400 29.00000
C  10.00200 48.19600 30.36500
C  11.27900 48.97200 29.86600
C  11.51000 48.44000 28.49300
C  10.90700 50.47800 29.67000
C  10.25000 47.13400 31.44300
C  9.81800 47.35600 32.91100
H  9.76400 46.01100 33.64500
N  12.26800 47.59900 25.66100
C  13.13500 48.04200 26.61700
C  14.47600 48.09400 26.06400
C  14.42500 47.63700 24.71900
C  12.97400 47.40800 24.48500
C  15.69100 48.41900 26.80000
C  15.55700 47.39900 23.68400
O  15.33700 47.10900 22.50900
C  16.97900 47.68700 24.08200
N  10.00200 46.86000 23.90200
C  10.98700 46.80200 23.01500
C  10.48900 46.42700 21.64000
C  8.94900 46.33600 21.78800
C  8.83200 46.61800 23.28100
C  10.91600 47.24500 20.41200
C  8.29200 44.97800 21.23300
C  6.82000 45.07000 20.82100
N  8.14800 46.96300 26.21800
C  7.17700 46.77500 25.23000
C  5.87000 46.70000 25.90100
C  6.14200 46.97100 27.22200
C  7.54700 47.09200 27.37300
C  4.56600 46.32200 25.31700
C  5.61500 46.99800 28.56900
O  4.48900 46.84600 28.92900
C  6.80400 47.25300 29.54000
C  6.92300 46.03800 30.39700
O  7.44000 44.97700 30.05200
O  6.43000 46.32600 31.66700
C  6.54800 45.26600 32.68400
H  13.48600 49.15900 28.42000
H  12.83400 47.17100 22.26500
H  6.61700 46.68400 23.35400
H  9.27700 48.90800 30.75900
H  12.16300 48.71700 30.45100
H  11.32400 51.06200 30.49000
H  9.83400 50.66800 29.64400
H  11.28900 50.83100 28.71100
H  11.32100 46.99600 31.59000
H  9.86000 46.20500 31.02700
H  8.82500 47.80600 32.92600
H  10.55000 47.97500 33.43000
H  15.51100 48.39400 27.87400
H  16.21000 49.33600 26.52000
H  16.42600 47.61700 26.72200
H  17.16900 47.00300 24.91000
H  17.05300 48.70800 24.45600
H  17.59100 47.51300 23.19700
H  10.84100 45.45600 21.29200
H  8.47800 47.17000 21.26800
H  11.07800 48.20000 20.91100
H  10.07800 47.21600 19.71500
H  11.82200 46.95600 19.87800
H  8.42900 44.27500 22.05400
H  8.86200 44.66600 20.35800
H  6.34300 44.36100 21.49800
H  6.51300 44.67700 19.85200
H  6.36400 46.05400 20.93500
H  4.75600 46.06400 24.27500
H  3.94400 47.19300 25.52000
H  4.25700 45.40900 25.82700
H  6.60000 48.19000 30.05900
H  6.89200 45.93300 33.47500
H  7.23800 44.43900 32.51400
H  5.60700 44.77500 32.93200

