158

Mg 48.99000 46.03000 43.27300
C  45.67500 47.26000 42.21400
C  48.38900 43.32400 41.25200
C  52.24700 45.61100 43.36300
C  49.43800 49.36500 44.63700
N  47.25800 45.48200 41.80200
C  46.01100 46.08900 41.58500
C  45.15900 45.22000 40.69900
C  45.99100 43.88700 40.60300
C  47.31300 44.30800 41.20600
C  45.37300 42.55700 41.16100
C  44.92100 45.91200 39.32000
C  43.39400 45.84600 38.95700
H  42.95500 45.61400 37.53000
N  50.18000 44.60200 42.51200
C  49.80500 43.47700 41.78400
C  50.90700 42.60800 41.63300
C  52.05100 43.25400 42.19400
C  51.56100 44.53400 42.70100
C  50.77000 41.34400 41.05100
C  53.53800 42.70000 42.20900
O  53.67600 41.58800 41.66200
C  54.70100 43.48100 42.73100
N  50.61300 47.29000 43.99600
C  51.87300 46.85000 43.98200
C  52.89300 47.84800 44.44000
C  51.94800 48.97800 44.94300
C  50.57800 48.60200 44.46900
C  54.04800 47.38900 45.39900
C  52.49000 50.36500 44.56100
C  52.54700 51.35600 45.69900
N  47.80100 47.93700 43.51400
C  48.13200 49.05400 44.24500
C  46.98600 49.95200 44.24000
C  46.06200 49.26100 43.54000
C  46.51700 47.98900 43.10800
C  46.91000 51.27700 44.88900
C  44.62700 49.26300 43.16500
O  43.74900 50.11600 43.44200
C  44.32400 47.91900 42.31000
C  43.44300 47.00600 43.04400
O  43.56700 46.58900 44.19100
O  42.29700 46.83600 42.27800
C  41.36000 45.90200 42.89000
H  48.27600 42.43200 40.63200
H  53.33100 45.47500 43.35600
H  49.58600 50.36400 45.05100
H  44.21800 45.10900 41.23900
H  46.28600 43.66800 39.57700
H  44.31400 42.57400 41.41900
H  45.94200 42.45600 42.08500
H  45.52700 41.69300 40.51400
H  45.52600 45.47100 38.52900
H  45.36800 46.90700 39.30000
H  42.97600 46.78600 39.31800
H  42.83800 45.11400 39.54200
H  51.25500 41.40300 40.07700
H  49.72600 41.03000 41.06000
H  51.29600 40.59500 41.64300
H  55.60200 42.86900 42.67500
H  54.52400 43.81800 43.75200
H  54.95500 44.39600 42.19500
H  53.33400 48.14900 43.49000
H  51.80300 49.02900 46.02200
H  53.96400 47.90200 46.35700
H  54.99700 47.68600 44.95200
H  54.06500 46.32700 45.64500
H  51.87100 50.91200 43.85100
H  53.39700 50.30800 43.95800
H  52.26200 50.91900 46.65600
H  51.74400 52.05500 45.46500
H  53.45300 51.95600 45.60200
H  47.70400 51.33500 45.63300
H  45.91400 51.41500 45.31200
H  47.12200 52.06600 44.16700
H  43.92900 48.28900 41.36300
H  40.52100 45.71400 42.22000
H  40.95700 46.26900 43.83400
H  41.76700 44.92800 43.15900
Mg 27.13600 50.28300 25.95200
C  25.20900 51.33300 28.84400
C  29.58600 49.23900 28.19700
C  29.16400 49.90100 23.36200
C  24.75200 51.95200 24.00100
N  27.30100 50.26400 28.29800
C  26.38900 50.71200 29.25200
C  26.88000 50.41300 30.68400
C  28.26500 49.79500 30.45200
C  28.41500 49.66700 28.91000
C  29.43500 50.61100 31.05900
C  25.92900 49.56200 31.50600
C  25.61500 50.11100 32.89100
H  26.66600 49.93400 33.98100
N  28.97300 49.48200 25.77600
C  29.82400 49.16600 26.84400
C  31.08100 48.74700 26.24900
C  30.99700 48.91200 24.81100
C  29.69200 49.43700 24.57900
C  32.20700 48.25700 27.11800
C  32.02700 48.57600 23.80000
O  31.74400 48.64800 22.56800
C  33.47100 48.12900 24.14700
N  27.02000 50.95400 24.03400
C  27.90600 50.46800 23.11500
C  27.38600 50.58700 21.69600
C  25.87800 51.03100 21.92000
C  25.85200 51.35000 23.40200
C  28.17100 51.58000 20.77900
C  24.74100 50.07900 21.46700
C  23.60000 50.76400 20.66400
N  25.28200 51.37000 26.30300
C  24.46000 52.04100 25.43000
C  23.30100 52.57800 26.09600
C  23.58400 52.29000 27.42300
C  24.78500 51.60300 27.49300
C  22.17900 53.20000 25.54200
C  23.02500 52.37700 28.82200
O  21.94600 52.83700 29.14600
C  24.08400 51.79500 29.85200
C  24.51900 52.82800 30.88200
O  25.44800 53.57600 30.81000
O  23.56100 52.84400 31.85900
C  23.76200 53.71200 33.07900
H  30.24300 48.77700 28.93700
H  29.80900 49.77000 22.49100
H  23.99300 52.37800 23.34200
H  27.04400 51.31200 31.27800
H  28.39400 48.82200 30.92700
H  29.14000 51.60300 31.40100
H  30.15600 50.69400 30.24500
H  29.88900 50.03600 31.86700
H  26.38100 48.57700 31.62600
H  24.96600 49.42300 31.01500
H  24.67900 49.63000 33.17600
H  25.25200 51.13600 32.82800
H  32.94700 49.04100 27.28100
H  32.64700 47.41000 26.59000
H  31.89400 48.01200 28.13300
H  33.91300 47.72800 23.23500
H  33.43100 47.17600 24.67400
H  33.92100 48.96600 24.68100
H  27.53700 49.69000 21.09600
H  25.83300 51.93500 21.31300
H  28.78800 52.22900 21.40100
H  27.60500 52.26600 20.15000
H  28.81700 50.95200 20.16600
H  24.33300 49.59100 22.35200
H  25.23300 49.30600 20.87600
H  22.64500 50.48300 21.10900
H  23.67200 50.35200 19.65700
H  23.72000 51.84700 20.67500
H  22.47800 54.06400 24.94900
H  21.44200 53.54300 26.26800
H  21.62400 52.50800 24.90800
H  23.66900 50.97100 30.43300
H  24.23200 54.62200 32.70500
H  24.55000 53.23500 33.66200
H  22.85300 53.83400 33.66800

