158

Mg -1.88400 17.66600 27.56100
C  -2.70300 15.34100 30.01900
C  -2.54600 20.17700 29.88000
C  -1.78500 19.90400 25.01600
C  -1.61600 15.05000 25.30200
N  -2.38000 17.70500 29.80800
C  -2.78700 16.63700 30.59300
C  -3.04500 17.09900 32.03800
C  -3.13800 18.64300 31.86500
C  -2.55400 18.88600 30.42500
C  -4.54900 19.20200 32.09100
C  -1.86600 16.60300 32.97800
C  -1.50500 17.39100 34.27100
H  -1.15400 16.63600 35.49000
N  -2.13100 19.72500 27.48200
C  -2.47500 20.55800 28.50100
C  -2.51400 21.94400 27.96700
C  -2.21000 21.89000 26.57000
C  -2.02500 20.46800 26.31000
C  -2.81800 23.17500 28.92300
C  -2.01700 22.97900 25.57500
O  -1.82600 22.78300 24.39800
C  -2.17400 24.34800 26.06600
N  -1.69700 17.49100 25.51400
C  -1.73700 18.55600 24.63800
C  -1.60300 18.11700 23.14800
C  -1.30600 16.57400 23.29100
C  -1.60100 16.37500 24.74700
C  -2.87300 18.46100 22.17700
C  0.17100 16.21400 22.91200
C  1.31500 16.94500 23.61400
N  -2.08300 15.58300 27.55200
C  -1.93100 14.61000 26.61000
C  -2.28900 13.26000 27.14800
C  -2.56800 13.59100 28.51100
C  -2.40600 14.97600 28.72200
C  -2.26700 11.97100 26.37200
C  -3.03200 13.04300 29.75300
O  -3.38400 11.91800 30.03500
C  -2.98400 14.07400 30.78800
C  -1.84800 13.56100 31.67500
O  -0.65500 13.85500 31.63200
O  -2.42900 12.68900 32.60300
C  -1.51300 12.35500 33.75400
H  -2.81300 21.02600 30.51200
H  -1.93600 20.52800 24.13300
H  -1.51800 14.31600 24.49900
H  -3.94800 16.66000 32.46100
H  -2.50400 19.15200 32.59000
H  -5.29600 18.43700 32.30500
H  -4.78300 19.69000 31.14500
H  -4.41500 19.92800 32.89300
H  -1.01700 16.44400 32.31400
H  -2.26800 15.69400 33.42600
H  -2.35800 18.05000 34.43500
H  -0.64700 18.01200 34.01500
H  -1.97500 23.86400 28.97600
H  -3.22300 22.96500 29.91300
H  -3.73500 23.53400 28.45600
H  -1.54900 24.60700 26.92000
H  -3.20000 24.65900 26.26200
H  -1.86900 25.00800 25.25300
H  -0.73500 18.64800 22.75900
H  -1.85000 15.92900 22.60200
H  -2.54200 19.06700 21.33200
H  -3.58100 19.07600 22.73200
H  -3.34100 17.52100 21.88600
H  0.31500 16.22900 21.83100
H  0.41100 15.19200 23.20800
H  1.89400 17.51400 22.88700
H  1.97800 16.26000 24.14300
H  1.07700 17.65100 24.41000
H  -1.54600 12.05800 25.55900
H  -3.28300 11.81200 26.01100
H  -1.94300 11.25600 27.12900
H  -3.89300 13.98400 31.38400
H  -1.79500 11.45700 34.30300
H  -1.63000 13.19100 34.44300
H  -0.47800 12.29400 33.42000
Mg -11.88800 38.57800 42.26000
C  -9.92000 35.84100 41.33000
C  -9.71900 40.57700 40.15900
C  -13.89000 41.16000 42.62600
C  -14.33900 36.43300 43.31500
N  -10.14500 38.23800 40.91100
C  -9.39900 36.98400 40.81900
C  -8.20800 37.15200 39.82700
C  -8.15800 38.71500 39.53900
C  -9.40300 39.22600 40.25500
C  -6.91000 39.57900 39.92300
C  -8.20000 36.17100 38.52200
C  -6.94600 35.27500 38.32200
H  -6.16000 35.22200 37.08100
N  -11.72400 40.68000 41.63200
C  -10.70300 41.28000 40.82800
C  -11.03000 42.70200 40.80100
C  -12.27800 42.93700 41.46200
C  -12.70700 41.57700 42.00200
C  -10.22900 43.67800 40.09600
C  -12.89700 44.36400 41.65000
O  -12.47900 45.39800 41.01600
C  -14.08600 44.57000 42.53200
N  -13.85100 38.79600 42.79500
C  -14.48300 39.94000 42.90900
C  -15.94300 39.80100 43.39900
C  -16.14000 38.30000 43.40200
C  -14.67600 37.79500 43.20300
C  -16.28300 40.59300 44.61200
C  -17.03000 37.85800 42.09500
C  -17.89000 36.69700 42.19200
N  -12.07800 36.52800 42.48900
C  -13.02800 35.76200 43.08700
C  -12.62200 34.43300 43.24500
C  -11.36500 34.35300 42.55700
C  -11.07100 35.68500 42.12400
C  -13.47500 33.34800 43.87000
C  -10.26100 33.49800 42.09500
O  -10.07500 32.28600 42.29600
C  -9.25300 34.40800 41.37300
C  -7.89000 34.27300 42.05200
O  -7.30700 33.21400 42.19500
O  -7.36200 35.45400 42.44200
C  -6.06000 35.55500 43.14600
H  -9.08400 41.24400 39.57200
H  -14.65300 41.93100 42.75500
H  -15.14200 35.82000 43.73000
H  -7.26600 36.92500 40.32600
H  -8.35200 38.91800 38.48600
H  -6.15100 38.89700 40.30600
H  -7.06000 40.36000 40.66900
H  -6.50900 40.03900 39.01900
H  -8.47200 36.79700 37.67200
H  -8.99600 35.44300 38.67800
H  -7.12200 34.28400 38.74000
H  -6.13600 35.67200 38.93500
H  -9.21400 43.31800 39.92600
H  -10.12600 44.49700 40.80700
H  -10.71000 44.02600 39.18200
H  -13.89900 44.20800 43.54300
H  -14.97200 44.06500 42.14900
H  -14.25500 45.63800 42.66900
H  -16.50600 40.28900 42.60300
H  -16.63200 37.97000 44.31700
H  -17.20000 41.17900 44.55000
H  -15.48000 41.32100 44.73400
H  -16.39600 40.06000 45.55600
H  -16.32100 37.63100 41.29900
H  -17.66000 38.68100 41.75800
H  -17.77200 36.04600 41.32600
H  -18.92800 37.01200 42.29800
H  -17.70600 36.16600 43.12700
H  -13.26600 33.50000 44.92900
H  -13.16900 32.31000 43.74000
H  -14.52600 33.56900 43.68200
H  -9.13500 33.93700 40.39800
H  -5.41600 36.28500 42.65600
H  -5.50900 34.63200 43.32900
H  -6.14700 36.10600 44.08200

