158

Mg 8.42200 3.63500 26.77200
C  9.86000 2.08900 29.70600
C  6.29800 5.30800 28.85500
C  7.16400 5.01600 24.16900
C  10.31800 1.32500 24.80800
N  8.08900 3.61700 29.03600
C  8.90400 3.04300 29.97000
C  8.54500 3.68100 31.35800
C  7.48900 4.72800 31.02200
C  7.28300 4.54200 29.54000
C  6.18100 4.72600 31.90400
C  9.78900 4.32800 32.12200
C  9.56300 4.76100 33.62900
H  10.53700 4.19400 34.74900
N  6.87100 4.86400 26.50300
C  6.14000 5.46500 27.47000
C  5.20400 6.41300 26.87000
C  5.47200 6.38700 25.47900
C  6.49600 5.40400 25.30500
C  4.17400 7.21900 27.68100
C  4.80500 7.16600 24.30600
O  5.18300 7.19300 23.13800
C  3.59100 8.11700 24.58500
N  8.62900 3.14500 24.74300
C  8.10800 4.04300 23.84400
C  8.77000 3.89100 22.49500
C  9.78300 2.68700 22.73800
C  9.60100 2.34700 24.21500
C  7.81900 3.57300 21.33400
C  11.21300 2.96400 22.28400
C  12.15100 3.74800 23.24100
N  9.66400 1.85700 27.09900
C  10.32000 1.01300 26.24200
C  11.20100 0.12900 26.94400
C  11.02200 0.49900 28.32700
C  10.12300 1.61800 28.39300
C  12.13000 -0.81300 26.34300
C  11.54400 0.32700 29.67200
O  12.39500 -0.41600 30.16100
C  10.82000 1.35400 30.61000
C  10.15900 0.56500 31.72900
O  9.21200 -0.18100 31.61300
O  10.90600 0.77000 32.85200
C  10.44000 0.38400 34.21600
H  5.77900 5.93900 29.57800
H  6.85100 5.57200 23.28300
H  11.00500 0.88300 24.08300
H  8.05600 2.92600 31.97300
H  7.92700 5.72100 31.12400
H  6.08500 5.71800 32.34400
H  6.28700 3.92400 32.63500
H  5.26300 4.60500 31.32800
H  9.95900 5.21700 31.51300
H  10.68300 3.70500 32.10200
H  8.51000 4.53400 33.79600
H  9.63800 5.84400 33.72400
H  4.54100 8.23600 27.81400
H  4.10500 6.82900 28.69700
H  3.20400 7.19400 27.18400
H  2.65300 7.60600 24.80500
H  3.46100 8.76600 23.71900
H  3.85200 8.72400 25.45200
H  9.21200 4.86000 22.26000
H  9.38900 1.80700 22.23100
H  6.78600 3.41900 21.64700
H  8.09400 2.66300 20.80200
H  7.83700 4.35500 20.57500
H  11.12800 3.56900 21.38100
H  11.72500 2.04600 21.99500
H  12.41100 4.66900 22.71900
H  13.05100 3.14200 23.35200
H  11.66600 4.03100 24.17500
H  12.88100 -1.09500 27.08100
H  12.50600 -0.31900 25.44700
H  11.53900 -1.67800 26.04200
H  11.58500 1.97600 31.07500
H  10.26600 1.21900 34.89600
H  11.27100 -0.24900 34.52600
H  9.51400 -0.19100 34.20000
Mg -12.55500 15.90800 41.79500
C  -9.30200 14.52100 41.56300
C  -11.20100 18.85400 40.45900
C  -15.70000 16.99500 41.46300
C  -13.78700 12.68200 42.63500
N  -10.53600 16.48200 40.89000
C  -9.35500 15.79500 40.99700
C  -8.23800 16.58400 40.30500
C  -8.71600 18.02500 40.23600
C  -10.25000 17.81800 40.61400
C  -8.01800 18.98500 41.26800
C  -7.83300 16.06600 38.95700
C  -6.47000 15.38000 38.69900
H  -5.62000 15.94800 37.57300
N  -13.33300 17.66400 41.08400
C  -12.62300 18.76800 40.58500
C  -13.58100 19.82400 40.23100
C  -14.87000 19.34600 40.66900
C  -14.68300 17.95200 41.11100
C  -13.10200 21.10000 39.66200
C  -16.07500 20.27400 40.68600
O  -15.97800 21.45500 40.35600
C  -17.38400 19.88600 41.18100
N  -14.47100 15.02500 42.01800
C  -15.60000 15.63600 41.84700
C  -16.81500 14.73400 42.05400
C  -16.18700 13.37300 42.37200
C  -14.73100 13.69400 42.22300
C  -17.91000 15.24700 43.05300
C  -16.53200 12.14600 41.39400
C  -18.05600 11.66000 41.75300
N  -11.71800 13.99200 42.21100
C  -12.34200 12.78500 42.59300
C  -11.28000 11.72100 42.76500
C  -10.14900 12.36000 42.40500
C  -10.41200 13.72700 42.06100
C  -11.37700 10.27900 43.15200
C  -8.69500 12.16200 42.18800
O  -8.02300 11.15700 42.33800
C  -8.14600 13.54500 41.61300
C  -7.21600 13.99500 42.62100
O  -7.45900 14.49100 43.68200
O  -5.93300 13.79600 42.12100
C  -4.81000 14.31300 42.85500
H  -10.84000 19.84700 40.18300
H  -16.71600 17.32700 41.23900
H  -14.13900 11.68200 42.89900
H  -7.39400 16.53500 40.99200
H  -8.66800 18.55700 39.28600
H  -7.16500 18.40900 41.62800
H  -8.79200 19.12600 42.02200
H  -7.76700 20.01200 41.00500
H  -8.01400 16.83800 38.20900
H  -8.60700 15.33200 38.73400
H  -6.63100 14.31000 38.82300
H  -5.88000 15.57900 39.59400
H  -12.84900 21.80700 40.45300
H  -13.77700 21.56500 38.94300
H  -12.17300 20.99800 39.10200
H  -17.72800 19.05000 40.57300
H  -18.02500 20.76500 41.24700
H  -17.19200 19.55300 42.20100
H  -17.36300 14.66900 41.11400
H  -16.49000 13.07400 43.37500
H  -17.40700 16.10300 43.50200
H  -17.94000 14.43700 43.78200
H  -18.89500 15.40900 42.61400
H  -15.84200 11.33800 41.63700
H  -16.39300 12.26000 40.31900
H  -17.88000 10.64700 42.11400
H  -18.71900 11.70000 40.89000
H  -18.53500 12.24800 42.53600
H  -10.60200 9.79400 42.55900
H  -12.34700 9.79600 43.03100
H  -11.05700 10.27200 44.19400
H  -7.75200 13.27100 40.63400
H  -4.05300 13.65000 42.43700
H  -4.66600 14.13500 43.92100
H  -4.61200 15.36400 42.64000

