158

Mg 1.88800 -1.50600 43.21700
C  5.36600 -1.09300 42.83300
C  1.40100 1.37000 41.25900
C  -1.38600 -2.26500 42.90400
C  2.48200 -4.72700 44.54400
N  3.14000 -0.10100 42.14100
C  4.54000 -0.07800 42.18800
C  5.16200 1.05100 41.45700
C  3.85000 2.08600 41.33900
C  2.70700 1.05900 41.61800
C  3.86700 3.31300 42.29900
C  5.77200 0.71400 40.03200
C  6.69100 1.83800 39.50900
H  6.29400 2.51700 38.17500
N  0.24300 -0.56400 42.32900
C  0.25400 0.58000 41.50200
C  -1.13800 0.83700 41.07800
C  -1.96800 -0.14800 41.61600
C  -1.06200 -1.02800 42.39300
C  -1.60000 1.93400 40.20400
C  -3.46600 -0.19900 41.42300
O  -4.10000 0.65100 40.78800
C  -4.33200 -1.25700 42.08300
N  0.74500 -3.31200 43.61100
C  -0.60000 -3.24800 43.58000
C  -1.23500 -4.54300 43.94100
C  -0.02000 -5.36400 44.52100
C  1.16900 -4.45300 44.11700
C  -2.43900 -4.51300 44.99400
C  0.10300 -6.80600 43.91200
C  0.36100 -7.93200 44.91200
N  3.53500 -2.61800 43.80600
C  3.66800 -3.87600 44.36100
C  5.04200 -4.16600 44.60400
C  5.79500 -3.18100 44.01300
C  4.85200 -2.20100 43.54500
C  5.44100 -5.44400 45.27200
C  7.06200 -2.62400 43.62400
O  8.18400 -3.09100 43.81600
C  6.86100 -1.35900 42.85600
C  7.52300 -0.22200 43.43900
O  7.21900 0.44000 44.42800
O  8.68500 -0.00600 42.70900
C  9.13700 1.35400 42.81200
H  1.32200 2.27900 40.65900
H  -2.42100 -2.61400 42.93100
H  2.57500 -5.73300 44.95800
H  5.91000 1.54200 42.08100
H  3.81700 2.33900 40.27900
H  2.88900 3.49700 42.74400
H  4.04000 4.14700 41.61900
H  4.62300 3.17300 43.07200
H  4.96000 0.61400 39.31100
H  6.25000 -0.26500 40.02200
H  7.70000 1.42400 39.51800
H  6.69400 2.57400 40.31300
H  -0.78600 2.65100 40.10400
H  -2.38400 2.53900 40.65800
H  -1.91200 1.60500 39.21300
H  -5.38800 -1.17900 41.82800
H  -4.09200 -1.15600 43.14200
H  -3.92100 -2.19800 41.71800
H  -1.48900 -5.15200 43.07300
H  -0.08500 -5.32100 45.60800
H  -3.40400 -4.71900 44.53100
H  -2.41300 -3.53300 45.46900
H  -2.29900 -5.37800 45.64200
H  1.05200 -6.83700 43.37600
H  -0.80200 -6.99000 43.33300
H  1.30200 -8.44200 44.70400
H  -0.48000 -8.61500 44.79200
H  0.23300 -7.51700 45.91200
H  6.53000 -5.40400 45.25600
H  5.26900 -6.32200 44.65000
H  5.17400 -5.65300 46.30800
H  7.07200 -1.51900 41.79900
H  10.10100 1.39300 42.30500
H  9.23800 1.70100 43.84100
H  8.43200 2.10700 42.45800
Mg 9.41800 3.96800 28.04100
C  10.17800 2.16600 30.83200
C  7.44500 6.03400 29.75500
C  7.87600 5.14800 25.02200
C  10.91700 1.41800 25.95300
N  8.65500 3.85500 30.06800
C  9.41500 3.26700 31.07500
C  9.14000 3.93400 32.42800
C  8.18300 5.04700 32.01300
C  8.20300 5.04700 30.46000
C  6.80600 5.12000 32.73600
C  10.42100 4.30900 33.16100
C  10.55900 3.71000 34.61600
H  10.71600 4.67500 35.80800
N  7.97200 5.40500 27.50000
C  7.31100 6.14700 28.35800
C  6.33500 6.97300 27.66300
C  6.39200 6.71100 26.32700
C  7.50600 5.73400 26.22200
C  5.19700 7.71300 28.44200
C  5.56100 7.26200 25.12100
O  5.83700 7.04800 23.95300
C  4.38500 8.12800 25.41300
N  9.37500 3.36500 25.86800
C  8.71000 4.01100 24.91700
C  8.94700 3.36700 23.52600
C  10.25600 2.50500 23.77200
C  10.22500 2.38300 25.28900
C  7.73300 2.59800 22.96600
C  11.54100 3.15400 23.23700
C  12.47900 2.10600 22.60500
N  10.46400 2.26200 28.32400
C  11.03600 1.33700 27.41400
C  11.71600 0.31200 28.19800
C  11.46900 0.66200 29.58200
C  10.63400 1.76500 29.56100
C  12.60100 -0.72900 27.60000
C  11.75700 0.34800 31.01300
O  12.52600 -0.53200 31.42600
C  10.99400 1.39700 31.82800
C  10.14700 0.65300 32.83600
O  8.92600 0.43900 32.64400
O  10.80400 0.31500 33.96600
C  9.88300 -0.13600 35.04000
H  7.06000 6.88000 30.32900
H  7.36700 5.51700 24.12900
H  11.47600 0.68800 25.36300
H  8.53400 3.22400 32.99100
H  8.63200 5.99400 32.31100
H  6.07600 4.66100 32.06900
H  6.53800 6.13400 33.03200
H  6.78600 4.47400 33.61300
H  10.49700 5.39000 33.28200
H  11.28800 4.11200 32.52900
H  11.49100 3.15100 34.53200
H  9.71500 3.03300 34.74600
H  5.33400 8.79200 28.50400
H  5.19000 7.34900 29.47000
H  4.24700 7.52200 27.94300
H  4.79400 9.04700 25.83400
H  3.70200 7.53000 26.01600
H  3.82800 8.30700 24.49300
H  9.10400 4.13100 22.76400
H  10.09600 1.51300 23.35200
H  7.20500 2.26000 23.85800
H  7.90300 1.72600 22.33400
H  7.12100 3.35900 22.48100
H  12.00100 3.74500 24.02900
H  11.35200 3.83000 22.40300
H  12.42500 2.31500 21.53700
H  12.16100 1.09800 22.87300
H  13.47600 2.21000 23.03400
H  13.18500 -1.32800 28.29900
H  13.27100 -0.30500 26.85300
H  11.99700 -1.36400 26.95200
H  11.77100 2.00900 32.28700
H  9.13800 -0.89300 34.79900
H  9.38000 0.75000 35.42700
H  10.45100 -0.43800 35.92000

