158

Mg 25.72300 0.09300 29.29900
C  27.47600 -0.20300 32.33700
C  22.91600 0.46300 31.02000
C  24.21800 0.35300 26.38000
C  28.65700 -0.85600 27.67000
N  25.35500 0.26900 31.44800
C  26.17400 0.15500 32.53800
C  25.44200 0.49200 33.81900
C  23.90200 0.63200 33.38300
C  24.06000 0.41100 31.87000
C  22.84800 -0.31600 34.15600
C  25.94800 1.82600 34.43300
C  27.03600 1.79300 35.52500
H  26.88800 2.53100 36.73400
N  23.81200 0.36500 28.79300
C  22.81900 0.69200 29.62700
C  21.59700 0.91200 28.87300
C  21.95600 0.81000 27.52100
C  23.41700 0.59100 27.51900
C  20.24400 0.87100 29.54900
C  20.99500 0.85700 26.28200
O  21.32300 0.79100 25.11000
C  19.51400 1.08800 26.43900
N  26.31700 -0.30100 27.37100
C  25.55200 0.02700 26.29400
C  26.20900 -0.24600 24.94900
C  27.66500 -0.58300 25.40800
C  27.54100 -0.65700 26.89200
C  25.59300 -1.40900 24.02400
C  28.75600 0.36700 24.81300
C  28.88600 1.68200 25.58900
N  27.73700 -0.50900 29.82700
C  28.80100 -0.77700 29.10800
C  29.98500 -1.02600 29.87100
C  29.55100 -0.86100 31.20600
C  28.16600 -0.51600 31.11800
C  31.38300 -1.34500 29.39800
C  29.85800 -0.96100 32.59800
O  30.89200 -1.33300 33.11600
C  28.58100 -0.48400 33.33800
C  28.22000 -1.52300 34.33700
O  27.36800 -2.44400 34.16500
O  28.88900 -1.35300 35.51600
C  28.51900 -2.40800 36.52600
H  21.92700 0.50000 31.48200
H  23.76000 0.37700 25.38900
H  29.49600 -1.11400 27.02000
H  25.48000 -0.35200 34.50800
H  23.54300 1.65900 33.44300
H  22.01500 0.34200 34.40500
H  23.13800 -0.63500 35.15700
H  22.44600 -1.11700 33.53500
H  25.14200 2.39500 34.89700
H  26.19500 2.49200 33.60600
H  27.96300 2.05600 35.01500
H  27.30200 0.75000 35.69600
H  20.30100 1.55600 30.39500
H  20.14100 -0.10600 30.02200
H  19.31400 1.12900 29.04300
H  18.92300 1.02800 25.52500
H  19.38700 2.15000 26.65100
H  19.14000 0.46100 27.24800
H  26.13800 0.66100 24.34800
H  28.02200 -1.58400 25.16400
H  26.13800 -2.30700 24.31500
H  25.66500 -1.22600 22.95200
H  24.55500 -1.41900 24.35800
H  28.52500 0.57700 23.76900
H  29.70400 -0.17100 24.81100
H  28.41300 1.64100 26.57000
H  28.47100 2.50000 25.00000
H  29.93200 1.97000 25.69700
H  31.55100 -0.82000 28.45800
H  31.41000 -2.42200 29.23700
H  32.03400 -0.93000 30.16700
H  28.83400 0.38400 33.94700
H  29.15100 -2.17300 37.38300
H  28.86200 -3.40000 36.23200
H  27.48900 -2.45200 36.88000
Mg -11.90400 16.58300 42.86600
C  -8.48000 17.07000 42.90800
C  -12.40400 19.71100 41.95700
C  -15.22300 15.88200 42.69700
C  -11.24900 13.07600 43.26400
N  -10.58900 18.12800 42.47800
C  -9.23800 18.20800 42.65400
C  -8.70300 19.49400 42.08200
C  -9.96500 20.43500 41.97000
C  -11.08400 19.43200 42.23100
C  -9.92000 21.57800 42.97600
C  -7.99500 19.45400 40.65600
C  -6.75200 20.28700 40.40700
H  -5.53300 19.74800 39.71500
N  -13.57700 17.59600 42.24100
C  -13.54200 18.88900 41.90000
C  -14.90300 19.37200 41.65000
C  -15.78800 18.29800 41.95500
C  -14.86000 17.15800 42.31200
C  -15.26200 20.87700 41.31800
C  -17.32000 18.34500 41.93900
O  -17.83300 19.42500 41.77200
C  -18.17600 17.16600 42.16400
N  -13.11100 14.69200 42.60100
C  -14.47800 14.73400 42.81200
C  -14.91200 13.40400 43.33100
C  -13.67600 12.53800 43.42400
C  -12.64200 13.48400 43.11400
C  -15.87700 13.46800 44.58200
C  -13.51700 11.42200 42.32600
C  -13.02200 10.08300 42.84300
N  -10.21800 15.31800 43.11400
C  -10.10300 13.89600 43.18200
C  -8.74400 13.50100 43.36800
C  -8.00300 14.74700 43.26100
C  -8.97700 15.72400 43.07500
C  -8.23400 12.03800 43.44400
C  -6.74100 15.37900 43.21600
O  -5.60900 14.87700 43.29200
C  -7.01700 16.93800 43.06000
C  -6.45500 17.65800 44.27500
O  -6.98100 17.87400 45.33200
O  -5.18600 18.10100 44.02200
C  -4.46400 18.57800 45.22900
H  -12.55200 20.78600 41.83100
H  -16.28300 15.62100 42.72600
H  -11.10100 12.05100 43.61000
H  -7.95700 19.86500 42.78500
H  -10.25700 20.82200 40.99400
H  -8.90600 21.77000 43.32500
H  -10.39500 21.16900 43.86800
H  -10.45800 22.45800 42.62400
H  -8.69800 19.84200 39.91900
H  -7.74000 18.41100 40.46400
H  -6.40800 20.45900 41.42600
H  -7.10500 21.26100 40.06700
H  -15.46900 21.16100 40.28600
H  -14.56100 21.55200 41.80900
H  -16.13700 21.19400 41.88500
H  -19.21200 17.18400 41.82400
H  -18.18100 16.99000 43.23900
H  -17.77100 16.27400 41.68500
H  -15.42600 13.01600 42.45100
H  -13.57500 12.23200 44.46500
H  -15.88600 14.39000 45.16300
H  -15.75800 12.69800 45.34400
H  -16.89400 13.37300 44.20200
H  -12.77000 11.64900 41.56500
H  -14.42800 11.24800 41.75300
H  -13.77600 9.44000 42.38800
H  -13.30000 10.12700 43.89700
H  -11.99200 9.82100 42.60400
H  -7.33200 12.07600 44.05600
H  -7.88800 11.68300 42.47400
H  -8.92500 11.30000 43.84900
H  -6.33600 17.44200 42.37500
H  -4.82900 19.52800 45.61900
H  -3.39000 18.71800 45.10300
H  -4.53800 17.81800 46.00600

