158

Mg 25.14400 51.73100 25.66000
C  23.50400 52.63200 28.56400
C  28.11400 51.79200 27.65500
C  27.26000 51.60800 22.78200
C  22.72400 52.74200 23.77000
N  25.66700 52.08300 27.92600
C  24.77700 52.34400 28.89500
C  25.42700 52.29100 30.27500
C  26.99900 52.15800 29.97600
C  26.91700 51.98200 28.44400
C  27.95700 53.32600 30.43400
C  24.82400 51.20000 31.21000
C  24.34900 51.64500 32.62300
H  25.32000 52.20500 33.59000
N  27.30500 51.59500 25.32000
C  28.32300 51.68900 26.26800
C  29.63100 51.59600 25.67400
C  29.45700 51.63400 24.27500
C  27.94400 51.58400 24.09000
C  30.96500 51.57700 26.41600
C  30.43000 51.68900 23.15000
O  30.06600 51.95800 22.01000
C  31.90500 51.51000 23.50200
N  25.03500 52.03000 23.55400
C  25.93600 51.75200 22.55700
C  25.24700 51.76100 21.19600
C  23.77600 52.08300 21.50300
C  23.79500 52.27100 23.06600
C  25.82700 52.70900 20.15100
C  22.91000 50.91300 20.89100
C  21.65900 51.30100 20.07600
N  23.46900 52.44200 26.00900
C  22.46700 52.76400 25.13800
C  21.34800 53.19500 25.80000
C  21.62400 53.07200 27.17500
C  22.96200 52.63200 27.26600
C  20.15700 53.72300 25.15600
C  21.10400 53.25600 28.56800
O  19.99400 53.55600 29.02900
C  22.32200 52.89300 29.44100
C  22.43300 54.08500 30.27700
O  23.02300 55.10200 29.99600
O  21.75200 53.90800 31.47400
C  21.91600 54.90300 32.56200
H  28.99800 51.89300 28.28700
H  27.80800 51.66500 21.83900
H  21.79600 52.94500 23.23000
H  25.31500 53.27200 30.73700
H  27.36700 51.25500 30.46400
H  27.48100 53.96400 31.17900
H  28.30800 53.93700 29.60200
H  28.77000 52.92000 31.03600
H  25.55900 50.41400 31.38400
H  23.93100 50.82200 30.71200
H  23.90100 50.74100 33.03500
H  23.56400 52.37400 32.42300
H  30.88500 51.24200 27.45100
H  31.37400 52.58500 26.48200
H  31.78600 50.95200 26.06400
H  32.51600 51.42500 22.60300
H  32.05200 50.49000 23.85800
H  32.25700 52.27700 24.19100
H  25.40900 50.72500 20.89900
H  23.49300 53.04000 21.06600
H  26.67000 53.29500 20.51700
H  25.04300 53.34800 19.74600
H  26.06600 52.05300 19.31400
H  22.48900 50.41600 21.76600
H  23.51900 50.22500 20.30400
H  20.73800 51.02400 20.58900
H  21.68700 50.73700 19.14400
H  21.78700 52.34600 19.79300
H  20.37300 54.65900 24.64100
H  19.33800 54.07900 25.78000
H  19.87200 53.06700 24.33300
H  22.11000 52.00100 30.03100
H  22.28200 55.84800 32.16100
H  22.66100 54.57100 33.28600
H  20.97200 55.09100 33.07300
Mg 6.45900 56.30900 41.47500
C  5.45800 52.90200 41.79900
C  9.54600 54.95600 40.40900
C  7.53900 59.38700 40.88400
C  3.31100 57.36200 41.94800
N  7.34600 54.10800 41.03700
C  6.72300 52.92600 41.11700
C  7.56000 51.81600 40.61200
C  8.95900 52.44200 40.66600
C  8.60900 53.91400 40.64700
C  9.76000 52.07200 42.02200
C  7.18600 51.32800 39.24100
C  7.72600 49.97000 38.80400
H  8.52500 50.02300 37.52300
N  8.30600 57.08700 40.79900
C  9.44400 56.35400 40.47900
C  10.52500 57.30100 40.25100
C  9.95200 58.64600 40.34800
C  8.58100 58.44700 40.71700
C  11.92200 56.90200 39.76500
C  10.70800 59.91900 40.27300
O  11.86100 59.90200 40.06500
C  9.99200 61.23300 40.38900
N  5.54100 58.14300 41.38000
C  6.15100 59.27800 41.17000
C  5.17400 60.47200 41.29800
C  3.80100 59.88300 41.73700
C  4.23200 58.37500 41.68300
C  5.57100 61.61800 42.30500
C  2.54800 60.33500 40.95500
C  1.60700 61.19900 41.87800
N  4.70500 55.39800 41.80100
C  3.51200 55.96000 42.12900
C  2.65700 54.97100 42.62100
C  3.40500 53.70100 42.56000
C  4.66400 54.04000 42.10200
C  1.32000 55.22300 43.08600
C  3.38300 52.29600 42.75100
O  2.51900 51.56300 43.12900
C  4.79800 51.75300 42.41700
C  4.64000 50.66100 41.38000
O  3.98500 50.79100 40.37900
O  5.14600 49.45300 41.85100
C  4.80400 48.21600 41.12700
H  10.56900 54.60800 40.25400
H  7.75800 60.44200 40.70800
H  2.31000 57.68300 42.24400
H  7.48900 50.94700 41.26600
H  9.54500 52.24900 39.76800
H  10.70600 51.61300 41.73400
H  9.25800 51.29300 42.59600
H  9.97800 52.94300 42.63900
H  7.44200 52.12000 38.53900
H  6.09700 51.32100 39.29600
H  6.94100 49.23600 38.62000
H  8.39900 49.53500 39.54300
H  11.78700 56.48900 38.76500
H  12.31500 56.12900 40.42600
H  12.63400 57.72600 39.73100
H  9.53900 61.27500 41.37900
H  9.24200 61.23600 39.59900
H  10.60100 62.13600 40.34900
H  5.11800 60.87900 40.28800
H  3.72800 60.13700 42.79500
H  5.05900 61.55300 43.26500
H  5.10000 62.53700 41.95500
H  6.65800 61.66700 42.37200
H  1.95700 59.61100 40.39400
H  2.94600 60.91100 40.12000
H  0.60500 60.81000 42.06300
H  1.61200 62.12600 41.30500
H  2.11200 61.51800 42.78900
H  1.14600 55.91200 43.91200
H  0.89200 54.24000 43.28700
H  0.76300 55.61000 42.23300
H  5.28900 51.42700 43.33400
H  3.72600 48.05600 41.10300
H  5.30600 47.33100 41.51800
H  4.98800 48.41200 40.07100

