158

Mg -10.33800 38.39800 40.95400
C  -8.45200 35.41900 40.70900
C  -8.05600 40.13800 39.18200
C  -12.58600 40.87000 40.62800
C  -12.93000 36.34000 42.42400
N  -8.66600 37.70600 39.78700
C  -7.95300 36.51800 39.96700
C  -6.61000 36.53300 39.34000
C  -6.54900 38.05100 38.82700
C  -7.86100 38.71400 39.27000
C  -5.18400 38.75500 39.27100
C  -6.38700 35.58000 38.16200
C  -4.95800 35.10200 38.21000
H  -3.95200 35.53900 37.10000
N  -10.26000 40.34800 40.13200
C  -9.19100 40.93300 39.47800
C  -9.49200 42.29600 39.15000
C  -10.86300 42.49400 39.52100
C  -11.25700 41.20500 40.15900
C  -8.59900 43.15800 38.36700
C  -11.65000 43.77800 39.26100
O  -11.20000 44.65600 38.51000
C  -13.07800 43.98300 39.78900
N  -12.46300 38.48600 41.38200
C  -13.17400 39.67100 41.13700
C  -14.71600 39.49400 41.38100
C  -14.77200 37.97600 41.83700
C  -13.27200 37.56000 41.94100
C  -15.24400 40.47500 42.46500
C  -15.57500 36.93600 40.92200
C  -16.91600 36.35800 41.58000
N  -10.64500 36.32300 41.49400
C  -11.72600 35.67700 42.09500
C  -11.31600 34.28200 42.36700
C  -9.98900 34.21200 41.92800
C  -9.64000 35.41600 41.34100
C  -12.12700 33.25200 43.05600
C  -8.87300 33.30100 41.86500
O  -8.85800 32.16700 42.31700
C  -7.78500 34.02600 41.05500
C  -6.53100 34.14600 41.88000
O  -5.74800 33.24500 42.12400
O  -6.30800 35.43100 42.31000
C  -5.16500 35.80700 43.14400
H  -7.25000 40.77800 38.81800
H  -13.31200 41.67800 40.51500
H  -13.73300 35.79400 42.92300
H  -5.82200 36.42800 40.08600
H  -6.64300 38.12200 37.74300
H  -4.38300 38.01800 39.21700
H  -5.23700 39.11700 40.29800
H  -5.03800 39.62600 38.63200
H  -6.71200 36.13400 37.28100
H  -7.02000 34.69400 38.21700
H  -5.07100 34.02300 38.10600
H  -4.42500 35.30200 39.14000
H  -7.75100 42.67100 37.88600
H  -8.21000 44.01600 38.91400
H  -9.18200 43.61100 37.56500
H  -13.02600 43.72400 40.84600
H  -13.62100 43.24500 39.19900
H  -13.36200 45.00600 39.54000
H  -15.17600 39.47300 40.39300
H  -15.16800 37.94400 42.85200
H  -14.39000 40.95600 42.94100
H  -15.84600 39.93900 43.19900
H  -15.88700 41.18900 41.95000
H  -14.92500 36.10500 40.64900
H  -15.81100 37.33700 39.93700
H  -17.66800 37.07400 41.24700
H  -16.83800 36.24200 42.66100
H  -17.27700 35.44200 41.11200
H  -12.28700 32.33600 42.48800
H  -13.04400 33.79700 43.27800
H  -11.79500 32.91800 44.03900
H  -7.41300 33.42800 40.22200
H  -4.26500 35.76100 42.53100
H  -5.01400 35.21600 44.04700
H  -5.41600 36.81500 43.47300
Mg -0.94300 33.61300 26.39600
C  -2.78800 32.18800 28.98000
C  0.63900 35.59500 28.69300
C  0.44300 35.25200 23.80600
C  -3.22000 32.05000 24.19500
N  -1.19100 33.96900 28.59400
C  -1.83300 33.12200 29.47200
C  -1.47900 33.46600 30.95700
C  -0.50700 34.64600 30.71100
C  -0.28300 34.71600 29.22000
C  -1.03800 35.94900 31.40600
C  -0.81600 32.18200 31.74900
C  -1.30000 31.89800 33.18600
H  -0.26500 32.07600 34.27500
N  0.32200 35.22400 26.27400
C  0.98500 35.81000 27.34800
C  2.02200 36.67100 26.84000
C  1.84300 36.67500 25.45800
C  0.80500 35.73500 25.09500
C  2.78700 37.77200 27.76700
C  2.55700 37.56500 24.47700
O  2.35300 37.62800 23.29000
C  3.65900 38.51900 25.00900
N  -1.36100 33.63400 24.30400
C  -0.55400 34.34800 23.41600
C  -1.14100 34.15200 21.99400
C  -2.23200 33.07600 22.16300
C  -2.33000 32.93400 23.65000
C  -1.71400 35.48900 21.38700
C  -1.79100 31.73400 21.30300
C  -1.20800 30.51400 22.01900
N  -2.55900 32.26000 26.45400
C  -3.33600 31.64000 25.48200
C  -4.15000 30.64900 26.13700
C  -4.04100 30.85500 27.48900
C  -3.03400 31.86000 27.61600
C  -5.07600 29.74900 25.37500
C  -4.49000 30.40300 28.74700
O  -5.24600 29.49600 28.99600
C  -3.72900 31.23200 29.79300
C  -4.72000 31.91700 30.69000
O  -5.40700 32.89900 30.49400
O  -4.70800 31.08600 31.83000
C  -5.68700 31.49700 32.81900
H  1.12700 36.23000 29.43600
H  0.99600 35.51300 22.90100
H  -3.78000 31.44800 23.47600
H  -2.37900 33.70600 31.52200
H  0.44900 34.47600 31.20600
H  -1.57300 35.73500 32.33100
H  -1.68600 36.42200 30.66900
H  -0.18300 36.59400 31.61300
H  0.25500 32.37400 31.69400
H  -1.05600 31.25100 31.23700
H  -1.56300 30.84100 33.16600
H  -2.28200 32.33800 33.36200
H  3.85400 37.88500 27.57500
H  2.75800 37.27700 28.73800
H  2.16200 38.64600 27.95100
H  3.17400 39.24200 25.66500
H  4.33500 38.96600 24.28100
H  4.27400 37.76500 25.50100
H  -0.36600 33.88000 21.27800
H  -3.22500 33.36000 21.81500
H  -1.75500 36.17000 22.23600
H  -2.76300 35.30800 21.15100
H  -1.24600 35.87800 20.48200
H  -1.04900 31.98100 20.54400
H  -2.70500 31.37700 20.82900
H  -1.77700 29.60700 21.81600
H  -1.10700 30.60700 23.10100
H  -0.17700 30.35300 21.70400
H  -5.97700 30.22400 24.98900
H  -5.27800 28.91100 26.04200
H  -4.49000 29.27100 24.58900
H  -3.17500 30.53500 30.42200
H  -6.63700 31.87100 32.43700
H  -5.15900 32.30000 33.33300
H  -5.94700 30.65600 33.46300

