158

Mg 54.59900 24.25000 44.59800
C  51.78300 26.32000 43.87500
C  52.57700 21.54800 43.68200
C  57.33400 22.26300 44.59600
C  56.36400 27.14700 45.33200
N  52.39400 23.97400 43.56800
C  51.44800 25.01600 43.53700
C  50.04900 24.42600 43.51700
C  50.35200 22.85600 43.64000
C  51.87000 22.74200 43.59900
C  49.76200 22.25000 44.91200
C  49.29400 24.69800 42.19400
C  49.98000 24.85800 40.77600
H  49.60200 24.01900 39.54000
N  54.91100 22.22300 44.23300
C  53.97200 21.23900 43.89400
C  54.56700 19.92200 43.72100
C  55.92500 20.05100 44.04700
C  56.14400 21.57500 44.32300
C  53.67800 18.70000 43.49300
C  56.91500 18.84600 44.13700
O  56.59700 17.67900 43.94300
C  58.31200 19.02900 44.60400
N  56.59300 24.67700 44.76000
C  57.58800 23.68500 44.77600
C  58.94500 24.23200 45.20000
C  58.61500 25.80600 45.43200
C  57.10800 25.96200 45.13000
C  59.76000 23.50700 46.30100
C  59.65600 26.79900 44.79800
C  60.28700 27.95000 45.70000
N  54.23100 26.33800 44.55400
C  55.00900 27.28200 45.08200
C  54.21400 28.47500 45.23000
C  52.97200 28.18300 44.75700
C  52.98500 26.82800 44.38900
C  54.83800 29.75900 45.80300
C  51.66700 28.70400 44.44900
O  51.24800 29.83400 44.67100
C  50.82800 27.51600 43.90300
C  50.33000 27.94900 42.52600
O  50.93100 27.95500 41.46700
O  49.00700 28.16800 42.68200
C  48.24600 28.61500 41.50400
H  51.81100 20.78400 43.52900
H  58.24400 21.66600 44.68300
H  56.85000 27.98100 45.84200
H  49.46200 24.83500 44.33900
H  49.93700 22.28800 42.80700
H  50.47000 22.03500 45.71200
H  49.22300 21.31100 44.78600
H  49.01600 22.90000 45.36900
H  48.71700 25.59100 42.43400
H  48.59200 23.89600 41.96600
H  51.05400 24.69400 40.86800
H  49.78000 25.92200 40.64700
H  53.61100 18.58300 42.41200
H  52.66200 18.88500 43.84100
H  54.11600 17.82100 43.96600
H  58.37200 19.39300 45.63000
H  58.71400 19.77600 43.91900
H  58.87400 18.09800 44.52700
H  59.54400 24.05100 44.30800
H  58.71400 25.98800 46.50200
H  59.23700 22.55600 46.39900
H  59.82200 23.99100 47.27600
H  60.76600 23.30400 45.93300
H  59.15500 27.26800 43.95100
H  60.52500 26.20600 44.51300
H  61.37100 28.04900 45.66200
H  59.99500 27.85300 46.74500
H  59.88800 28.92800 45.43000
H  53.95000 30.31800 46.09900
H  55.37900 30.19900 44.96500
H  55.43100 29.46000 46.66800
H  49.99200 27.24100 44.54600
H  48.77600 29.48600 41.11600
H  47.22400 28.89700 41.75400
H  48.24400 27.86500 40.71300
Mg 42.32300 41.39600 26.68400
C  41.42600 43.85000 29.21800
C  43.43600 39.36600 29.23700
C  43.75200 39.53700 24.34200
C  41.58400 43.92500 24.31200
N  42.46600 41.58700 28.93800
C  41.85800 42.60400 29.72800
C  41.81500 42.17600 31.20100
C  42.57300 40.76400 31.20600
C  42.85500 40.57000 29.74000
C  43.65000 40.52800 32.29900
C  40.42000 42.33500 31.91600
C  40.40300 41.67800 33.33000
H  39.76700 42.48500 34.48000
N  43.29800 39.58900 26.77600
C  43.69100 38.90500 27.89400
C  44.18300 37.60700 27.49300
C  44.21400 37.67600 26.08500
C  43.77300 38.97800 25.66700
C  44.45000 36.42000 28.47400
C  44.57600 36.58600 25.12400
O  44.63900 36.68200 23.91900
C  44.91600 35.18700 25.66400
N  42.72200 41.79200 24.76900
C  43.24700 40.76600 23.89000
C  43.12900 41.11300 22.45000
C  42.11000 42.24700 22.51300
C  42.21400 42.78000 23.93100
C  44.44900 41.35600 21.82900
C  40.72200 41.93900 21.91500
C  39.68900 41.28700 22.79900
N  41.56200 43.42400 26.71700
C  41.35800 44.25200 25.65100
C  40.98000 45.59600 26.15700
C  40.95800 45.43600 27.52600
C  41.37200 44.15300 27.82100
C  40.67400 46.77500 25.26800
C  40.71900 46.08800 28.71200
O  40.48500 47.30200 28.87400
C  40.93200 45.09200 29.87800
C  41.96800 45.64600 30.89200
O  43.20500 45.81600 30.73600
O  41.31000 45.80800 32.12200
C  42.00400 46.21800 33.31200
H  43.74100 38.64000 29.99400
H  44.02100 38.87700 23.51500
H  41.32600 44.65900 23.54600
H  42.44900 42.87000 31.75300
H  41.84600 39.98500 31.43600
H  44.54000 40.37200 31.68900
H  43.51600 39.60200 32.85700
H  43.94000 41.38800 32.90300
H  39.61800 41.92900 31.29900
H  40.35900 43.40700 32.10300
H  41.40700 41.39100 33.64500
H  39.79600 40.77700 33.24600
H  43.72100 35.61300 28.40300
H  44.55200 36.72000 29.51700
H  45.39900 35.91300 28.29500
H  45.84100 35.25200 26.23800
H  45.08600 34.42800 24.90100
H  43.99000 34.96000 26.19200
H  42.58200 40.32800 21.92900
H  42.58100 43.04600 21.94100
H  45.20400 40.95300 22.50300
H  44.61000 42.43100 21.74900
H  44.48700 40.78000 20.90400
H  40.81200 41.42300 20.95900
H  40.21700 42.89400 21.77700
H  39.43400 40.41500 22.19600
H  38.77300 41.82000 23.05300
H  40.05800 40.87900 23.74000
H  41.59400 47.31000 25.03600
H  40.01500 47.44200 25.82500
H  40.13700 46.33700 24.42700
H  39.97700 44.90100 30.36800
H  43.08700 46.30300 33.22500
H  41.79000 45.57800 34.16800
H  41.66300 47.20400 33.62600

