158

Mg -1.92700 16.58300 26.36600
C  -2.18300 14.52500 29.19900
C  -2.31900 19.35000 28.30400
C  -1.81800 18.28400 23.50400
C  -1.82600 13.59700 24.45200
N  -2.17400 16.88400 28.55700
C  -2.27800 15.89400 29.51700
C  -2.69700 16.55600 30.84900
C  -2.46700 18.09400 30.63400
C  -2.30500 18.12000 29.07700
C  -3.67600 19.06300 31.11100
C  -2.17800 15.89400 32.08500
C  -1.93200 16.82700 33.25700
H  -1.45900 16.08700 34.42800
N  -1.91600 18.53000 26.00900
C  -2.16800 19.52500 26.90400
C  -2.20400 20.85700 26.22900
C  -2.02500 20.55300 24.79200
C  -1.93400 19.06200 24.70000
C  -2.48200 22.18700 26.96600
C  -2.03300 21.50500 23.60800
O  -1.84500 21.10100 22.47400
C  -2.32200 22.94900 23.75300
N  -1.99300 16.01400 24.24300
C  -1.89700 16.94600 23.22600
C  -2.02600 16.31200 21.84500
C  -1.84000 14.80600 22.10700
C  -1.88200 14.78900 23.69100
C  -3.24500 16.68200 20.92000
C  -0.50600 14.26400 21.52700
C  0.74100 14.82600 22.24000
N  -2.13000 14.51100 26.67000
C  -1.97700 13.41000 25.77200
C  -2.03600 12.16600 26.51500
C  -2.10800 12.54100 27.83100
C  -2.10200 13.97000 27.91100
C  -1.98300 10.81000 25.97100
C  -2.25500 11.99900 29.15600
O  -2.36300 10.82800 29.54600
C  -2.34000 13.27400 30.06700
C  -1.22600 13.11100 31.11900
O  -0.10800 13.58300 30.87100
O  -1.58100 12.51700 32.26900
C  -0.56900 12.44000 33.36200
H  -2.33800 20.28600 28.86500
H  -1.86900 18.76200 22.52400
H  -1.62300 12.74200 23.80400
H  -3.75900 16.31200 30.83600
H  -1.58200 18.51100 31.11400
H  -4.30800 19.42200 30.30000
H  -3.37600 19.90700 31.73200
H  -4.28600 18.37400 31.69500
H  -1.16500 15.70200 31.73000
H  -2.67000 14.99500 32.45500
H  -2.87600 17.33300 33.46100
H  -1.15000 17.55500 33.04100
H  -3.35000 22.76100 26.64100
H  -1.70200 22.94300 26.86800
H  -2.63700 22.03200 28.03400
H  -2.36300 23.54100 22.83900
H  -1.65700 23.31800 24.53400
H  -3.35000 22.99200 24.11400
H  -1.20300 16.71200 21.25300
H  -2.68900 14.24000 21.72100
H  -4.12400 16.87200 21.53600
H  -3.39600 15.94700 20.12900
H  -3.19000 17.61600 20.36200
H  -0.42600 14.57900 20.48700
H  -0.50400 13.17400 21.52700
H  1.30700 15.37700 21.48900
H  1.29000 14.00000 22.69200
H  0.57200 15.57500 23.01400
H  -1.24500 10.27500 26.56900
H  -1.74200 10.76800 24.90900
H  -2.96200 10.36300 26.14500
H  -3.31100 13.29100 30.56300
H  -1.02900 12.70900 34.31300
H  0.30400 13.02000 33.06500
H  -0.27100 11.39400 33.43000
Mg 8.96600 2.83900 27.29400
C  10.36500 1.50600 30.32800
C  7.12800 4.97800 29.29000
C  7.35700 3.90800 24.55300
C  10.50600 0.25000 25.53600
N  8.69200 3.09700 29.64800
C  9.54200 2.60100 30.55400
C  9.23600 3.24100 31.94000
C  8.13000 4.33200 31.53700
C  7.95000 4.11000 30.05600
C  6.87700 4.23600 32.42100
C  10.54800 3.80700 32.60400
C  11.14600 3.10300 33.85000
H  11.48400 4.04600 35.07700
N  7.51300 4.30700 26.91700
C  6.91700 5.11600 27.88000
C  6.02800 6.02800 27.18200
C  6.10000 5.78800 25.75300
C  7.03300 4.62000 25.72000
C  5.07100 7.07500 27.90400
C  5.37700 6.55800 24.62100
O  5.53800 6.25900 23.38500
C  4.56900 7.73400 24.92100
N  8.81000 2.14100 25.43500
C  8.23900 2.85400 24.40700
C  8.62100 2.34300 23.01200
C  9.54600 1.08500 23.37400
C  9.64200 1.15200 24.89000
C  7.35800 1.99800 22.13400
C  10.88300 1.02200 22.61500
C  10.83700 1.11200 21.07300
N  10.21700 1.17700 27.75200
C  10.71600 0.16700 26.95900
C  11.47500 -0.67800 27.81600
C  11.46400 -0.18000 29.12100
C  10.62800 0.92700 29.01900
C  12.21700 -1.89900 27.48900
C  11.99100 -0.37800 30.43000
O  12.65100 -1.30400 30.90000
C  11.21500 0.69800 31.30200
C  10.43400 0.03300 32.35200
O  9.33600 -0.39900 32.18700
O  11.15800 -0.07600 33.49500
C  10.42300 -0.66300 34.62800
H  6.60500 5.70500 29.91500
H  6.85200 4.27100 23.65500
H  11.08200 -0.53600 25.04400
H  8.67800 2.50500 32.51900
H  8.58800 5.28000 31.82000
H  6.49600 5.23900 32.61200
H  7.05800 3.78900 33.39900
H  6.16400 3.58800 31.91100
H  10.40700 4.81600 32.99100
H  11.26500 3.86700 31.78600
H  12.10100 2.62700 33.62500
H  10.55900 2.22500 34.12100
H  5.50800 8.05500 27.71200
H  4.94300 6.84300 28.96100
H  4.08300 7.22700 27.47000
H  5.21000 8.36200 25.54000
H  3.58200 7.45600 25.29100
H  4.39600 8.28800 23.99900
H  9.27300 3.08700 22.55500
H  9.11700 0.10200 23.17800
H  7.41300 1.14600 21.45600
H  7.24500 2.82000 21.42700
H  6.47300 1.92800 22.76700
H  11.36500 0.06000 22.79600
H  11.46500 1.86200 22.99400
H  11.39600 1.98100 20.72600
H  9.83900 0.98100 20.65400
H  11.38200 0.23600 20.72200
H  13.28600 -1.69200 27.44300
H  11.82800 -2.23800 26.52800
H  12.04300 -2.69400 28.21500
H  12.07900 1.20500 31.73200
H  9.89600 -1.54100 34.25600
H  9.66400 -0.01400 35.06500
H  11.25900 -0.92000 35.27900

