158

Mg 46.61500 24.95500 28.32000
C  47.04200 27.26700 30.92400
C  45.84000 22.60100 30.63200
C  46.58300 22.85600 25.86400
C  48.04300 27.44800 26.14800
N  46.53600 24.93500 30.54900
C  46.54100 26.03600 31.32900
C  46.22500 25.69300 32.73600
C  46.03600 24.12200 32.70600
C  46.19800 23.77700 31.26600
C  46.88900 23.25800 33.63000
C  44.99700 26.44500 33.48000
C  45.29900 27.03600 34.89100
H  44.26800 26.89600 35.96800
N  46.07000 23.07800 28.26600
C  45.82700 22.20400 29.30500
C  45.45200 20.91500 28.77300
C  45.69500 20.94200 27.40900
C  46.12800 22.32900 27.12000
C  45.06500 19.68700 29.60900
C  45.45100 19.86500 26.25600
O  45.57900 20.14900 25.05700
C  44.89300 18.49700 26.58300
N  47.17200 25.11900 26.26800
C  46.98600 24.12000 25.37800
C  47.31700 24.48600 23.92800
C  47.86400 25.95100 24.06800
C  47.77200 26.17600 25.56300
C  48.29900 23.57800 23.16000
C  46.98200 26.94500 23.23700
C  47.63900 28.22500 22.85200
N  47.33500 26.95500 28.43600
C  47.85000 27.78700 27.49300
C  48.14600 29.07800 28.02100
C  47.77200 28.88500 29.40000
C  47.32400 27.56100 29.60900
C  48.76100 30.24000 27.31100
C  47.69300 29.61000 30.59900
O  48.04300 30.78800 30.90100
C  47.26000 28.55500 31.72900
C  48.36700 28.44000 32.75300
O  49.21200 27.54300 32.78100
O  48.34600 29.44900 33.66500
C  49.24000 29.22600 34.87000
H  45.33100 21.99500 31.38300
H  46.60800 22.10400 25.07300
H  48.52600 28.27900 25.63000
H  47.05500 25.91800 33.40600
H  44.97200 24.02100 32.92200
H  47.73400 22.90800 33.03700
H  46.28800 22.38300 33.87400
H  47.21800 23.77200 34.53300
H  44.10600 25.84300 33.65700
H  44.68600 27.28600 32.85900
H  45.32800 28.12000 34.77500
H  46.22500 26.60800 35.27300
H  44.01700 19.49800 29.37500
H  45.27200 19.78100 30.67500
H  45.50600 18.75000 29.26900
H  43.99400 18.64200 27.18100
H  45.66100 17.86400 27.02900
H  44.69900 17.90000 25.69200
H  46.31900 24.54200 23.49300
H  48.91700 26.15700 23.87900
H  49.11300 24.17800 22.75200
H  47.69900 23.09100 22.39200
H  48.78100 22.84500 23.80600
H  46.15800 27.11600 23.93000
H  46.84000 26.41700 22.29400
H  47.65000 28.24400 21.76200
H  48.67300 28.30500 23.18900
H  46.93900 28.95800 23.25200
H  48.12600 30.38000 26.43700
H  49.75300 29.98000 26.94100
H  48.79500 31.04800 28.04100
H  46.27000 28.77600 32.12800
H  49.06500 30.08300 35.52000
H  50.30400 29.30200 34.64500
H  48.93500 28.27600 35.31000
Mg 35.40000 49.85300 25.43500
C  35.05100 48.14200 28.46900
C  34.30300 52.70400 27.23500
C  35.22500 51.40300 22.49500
C  36.07700 46.78200 23.81500
N  34.84500 50.40200 27.68400
C  34.84700 49.49700 28.71000
C  34.62000 50.18100 30.06300
C  34.33200 51.66800 29.64400
C  34.48700 51.67200 28.12100
C  32.90000 52.21900 30.06000
C  35.80300 50.01200 31.10400
C  35.36700 49.73700 32.54100
H  33.88100 49.88800 33.00000
N  34.89400 51.75000 24.94400
C  34.45800 52.73800 25.81100
C  34.02800 53.87600 24.96700
C  34.40900 53.62600 23.63100
C  34.90900 52.18800 23.63800
C  33.35100 55.13100 25.46600
C  34.37400 54.49100 22.46200
O  34.82700 54.17100 21.36300
C  33.74600 55.80800 22.46500
N  35.76400 49.23500 23.43600
C  35.64600 50.02600 22.35100
C  35.79600 49.28300 21.03000
C  36.24100 47.82500 21.51100
C  36.05500 47.97400 23.02500
C  34.52200 49.23000 20.11400
C  37.68000 47.57300 21.01300
C  38.86200 48.37800 21.61800
N  35.54100 47.90600 25.93400
C  35.83700 46.73200 25.27400
C  35.79000 45.50600 26.09600
C  35.54000 46.00500 27.36000
C  35.38400 47.48100 27.21300
C  36.13300 44.14800 25.68500
C  35.43400 45.61100 28.77500
O  35.57000 44.52800 29.34700
C  35.08400 46.95800 29.53500
C  33.79900 46.72600 30.23900
O  32.67500 46.89900 29.81300
O  34.02500 46.07000 31.47700
C  32.79400 45.56300 32.17000
H  34.17400 53.68000 27.70600
H  35.29300 51.96300 21.56000
H  36.25000 45.78800 23.39700
H  33.64100 49.86800 30.42500
H  35.13800 52.17700 30.17200
H  32.23000 52.44400 29.23100
H  33.04200 53.10600 30.67900
H  32.26000 51.46700 30.52100
H  36.32200 50.96900 31.15800
H  36.50200 49.24000 30.78000
H  36.10200 50.26600 33.14700
H  35.50600 48.68700 32.79700
H  34.00300 55.97000 25.22500
H  33.05600 55.18100 26.51400
H  32.40200 55.27500 24.94900
H  34.26300 56.46900 23.16000
H  32.72500 55.66200 22.81800
H  33.88500 56.23600 21.47300
H  36.56400 49.67000 20.36200
H  35.53400 47.11900 21.07700
H  34.16500 48.20500 20.01700
H  34.63900 49.77900 19.17900
H  33.67100 49.69500 20.61100
H  37.56000 47.55500 19.93000
H  37.79400 46.55100 21.37400
H  39.43400 48.87800 20.83700
H  39.63200 47.72500 22.03000
H  38.64400 49.17000 22.33500
H  36.95500 44.26100 24.97800
H  35.25300 43.62700 25.31000
H  36.49900 43.60500 26.55700
H  35.90000 46.95800 30.25700
H  32.14600 44.98600 31.51100
H  32.26700 46.44100 32.54300
H  33.12700 45.06800 33.08300

