158

Mg 23.82800 -7.65400 46.65800
C  26.56100 -5.66600 45.79500
C  22.01300 -6.35400 43.95700
C  21.59100 -10.04400 47.02800
C  26.03400 -9.36700 48.84400
N  24.26100 -6.21100 44.97200
C  25.48500 -5.53000 44.90600
C  25.56900 -4.77600 43.61600
C  24.02500 -4.77400 43.15700
C  23.30300 -5.85400 44.05800
C  23.41200 -3.33900 43.32800
C  26.57700 -5.36800 42.56500
C  27.60500 -4.33900 41.87300
H  27.26400 -3.64100 40.50800
N  21.91700 -7.92900 45.87900
C  21.37200 -7.25700 44.74200
C  20.04500 -7.86300 44.46900
C  19.92500 -8.97600 45.35100
C  21.14700 -9.04500 46.17600
C  19.17900 -7.31400 43.37600
C  18.77100 -9.96100 45.28400
O  17.97200 -9.80700 44.35100
C  18.48100 -11.10500 46.25200
N  23.76200 -9.39200 47.90500
C  22.73100 -10.19600 47.81200
C  22.97500 -11.48600 48.69000
C  24.44400 -11.20000 49.24300
C  24.79500 -9.94700 48.60100
C  21.87300 -11.68000 49.78400
C  25.35500 -12.43200 48.89200
C  24.88700 -13.92200 49.09600
N  25.85700 -7.54300 47.29700
C  26.57500 -8.26000 48.23500
C  27.91900 -7.69300 48.36400
C  27.96300 -6.66000 47.39800
C  26.71800 -6.64700 46.79000
C  28.90300 -8.15700 49.30300
C  28.81600 -5.61600 46.86400
O  29.95400 -5.28800 47.06600
C  27.90400 -4.89000 45.75400
C  27.85600 -3.42700 46.03300
O  27.16800 -2.91500 46.98100
O  28.65900 -2.83300 45.12300
C  28.71700 -1.37100 45.31700
H  21.42300 -5.92100 43.14600
H  20.92500 -10.88600 47.22900
H  26.70100 -9.96900 49.46500
H  25.87500 -3.79500 43.97900
H  24.02100 -5.07500 42.10900
H  23.55800 -2.94500 42.32300
H  23.97200 -2.76500 44.06600
H  22.34900 -3.32000 43.56900
H  26.00600 -5.88100 41.79100
H  27.02800 -6.24100 43.03500
H  28.63100 -4.70400 41.82300
H  27.58300 -3.52300 42.59500
H  19.26500 -6.24700 43.17000
H  18.12200 -7.35400 43.64100
H  19.38000 -7.99600 42.55000
H  18.35600 -10.73600 47.27000
H  19.30100 -11.82200 46.25900
H  17.54900 -11.62600 46.03200
H  23.04600 -12.32700 48.00000
H  24.37000 -11.04200 50.31900
H  21.44500 -12.67400 49.65600
H  21.14600 -10.86700 49.77400
H  22.38700 -11.59800 50.74100
H  26.19600 -12.36500 49.58300
H  25.66500 -12.30400 47.85500
H  24.07300 -14.15000 48.40700
H  24.59900 -14.08600 50.13400
H  25.71200 -14.58100 48.82700
H  29.65800 -7.46400 49.67400
H  29.51400 -8.88400 48.76800
H  28.45100 -8.73400 50.11000
H  28.36900 -4.92000 44.76800
H  29.43600 -1.22600 46.12400
H  27.82500 -0.77900 45.51800
H  29.19400 -1.04200 44.39300
Mg 6.16100 53.94900 40.95800
C  5.72400 50.46400 40.85400
C  9.41100 53.50600 39.95900
C  6.26100 57.28200 40.27300
C  2.67900 54.09600 41.44900
N  7.38000 52.28900 40.37900
C  6.97800 50.95900 40.43900
C  8.12100 50.05700 40.03100
C  9.39700 50.92000 40.25800
C  8.68000 52.33200 40.12100
C  10.12400 50.66800 41.62200
C  7.96700 49.42500 38.66300
C  7.55900 50.41300 37.47500
H  6.36300 49.99900 36.49000
N  7.67100 55.19600 40.28100
C  8.95900 54.85800 40.03600
C  9.68800 56.07200 39.68700
C  8.83800 57.20300 39.84100
C  7.52300 56.61300 40.13100
C  11.14900 56.00400 39.38200
C  9.25200 58.75000 39.75400
O  10.39100 59.03600 39.59400
C  8.23700 59.80300 40.06000
N  4.68900 55.40700 40.79500
C  4.99200 56.72100 40.54300
C  3.73200 57.63500 40.40000
C  2.60300 56.62200 40.78300
C  3.32800 55.27100 40.96100
C  3.69400 58.80000 41.40300
C  1.36900 56.70400 39.90200
C  0.00500 56.70800 40.69600
N  4.53800 52.60700 41.40600
C  3.21500 52.84100 41.65600
C  2.51800 51.56700 41.96200
C  3.51200 50.62400 41.65300
C  4.68700 51.28600 41.35100
C  1.08100 51.40300 42.33600
C  3.72700 49.22300 41.59800
O  3.01100 48.30200 41.92300
C  5.16500 49.03900 40.94600
C  4.89600 48.33500 39.65600
O  4.22800 48.79600 38.74000
O  5.32100 47.02300 39.71400
C  4.92000 46.25200 38.56400
H  10.47100 53.31200 39.78800
H  6.28500 58.37000 40.17900
H  1.61400 54.22000 41.65400
H  8.13900 49.23400 40.74600
H  10.13200 50.79000 39.46400
H  11.19900 50.70900 41.44500
H  9.95100 49.62200 41.87500
H  9.74100 51.32700 42.40100
H  7.22900 48.63400 38.79600
H  8.94400 49.01800 38.40000
H  8.47100 50.67300 36.93700
H  7.08100 51.31300 37.86100
H  11.63200 55.41200 40.15900
H  11.81000 56.87100 39.37700
H  11.38700 55.56300 38.41400
H  7.46900 59.95000 39.30200
H  8.65300 60.79100 40.25800
H  7.79600 59.54600 41.02400
H  3.69600 58.08000 39.40600
H  2.26000 56.78200 41.80500
H  4.04800 59.66900 40.85000
H  4.44000 58.63100 42.18000
H  2.70600 58.94000 41.84000
H  1.38600 55.83000 39.25100
H  1.36500 57.55200 39.21600
H  -0.59000 57.55100 40.34400
H  0.00600 56.60000 41.78100
H  -0.36100 55.74100 40.35300
H  1.08600 50.54200 43.00500
H  0.54800 51.11600 41.43000
H  0.67400 52.26800 42.85900
H  5.77300 48.49700 41.67000
H  5.27100 46.75000 37.66000
H  3.84200 46.29300 38.40800
H  5.33300 45.25300 38.70400

