158

Mg 40.49700 9.38400 29.39000
C  42.46100 10.94200 32.05300
C  38.49400 8.18500 31.80100
C  39.02800 7.92300 26.89600
C  43.32500 10.22600 27.21200
N  40.61000 9.47700 31.71300
C  41.30600 10.36200 32.50000
C  40.77500 10.38400 33.94500
C  39.51500 9.33600 33.78400
C  39.54800 8.92800 32.35000
C  39.45100 8.22800 34.83100
C  40.31900 11.84200 34.35300
C  39.88000 11.97100 35.87000
H  40.59100 13.02700 36.68100
N  39.03000 8.15900 29.37400
C  38.26500 7.82800 30.43500
C  37.20400 6.99300 29.94600
C  37.24500 6.96800 28.49900
C  38.49200 7.69100 28.19000
C  36.21100 6.28100 30.88200
C  36.32500 6.26400 27.48100
O  36.70700 6.13400 26.34700
C  35.16000 5.46900 27.98900
N  41.15200 9.13400 27.39500
C  40.22100 8.63300 26.50500
C  40.65000 8.93200 25.00400
C  42.08800 9.32500 25.21500
C  42.17500 9.59600 26.68800
C  40.50800 7.94100 23.85000
C  42.52800 10.53300 24.34500
C  41.86500 11.87000 24.66100
N  42.43300 10.47000 29.47400
C  43.47700 10.68700 28.53900
C  44.55900 11.51900 29.18200
C  44.16200 11.63500 30.51200
C  42.91800 10.94200 30.66900
C  45.74500 12.05800 28.45000
C  44.58100 12.10500 31.83200
O  45.57100 12.74800 32.16200
C  43.45300 11.73600 32.88100
C  44.01800 10.95200 34.01300
O  44.74700 9.98300 33.86100
O  43.61200 11.43500 35.24400
C  43.97600 10.64100 36.40400
H  37.69300 7.94600 32.50300
H  38.45800 7.55300 26.04100
H  44.08800 10.55900 26.50600
H  41.51700 10.00700 34.64800
H  38.69200 10.01400 34.00800
H  38.63100 8.42100 35.52200
H  40.36300 8.31300 35.42200
H  39.39800 7.17900 34.53900
H  39.47900 12.18000 33.74600
H  41.17100 12.51100 34.23100
H  39.81800 10.98200 36.32300
H  38.84900 12.32100 35.81100
H  35.19400 6.57200 30.62100
H  36.26800 6.57200 31.93100
H  36.51100 5.23900 30.76600
H  35.42900 4.95500 28.91100
H  35.02900 4.80000 27.13900
H  34.30000 6.13800 28.02300
H  39.97600 9.71800 24.66400
H  42.60300 8.38500 25.01600
H  39.44900 8.02700 23.60600
H  40.47700 6.91100 24.20600
H  41.02700 8.19000 22.92400
H  42.13000 10.22300 23.37900
H  43.61300 10.63900 24.33100
H  41.58400 11.92300 25.71300
H  41.01200 11.94200 23.98600
H  42.44500 12.76800 24.44800
H  45.60400 12.58700 27.50800
H  46.44200 11.22700 28.33600
H  46.26800 12.79300 29.06300
H  42.96300 12.66300 33.18000
H  43.16600 10.45800 37.11100
H  44.75700 11.21700 36.90000
H  44.50700 9.70200 36.24800
Mg 0.77500 43.02600 26.64100
C  3.34000 42.99900 29.09100
C  -1.54300 42.48600 28.97200
C  -1.28700 42.70600 24.02900
C  3.44700 43.40300 24.37900
N  0.96000 42.93900 28.76600
C  2.06900 42.93500 29.63100
C  1.62400 42.97600 31.08100
C  0.12500 42.59400 31.02100
C  -0.20000 42.54000 29.48700
C  -0.33600 41.24300 31.81800
C  1.94600 44.39600 31.67200
C  2.11100 44.54200 33.16900
H  1.63300 43.44400 34.09600
N  -1.11900 42.56600 26.49600
C  -1.93000 42.32900 27.58100
C  -3.27800 42.06100 27.02100
C  -3.28700 42.18600 25.61100
C  -1.86200 42.52300 25.32200
C  -4.48400 41.65900 27.85600
C  -4.44100 42.03500 24.57600
O  -4.24000 41.88700 23.36300
C  -5.75800 41.62400 25.15300
N  0.98000 43.11300 24.52600
C  -0.00500 42.85600 23.64100
C  0.41500 42.87400 22.16100
C  1.94100 43.23200 22.32500
C  2.12300 43.32800 23.83100
C  0.15800 41.60400 21.39400
C  2.31100 44.62700 21.70700
C  2.11300 45.96700 22.59100
N  2.96200 43.30000 26.64600
C  3.88700 43.35700 25.64300
C  5.25800 43.35700 26.17400
C  5.09400 43.09300 27.50800
C  3.70700 43.21700 27.74900
C  6.40500 43.59200 25.40200
C  5.73800 42.77700 28.80400
O  6.94800 42.52900 29.02500
C  4.66900 42.92200 29.86800
C  4.95500 41.83400 30.84000
O  4.74200 40.61200 30.66800
O  5.43000 42.35900 32.02800
C  5.81500 41.40600 33.08900
H  -2.31200 42.14300 29.66800
H  -1.93800 42.57600 23.16300
H  4.24600 43.53700 23.64700
H  2.30700 42.24100 31.50800
H  -0.49600 43.38200 31.44900
H  -1.07200 41.57000 32.55200
H  0.52500 40.84400 32.35400
H  -0.81400 40.54200 31.13200
H  1.01400 44.87800 31.37700
H  2.75600 44.90100 31.14600
H  1.62000 45.41800 33.59300
H  3.19000 44.61600 33.31000
H  -5.17200 42.47100 28.09000
H  -4.15200 41.21600 28.79500
H  -5.10900 40.86000 27.45600
H  -5.71300 40.57500 25.44500
H  -6.41800 41.60700 24.28600
H  -6.11500 42.25000 25.97000
H  -0.03300 43.71200 21.62600
H  2.63400 42.47200 21.96600
H  -0.45200 41.04400 22.10400
H  1.06200 41.04600 21.15100
H  -0.45000 41.83800 20.52000
H  1.85500 44.93100 20.76500
H  3.38300 44.64400 21.51100
H  1.47800 46.62400 21.99700
H  3.09200 46.39100 22.81600
H  1.60500 45.88900 23.55200
H  7.33700 43.49400 25.95700
H  6.34500 44.45300 24.73500
H  6.45100 42.69300 24.78800
H  4.91100 43.88900 30.30900
H  6.75500 40.89100 32.88900
H  5.00400 40.72400 33.34300
H  5.94400 41.96600 34.01500

