158

Mg 24.49700 -5.53000 45.92300
C  26.83800 -3.32200 44.47100
C  22.04400 -4.13200 43.84700
C  22.53700 -8.10400 46.57900
C  27.14300 -6.89300 47.72300
N  24.45400 -3.93400 44.28700
C  25.53500 -3.15800 43.92500
C  25.11400 -2.21200 42.78900
C  23.58100 -2.25200 42.78900
C  23.34500 -3.48700 43.68000
C  22.86200 -0.93800 43.22400
C  25.72700 -2.62600 41.47600
C  26.44300 -1.62400 40.57100
H  26.22000 -1.86400 39.08000
N  22.45200 -5.99100 45.38900
C  21.68500 -5.29600 44.50800
C  20.39800 -5.90800 44.50000
C  20.50500 -7.19200 45.19400
C  21.86200 -7.10500 45.80400
C  19.32200 -5.31000 43.63800
C  19.44400 -8.29100 45.24500
O  18.42300 -8.23300 44.63000
C  19.69200 -9.60500 45.88300
N  24.89600 -7.33400 46.76700
C  23.82800 -8.14900 47.06400
C  24.27000 -9.22000 48.10100
C  25.65300 -8.74800 48.58000
C  25.91400 -7.56100 47.66000
C  23.16300 -9.66500 49.20800
C  26.89200 -9.79200 48.60700
C  27.76100 -9.76600 49.89300
N  26.54900 -5.19400 46.11900
C  27.49600 -5.84100 46.88300
C  28.77400 -5.19400 46.66600
C  28.60600 -4.23100 45.79200
C  27.22100 -4.26100 45.44900
C  30.01600 -5.68600 47.27000
C  29.26900 -3.19700 45.02800
O  30.37000 -2.67600 45.09600
C  28.12300 -2.60300 44.10100
C  28.02100 -1.13700 44.35600
O  28.00500 -0.57600 45.44500
O  27.92200 -0.49000 43.10500
C  27.46700 0.88000 43.17000
H  21.31700 -3.58700 43.24200
H  21.88700 -8.87800 46.99300
H  28.02300 -7.26200 48.25300
H  25.42000 -1.21200 43.09600
H  23.21000 -2.54200 41.80500
H  23.31400 -0.07100 42.74300
H  23.03100 -0.81100 44.29300
H  21.80500 -0.96600 42.96000
H  25.03800 -3.23600 40.89200
H  26.42000 -3.43900 41.69500
H  27.51400 -1.77200 40.71000
H  26.15200 -0.61500 40.86200
H  19.53700 -5.58400 42.60500
H  19.31300 -4.22600 43.75100
H  18.30400 -5.59700 43.90100
H  19.05700 -10.41000 45.51400
H  19.69700 -9.58200 46.97300
H  20.70300 -9.94800 45.66300
H  24.36200 -10.10800 47.47500
H  25.47000 -8.29100 49.55300
H  22.36200 -8.92600 49.23900
H  23.67700 -9.82500 50.15500
H  22.69900 -10.62100 48.96300
H  27.44800 -9.41800 47.74800
H  26.64300 -10.84000 48.44100
H  27.89700 -10.78300 50.26000
H  27.48700 -9.17400 50.76600
H  28.72400 -9.44600 49.49400
H  30.16100 -6.76500 47.22300
H  30.05000 -5.32100 48.29700
H  30.83300 -5.24700 46.69800
H  28.40400 -2.79300 43.06500
H  26.53300 0.84300 43.73000
H  27.29100 1.20400 42.14500
H  28.09100 1.67700 43.57400
Mg 46.45400 25.97400 28.19600
C  47.13600 28.09100 30.85300
C  45.58000 23.50100 30.62000
C  46.02400 23.88300 25.70900
C  48.02800 28.15800 26.09000
N  46.28100 25.87100 30.50000
C  46.57600 26.91700 31.33200
C  46.30300 26.54600 32.77800
C  46.06500 25.03100 32.67400
C  45.99500 24.70600 31.20500
C  47.11100 24.15100 33.41700
C  45.13800 27.44200 33.38100
C  44.84600 27.12700 34.80500
H  44.90300 28.24400 35.80900
N  45.86500 23.97300 28.13500
C  45.58400 23.16500 29.22200
C  45.35000 21.84600 28.65000
C  45.47500 21.89900 27.21400
C  45.75600 23.30000 26.97500
C  45.12200 20.60700 29.58100
C  45.44100 20.82700 26.18900
O  45.76400 20.99200 25.00400
C  45.01600 19.50200 26.61900
N  47.00200 25.99400 26.23200
C  46.54600 25.05300 25.35500
C  46.60800 25.50100 23.86100
C  47.27000 26.95500 23.97100
C  47.37800 27.06800 25.53700
C  47.32500 24.57900 22.86900
C  46.48800 28.12100 23.27700
C  47.40800 29.07800 22.39100
N  47.34500 27.79900 28.33700
C  48.05900 28.56800 27.42000
C  48.56200 29.72800 28.03400
C  48.22900 29.65700 29.37800
C  47.54100 28.40400 29.53500
C  49.42000 30.75700 27.35000
C  48.35500 30.27200 30.67800
O  48.85200 31.31300 31.09500
C  47.69500 29.20700 31.73700
C  48.81300 28.68600 32.64000
O  49.67600 27.93400 32.28100
O  48.80400 29.39500 33.79000
C  49.95400 29.13400 34.67000
H  45.13500 22.75700 31.28400
H  45.97200 23.31500 24.77800
H  48.33600 28.85400 25.30700
H  47.18400 26.78300 33.37500
H  45.06900 24.95100 33.10900
H  47.75800 24.68300 34.11500
H  47.71000 23.65300 32.65400
H  46.56900 23.40300 33.99500
H  44.21300 27.15900 32.87800
H  45.42300 28.48900 33.27900
H  45.65100 26.47400 35.14300
H  43.91300 26.56300 34.81000
H  44.20400 20.11000 29.26700
H  44.91800 20.77600 30.63800
H  45.94100 19.89800 29.46200
H  45.83300 19.09100 27.21100
H  45.00100 18.78700 25.79700
H  44.05300 19.56200 27.12600
H  45.61600 25.64800 23.43400
H  48.26000 26.83800 23.53200
H  46.51600 23.91500 22.56600
H  48.13300 24.06600 23.39000
H  47.75800 25.10600 22.01900
H  46.12300 28.69600 24.12800
H  45.65400 27.61000 22.79700
H  47.21400 29.03000 21.32000
H  48.45700 28.78500 22.43800
H  47.33400 30.08800 22.79400
H  49.71100 30.61400 26.31000
H  50.36100 30.92600 27.87200
H  48.81900 31.65700 27.48400
H  47.05200 29.92400 32.24700
H  50.31100 28.10500 34.62700
H  49.67400 29.48500 35.66300
H  50.73600 29.86500 34.46300

