158

Mg 1.66900 7.99800 27.04500
C  1.66400 10.33200 29.57500
C  2.25600 5.45400 29.28000
C  2.20300 5.89100 24.46500
C  1.59900 10.64900 24.70300
N  1.67600 7.91200 29.17900
C  1.65300 8.98100 30.05900
C  1.56600 8.50000 31.48500
C  1.86800 6.90500 31.35100
C  1.92700 6.69300 29.82400
C  3.15300 6.43500 32.08900
C  0.17600 8.83200 32.19900
C  0.29400 9.07600 33.67700
H  1.43800 8.39600 34.45700
N  2.20300 6.00300 26.92600
C  2.39900 5.11100 27.95500
C  2.95600 3.92800 27.41800
C  2.91100 3.99000 26.01500
C  2.43300 5.33200 25.73800
C  3.42300 2.82600 28.31600
C  3.26900 2.94300 24.97800
O  2.98700 3.18800 23.80000
C  3.79000 1.59400 25.34800
N  1.82300 8.28000 24.85100
C  1.89000 7.21100 24.07100
C  1.88200 7.63800 22.57700
C  1.47700 9.09000 22.61000
C  1.60000 9.38800 24.13900
C  3.22500 7.42800 21.82300
C  0.06800 9.39800 22.11800
C  -0.11600 10.58200 21.22000
N  1.72700 10.04100 27.06700
C  1.73800 11.01000 26.03900
C  1.86200 12.30400 26.66000
C  1.87000 12.05800 28.05900
C  1.66700 10.71400 28.23900
C  1.93300 13.68400 26.01400
C  1.88400 12.69700 29.35200
O  1.93400 13.82300 29.76200
C  1.80200 11.57900 30.42400
C  3.17200 11.65100 31.06200
O  4.20800 11.57500 30.46000
O  3.01800 11.80800 32.45100
C  4.28400 11.82400 33.15300
H  2.32400 4.65100 30.01700
H  2.28100 5.24500 23.58800
H  1.58200 11.45200 23.96400
H  2.42200 8.98700 31.95200
H  0.99400 6.41100 31.77500
H  3.61200 5.56100 31.62700
H  3.21800 6.26500 33.16400
H  3.97400 7.13500 31.93300
H  -0.58800 8.06100 32.10400
H  -0.26400 9.68500 31.68200
H  -0.57800 8.52600 34.03100
H  0.31600 10.14200 33.90600
H  4.49100 2.73500 28.11900
H  2.98300 1.83200 28.24100
H  3.41900 3.09700 29.37200
H  2.97200 1.07000 25.84200
H  4.74700 1.56000 25.86800
H  3.99000 1.09500 24.40000
H  1.12500 7.12300 21.98500
H  2.12700 9.68600 21.96900
H  3.87200 7.28500 22.68800
H  3.55000 8.32600 21.29700
H  3.31100 6.61400 21.10400
H  -0.45300 9.66800 23.03600
H  -0.41100 8.49500 21.73800
H  -0.40500 10.28100 20.21300
H  0.78100 11.20000 21.17800
H  -0.92300 11.18300 21.63900
H  0.96600 14.15100 25.82800
H  2.04000 13.47400 24.94900
H  2.72700 14.36200 26.32600
H  1.03600 11.74100 31.18300
H  4.63900 12.85400 33.20700
H  5.16800 11.30600 32.78200
H  4.00100 11.47500 34.14600
Mg 41.17200 41.73100 27.21800
C  39.85200 43.94600 29.75200
C  42.02700 39.56600 29.71800
C  42.01300 39.70200 24.90300
C  40.18500 44.19600 24.86500
N  41.10300 41.87900 29.48600
C  40.39800 42.75100 30.27100
C  40.33800 42.32300 31.76900
C  41.13400 40.98400 31.67100
C  41.46100 40.80200 30.18300
C  42.40300 40.82900 32.60100
C  38.86900 42.27100 32.21800
C  38.59400 41.55900 33.49600
H  37.96000 42.44700 34.63200
N  42.05600 39.89700 27.32700
C  42.33900 39.16000 28.43400
C  42.91200 37.91700 28.01900
C  42.94300 37.95100 26.55400
C  42.36800 39.23100 26.18100
C  43.42800 36.89300 28.99500
C  43.51600 36.88600 25.65800
O  43.51100 36.98300 24.40000
C  44.07800 35.66200 26.25400
N  41.11000 41.91300 25.16900
C  41.47300 40.87400 24.41500
C  41.11800 41.10600 23.01400
C  40.26700 42.48000 22.99400
C  40.47900 42.88300 24.43800
C  42.32500 40.97400 22.00600
C  38.75900 42.29700 22.60400
C  37.88000 41.47100 23.46400
N  40.32300 43.70700 27.25400
C  40.04200 44.58000 26.23900
C  39.52500 45.86300 26.78200
C  39.39700 45.61100 28.14800
C  39.88900 44.33500 28.40200
C  39.17200 47.01300 25.93800
C  39.02100 46.25800 29.37500
O  38.56500 47.39000 29.57900
C  39.32400 45.14300 30.42400
C  40.34200 45.71800 31.31700
O  41.46800 46.10800 31.05200
O  39.88300 45.90100 32.59100
C  40.84900 46.65400 33.47400
H  42.31200 38.85000 30.49200
H  42.14800 38.98100 24.09400
H  39.82000 44.84500 24.06700
H  40.86400 43.05900 32.37800
H  40.48300 40.14100 31.90000
H  42.81700 41.76800 32.96900
H  43.16300 40.40000 31.94700
H  42.36600 40.11200 33.42100
H  38.36100 41.72800 31.42200
H  38.51200 43.29700 32.31500
H  39.53300 41.33800 34.00300
H  37.93400 40.71500 33.29800
H  42.90800 35.97300 28.72800
H  43.23600 37.13100 30.04100
H  44.49000 36.83800 28.75800
H  44.96400 35.90300 26.84100
H  44.36300 35.06000 25.39100
H  43.28800 35.28000 26.89900
H  40.39100 40.31900 22.81500
H  40.79300 43.17500 22.34000
H  42.19900 40.00700 21.51900
H  43.23200 40.86500 22.60100
H  42.38000 41.83400 21.33900
H  38.85900 41.84900 21.61500
H  38.35800 43.24900 22.25800
H  38.25300 41.02500 24.38600
H  37.59300 40.62000 22.84700
H  37.10600 42.21900 23.63400
H  38.97900 47.91300 26.52100
H  38.31500 46.72400 25.32900
H  39.96500 47.26300 25.23300
H  38.41400 44.93100 30.98500
H  41.82300 46.90200 33.05300
H  40.96100 46.10000 34.40700
H  40.39000 47.63500 33.58900

