158

Mg 1.56200 -0.59400 43.81700
C  4.96700 -0.11200 43.26600
C  0.82200 2.42800 42.15600
C  -1.73500 -1.42100 43.71900
C  2.28900 -3.93500 44.92200
N  2.71400 1.00100 42.89100
C  4.07900 0.95500 42.82200
C  4.63000 2.25500 42.23200
C  3.34200 3.18500 42.16300
C  2.21900 2.19900 42.40400
C  3.42500 4.48300 43.04000
C  5.43300 2.01500 40.86700
C  6.50400 3.07100 40.47100
H  6.63500 3.34200 39.05700
N  -0.22400 0.42800 43.13600
C  -0.35100 1.62200 42.43300
C  -1.70700 1.90800 42.15700
C  -2.45500 0.83300 42.76800
C  -1.47100 -0.14100 43.28600
C  -2.09500 3.21600 41.62400
C  -3.97100 0.78100 42.86400
O  -4.56500 1.75300 42.32500
C  -4.82400 -0.23800 43.55400
N  0.41800 -2.49300 44.24300
C  -0.98100 -2.48200 44.20500
C  -1.54500 -3.88100 44.57800
C  -0.25200 -4.41200 45.33000
C  0.90900 -3.63500 44.83700
C  -2.89200 -3.88100 45.43000
C  -0.15900 -5.96500 45.19300
C  0.01300 -6.75900 46.49500
N  3.29900 -1.75100 44.19900
C  3.41400 -3.07100 44.60100
C  4.87300 -3.30100 44.82900
C  5.56300 -2.13200 44.36000
C  4.52500 -1.26300 43.88800
C  5.45000 -4.54400 45.36600
C  6.75500 -1.51500 44.06900
O  7.87500 -1.85200 44.40000
C  6.53400 -0.20500 43.37900
C  7.12200 0.86200 44.30000
O  6.61100 1.36900 45.32600
O  8.26000 1.40100 43.73400
C  8.95600 2.49500 44.48400
H  0.75800 3.46100 41.80700
H  -2.79100 -1.68100 43.61400
H  2.53600 -4.85600 45.45400
H  5.28200 2.62100 43.02500
H  3.26200 3.57900 41.15000
H  4.43700 4.88700 43.04400
H  3.11700 4.46600 44.08600
H  2.86100 5.27800 42.55100
H  4.68800 1.87900 40.08200
H  5.81700 0.99500 40.85300
H  7.38600 2.89900 41.08800
H  6.03200 3.94900 40.91200
H  -2.59600 3.00900 40.67800
H  -1.32300 3.89100 41.25400
H  -2.82100 3.67800 42.29300
H  -5.83800 0.07400 43.80600
H  -4.51500 -0.33000 44.59600
H  -4.91200 -1.24600 43.15100
H  -1.66700 -4.42900 43.64400
H  -0.24400 -4.16500 46.39200
H  -3.59000 -4.54300 44.91900
H  -3.37000 -2.91100 45.57400
H  -2.70400 -4.34800 46.39700
H  0.70800 -6.20800 44.57900
H  -0.98700 -6.38000 44.61900
H  0.99800 -7.22200 46.54400
H  -0.85300 -7.41600 46.56800
H  0.11500 -6.08900 47.34900
H  5.23900 -5.42700 44.76200
H  5.03800 -4.82000 46.33700
H  6.53600 -4.52100 45.45800
H  7.04000 -0.19400 42.41300
H  8.45700 3.45900 44.38400
H  9.85700 2.79700 43.94900
H  9.17900 2.20900 45.51200
Mg 23.85700 -6.48600 44.96000
C  26.05900 -4.03900 43.66400
C  21.39000 -5.25800 42.83100
C  21.82500 -9.04000 45.85500
C  26.59100 -8.11900 46.36800
N  23.73900 -4.74400 43.56400
C  24.76300 -3.91300 43.10700
C  24.27900 -3.03900 41.93000
C  22.69300 -3.28600 41.93600
C  22.62100 -4.54300 42.77900
C  21.74600 -2.21300 42.61500
C  25.09000 -3.41000 40.60700
C  25.86800 -2.34400 39.90600
H  25.31400 -2.06500 38.47300
N  21.83900 -6.97100 44.53300
C  20.99100 -6.33900 43.60100
C  19.66300 -6.91500 43.67100
C  19.76700 -7.98400 44.61600
C  21.17800 -8.03600 45.02000
C  18.47900 -6.41300 42.95100
C  18.67800 -9.02000 44.88400
O  17.63900 -8.88400 44.27200
C  18.84900 -10.17500 45.80600
N  24.21300 -8.40000 45.92500
C  23.17500 -9.24500 46.17100
C  23.69400 -10.63300 46.71100
C  25.20400 -10.29100 47.04600
C  25.40100 -8.84900 46.35900
C  23.14400 -11.32900 48.03100
C  26.22300 -11.32400 46.54800
C  27.18400 -11.94200 47.53400
N  25.93300 -6.15700 45.03900
C  26.93400 -6.86700 45.72200
C  28.21900 -6.10900 45.65700
C  27.89400 -5.00700 44.81800
C  26.50400 -5.07600 44.52700
C  29.51400 -6.62300 46.26100
C  28.49500 -3.93100 44.13200
O  29.68600 -3.60800 44.05900
C  27.30100 -3.25600 43.35300
C  27.26200 -1.82800 43.69900
O  27.38200 -1.26700 44.82000
O  27.08700 -1.20500 42.58600
C  27.13200 0.26700 42.63100
H  20.53100 -4.87200 42.27800
H  21.29000 -9.97100 46.05200
H  27.47900 -8.54000 46.84300
H  24.43000 -1.96900 42.07400
H  22.42900 -3.59800 40.92500
H  21.71100 -2.44400 43.67900
H  20.74900 -2.11100 42.18600
H  22.19000 -1.22300 42.50800
H  24.36000 -3.79100 39.89300
H  25.77700 -4.25500 40.64800
H  26.90500 -2.67900 39.93900
H  25.75900 -1.41600 40.46700
H  18.43400 -7.02700 42.05100
H  18.69600 -5.35100 42.84000
H  17.60300 -6.58100 43.57800
H  17.89500 -10.67400 45.97300
H  19.15600 -9.71800 46.74700
H  19.54200 -10.91900 45.41300
H  23.71500 -11.34600 45.88800
H  25.46900 -10.02000 48.06800
H  22.69300 -12.29700 47.81300
H  22.44000 -10.66200 48.52800
H  23.97500 -11.40200 48.73300
H  26.88000 -10.97300 45.75200
H  25.64800 -12.16700 46.16400
H  27.10200 -11.50100 48.52700
H  28.19400 -11.80100 47.15000
H  26.96100 -12.99700 47.69700
H  30.12900 -7.09500 45.49500
H  29.30500 -7.39600 47.00200
H  30.03400 -5.75200 46.65800
H  27.54700 -3.31500 42.29200
H  27.60300 0.79600 43.46000
H  26.12100 0.63000 42.44700
H  27.65600 0.42400 41.68900

