158

Mg 35.58700 1.56800 30.15500
C  33.19100 2.68300 32.58500
C  37.98000 1.76600 32.52100
C  37.88800 1.03800 27.75800
C  33.08300 2.06600 27.73000
N  35.46600 2.05200 32.29200
C  34.42800 2.44900 33.11200
C  34.91100 2.48400 34.54100
C  36.47300 2.42600 34.45800
C  36.65500 2.11600 32.94700
C  37.15800 3.82800 34.75000
C  34.24000 1.39200 35.40300
C  34.08700 1.71100 36.96800
H  34.99100 2.76400 37.65900
N  37.62300 1.25100 30.22600
C  38.46400 1.40500 31.24800
C  39.80400 1.13800 30.87000
C  39.74500 0.83900 29.48800
C  38.34300 0.99900 29.09500
C  40.88400 1.03600 31.91600
C  40.87500 0.44300 28.53800
O  40.71700 0.24000 27.33900
C  42.28100 0.21400 29.05900
N  35.53000 1.50200 28.15300
C  36.58800 1.33300 27.29200
C  36.23800 1.36400 25.81700
C  34.69100 1.24800 25.90600
C  34.38700 1.65300 27.36900
C  36.67900 2.67100 25.10700
C  34.02000 -0.03200 25.50900
C  33.68700 -0.12200 23.99700
N  33.55300 2.23100 30.10600
C  32.72400 2.39100 29.04300
C  31.42800 2.88100 29.50700
C  31.51600 2.92300 30.94500
C  32.82400 2.56200 31.23400
C  30.22300 3.06700 28.66700
C  30.84400 3.22000 32.14500
O  29.66200 3.52700 32.23900
C  31.93700 3.11000 33.31200
C  31.90100 4.46100 33.98100
O  32.13400 5.52300 33.46800
O  31.50000 4.31600 35.31500
C  31.31900 5.61800 36.01000
H  38.74300 1.65500 33.29400
H  38.65200 0.90500 26.98900
H  32.33300 2.16900 26.94200
H  34.71200 3.50300 34.87000
H  36.95700 1.60100 34.98200
H  36.50800 4.40600 35.40700
H  37.41300 4.31500 33.80800
H  38.06200 3.52800 35.27900
H  34.75900 0.43500 35.35100
H  33.21100 1.23600 35.07800
H  34.04600 0.73200 37.44500
H  33.06500 2.09000 36.98900
H  41.67800 0.38900 31.54300
H  40.47500 0.59000 32.82300
H  41.23700 2.01000 32.25300
H  42.51500 0.97600 29.80200
H  42.88800 0.32100 28.16000
H  42.32500 -0.82700 29.38000
H  36.84700 0.54100 25.44100
H  34.27200 1.96100 25.19600
H  37.05600 3.36700 25.85600
H  35.84000 3.21400 24.67300
H  37.46700 2.57300 24.36000
H  33.10300 -0.35900 26.00000
H  34.75000 -0.80400 25.75300
H  32.63400 -0.38100 23.88400
H  34.22200 -0.89800 23.44900
H  33.84300 0.77300 23.39500
H  29.35700 2.56400 29.09700
H  30.27200 2.60100 27.68300
H  30.00500 4.12800 28.54700
H  31.68200 2.35200 34.05200
H  30.81100 6.36200 35.39700
H  32.25800 6.03000 36.38100
H  30.63600 5.48400 36.84800
Mg 46.88700 16.29900 28.79200
C  44.83100 15.62500 31.52400
C  49.04900 17.73900 31.05600
C  48.63300 17.56700 26.15700
C  44.52600 15.03800 26.68300
N  46.96800 16.58800 31.04800
C  46.05800 16.21300 31.93700
C  46.40100 16.54800 33.38300
C  47.60300 17.52700 33.18200
C  47.92200 17.24500 31.70400
C  47.17800 19.01400 33.38200
C  46.69800 15.31500 34.19900
C  46.38600 15.43800 35.72900
H  46.10800 16.79200 36.47300
N  48.62800 17.40900 28.68100
C  49.49400 17.77900 29.70100
C  50.79300 18.22600 29.08800
C  50.56900 18.36600 27.67500
C  49.22700 17.77900 27.43800
C  51.81900 18.82200 29.98600
C  51.60200 18.69700 26.59000
O  51.28700 18.73100 25.38300
C  53.06000 18.73900 27.02300
N  46.48200 16.49500 26.74700
C  47.35000 17.01200 25.83100
C  47.05900 16.52800 24.38300
C  45.80100 15.68600 24.60500
C  45.55200 15.77700 26.07600
C  47.03400 17.70000 23.35200
C  45.92900 14.29200 23.86800
C  46.12800 13.06000 24.78400
N  45.03000 15.52200 28.95100
C  44.23400 14.91900 28.04700
C  43.12500 14.20400 28.66500
C  43.27800 14.59800 29.96500
C  44.45900 15.34500 30.13100
C  41.97800 13.37700 28.04000
C  42.64100 14.44300 31.28400
O  41.62500 13.78300 31.63600
C  43.56600 15.15500 32.28000
C  42.78100 16.34900 32.71300
O  42.10700 17.12400 32.02300
O  42.89900 16.42700 34.09200
C  42.36000 17.70900 34.66200
H  49.64400 18.31900 31.76500
H  49.24500 17.70500 25.26300
H  43.90500 14.48100 25.97900
H  45.53900 17.02500 33.84900
H  48.44800 17.16900 33.77000
H  46.14800 19.28300 33.61400
H  47.50100 19.67700 32.58000
H  47.66700 19.28800 34.31700
H  47.74100 15.04600 34.03100
H  46.14500 14.40000 33.98900
H  47.21600 14.92900 36.22000
H  45.48000 14.94900 36.08700
H  52.79600 18.34100 29.95300
H  51.53400 18.83700 31.03800
H  51.86400 19.88300 29.74100
H  53.55700 18.69600 26.05400
H  53.23500 17.88800 27.68200
H  53.18500 19.65400 27.60100
H  47.93100 15.94500 24.08800
H  44.95900 16.17500 24.11300
H  47.66900 17.42000 22.51100
H  47.45900 18.57600 23.84200
H  45.96900 17.83600 23.16300
H  46.73700 14.27400 23.13700
H  45.03100 14.02400 23.31100
H  46.93400 13.29800 25.47900
H  46.55000 12.29100 24.13700
H  45.15100 12.74500 25.15000
H  42.33800 13.04500 27.06600
H  41.14500 14.02900 27.77600
H  41.74200 12.56200 28.72500
H  43.91000 14.54800 33.11800
H  42.63600 18.59400 34.08800
H  42.68800 17.81200 35.69600
H  41.27300 17.69900 34.73600

