158

Mg 25.93900 0.12000 29.56300
C  27.65000 0.06300 32.61200
C  23.04500 0.66500 31.15800
C  24.55000 0.29800 26.62900
C  29.09300 -0.56300 27.93300
N  25.48800 0.29100 31.64000
C  26.31000 0.39100 32.74100
C  25.48400 0.38900 34.04000
C  23.97600 0.22600 33.55800
C  24.13200 0.50100 32.02000
C  23.37300 -1.20200 33.81000
C  25.80500 1.52800 35.03500
C  25.94300 1.09400 36.53400
H  25.29000 2.00900 37.57900
N  24.04700 0.35900 28.99600
C  22.98200 0.59500 29.75800
C  21.78200 0.79900 28.97900
C  22.25700 0.75300 27.58300
C  23.70900 0.55100 27.68600
C  20.47200 1.08700 29.69700
C  21.46000 0.86600 26.26200
O  22.00500 0.70700 25.16700
C  19.90800 1.14200 26.27000
N  26.76600 -0.12600 27.57600
C  25.89200 0.02700 26.48900
C  26.54100 -0.19600 25.11600
C  28.06200 -0.26400 25.56600
C  27.98700 -0.33900 27.09300
C  26.22300 -1.50200 24.31400
C  28.89800 1.03300 25.19600
C  30.33200 0.70700 24.75900
N  28.01400 -0.21700 30.08000
C  29.13300 -0.46700 29.34200
C  30.25700 -0.57300 30.24200
C  29.76200 -0.40000 31.55400
C  28.34700 -0.20800 31.44000
C  31.70300 -0.75700 29.82100
C  30.08100 -0.30900 32.92700
O  31.14800 -0.28600 33.43800
C  28.76200 0.04600 33.67100
C  28.65300 -0.97900 34.69900
O  28.24000 -2.13700 34.53400
O  29.14600 -0.53900 35.92800
C  28.83800 -1.36700 37.05500
H  22.17400 0.97900 31.73700
H  24.24800 0.37200 25.58200
H  29.93000 -0.79300 27.27100
H  25.74600 -0.57900 34.46700
H  23.36300 0.88700 34.17000
H  22.83600 -1.59900 32.94900
H  22.70200 -1.21200 34.66900
H  24.16100 -1.88400 34.12900
H  25.08100 2.34100 35.08200
H  26.76400 1.91300 34.68600
H  26.96500 0.93300 36.87700
H  25.46800 0.12100 36.66000
H  19.77500 1.72100 29.15000
H  20.53700 1.40000 30.73900
H  20.05300 0.08100 29.66700
H  19.41300 0.30900 26.76900
H  19.46300 1.19400 25.27600
H  19.73600 2.06100 26.83100
H  26.37900 0.65200 24.45000
H  28.63300 -1.14600 25.27500
H  26.96800 -1.65100 23.53300
H  25.21400 -1.34600 23.93400
H  26.13100 -2.37900 24.95500
H  29.09300 1.68200 26.05000
H  28.48800 1.67400 24.41600
H  30.39600 -0.27400 24.29000
H  30.91500 0.82000 25.67300
H  30.68400 1.41600 24.01000
H  31.92900 -1.81800 29.93600
H  32.37400 -0.45600 30.62500
H  31.93500 -0.31500 28.85200
H  28.91000 1.05400 34.05800
H  27.78100 -1.21700 37.27400
H  29.42000 -1.10800 37.94000
H  29.04200 -2.38700 36.72800
Mg 42.08800 41.08400 27.05100
C  41.19700 43.69200 29.40000
C  42.79600 39.06400 29.64400
C  42.92500 38.80200 24.85800
C  41.82600 43.46300 24.47200
N  41.89800 41.31500 29.21700
C  41.50100 42.38800 29.94000
C  41.54700 42.11700 31.48200
C  42.23200 40.68800 31.49500
C  42.32500 40.33400 30.03800
C  43.65300 40.61500 32.24500
C  40.21100 42.25100 32.20700
C  39.86600 41.36500 33.43200
H  39.41900 42.18900 34.70800
N  42.67900 39.22500 27.22100
C  42.96800 38.55800 28.37000
C  43.49100 37.23200 27.98200
C  43.58200 37.13400 26.59300
C  43.03200 38.42300 26.15800
C  43.79800 36.18300 28.97000
C  44.00300 36.00900 25.75400
O  43.97700 36.03100 24.52900
C  44.60400 34.80300 26.34900
N  42.32700 41.17500 24.98000
C  42.53500 40.02900 24.33100
C  42.67800 40.33500 22.80400
C  42.15300 41.76100 22.66800
C  42.07000 42.14400 24.12600
C  44.06800 39.97200 22.25800
C  40.82300 41.81900 21.89700
C  39.73300 40.71500 22.17400
N  41.72100 43.20400 26.88500
C  41.58100 43.98900 25.75700
C  41.12200 45.27700 26.18800
C  40.99400 45.26000 27.62000
C  41.28700 43.92800 28.02400
C  40.79200 46.45200 25.30300
C  40.53700 45.93900 28.86600
O  39.96600 46.99700 29.04100
C  40.78500 44.90800 30.13400
C  41.95700 45.38400 30.90800
O  43.12100 45.25400 30.61900
O  41.50800 45.87700 32.09400
C  42.46100 46.03400 33.14400
H  43.12600 38.38500 30.43400
H  42.96700 37.97200 24.14900
H  41.61800 44.11200 23.61900
H  42.21300 42.83200 31.96500
H  41.56700 39.92700 31.90200
H  43.54900 40.10200 33.20100
H  43.83700 41.66700 32.46600
H  44.42300 40.23700 31.57400
H  39.51000 41.81800 31.49400
H  39.93500 43.25800 32.51800
H  40.67100 40.67900 33.69500
H  39.14200 40.63200 33.07700
H  43.21600 36.31900 29.88200
H  44.87500 36.09700 29.10900
H  43.45100 35.19000 28.68400
H  45.27600 34.35200 25.61800
H  43.81000 34.13100 26.67200
H  45.30700 35.13500 27.11300
H  41.94300 39.58800 22.50500
H  42.83900 42.35700 22.06600
H  44.21000 38.96200 21.87300
H  44.83700 40.16400 23.00500
H  44.43900 40.71900 21.55600
H  41.09100 41.78000 20.84100
H  40.35100 42.79300 22.03300
H  39.53900 40.10600 21.29100
H  38.76100 41.12100 22.45400
H  40.03000 40.09100 23.01700
H  40.60900 46.05900 24.30300
H  41.57500 47.21000 25.30700
H  39.80900 46.83800 25.57300
H  39.96600 44.69700 30.82100
H  42.93300 47.01700 33.11500
H  43.14500 45.18800 33.20100
H  41.88000 45.74200 34.01900

