158

Mg -1.82200 16.92200 25.85600
C  -2.31600 14.59600 28.54700
C  -2.43600 19.41100 28.19300
C  -1.57400 19.02100 23.40300
C  -1.67200 14.09700 23.72800
N  -2.54400 17.01000 28.10100
C  -2.41100 15.95800 28.94500
C  -2.55800 16.40700 30.43300
C  -2.69000 17.98500 30.20500
C  -2.64900 18.14200 28.76300
C  -3.87900 18.66000 30.89300
C  -1.56200 16.06600 31.51700
C  -1.34300 16.91000 32.77700
H  -1.89800 16.36100 34.15900
N  -1.94300 18.95300 25.83100
C  -2.18000 19.81400 26.88700
C  -2.00000 21.14200 26.39000
C  -1.71000 21.01800 24.99300
C  -1.62300 19.59900 24.68600
C  -2.19800 22.39500 27.23600
C  -1.55700 22.16900 23.98100
O  -1.35400 21.90400 22.83600
C  -1.60200 23.57200 24.35300
N  -1.74000 16.59700 23.87800
C  -1.55500 17.68100 23.00500
C  -1.51200 17.23900 21.59000
C  -1.14300 15.73200 21.78800
C  -1.58900 15.42900 23.20700
C  -2.81900 17.63700 20.82400
C  0.30800 15.26300 21.41700
C  1.50200 15.43800 22.49000
N  -2.13800 14.79200 26.00700
C  -1.94900 13.77100 25.09600
C  -2.10300 12.49500 25.69000
C  -2.27900 12.76500 27.09400
C  -2.27200 14.17700 27.16100
C  -2.11900 11.16400 25.06700
C  -2.30900 12.13900 28.35000
O  -2.30200 10.97200 28.72100
C  -2.37700 13.29900 29.36500
C  -1.20300 13.09600 30.26400
O  -0.05900 13.52200 30.04500
O  -1.68800 12.46300 31.43400
C  -0.79800 12.31800 32.50600
H  -2.58000 20.21600 28.91600
H  -1.47200 19.73800 22.58600
H  -1.60500 13.30500 22.97800
H  -3.54600 16.04500 30.71900
H  -1.77800 18.49100 30.52200
H  -4.50100 19.13900 30.13800
H  -3.61200 19.43400 31.61300
H  -4.53300 17.90800 31.33400
H  -0.61000 15.89100 31.01500
H  -1.88200 15.13100 31.97800
H  -1.89500 17.83000 32.58500
H  -0.28500 17.12200 32.93300
H  -2.50600 22.38200 28.28100
H  -2.91200 23.07000 26.76100
H  -1.21400 22.85600 27.15200
H  -2.60100 23.82200 24.71000
H  -1.34000 24.18300 23.49000
H  -0.80100 23.65900 25.08700
H  -0.66400 17.75800 21.14500
H  -1.79000 15.14200 21.13800
H  -3.43000 16.74300 20.69500
H  -2.72700 17.97400 19.79100
H  -3.41900 18.32300 21.42300
H  0.66400 15.65700 20.46500
H  0.11700 14.20900 21.21900
H  2.33700 15.96300 22.02500
H  1.84400 14.46500 22.84300
H  1.20000 16.03100 23.35300
H  -2.80200 10.57400 25.67800
H  -1.11300 10.74400 25.06900
H  -2.54200 11.31200 24.07400
H  -3.32100 13.26500 29.90900
H  0.01500 13.03300 32.63300
H  -0.25000 11.37600 32.53800
H  -1.45300 12.37700 33.37500
Mg 6.86600 53.95500 41.12300
C  6.23200 50.32600 40.73500
C  10.09000 53.30200 40.47700
C  7.17000 57.23500 41.07500
C  3.37900 54.20400 41.41000
N  7.97400 51.96000 40.54000
C  7.56000 50.64800 40.46900
C  8.74800 49.70400 40.38700
C  9.97500 50.64300 40.62500
C  9.31400 52.08800 40.51500
C  10.84600 50.47400 41.89500
C  8.80300 48.81000 38.99200
C  8.86600 49.48100 37.68600
H  7.63500 49.54900 36.83700
N  8.44200 55.19700 40.81000
C  9.74400 54.74100 40.58100
C  10.59500 55.92700 40.44800
C  9.77400 57.12400 40.63100
C  8.44800 56.58700 40.92800
C  12.09200 55.94100 40.26900
C  10.23500 58.55100 40.46100
O  11.41800 58.72200 40.08100
C  9.25000 59.60800 40.75500
N  5.46000 55.48200 41.19800
C  5.89300 56.72500 41.33000
C  4.65600 57.73000 41.52100
C  3.46800 56.77500 41.28800
C  4.10400 55.40800 41.29600
C  4.56400 58.47300 42.90600
C  2.62200 57.12300 40.07300
C  1.35500 57.90400 40.32800
N  5.12100 52.59500 41.10200
C  3.83300 52.88100 41.35300
C  3.01100 51.76800 41.45100
C  3.92800 50.67800 41.28000
C  5.19900 51.25000 40.95600
C  1.50600 51.69200 41.68800
C  4.05300 49.23600 41.34400
O  3.14400 48.43700 41.58300
C  5.43900 48.92400 40.72900
C  5.21200 48.33900 39.28700
O  4.79800 48.99600 38.32400
O  5.59300 46.99700 39.23800
C  5.41800 46.33800 38.00800
H  11.15900 53.20000 40.28100
H  7.22500 58.31400 40.91800
H  2.32000 54.36500 41.62200
H  8.74200 49.01700 41.23400
H  10.66400 50.53700 39.78700
H  10.72000 49.40500 42.06500
H  10.45900 51.10100 42.69800
H  11.87400 50.59700 41.55400
H  7.90500 48.21100 39.14100
H  9.77100 48.32000 39.09100
H  9.57700 48.97800 37.03100
H  9.36900 50.44200 37.58300
H  12.32800 56.45900 39.33900
H  12.46000 54.92500 40.12900
H  12.65800 56.35000 41.10600
H  8.45000 59.60500 40.01400
H  9.76300 60.53800 40.51000
H  8.95000 59.58800 41.80200
H  4.85500 58.39800 40.68300
H  2.82700 56.69700 42.16700
H  3.77100 58.11500 43.56400
H  4.44200 59.54500 42.74600
H  5.55200 58.50500 43.36400
H  2.31700 56.14900 39.69000
H  3.23300 57.71100 39.38800
H  0.90100 57.72900 41.30300
H  0.62100 57.51200 39.62500
H  1.49800 58.96200 40.10800
H  0.98400 51.31400 40.80900
H  1.07600 52.66200 41.93400
H  1.14600 51.08900 42.52200
H  6.11800 48.27800 41.28500
H  5.58800 47.05900 37.20900
H  4.39500 46.00300 37.83900
H  6.12900 45.52400 37.86600

