158

Mg 48.98700 25.12800 28.22100
C  49.96400 27.30100 30.78700
C  48.05500 22.80800 30.59200
C  48.19300 22.93100 25.71200
C  50.54700 27.17200 25.94500
N  48.86900 25.13500 30.38800
C  49.22900 26.16900 31.27600
C  48.74600 25.85900 32.72200
C  48.56500 24.38300 32.59900
C  48.49000 24.02300 31.07500
C  49.40600 23.47000 33.56800
C  47.45300 26.73400 33.00700
C  47.70000 27.89000 33.96100
H  46.78200 27.92200 35.13000
N  48.21200 23.07800 28.20500
C  47.91600 22.33400 29.29200
C  47.41800 21.04700 28.88100
C  47.30700 21.08300 27.42300
C  47.92600 22.35800 27.05700
C  46.97100 19.85900 29.80300
C  46.61700 20.07600 26.49700
O  46.63000 20.17000 25.27300
C  45.70300 18.86400 27.01600
N  49.40600 25.03900 26.15200
C  48.80000 24.15100 25.32900
C  49.13600 24.50100 23.85800
C  49.82700 25.92700 23.93200
C  49.92800 26.10300 25.37400
C  50.10400 23.50300 23.03600
C  49.10400 27.00100 23.19900
C  49.82800 28.28400 22.65600
N  50.02000 26.86500 28.26800
C  50.59300 27.61800 27.27000
C  51.21800 28.81800 27.73700
C  51.04100 28.75900 29.13000
C  50.29500 27.54800 29.42000
C  52.05500 29.77300 26.95500
C  51.21800 29.45300 30.45600
O  51.71400 30.57500 30.71100
C  50.44000 28.53100 31.52600
C  51.38600 28.16700 32.61400
O  52.13900 27.22500 32.63400
O  51.36800 29.08000 33.61000
C  51.89800 28.75800 35.00000
H  47.84700 22.02800 31.32600
H  48.03600 22.30300 24.83300
H  51.09300 27.67700 25.14600
H  49.54300 26.17500 33.39600
H  47.57400 24.14000 32.98300
H  50.13400 24.10000 34.08000
H  49.95800 22.78700 32.92200
H  48.72500 23.08300 34.32600
H  46.62400 26.07700 33.27200
H  47.22700 27.12600 32.01500
H  47.81100 28.88800 33.53700
H  48.64400 27.78000 34.49500
H  45.92500 19.58100 29.67300
H  47.12000 20.18200 30.83300
H  47.68600 19.04000 29.73200
H  46.19700 18.17600 27.70200
H  45.31700 18.28100 26.18000
H  44.85600 19.20600 27.61100
H  48.24800 24.45200 23.22600
H  50.88000 25.78400 23.68700
H  49.51100 22.73500 22.53900
H  50.79700 22.94600 23.66600
H  50.73700 23.97900 22.28700
H  48.32400 27.36100 23.87000
H  48.53900 26.57000 22.37300
H  49.40100 29.06700 23.28200
H  49.48300 28.39800 21.62800
H  50.91700 28.31200 22.71100
H  52.58000 29.10900 26.26800
H  52.62100 30.32700 27.70400
H  51.40300 30.43100 26.38100
H  49.55500 29.07700 31.85400
H  52.96000 28.99200 34.92500
H  51.65800 27.70900 35.17500
H  51.40500 29.38700 35.74100
Mg 50.26500 35.05400 26.65600
C  47.98000 33.77100 29.09500
C  50.07900 38.04300 28.19600
C  51.66200 36.47600 23.89100
C  49.94500 31.98300 24.75200
N  49.43800 35.72300 28.54700
C  48.46800 35.08800 29.35400
C  48.19100 35.90200 30.65500
C  48.71200 37.33200 30.22400
C  49.46100 37.03500 28.90600
C  47.48300 38.34300 30.10800
C  49.00700 35.24000 31.79300
C  48.28000 34.96100 33.17000
H  47.99400 36.18700 34.06400
N  51.10200 36.98700 26.24600
C  50.90100 38.06000 27.03200
C  51.58700 39.16800 26.37900
C  52.09400 38.66200 25.08800
C  51.60300 37.28100 25.04900
C  51.91200 40.45900 27.13600
C  53.09400 39.27700 24.06500
O  53.58100 38.56000 23.15000
C  53.60500 40.67700 24.11000
N  50.69100 34.29700 24.63400
C  51.32100 35.14200 23.73800
C  51.77500 34.40300 22.39300
C  51.50800 32.92700 22.77300
C  50.65000 32.98900 24.12800
C  50.92800 34.93800 21.19100
C  52.67400 31.90000 22.86500
C  54.11800 32.38500 23.29400
N  49.26500 33.22800 26.86300
C  49.19100 32.07200 26.00800
C  48.29600 31.19700 26.59300
C  47.73800 31.83800 27.72400
C  48.43500 33.02400 27.92500
C  47.81700 29.88200 26.02000
C  46.83700 31.69000 28.76800
O  46.18000 30.70300 29.08800
C  46.98100 32.95500 29.77200
C  47.28700 32.41200 31.12300
O  48.39100 31.86300 31.41400
O  46.25400 32.47600 32.00600
C  46.48100 31.84600 33.27200
H  49.89100 39.00600 28.67500
H  52.07600 36.81900 22.94100
H  49.87700 31.07800 24.14500
H  47.13500 35.90100 30.92600
H  49.42100 37.76000 30.93300
H  47.66600 38.54100 29.05100
H  47.58900 39.24500 30.71100
H  46.49400 37.93500 30.31300
H  49.75000 35.98500 32.07600
H  49.48100 34.34500 31.38900
H  48.96800 34.26400 33.64700
H  47.34500 34.48700 32.86900
H  51.31500 40.52600 28.04500
H  51.69200 41.34700 26.54200
H  52.97200 40.23000 27.24500
H  54.15300 40.85500 25.03500
H  52.82900 41.44200 24.12000
H  54.33000 40.76100 23.30100
H  52.78100 34.70700 22.10400
H  50.87300 32.52400 21.98300
H  50.25200 34.14300 20.87600
H  51.49200 35.33700 20.34800
H  50.17800 35.58300 21.64900
H  52.71000 31.36500 21.91600
H  52.46900 31.15700 23.63500
H  54.20600 33.47100 23.27600
H  54.84100 31.84100 22.68700
H  54.29100 32.06300 24.32100
H  48.14900 29.11100 26.71500
H  48.26900 29.66600 25.05200
H  46.73600 29.84000 25.88200
H  46.05300 33.52000 29.86600
H  45.50200 31.63400 33.70100
H  47.07300 32.59400 33.79900
H  47.09100 30.95200 33.14100

