158

Mg 35.48900 1.71800 29.81000
C  33.16400 2.71100 32.20700
C  37.87800 1.71300 32.39700
C  37.94900 1.37200 27.56800
C  33.16100 1.94900 27.35700
N  35.57100 2.43500 32.08000
C  34.44500 2.56400 32.81000
C  34.76900 2.73700 34.30800
C  36.27400 2.67600 34.32800
C  36.57400 2.15800 32.87600
C  37.21100 3.87000 34.74400
C  33.98400 1.62500 35.08000
C  33.41300 2.07800 36.45600
H  34.04100 3.26600 37.18000
N  37.59100 1.45900 29.96100
C  38.36000 1.56500 31.10200
C  39.71500 1.19500 30.75800
C  39.77900 1.10000 29.37800
C  38.40800 1.37600 28.89100
C  40.89600 1.07700 31.81100
C  41.06600 0.78600 28.46900
O  40.88700 0.63700 27.26000
C  42.47600 0.73400 29.07800
N  35.55300 1.63100 27.80000
C  36.66300 1.44300 27.00700
C  36.30300 1.24000 25.49900
C  34.75500 1.00700 25.59500
C  34.47200 1.58600 27.04700
C  36.88700 2.35300 24.66400
C  34.35800 -0.45700 25.36300
C  33.95400 -0.88100 23.92100
N  33.46600 2.22000 29.71400
C  32.69000 2.37500 28.62000
C  31.33900 2.62200 29.12500
C  31.44100 2.82900 30.52500
C  32.78400 2.58500 30.83100
C  30.18200 2.84400 28.24000
C  30.75200 3.22200 31.77700
O  29.64000 3.61900 31.99700
C  31.83600 3.18800 32.89400
C  31.97500 4.58500 33.30700
O  32.71700 5.40100 32.76800
O  31.10800 4.84700 34.38400
C  31.14000 6.26300 34.81800
H  38.55800 1.71400 33.25100
H  38.69300 1.31700 26.77100
H  32.54700 1.86700 26.45800
H  34.38800 3.73700 34.51700
H  36.49600 1.86100 35.01700
H  36.66800 4.81100 34.83700
H  37.96300 4.11800 33.99500
H  37.63100 3.79100 35.74600
H  34.71200 0.82600 35.22300
H  33.17000 1.15700 34.52600
H  33.57500 1.19700 37.07700
H  32.33200 2.14900 36.33900
H  40.43500 1.18000 32.79300
H  41.63800 1.87300 31.75800
H  41.40900 0.11700 31.86700
H  42.62700 -0.13000 29.72400
H  42.57100 1.69100 29.59200
H  43.29000 0.65000 28.35800
H  36.82100 0.34000 25.16800
H  34.22800 1.68300 24.92200
H  36.21200 2.92000 24.02300
H  37.71800 1.91400 24.11100
H  37.38500 3.09600 25.28600
H  33.57000 -0.71600 26.07100
H  35.19300 -1.02500 25.77200
H  34.80500 -0.74600 23.25400
H  33.09400 -0.25800 23.67700
H  33.64700 -1.91600 24.07300
H  29.85000 1.87300 27.87100
H  30.46600 3.49200 27.41100
H  29.41700 3.42300 28.75600
H  31.58800 2.51400 33.71400
H  32.07800 6.49400 35.32200
H  30.27100 6.47400 35.44100
H  30.95200 6.95000 33.99200
Mg 9.14200 47.47200 28.33900
C  7.35000 47.12100 31.38000
C  11.94900 48.21200 30.15200
C  10.74100 48.52300 25.53700
C  6.05700 48.28200 26.72900
N  9.52600 47.60900 30.52400
C  8.73500 47.34600 31.63300
C  9.49400 47.61800 32.97400
C  10.84600 48.05500 32.45800
C  10.77100 48.04100 30.90100
C  11.29600 49.48900 32.94200
C  9.37800 46.41700 33.88700
C  10.51900 46.09400 34.86500
H  10.10500 45.20600 36.08900
N  11.15800 47.77700 27.91100
C  12.13800 48.02200 28.80900
C  13.42400 48.14900 28.17300
C  13.11600 48.31400 26.75600
C  11.60600 48.21900 26.63300
C  14.80300 48.28600 28.84400
C  14.03800 48.56000 25.55600
O  13.61600 48.75100 24.45400
C  15.46700 48.51300 25.82500
N  8.49700 48.21000 26.35700
C  9.32700 48.51200 25.40600
C  8.73600 49.09100 24.16300
C  7.22900 48.84200 24.49100
C  7.21100 48.35600 25.94900
C  9.08600 50.59700 23.92700
C  6.49300 47.78700 23.57600
C  7.30000 46.42700 23.60700
N  7.12400 47.54300 28.81500
C  5.98600 47.83500 28.06500
C  4.79000 47.55700 28.89500
C  5.29700 47.21000 30.23000
C  6.71900 47.29900 30.06900
C  3.31600 47.67200 28.43100
C  4.91500 46.92900 31.57600
O  3.80700 46.79700 32.03300
C  6.20900 47.07300 32.36700
C  6.33000 45.89000 33.17900
O  6.52300 44.75800 32.71100
O  6.26200 46.13300 34.52900
C  6.49500 44.91700 35.35100
H  12.81200 48.38100 30.79800
H  11.33800 48.83100 24.67600
H  5.09300 48.39100 26.22800
H  8.94500 48.49700 33.31100
H  11.48300 47.20100 32.68800
H  12.38200 49.52800 33.02400
H  10.80000 49.63300 33.90200
H  10.87900 50.28300 32.32400
H  8.98400 45.52900 33.39100
H  8.61300 46.72700 34.59800
H  10.78500 47.05800 35.29900
H  11.43300 45.72200 34.40200
H  15.64800 47.74900 28.41200
H  14.81900 48.05400 29.90900
H  15.09100 49.33800 28.83900
H  15.97900 48.81600 24.91300
H  15.64100 47.45700 26.02900
H  15.77700 49.19100 26.62100
H  9.04000 48.49700 23.30100
H  6.74200 49.81000 24.37300
H  9.93200 50.57800 23.24000
H  9.43900 51.01200 24.87100
H  8.23700 51.15500 23.53200
H  6.43000 48.08500 22.52900
H  5.50100 47.60700 23.99200
H  8.07800 46.41900 24.37000
H  7.75900 46.27100 22.63100
H  6.74100 45.52000 23.83900
H  3.25000 48.43500 27.65500
H  2.60400 48.01700 29.18100
H  2.97200 46.66700 28.18900
H  6.06900 47.90900 33.05300
H  6.41000 45.31700 36.36100
H  7.42000 44.40000 35.09300
H  5.68500 44.21100 35.17000

