158

Mg 42.36900 41.34200 26.34300
C  41.70200 43.65600 28.68900
C  43.69900 39.23700 28.59500
C  43.69000 39.38700 23.76100
C  41.63900 43.86200 23.85400
N  42.72200 41.46700 28.43200
C  42.17800 42.40400 29.23000
C  42.40000 42.06200 30.68400
C  43.19400 40.68100 30.64500
C  43.13500 40.44100 29.13300
C  44.71400 40.72200 31.23900
C  41.05800 41.92800 31.46900
C  41.16800 41.47200 32.94100
H  40.48900 42.36300 33.99400
N  43.41100 39.38800 26.20100
C  43.85500 38.74800 27.27700
C  44.43500 37.48100 26.79300
C  44.31600 37.49000 25.32100
C  43.75200 38.78300 24.97100
C  45.06100 36.46700 27.78300
C  44.64900 36.34000 24.40400
O  44.38900 36.34700 23.20600
C  45.12600 35.00900 24.99900
N  42.44200 41.49300 24.12000
C  43.13300 40.64500 23.36400
C  43.03500 41.01100 21.92800
C  42.19500 42.29800 21.93200
C  42.15300 42.58900 23.43500
C  44.39200 41.12300 21.14700
C  40.83100 42.14000 21.33100
C  39.60200 41.79900 22.06200
N  41.76800 43.32700 26.24500
C  41.57500 44.24900 25.19200
C  41.11600 45.50500 25.68500
C  41.17000 45.32200 27.09600
C  41.65200 44.01100 27.33700
C  40.67800 46.68400 24.86100
C  40.78900 45.81900 28.42200
O  40.28700 46.88000 28.76700
C  41.10100 44.77600 29.51400
C  42.12100 45.34600 30.37400
O  43.18200 45.81700 29.99000
O  41.74600 45.24300 31.66800
C  42.73600 45.88500 32.62600
H  43.93200 38.44400 29.30900
H  44.04400 38.77900 22.92600
H  41.33500 44.59500 23.10400
H  43.04300 42.81100 31.14600
H  42.62900 39.91300 31.17400
H  44.94500 41.77100 31.42400
H  45.45700 40.58000 30.45500
H  44.77900 40.19500 32.19200
H  40.39000 41.23800 30.95400
H  40.37600 42.77300 31.56700
H  42.24600 41.42400 33.09400
H  40.88500 40.43800 33.13800
H  45.73200 37.05200 28.41200
H  45.62000 35.60200 27.42600
H  44.42400 36.10100 28.58800
H  44.52800 34.74300 25.87100
H  46.18200 35.06600 25.26100
H  45.02100 34.24400 24.22900
H  42.48300 40.13600 21.58500
H  42.72700 43.15500 21.51900
H  44.49200 40.23200 20.52700
H  45.24400 41.26400 21.81100
H  44.32900 41.92100 20.40600
H  40.96700 41.35100 20.59100
H  40.65400 43.10000 20.84500
H  39.69900 41.79600 23.14800
H  39.15500 40.85300 21.75700
H  38.87700 42.60600 21.95800
H  39.93500 46.39700 24.11800
H  41.48100 47.19000 24.32500
H  40.09300 47.34900 25.49600
H  40.20600 44.45000 30.04400
H  43.77800 45.60500 32.47300
H  42.50400 45.53000 33.63100
H  42.67900 46.97400 32.61700
Mg -11.39100 38.36900 41.89700
C  -9.27400 35.69000 40.63400
C  -9.37300 40.47000 40.03000
C  -13.92000 40.50500 41.70200
C  -13.62200 35.77100 43.08600
N  -9.55200 38.07700 40.49900
C  -8.86800 36.98000 40.17300
C  -7.61500 37.32400 39.35100
C  -7.48100 38.85300 39.55700
C  -8.92400 39.18900 40.04900
C  -6.35600 39.32400 40.51800
C  -7.78600 36.85100 37.79000
C  -6.88100 35.70000 37.38500
H  -5.59600 36.01000 36.68600
N  -11.49100 40.30700 41.31800
C  -10.52900 41.00200 40.66000
C  -10.85000 42.43000 40.76800
C  -12.21300 42.44600 41.09400
C  -12.64900 41.03500 41.38200
C  -9.87800 43.44800 40.24900
C  -13.07300 43.77400 41.13200
O  -12.53700 44.86200 40.95400
C  -14.54800 43.73800 41.44100
N  -13.48200 38.21400 42.36700
C  -14.36500 39.25700 42.28700
C  -15.73600 38.93500 42.99900
C  -15.56500 37.42200 43.33400
C  -14.07600 37.06100 42.90700
C  -15.98800 39.78500 44.21300
C  -16.73800 36.43000 42.81300
C  -17.28500 35.44900 43.85900
N  -11.46400 36.21000 41.96200
C  -12.40600 35.29200 42.54700
C  -11.87000 33.96800 42.46900
C  -10.66800 34.08000 41.74400
C  -10.47200 35.43000 41.43100
C  -12.55300 32.78400 43.12500
C  -9.60200 33.30500 41.06800
O  -9.35700 32.12700 41.12800
C  -8.68200 34.32200 40.37600
C  -7.21100 34.25900 40.77700
O  -6.73500 34.90800 41.69900
O  -6.52800 33.27800 40.06400
C  -5.09800 33.08200 40.50100
H  -8.67600 41.14100 39.52300
H  -14.80000 41.15100 41.71700
H  -14.32600 35.07500 43.54700
H  -6.77100 36.80200 39.80300
H  -7.31000 39.16900 38.52800
H  -6.63800 40.28800 40.94300
H  -5.39000 39.38800 40.01700
H  -6.29800 38.59500 41.32600
H  -7.64700 37.66000 37.07400
H  -8.82500 36.56300 37.62500
H  -7.38300 34.99600 36.72200
H  -6.66700 35.11300 38.27800
H  -10.20800 44.37500 40.71900
H  -9.90900 43.47300 39.16000
H  -8.91300 43.16200 40.66600
H  -15.02200 43.09300 40.70000
H  -15.03800 44.70200 41.30300
H  -14.82000 43.25400 42.37900
H  -16.58900 39.01400 42.32500
H  -15.54100 37.23600 44.40800
H  -15.06300 39.98900 44.75200
H  -16.66700 39.33600 44.93700
H  -16.54200 40.70700 44.04000
H  -16.21600 35.86000 42.04500
H  -17.51300 37.02500 42.33000
H  -18.37000 35.54300 43.91000
H  -16.75500 35.66600 44.78700
H  -17.13700 34.43500 43.48800
H  -13.48600 32.47800 42.65200
H  -12.76500 32.90200 44.18800
H  -11.90200 31.92400 42.96900
H  -8.79200 34.20600 39.29800
H  -4.61700 32.24600 39.99300
H  -5.11400 33.06500 41.59100
H  -4.52800 33.93500 40.13200

