158

Mg 28.16000 56.41500 40.28300
C  25.97300 53.84300 39.60200
C  30.91300 54.43300 39.46600
C  30.16400 59.09100 40.42100
C  25.29500 58.49400 40.50800
N  28.33200 54.45000 39.55300
C  27.30400 53.57200 39.32700
C  27.80700 52.26300 38.67200
C  29.37400 52.34700 38.93300
C  29.58300 53.88100 39.39700
C  29.93000 51.32000 39.90600
C  27.46700 52.12500 37.14800
C  26.89800 53.36600 36.39000
H  26.76600 53.21700 34.82900
N  30.26200 56.73000 40.09200
C  31.21200 55.81200 39.77200
C  32.51700 56.45400 39.83200
C  32.38600 57.79000 40.21800
C  30.89500 57.96800 40.31700
C  33.74500 55.64300 39.60500
C  33.54100 58.74200 40.41000
O  34.74000 58.50000 40.28900
C  33.21100 60.04500 40.94800
N  27.75800 58.51600 40.34200
C  28.76600 59.40300 40.52000
C  28.21400 60.83000 40.87600
C  26.70300 60.66300 40.64200
C  26.54600 59.14700 40.56000
C  28.69200 61.30500 42.29500
C  26.10900 61.53100 39.55600
C  26.14400 63.05300 39.83900
N  26.06500 56.23200 40.16400
C  25.04000 57.17000 40.29500
C  23.72300 56.52200 40.13800
C  23.99900 55.19100 39.86100
C  25.45800 55.07800 39.89800
C  22.36900 57.17500 40.06800
C  23.47300 53.85100 39.66300
O  22.31400 53.41700 39.57900
C  24.78100 52.92400 39.50200
C  24.74900 51.83800 40.57300
O  24.13300 50.81300 40.45300
O  25.45400 52.18800 41.68200
C  25.37300 51.32300 42.87500
H  31.78700 53.81000 39.26800
H  30.71500 60.02600 40.53500
H  24.45000 59.16600 40.67100
H  27.38900 51.39200 39.17500
H  29.80700 52.19900 37.94400
H  29.09100 50.83600 40.40700
H  30.46600 51.78400 40.73400
H  30.45500 50.52400 39.37700
H  26.66200 51.39000 37.16800
H  28.36200 51.67100 36.72300
H  27.45000 54.25300 36.70000
H  25.88600 53.51500 36.76600
H  33.57100 55.06900 38.69500
H  33.68600 54.96300 40.45500
H  34.67000 56.21100 39.50600
H  32.62000 60.03900 41.86400
H  32.64000 60.52800 40.15500
H  34.06400 60.71100 41.07400
H  28.62200 61.47000 40.09400
H  26.11700 60.95400 41.51300
H  29.76900 61.42800 42.41300
H  28.41200 60.59200 43.07100
H  28.18200 62.23600 42.54000
H  25.16800 61.11800 39.19400
H  26.72400 61.28700 38.69000
H  26.60400 63.32500 40.78800
H  25.11900 63.42600 39.84000
H  26.74000 63.61500 39.12000
H  21.61400 56.66900 39.46500
H  22.54100 58.13800 39.58700
H  21.93900 57.23200 41.06800
H  24.95800 52.44000 38.54100
H  25.99000 50.47000 42.59200
H  24.41100 50.86100 43.09700
H  25.64200 51.82300 43.80500
Mg -9.52800 38.95400 41.18800
C  -7.51200 36.11400 40.56700
C  -7.23200 41.00800 39.81200
C  -11.67400 41.41100 41.54100
C  -12.08700 36.65600 42.10100
N  -7.72800 38.58900 40.17500
C  -6.96500 37.39700 40.15200
C  -5.57800 37.60700 39.59300
C  -5.44200 39.16100 39.67500
C  -6.88800 39.66500 39.94400
C  -4.38500 39.68600 40.67500
C  -5.40000 36.92200 38.25000
C  -6.65900 36.70500 37.37500
H  -6.40600 36.52100 35.84100
N  -9.38200 40.94500 40.82300
C  -8.41700 41.58200 40.16900
C  -8.84900 42.95000 39.91300
C  -9.96800 43.15200 40.70400
C  -10.39100 41.82500 41.04100
C  -7.95700 43.94700 39.06700
C  -10.70300 44.47600 40.89500
O  -10.32500 45.50800 40.40300
C  -11.85500 44.69000 41.88400
N  -11.58400 38.98700 41.58400
C  -12.19100 40.20200 41.90700
C  -13.62200 40.08100 42.17600
C  -13.70200 38.55900 42.44500
C  -12.33200 38.04500 41.97700
C  -14.15400 40.99100 43.28100
C  -14.93800 37.82700 41.76000
C  -16.39100 38.45600 41.86900
N  -9.72300 36.76500 41.35000
C  -10.81400 36.01000 41.85700
C  -10.45300 34.58200 41.89900
C  -9.14700 34.56300 41.34100
C  -8.75600 35.89100 41.01800
C  -11.21700 33.54000 42.48600
C  -7.94500 33.74100 41.07200
O  -7.70300 32.52900 41.13600
C  -6.82500 34.76800 40.53300
C  -5.58800 34.62800 41.27800
O  -5.19800 35.41200 42.15600
O  -4.86300 33.63100 40.70600
C  -3.53500 33.27500 41.18500
H  -6.49400 41.47700 39.15700
H  -12.47600 42.15100 41.57900
H  -12.84500 35.98200 42.50500
H  -4.88100 37.20500 40.32800
H  -5.23100 39.62900 38.71300
H  -4.50100 40.76500 40.77500
H  -3.44100 39.32600 40.26600
H  -4.44900 39.20200 41.65000
H  -4.97200 35.92800 38.38600
H  -4.61600 37.43600 37.69500
H  -7.39300 37.48800 37.56800
H  -7.20600 35.82000 37.70100
H  -7.91600 44.85800 39.66400
H  -8.48400 44.29200 38.17800
H  -6.96600 43.50300 38.97700
H  -11.79300 44.04000 42.75700
H  -12.76500 44.52500 41.30800
H  -11.83600 45.71200 42.26400
H  -14.14800 40.26400 41.23900
H  -13.63400 38.41200 43.52300
H  -13.47100 41.64400 43.82500
H  -14.51400 40.26800 44.01300
H  -15.00300 41.58500 42.94200
H  -15.06300 36.82000 42.16000
H  -14.61400 37.51600 40.76700
H  -16.74200 38.73700 40.87600
H  -16.44700 39.25700 42.60600
H  -16.97900 37.60700 42.22000
H  -12.16600 33.97000 42.80800
H  -10.75200 32.96800 43.28900
H  -11.24100 33.00800 41.53500
H  -6.67300 34.48000 39.49300
H  -2.94300 32.66500 40.50400
H  -3.69600 32.72100 42.11000
H  -2.91800 34.15200 41.38200

