158

Mg 35.15200 2.96100 29.69000
C  32.48300 3.92300 31.88700
C  37.24400 3.37700 32.32200
C  37.56400 2.12600 27.67500
C  32.85100 3.13000 27.02400
N  34.85600 3.50100 31.90400
C  33.70900 3.79900 32.56300
C  33.87200 3.79600 34.15100
C  35.42400 4.09700 34.10800
C  35.87400 3.59900 32.72700
C  35.81900 5.49900 34.55900
C  33.39400 2.42600 34.78600
C  33.12800 2.50300 36.26800
H  33.96900 3.47100 37.06600
N  37.13200 2.68000 29.98600
C  37.87600 2.93900 31.13800
C  39.26500 2.57100 30.95700
C  39.34200 2.13700 29.59500
C  38.02000 2.33300 28.99200
C  40.21800 2.71800 32.05900
C  40.51800 1.55600 28.87500
O  40.44400 1.28200 27.65200
C  41.83700 1.28900 29.52900
N  35.21400 2.66000 27.59200
C  36.32700 2.24700 26.95700
C  36.24200 2.36000 25.42200
C  34.64900 2.58900 25.20100
C  34.20100 2.79100 26.67000
C  37.12500 3.56100 24.84600
C  34.06000 1.28100 24.59700
C  33.34100 1.40000 23.23300
N  33.08600 3.55600 29.40600
C  32.34400 3.46000 28.25900
C  30.94300 3.63900 28.71400
C  30.98300 3.87500 30.11400
C  32.31800 3.78400 30.46700
C  29.76400 3.68300 27.80900
C  30.15200 4.19300 31.34000
O  28.95700 4.41000 31.41500
C  31.07400 4.15400 32.53300
C  31.06400 5.33500 33.41500
O  31.50400 6.43300 33.23400
O  30.57800 4.86200 34.60200
C  30.60300 5.86900 35.66100
H  37.92800 3.51800 33.16200
H  38.41100 1.81600 27.05900
H  32.13900 2.98400 26.20800
H  33.26900 4.60700 34.55900
H  35.85300 3.37800 34.80600
H  36.46800 5.44500 35.43400
H  34.95100 6.05000 34.92000
H  36.31500 6.11200 33.80600
H  34.20600 1.71700 34.63100
H  32.59800 1.97500 34.19300
H  33.16600 1.57600 36.84100
H  32.13500 2.95200 36.25400
H  40.93100 1.89900 31.96400
H  39.67600 2.63300 33.00000
H  40.75000 3.66800 32.11800
H  41.57900 0.65200 30.37500
H  42.29400 2.24500 29.78200
H  42.45800 0.78100 28.79100
H  36.59800 1.40500 25.03600
H  34.58800 3.45500 24.54200
H  36.58800 4.35600 24.32900
H  37.92500 3.21700 24.19100
H  37.58200 4.05300 25.70500
H  33.29300 0.93100 25.28700
H  34.67500 0.38700 24.70000
H  34.08000 1.01900 22.52700
H  33.20400 2.46500 23.04600
H  32.47500 0.74300 23.14700
H  28.95600 4.25500 28.26500
H  29.40400 2.71900 27.44700
H  30.12800 4.26100 26.96100
H  30.79200 3.30700 33.15800
H  30.30800 5.58300 36.67000
H  30.01600 6.72700 35.33400
H  31.63900 6.20400 35.71400
Mg -11.66600 16.96000 41.52000
C  -8.36000 15.92500 41.84400
C  -10.63700 20.16900 40.88200
C  -14.72800 17.83700 40.54200
C  -12.60800 13.50900 41.59000
N  -9.73900 17.86100 41.36500
C  -8.52400 17.33400 41.66400
C  -7.30100 18.38200 41.34400
C  -8.16500 19.74200 41.40400
C  -9.62300 19.24300 41.24200
C  -7.98100 20.63500 42.59300
C  -6.73100 18.07100 39.86800
C  -5.19600 18.13600 39.69900
H  -4.54100 17.01600 38.81500
N  -12.62600 18.77300 40.89100
C  -12.01200 19.95100 40.75900
C  -12.91700 21.00600 40.37700
C  -14.16100 20.30600 40.10800
C  -13.94200 18.97200 40.56400
C  -12.44900 22.35700 40.03900
C  -15.46400 20.90200 39.53300
O  -15.54900 22.06700 39.12800
C  -16.79000 20.03800 39.41400
N  -13.42700 15.80600 41.00900
C  -14.59000 16.45700 40.79400
C  -15.71100 15.43300 40.83500
C  -15.02800 14.02000 40.94500
C  -13.60000 14.48300 41.23900
C  -16.85600 15.66500 41.86700
C  -15.22600 13.16300 39.72100
C  -14.41100 13.43600 38.45600
N  -10.76800 15.11700 41.83500
C  -11.22200 13.78500 41.75400
C  -10.19600 12.89800 41.92800
C  -9.02000 13.72200 41.92100
C  -9.41700 15.01100 41.86200
C  -10.23200 11.38500 42.01900
C  -7.57000 13.62800 42.07400
O  -6.80900 12.65700 42.24300
C  -7.03700 15.08200 41.87900
C  -6.29900 15.40500 43.05400
O  -6.74300 15.56300 44.16800
O  -4.95300 15.29200 42.80400
C  -4.06800 15.14400 43.92500
H  -10.20800 21.16400 40.74500
H  -15.75400 18.11200 40.28800
H  -12.93100 12.46600 41.60200
H  -6.56600 18.23500 42.13500
H  -7.99000 20.39100 40.54600
H  -7.26600 20.21700 43.30100
H  -8.94200 20.62600 43.10900
H  -7.51500 21.60200 42.40400
H  -7.05200 18.96700 39.33600
H  -7.22300 17.13300 39.61100
H  -4.74100 18.19000 40.68800
H  -4.91500 19.09700 39.26700
H  -11.90100 22.20200 39.10900
H  -11.92900 22.79600 40.89000
H  -13.38500 22.90700 39.93800
H  -17.56200 20.66100 38.96100
H  -17.09000 19.65300 40.38900
H  -16.51400 19.24300 38.72000
H  -16.21800 15.49500 39.87200
H  -15.38200 13.43700 41.79500
H  -16.57900 16.34500 42.67200
H  -17.29700 14.73600 42.22800
H  -17.70800 16.18500 41.42900
H  -16.27000 13.26100 39.42400
H  -14.92500 12.15300 40.00200
H  -13.83900 12.56900 38.12500
H  -13.89700 14.39300 38.36900
H  -15.19400 13.49700 37.70100
H  -10.44400 11.11600 40.98400
H  -11.09100 11.09300 42.62300
H  -9.35100 10.92800 42.47000
H  -6.36000 15.16400 41.02800
H  -3.02900 15.40100 43.71900
H  -4.23200 14.14100 44.32000
H  -4.33000 15.86400 44.70100

