158

Mg 7.73300 2.73700 27.58900
C  9.16600 1.36300 30.44000
C  5.95400 4.86400 29.50600
C  6.50600 3.95400 24.74900
C  9.33500 0.21500 25.77500
N  7.56500 3.02400 29.65000
C  8.27100 2.37900 30.65000
C  7.85600 2.88900 32.05000
C  6.67100 3.78500 31.80800
C  6.73300 3.90200 30.21600
C  5.31900 3.23400 32.38200
C  9.15900 3.53800 32.81200
C  9.45100 3.01700 34.23500
H  9.94900 4.04900 35.29400
N  6.51700 4.27900 27.17700
C  5.82600 5.05200 28.09500
C  5.14800 6.09200 27.44300
C  5.31800 5.93000 26.02700
C  6.16100 4.66900 25.90500
C  4.38700 7.07700 28.16000
C  4.82900 6.74100 24.90400
O  4.96800 6.37800 23.77200
C  4.14800 7.98700 25.08200
N  7.89400 2.13300 25.51400
C  7.15400 2.69000 24.61300
C  7.38100 2.05300 23.21600
C  8.35000 0.84900 23.50200
C  8.63300 1.10600 25.00000
C  5.99800 1.77900 22.55500
C  9.67600 0.89700 22.72200
C  9.70500 0.27200 21.35000
N  9.00900 1.03700 27.98600
C  9.62400 0.15900 27.14900
C  10.35900 -0.80600 27.89300
C  10.27200 -0.32300 29.18600
C  9.44600 0.79700 29.20900
C  11.17700 -1.97600 27.37200
C  10.70400 -0.54700 30.56200
O  11.54500 -1.34900 31.00400
C  10.02600 0.58500 31.39800
C  9.35500 -0.04900 32.43200
O  8.18800 -0.51100 32.38500
O  10.25100 -0.04500 33.49200
C  9.79000 -0.69900 34.74100
H  5.46000 5.57800 30.16800
H  6.09200 4.19800 23.76800
H  9.73200 -0.62000 25.19400
H  7.62300 1.95300 32.55700
H  6.71300 4.77700 32.25900
H  4.63900 3.33600 31.53600
H  4.97100 3.82300 33.23100
H  5.40500 2.20800 32.74000
H  9.07800 4.62500 32.80700
H  10.09700 3.23600 32.34600
H  10.25800 2.29400 34.11700
H  8.55800 2.52400 34.61700
H  4.70700 7.09400 29.20200
H  3.34600 6.76300 28.23500
H  4.38000 8.07900 27.73100
H  3.21000 7.93900 25.63600
H  4.21700 8.38200 24.06800
H  4.85700 8.54300 25.69500
H  7.84800 2.80700 22.58200
H  7.95900 -0.16800 23.54500
H  5.23700 1.89300 23.32700
H  5.82000 0.73700 22.29000
H  5.66000 2.48800 21.79900
H  10.46700 0.42800 23.30700
H  9.85700 1.96200 22.57800
H  9.76700 1.10100 20.64600
H  8.80600 -0.22600 20.98600
H  10.50500 -0.45700 21.21600
H  10.95200 -2.66300 28.18800
H  12.24400 -1.81500 27.21200
H  10.73800 -2.36900 26.45500
H  10.87200 1.12300 31.82700
H  9.08000 -1.51900 34.63700
H  9.32100 0.02900 35.40200
H  10.63200 -1.09700 35.30800
Mg 48.73500 46.78700 42.61600
C  45.47300 47.39800 41.60500
C  48.59000 43.78900 41.19400
C  52.06800 46.69600 43.17400
C  48.80400 50.25900 43.57500
N  47.16600 45.72500 41.59000
C  45.93500 46.16400 41.26700
C  45.18300 45.14100 40.47400
C  46.07700 43.87600 40.61500
C  47.35300 44.49900 41.12500
C  45.62200 42.67200 41.55000
C  44.83900 45.54400 39.04400
C  43.43600 45.13500 38.52700
H  43.42300 44.67600 37.00200
N  50.22300 45.42900 42.10000
C  49.91400 44.27400 41.51500
C  51.17400 43.61000 41.27900
C  52.23100 44.50500 41.73700
C  51.55700 45.60800 42.42600
C  51.39000 42.24700 40.63400
C  53.72700 44.43700 41.44100
O  54.18000 43.51300 40.76200
C  54.73000 45.45200 41.96100
N  50.21700 48.23700 43.44400
C  51.55200 47.91900 43.60400
C  52.38900 49.08800 44.19000
C  51.34400 50.30200 44.20000
C  50.07400 49.59900 43.66600
C  53.14600 48.99100 45.67800
C  51.87000 51.49300 43.36200
C  52.00400 52.82200 44.07900
N  47.39800 48.46100 42.74300
C  47.59700 49.79600 43.18800
C  46.42500 50.56800 43.03600
C  45.53600 49.63400 42.44700
C  46.20100 48.38000 42.26200
C  46.15200 51.97600 43.42400
C  44.15000 49.49400 42.05500
O  43.17100 50.22600 42.17300
C  44.07800 48.09000 41.39100
C  42.96300 47.36800 42.08900
O  42.97700 47.03900 43.25400
O  41.96700 47.05700 41.20100
C  40.73400 46.41400 41.61400
H  48.42700 42.78500 40.79700
H  53.08600 46.77000 43.56400
H  48.80000 51.28800 43.94000
H  44.30800 44.73700 40.98300
H  46.21000 43.39000 39.64800
H  44.62500 42.91700 41.91700
H  46.34600 42.55200 42.35600
H  45.52100 41.80100 40.90300
H  45.55500 44.99400 38.43300
H  45.05700 46.59000 38.83100
H  42.88300 46.07000 38.43600
H  42.86200 44.40200 39.09500
H  51.91800 41.55000 41.28500
H  51.94400 42.30500 39.69700
H  50.38800 41.89000 40.39300
H  54.25400 46.37200 41.62100
H  55.72600 45.32500 41.53700
H  54.84700 45.45500 43.04500
H  53.13800 49.23700 43.41200
H  51.28100 50.65100 45.23100
H  53.93000 49.73600 45.54600
H  53.68500 48.06000 45.84900
H  52.58800 49.15200 46.60000
H  51.16800 51.55400 42.53000
H  52.85000 51.32300 42.91500
H  51.49200 53.66300 43.61100
H  53.06800 53.05900 44.07000
H  51.65900 52.70000 45.10600
H  46.40900 52.74800 42.69800
H  46.70200 52.13100 44.35300
H  45.09600 52.16400 43.61700
H  43.87000 48.18300 40.32600
H  40.33500 46.93500 42.48400
H  40.91500 45.35800 41.81900
H  39.96900 46.59100 40.85900

