158

Mg -2.20800 17.48400 26.57900
C  -2.65300 14.78100 28.83800
C  -3.16200 19.62200 28.97000
C  -2.62500 19.85100 24.04900
C  -2.06400 15.08900 23.91200
N  -2.93300 17.16200 28.74100
C  -2.91900 16.02300 29.47900
C  -3.19000 16.33100 30.97800
C  -3.48200 17.90000 30.87100
C  -3.14400 18.29200 29.42900
C  -4.85200 18.24400 31.44400
C  -2.04200 15.93000 31.89700
C  -1.86400 16.72900 33.20400
H  -1.48000 15.89600 34.48700
N  -2.64000 19.48000 26.56700
C  -2.97100 20.20000 27.70000
C  -3.35700 21.47800 27.31300
C  -3.24900 21.65200 25.87300
C  -2.81500 20.28400 25.40600
C  -3.90200 22.56300 28.23700
C  -3.42700 22.77500 24.84100
O  -3.35200 22.75500 23.62300
C  -3.92300 24.01500 25.46800
N  -2.28700 17.46900 24.31000
C  -2.39600 18.57600 23.57800
C  -2.16800 18.30400 22.08700
C  -1.70100 16.79700 22.07500
C  -2.03400 16.40800 23.47900
C  -3.48000 18.54100 21.20500
C  -0.22100 16.62000 21.70100
C  0.05000 16.00400 20.37000
N  -2.34600 15.43800 26.39300
C  -2.18300 14.62200 25.26600
C  -2.23700 13.19300 25.65800
C  -2.35000 13.20100 27.09300
C  -2.45500 14.60200 27.44600
C  -2.33000 12.02100 24.72400
C  -2.55900 12.29000 28.23500
O  -2.63300 11.06800 28.34200
C  -2.80900 13.35500 29.40100
C  -2.05000 12.80700 30.50400
O  -0.77700 12.80900 30.65100
O  -2.84200 12.10400 31.38200
C  -2.22800 11.54400 32.62600
H  -3.22200 20.35000 29.78200
H  -2.89700 20.50400 23.21600
H  -2.00300 14.29600 23.16300
H  -4.07600 15.79300 31.31500
H  -2.75100 18.43600 31.47700
H  -5.54600 17.40700 31.36900
H  -5.31100 19.07800 30.91200
H  -4.90400 18.57600 32.48100
H  -1.13100 16.09500 31.32100
H  -2.08900 14.87400 32.16300
H  -2.78900 17.24200 33.46500
H  -0.96000 17.33900 33.19800
H  -3.37600 23.50700 28.09800
H  -3.79700 22.24200 29.27300
H  -4.96500 22.76800 28.11200
H  -4.74200 23.66400 26.09600
H  -4.40100 24.66700 24.73700
H  -3.22000 24.60000 26.06200
H  -1.39300 18.98900 21.74200
H  -2.38300 16.27000 21.40700
H  -3.24400 19.20200 20.37100
H  -4.14100 19.26300 21.68500
H  -3.90600 17.62000 20.80700
H  0.21100 15.95800 22.45200
H  0.35000 17.54800 21.73700
H  0.90600 16.45700 19.86800
H  -0.81800 15.93100 19.71500
H  0.41700 14.98000 20.43200
H  -3.26800 11.96900 24.17100
H  -2.35500 11.09900 25.30300
H  -1.54300 11.96400 23.97200
H  -3.86400 13.32700 29.67600
H  -1.64200 12.29400 33.15800
H  -1.49200 10.78300 32.36900
H  -2.95800 11.07600 33.28700
Mg 24.13400 -4.90200 45.97800
C  26.17500 -2.49300 44.39700
C  21.63800 -4.02100 43.85700
C  22.56200 -7.72900 46.92700
C  27.06800 -5.92000 47.74600
N  23.96000 -3.35800 44.42100
C  24.86400 -2.46100 43.91200
C  24.32400 -1.56500 42.81900
C  22.78100 -1.95000 42.88200
C  22.76200 -3.17300 43.78400
C  21.71800 -0.89700 43.30300
C  24.92100 -1.91300 41.38200
C  25.56000 -0.73900 40.53200
H  26.02200 -1.05200 39.07500
N  22.33200 -5.71700 45.45100
C  21.48200 -5.25500 44.52800
C  20.35800 -6.20400 44.47000
C  20.53800 -7.29200 45.41800
C  21.84000 -6.91000 46.01800
C  19.13000 -5.93100 43.55800
C  19.63100 -8.43300 45.76800
O  18.57800 -8.58300 45.15300
C  19.76100 -9.40700 46.94600
N  24.75200 -6.55400 47.18200
C  23.89300 -7.61100 47.39200
C  24.62400 -8.80200 48.06400
C  25.98500 -8.11400 48.42800
C  25.97400 -6.79900 47.69000
C  23.87500 -9.49400 49.20800
C  27.17700 -8.99300 48.21800
C  28.24000 -9.03200 49.31200
N  26.13300 -4.24600 46.26900
C  27.16100 -4.76600 47.04600
C  28.30800 -3.93600 46.85400
C  28.01000 -3.04400 45.82900
C  26.63500 -3.29400 45.50500
C  29.65000 -4.16600 47.53500
C  28.55300 -1.98400 44.95300
O  29.71100 -1.56500 44.90700
C  27.43600 -1.61500 44.00400
C  27.19200 -0.25600 44.17600
O  27.33800 0.57800 43.33000
O  26.80400 -0.03900 45.49700
C  26.41900 1.39100 45.83300
H  20.82500 -3.66700 43.22100
H  22.14500 -8.72500 47.09000
H  27.99000 -6.25500 48.22500
H  24.57700 -0.51500 42.97000
H  22.41600 -2.40600 41.96200
H  21.22700 -1.15100 44.24200
H  20.92700 -0.92700 42.55300
H  22.10200 0.12300 43.31800
H  24.16300 -2.50100 40.86400
H  25.78200 -2.56900 41.50800
H  26.46700 -0.31400 40.96100
H  24.77100 0.01000 40.47300
H  19.38400 -5.79400 42.50700
H  18.63400 -5.11000 44.07500
H  18.45600 -6.78600 43.59900
H  20.54800 -10.13900 46.76400
H  18.79200 -9.86300 47.14800
H  20.02600 -8.72700 47.75500
H  24.91300 -9.47700 47.25800
H  25.92200 -7.90100 49.49500
H  23.35000 -10.41500 48.95300
H  23.25800 -8.68000 49.58800
H  24.60300 -9.79700 49.96100
H  27.64800 -8.65600 47.29400
H  26.88400 -10.02100 48.00500
H  28.71400 -10.01400 49.30100
H  27.68500 -8.78500 50.21700
H  29.12100 -8.39400 49.24400
H  30.15800 -4.97500 47.01000
H  29.40700 -4.48800 48.54800
H  30.29300 -3.28900 47.45900
H  27.84300 -1.83700 43.01700
H  25.34900 1.50600 46.00800
H  26.72300 2.20200 45.17200
H  26.95800 1.49800 46.77500

