158

Mg 46.87500 25.54700 27.38400
C  47.62400 27.46100 30.23800
C  46.66400 22.77400 29.46300
C  46.46600 23.55500 24.69200
C  47.85700 28.12600 25.31900
N  47.09800 25.17300 29.66000
C  47.28100 26.14000 30.58800
C  47.17800 25.53700 32.00000
C  46.97600 23.98600 31.69700
C  47.03200 23.93200 30.18900
C  47.97600 22.99200 32.35500
C  46.08900 26.21300 32.91300
C  46.64400 26.84300 34.22700
H  45.59200 27.50700 35.14600
N  46.44500 23.50600 27.15500
C  46.39000 22.50500 28.13400
C  46.05600 21.21400 27.44700
C  46.01100 21.51600 26.04700
C  46.33400 22.91500 25.91400
C  46.09900 19.83900 28.12100
C  45.76400 20.54800 24.94500
O  45.95500 20.85400 23.74000
C  45.21500 19.18200 25.20700
N  46.90000 25.91000 25.29300
C  46.74700 24.94400 24.35900
C  46.79300 25.44700 22.91100
C  47.35800 26.94000 23.11400
C  47.34100 27.07700 24.66000
C  47.72200 24.66800 21.89700
C  46.36600 27.95600 22.41900
C  46.33400 27.80600 20.93500
N  47.55500 27.38900 27.69600
C  47.92800 28.37100 26.72100
C  48.25500 29.61200 27.38700
C  48.21500 29.26500 28.78800
C  47.72300 27.94200 28.88900
C  48.64400 30.84200 26.69500
C  48.47600 29.74700 30.11800
O  48.77900 30.82600 30.38100
C  48.00000 28.65700 31.16400
C  49.17100 28.38200 32.04800
O  50.07100 27.66200 31.77500
O  49.09600 29.15600 33.14300
C  50.10900 28.94600 34.23100
H  46.62400 21.85700 30.05400
H  46.32100 22.99600 23.76500
H  47.94100 28.96500 24.62600
H  48.13100 25.61500 32.52300
H  46.03500 23.79700 32.21400
H  47.42700 22.37700 33.06900
H  48.77500 23.54800 32.84500
H  48.52800 22.30700 31.71100
H  45.20100 25.62800 33.15300
H  45.77200 27.06100 32.30600
H  47.33900 27.65100 34.00000
H  47.24100 26.05400 34.68500
H  45.13600 19.34800 27.98000
H  46.16100 19.97800 29.20000
H  46.97300 19.28500 27.78100
H  45.95600 18.69400 25.84000
H  45.16100 18.69100 24.23600
H  44.22400 19.19200 25.66100
H  45.80400 25.62400 22.49000
H  48.36500 27.04400 22.71000
H  47.14500 24.20400 21.09600
H  48.29900 23.94900 22.47900
H  48.43100 25.32100 21.38800
H  46.66100 28.95800 22.73000
H  45.33400 27.88200 22.76100
H  47.06200 27.08300 20.56700
H  46.60800 28.75800 20.48000
H  45.33900 27.67800 20.50900
H  48.19400 31.73900 27.11800
H  48.34100 30.75300 25.65100
H  49.73100 30.89700 26.76400
H  47.12300 29.09300 31.64200
H  50.02700 27.87700 34.42400
H  49.94600 29.43700 35.19000
H  51.07600 29.26700 33.84300
Mg -1.76200 34.85500 25.73500
C  -3.77000 33.33900 28.31800
C  -1.10000 37.47800 27.99900
C  0.04700 36.40900 23.37700
C  -2.82100 32.44100 23.66600
N  -2.67600 35.54700 27.79500
C  -3.20600 34.59100 28.70000
C  -3.17300 35.17700 30.19200
C  -2.47200 36.54900 30.01300
C  -2.08500 36.54500 28.50600
C  -3.41500 37.80600 30.24700
C  -2.49900 34.23300 31.22300
C  -3.19600 34.07900 32.64400
H  -2.52400 34.82300 33.74600
N  -0.66400 36.73700 25.66400
C  -0.50400 37.61200 26.73900
C  0.35300 38.69900 26.29900
C  0.76300 38.33600 25.03200
C  0.05900 37.13500 24.63300
C  0.66200 39.94300 27.09100
C  1.78100 38.93600 24.17300
O  2.13200 38.47700 23.10500
C  2.59500 40.10100 24.71800
N  -1.61700 34.58400 23.72100
C  -0.71300 35.30500 22.97100
C  -0.44500 34.45500 21.60900
C  -1.19400 33.12900 21.88900
C  -1.93300 33.39200 23.15400
C  -1.12600 35.18400 20.38500
C  -0.30400 31.80100 21.98800
C  0.97900 31.82900 22.87500
N  -3.10000 33.27600 25.86600
C  -3.33900 32.32900 24.92000
C  -4.24800 31.32200 25.49300
C  -4.45700 31.64000 26.87600
C  -3.76200 32.84000 27.03600
C  -4.80800 30.15700 24.69900
C  -5.05800 31.24600 28.07900
O  -5.82600 30.35900 28.36800
C  -4.55200 32.33400 29.15900
C  -5.67800 32.87100 29.91800
O  -6.30800 33.90100 29.72700
O  -5.89300 32.12000 31.03600
C  -6.95200 32.53200 31.98800
H  -0.75200 38.17200 28.76700
H  0.70300 36.56200 22.51700
H  -3.04000 31.61700 22.98300
H  -4.20600 35.36400 30.48600
H  -1.64100 36.65300 30.71100
H  -4.34200 37.45000 30.69700
H  -3.60000 38.42300 29.36800
H  -2.83800 38.41500 30.94300
H  -1.49200 34.59800 31.42100
H  -2.46000 33.20000 30.87900
H  -3.26500 33.01700 32.87900
H  -4.19000 34.49100 32.47000
H  1.71400 40.14900 27.28600
H  0.01200 39.90700 27.96500
H  0.21900 40.80500 26.59400
H  2.07300 41.05200 24.82500
H  3.38800 40.31300 24.00100
H  3.21500 39.76000 25.54700
H  0.63900 34.46400 21.50000
H  -1.96000 32.85200 21.16500
H  -1.73800 35.97400 20.81900
H  -1.80700 34.52300 19.84800
H  -0.39700 35.65600 19.72700
H  0.13300 31.50900 21.03300
H  -0.96500 31.05800 22.43400
H  0.88300 31.12600 23.70300
H  1.09400 32.86500 23.19100
H  1.87000 31.58900 22.29500
H  -3.93400 29.76400 24.17800
H  -5.50000 30.53200 23.94500
H  -5.34000 29.42600 25.30800
H  -3.89900 31.88200 29.90500
H  -6.51600 33.45100 32.38000
H  -6.97100 31.76000 32.75700
H  -7.91700 32.71500 31.51600

