158

Mg 2.13500 -2.19100 44.99100
C  5.47300 -1.24300 44.62600
C  1.32500 0.67500 43.07800
C  -1.08700 -3.14800 45.17800
C  3.21300 -5.26400 46.25500
N  3.22100 -0.44500 44.02700
C  4.64200 -0.29500 43.96400
C  5.11200 0.93700 43.18300
C  3.76500 1.51400 42.75800
C  2.72000 0.53100 43.34600
C  3.56800 2.99400 43.32500
C  6.15800 0.62700 41.97300
C  7.30600 1.64300 41.72500
H  7.35500 2.38700 40.37000
N  0.38700 -1.40100 44.19600
C  0.22600 -0.17700 43.56700
C  -1.18700 0.03300 43.36300
C  -1.89200 -1.08100 43.90200
C  -0.87200 -1.93700 44.50400
C  -1.76500 1.27600 42.81900
C  -3.38700 -1.18300 43.94000
O  -4.10200 -0.25100 43.58600
C  -4.24000 -2.34700 44.52500
N  1.22300 -3.98600 45.47800
C  -0.14100 -4.08700 45.65800
C  -0.54500 -5.45800 46.17400
C  0.81200 -6.16600 46.50800
C  1.81400 -5.03700 46.11100
C  -1.47700 -5.42900 47.36800
C  1.01600 -7.50900 45.76600
C  1.02300 -8.75100 46.59300
N  3.91800 -3.05300 45.46300
C  4.21100 -4.33900 45.93900
C  5.65200 -4.52600 46.06800
C  6.19900 -3.30400 45.62600
C  5.07700 -2.47800 45.20100
C  6.44700 -5.73200 46.58600
C  7.44700 -2.50700 45.54400
O  8.64300 -2.76800 45.82200
C  7.02100 -1.17400 44.82000
C  7.30900 0.05600 45.52500
O  6.68100 0.49400 46.48500
O  8.30100 0.76600 44.88000
C  8.61600 2.07700 45.47100
H  1.02500 1.50400 42.43400
H  -2.13100 -3.40000 45.37500
H  3.38100 -6.26700 46.65400
H  5.49000 1.64600 43.92000
H  3.69400 1.46800 41.67100
H  4.45500 3.62700 43.29800
H  3.08800 2.86800 44.29600
H  2.76000 3.30000 42.66000
H  5.64000 0.54900 41.01700
H  6.60800 -0.36200 42.05500
H  8.26400 1.26900 42.08500
H  7.13600 2.45700 42.42900
H  -2.26600 2.01600 43.44300
H  -2.50000 1.03600 42.05100
H  -0.88600 1.81100 42.46000
H  -4.38500 -2.39100 45.60500
H  -3.89700 -3.26900 44.05600
H  -5.22400 -2.26000 44.06400
H  -1.01200 -5.95000 45.32100
H  0.99900 -6.35100 47.56600
H  -1.10300 -6.10700 48.13500
H  -2.52500 -5.68500 47.21400
H  -1.40200 -4.40000 47.72200
H  1.97500 -7.40200 45.25900
H  0.38100 -7.74200 44.91200
H  1.75600 -9.39800 46.11000
H  0.06500 -9.25800 46.48100
H  1.27200 -8.50400 47.62500
H  7.33100 -5.26300 47.01900
H  6.72300 -6.41400 45.78100
H  5.90500 -6.25100 47.37600
H  7.53200 -1.18700 43.85700
H  7.87500 2.71100 44.98400
H  9.66000 2.30200 45.25000
H  8.36300 2.26100 46.51600
Mg -10.89900 15.13900 42.52100
C  -7.67500 13.65500 41.94200
C  -10.12800 17.65300 40.46800
C  -14.15800 15.99600 42.71300
C  -11.80500 12.01400 44.15200
N  -9.06300 15.48900 41.31900
C  -7.82100 14.88700 41.28900
C  -6.89200 15.61000 40.25800
C  -7.68900 16.91600 40.00800
C  -9.08200 16.66400 40.58300
C  -6.95000 18.14000 40.64300
C  -6.40500 14.78500 39.01700
C  -4.95200 14.81500 38.81300
H  -4.38600 15.72400 37.67200
N  -11.99400 16.66500 41.74900
C  -11.49800 17.60800 40.90000
C  -12.44400 18.62600 40.75400
C  -13.60500 18.23900 41.47800
C  -13.35900 16.87100 41.99400
C  -12.22100 19.94600 40.02000
C  -14.93900 19.00800 41.50500
O  -15.00000 20.14600 41.04100
C  -16.18300 18.46700 42.17500
N  -12.73300 14.02000 43.28300
C  -13.89800 14.74600 43.30200
C  -14.94700 14.02600 44.20800
C  -14.28500 12.62600 44.55900
C  -12.85400 12.90300 44.00400
C  -15.26100 14.83800 45.48600
C  -14.95700 11.47400 43.81100
C  -15.08900 10.16900 44.76000
N  -9.87400 13.31100 43.20400
C  -10.46000 12.13600 43.73600
C  -9.36200 11.18500 43.95700
C  -8.27900 11.73100 43.18700
C  -8.66200 13.03000 42.76600
C  -9.44800 9.89700 44.75800
C  -6.92700 11.50600 42.62800
O  -6.20000 10.50000 42.72500
C  -6.42600 12.82300 41.94000
C  -5.39300 13.48600 42.78400
O  -5.35200 13.37700 44.04700
O  -4.44000 14.10100 41.98200
C  -3.56600 14.97600 42.67100
H  -9.67800 18.53500 40.00700
H  -15.17600 16.32800 42.92800
H  -12.00100 11.13900 44.77500
H  -6.04700 15.82800 40.91200
H  -7.70700 17.19700 38.95500
H  -7.44300 18.48200 41.55300
H  -6.90300 18.98100 39.95200
H  -5.88700 18.03800 40.86100
H  -6.78500 15.33900 38.15900
H  -6.81100 13.77400 39.01900
H  -4.57400 13.82200 38.57200
H  -4.36900 15.17900 39.65900
H  -11.16400 20.14600 39.84400
H  -12.63900 20.67300 40.71600
H  -12.80300 19.91500 39.09800
H  -16.91300 19.26800 42.29400
H  -15.84200 18.23300 43.18300
H  -16.67700 17.67000 41.62000
H  -15.87900 13.86300 43.66600
H  -14.16900 12.48900 45.63400
H  -14.76500 15.79500 45.64700
H  -15.12100 14.29900 46.42300
H  -16.30300 15.15400 45.53300
H  -14.37300 11.13600 42.95500
H  -15.96000 11.73300 43.47300
H  -15.98200 9.57700 44.55900
H  -14.97100 10.41200 45.81600
H  -14.28000 9.46000 44.58300
H  -9.37100 9.89400 45.84500
H  -8.65300 9.29900 44.31400
H  -10.40800 9.51300 44.41200
H  -5.99200 12.52500 40.98600
H  -2.96500 14.52200 43.45800
H  -4.14200 15.70100 43.24600
H  -2.82500 15.41800 42.00400

