158

Mg 8.60500 4.23400 27.47600
C  9.74900 2.44700 30.57800
C  6.66500 6.16300 29.61600
C  7.62300 5.63900 24.81000
C  10.29600 1.89500 25.60900
N  8.21800 4.10700 29.88100
C  8.78300 3.39100 30.90900
C  8.25600 3.92400 32.27500
C  7.31600 5.09100 31.89300
C  7.38700 5.14200 30.33100
C  5.87800 4.91700 32.42300
C  9.43300 4.35100 33.28000
C  8.94100 5.04700 34.55600
H  10.08700 5.27100 35.52700
N  7.39800 5.79300 27.25300
C  6.62800 6.38200 28.21300
C  5.89000 7.44300 27.54000
C  6.22100 7.38700 26.15700
C  7.03700 6.18900 25.96500
C  5.00500 8.46900 28.29000
C  5.70200 8.34900 24.96000
O  6.04700 8.14600 23.79800
C  4.95400 9.52200 25.32400
N  8.75000 3.73900 25.50800
C  8.31900 4.50400 24.55700
C  8.44800 3.89700 23.11400
C  9.57300 2.82000 23.38800
C  9.56300 2.79400 24.96200
C  7.13900 3.38900 22.45200
C  10.94200 3.15300 22.74800
C  11.90000 2.11600 22.26000
N  9.81100 2.52700 27.90800
C  10.50300 1.76300 26.95900
C  11.30600 0.84700 27.69000
C  11.05700 1.07700 29.08300
C  10.12000 2.11500 29.16100
C  12.30300 -0.22000 27.20400
C  11.43100 0.64900 30.43800
O  12.29200 -0.12700 30.82900
C  10.52800 1.61600 31.45300
C  9.67800 0.79500 32.33700
O  8.94400 -0.07100 32.00100
O  10.20500 0.93000 33.60100
C  9.63800 -0.00900 34.69300
H  6.07500 6.79000 30.28900
H  7.26300 6.23200 23.96700
H  10.86200 1.11100 25.10200
H  7.70800 3.02800 32.56900
H  7.62000 6.06300 32.28200
H  5.14800 4.73800 31.63300
H  5.61300 5.91400 32.77500
H  5.90000 4.13900 33.18500
H  9.95500 5.08200 32.66400
H  10.10600 3.53000 33.53000
H  8.22600 4.37200 35.02600
H  8.57500 6.04900 34.33300
H  4.00200 8.51100 27.86600
H  5.48400 9.44600 28.34600
H  4.65900 8.13500 29.26800
H  5.59000 9.95000 26.09900
H  4.06100 9.16800 25.83900
H  4.82000 10.24700 24.52200
H  8.82300 4.65300 22.42400
H  9.28300 1.78900 23.18700
H  7.23200 2.34900 22.13900
H  6.94200 3.93300 21.52900
H  6.21900 3.52600 23.02000
H  11.48900 3.76600 23.46400
H  10.70600 3.77900 21.88700
H  12.00800 2.19500 21.17800
H  11.63000 1.07800 22.45500
H  12.87500 2.39900 22.65700
H  12.71200 -0.75400 28.06200
H  13.08800 0.26700 26.62500
H  11.81200 -0.95200 26.56300
H  11.19300 2.21100 32.07800
H  9.32100 -0.98700 34.33100
H  8.74700 0.45600 35.11400
H  10.37000 -0.20800 35.47500
Mg 41.22300 8.62500 29.79900
C  42.99600 9.98000 32.42900
C  38.95100 7.39100 32.06100
C  39.54800 7.33900 27.21400
C  43.88800 9.48100 27.73900
N  41.16500 8.56400 31.98700
C  41.91200 9.24200 32.87200
C  41.30300 9.21500 34.29900
C  40.10900 8.16200 34.11500
C  40.07100 8.00100 32.62000
C  40.23200 6.79700 34.86600
C  40.81700 10.64000 34.84300
C  40.13300 10.69000 36.20000
H  40.67500 11.69300 37.21500
N  39.48200 7.65300 29.66100
C  38.55500 7.28900 30.66400
C  37.32200 6.93400 30.12100
C  37.47700 7.17800 28.72400
C  38.92100 7.42400 28.43700
C  36.06900 6.55400 30.89600
C  36.45700 7.17200 27.62800
O  36.65000 7.35700 26.41500
C  35.09700 6.87900 28.03300
N  41.66400 8.28000 27.73500
C  40.84700 7.73100 26.84800
C  41.54500 7.64600 25.38900
C  43.00700 8.23300 25.73100
C  42.90300 8.69700 27.17800
C  41.44400 6.12700 24.97800
C  43.47200 9.20800 24.63400
C  44.82800 8.90600 23.99700
N  43.03400 9.65800 29.93700
C  43.99400 9.93600 29.01300
C  45.05000 10.67900 29.60500
C  44.65000 10.86700 30.96100
C  43.48000 10.13600 31.13200
C  46.30300 11.02500 29.00700
C  45.07200 11.40300 32.27000
O  46.01700 12.11900 32.52400
C  43.88100 10.99700 33.22300
C  44.45700 10.44400 34.42300
O  44.77200 9.32400 34.58900
O  44.66200 11.47400 35.36400
C  45.14200 11.01000 36.70000
H  38.20000 6.89800 32.68300
H  38.97800 6.88800 26.40000
H  44.73200 9.73100 27.09300
H  42.05300 8.72600 34.92100
H  39.17100 8.62100 34.42800
H  40.20500 5.94200 34.19000
H  39.52800 6.69200 35.69200
H  41.20800 6.74500 35.34900
H  40.17000 11.24600 34.20800
H  41.64400 11.32100 35.04400
H  40.04500 9.71800 36.68500
H  39.09000 10.95600 36.02800
H  36.33500 6.42800 31.94500
H  35.86900 5.54300 30.53900
H  35.16500 7.15500 30.79600
H  34.91900 7.69700 28.73100
H  34.97400 5.88000 28.45300
H  34.35300 6.88900 27.23600
H  40.95300 8.31900 24.77000
H  43.74900 7.43900 25.82500
H  42.40300 5.86100 24.53300
H  40.68600 6.06000 24.19800
H  41.14000 5.40900 25.73900
H  43.55000 10.18000 25.12200
H  42.65300 9.39700 23.94000
H  44.81800 8.94200 22.90800
H  45.41600 8.08800 24.41400
H  45.46000 9.72200 24.34800
H  46.94600 10.15900 28.84800
H  46.94200 11.67000 29.61100
H  46.34800 11.39700 27.98300
H  43.23000 11.79500 33.58000
H  46.15100 10.60700 36.61700
H  44.56000 10.25800 37.23300
H  45.26100 11.86400 37.36600

