158

Mg 35.79800 2.45600 29.76900
C  33.48400 3.40700 32.27100
C  38.24500 2.54300 32.18400
C  38.00900 1.73900 27.44900
C  33.26400 2.87000 27.43500
N  35.80900 2.96500 31.95500
C  34.76800 3.12700 32.80200
C  35.19100 3.13600 34.26500
C  36.71100 3.16800 34.14800
C  36.92900 2.75300 32.66600
C  37.31200 4.47300 34.59600
C  34.52700 1.92100 35.00100
C  33.81300 2.26400 36.37600
H  34.40200 3.30100 37.29600
N  37.89400 2.13800 29.84300
C  38.75600 2.21400 30.92600
C  40.07700 1.79400 30.51800
C  40.02600 1.46400 29.11000
C  38.67200 1.81800 28.71500
C  41.28300 1.80200 31.40500
C  41.19700 0.97900 28.22300
O  41.11500 0.81600 27.01900
C  42.58400 0.61000 28.76400
N  35.65800 2.43200 27.75800
C  36.69100 1.96800 26.96300
C  36.23300 1.62400 25.54200
C  34.77100 2.07300 25.48800
C  34.50700 2.46800 27.00800
C  37.12600 2.36700 24.52100
C  33.85000 1.01200 24.95500
C  32.54400 1.49500 24.22400
N  33.75700 3.05200 29.78100
C  32.87600 3.21100 28.71600
C  31.55800 3.67600 29.27300
C  31.73300 3.68900 30.69200
C  33.15200 3.41600 30.90800
C  30.34900 3.95700 28.42600
C  31.10200 3.88000 31.92300
O  29.93100 4.19500 32.14400
C  32.22200 3.70600 33.00900
C  32.30500 4.99300 33.80700
O  33.10300 5.87600 33.70700
O  31.32200 4.99200 34.80800
C  31.11900 6.01700 35.77900
H  38.98600 2.59700 32.98500
H  38.79600 1.47400 26.73900
H  32.48900 3.09100 26.69800
H  34.74500 4.03900 34.68000
H  37.14600 2.37400 34.75500
H  37.69000 4.35300 35.61100
H  36.54000 5.21000 34.37500
H  38.08200 4.73800 33.87300
H  35.30100 1.15400 35.02800
H  33.73500 1.56900 34.34100
H  33.61100 1.32900 36.89900
H  32.79500 2.48600 36.05600
H  42.22600 2.23200 31.06700
H  41.56400 0.75700 31.53700
H  41.01300 2.17800 32.39200
H  43.18000 0.14700 27.97700
H  42.56500 -0.05100 29.63100
H  43.16200 1.47500 29.08900
H  36.42000 0.58200 25.28500
H  34.70800 3.01000 24.93400
H  37.78900 1.64700 24.04200
H  37.79300 3.12500 24.93300
H  36.51400 2.71400 23.68900
H  33.56100 0.30700 25.73500
H  34.39600 0.36300 24.27000
H  32.44600 2.57700 24.31200
H  31.61100 0.94800 24.36600
H  32.74200 1.22600 23.18700
H  30.74100 4.62200 27.65700
H  29.54500 4.47600 28.94800
H  29.96500 3.11000 27.85800
H  31.95900 2.88000 33.67100
H  30.66400 5.62400 36.68800
H  30.45300 6.80400 35.42200
H  32.00100 6.49600 36.20400
Mg 50.07600 45.64300 42.72200
C  46.85600 46.13500 41.18500
C  49.67700 42.25700 41.97200
C  53.31600 45.22800 43.29200
C  50.37600 49.01000 43.16100
N  48.38700 44.44500 41.66800
C  47.22600 44.83000 41.18100
C  46.51300 43.65400 40.50300
C  47.18500 42.42700 41.23200
C  48.53600 43.05000 41.67300
C  46.49400 41.70500 42.41800
C  46.60200 43.64300 38.98100
C  45.45300 43.08400 38.18200
H  45.85100 42.17300 36.96400
N  51.32600 43.94800 42.76200
C  50.98900 42.65600 42.34100
C  52.14400 41.81200 42.44100
C  53.25400 42.64000 42.91200
C  52.67300 43.98200 43.02200
C  52.22800 40.37600 42.10400
C  54.65200 42.20300 43.32900
O  54.93800 41.03100 43.19800
C  55.68800 43.17700 43.97300
N  51.67200 46.92900 43.02000
C  52.89300 46.52900 43.35600
C  53.82500 47.68800 43.53300
C  52.90300 48.93900 43.61500
C  51.55700 48.23700 43.25200
C  54.77100 47.57900 44.69500
C  53.23200 50.10200 42.59100
C  53.12900 51.50600 43.00000
N  48.82000 47.25400 42.43100
C  49.12900 48.55200 42.65000
C  47.95400 49.39600 42.18000
C  47.07500 48.46100 41.65400
C  47.67300 47.22600 41.79000
C  47.76900 50.99100 42.42500
C  45.75500 48.31900 41.05300
O  44.89700 49.21600 40.87100
C  45.65900 46.80100 40.62700
C  44.33900 46.21500 41.03400
O  43.58100 45.71100 40.19700
O  43.98800 46.50900 42.30300
C  42.69100 46.06300 42.73400
H  49.55400 41.19400 41.75500
H  54.38800 45.01800 43.32000
H  50.41700 50.08000 43.37600
H  45.45300 43.70000 40.75400
H  47.37500 41.62100 40.52200
H  47.13800 41.73000 43.29600
H  46.18500 40.68400 42.19300
H  45.61800 42.29900 42.68000
H  47.50600 43.12900 38.65200
H  46.71700 44.67300 38.64300
H  44.84800 43.79200 37.61600
H  44.74700 42.55900 38.82600
H  53.08800 40.36700 41.43400
H  51.42000 40.04100 41.45400
H  52.29300 39.72400 42.97600
H  56.10200 43.89200 43.26200
H  56.55100 42.57800 44.26500
H  55.43500 43.79600 44.83400
H  54.39000 47.70300 42.60100
H  52.85400 49.36300 44.61800
H  54.55800 46.71900 45.33000
H  54.91000 48.41600 45.38000
H  55.75400 47.43600 44.24800
H  52.47600 49.88200 41.83700
H  54.15400 49.97800 42.02300
H  52.58700 52.10300 42.26700
H  54.04800 52.08100 43.11600
H  52.56600 51.52700 43.93400
H  46.77100 51.19300 42.03500
H  48.59600 51.55700 41.99600
H  47.81600 51.17900 43.49800
H  45.71500 46.66800 39.54700
H  42.57300 45.00300 42.51000
H  41.84200 46.62600 42.34700
H  42.72800 46.20500 43.81500

