158

Mg 47.48100 16.06300 29.00300
C  45.22600 15.63500 31.57100
C  49.44400 18.02200 31.07700
C  49.17800 17.21700 26.35700
C  44.96800 14.89200 26.76500
N  47.26000 16.85400 31.06300
C  46.41100 16.32600 31.95800
C  46.66800 16.87200 33.38900
C  47.94800 17.79200 33.19800
C  48.23400 17.63200 31.70700
C  47.75500 19.25300 33.63200
C  46.99800 15.67500 34.34000
C  46.16600 15.72900 35.63300
H  45.90600 17.04500 36.38000
N  49.25300 17.14000 28.82300
C  49.92900 17.78800 29.77500
C  51.23200 18.16200 29.24000
C  51.13800 17.94200 27.83600
C  49.82400 17.31200 27.59800
C  52.28300 18.72400 30.00900
C  52.20100 18.37600 26.72300
O  51.89500 18.33900 25.54800
C  53.62000 18.73600 27.15700
N  47.14500 16.01900 26.94800
C  47.92500 16.66900 26.08000
C  47.44200 16.55100 24.68100
C  46.35500 15.43200 24.73100
C  46.10300 15.44200 26.25000
C  46.77100 17.85100 24.21200
C  46.77000 14.04100 24.00800
C  46.37000 12.69500 24.66700
N  45.53600 15.28700 29.06900
C  44.64600 14.90100 28.14300
C  43.46800 14.36000 28.72700
C  43.66400 14.64900 30.09100
C  44.92500 15.15300 30.25800
C  42.20800 13.94900 28.08600
C  42.97000 14.55600 31.39000
O  41.87500 14.14800 31.69900
C  43.97200 15.28100 32.43500
C  43.18100 16.44800 32.97800
O  43.06800 17.55800 32.47500
O  42.69400 16.15300 34.18600
C  41.95400 17.18200 34.83800
H  49.86100 18.69700 31.82700
H  49.70600 17.57100 25.46900
H  44.21100 14.63400 26.02100
H  45.77600 17.42400 33.68700
H  48.75000 17.38200 33.81300
H  48.70100 19.49600 34.11600
H  46.96500 19.55800 34.31800
H  47.65200 19.81900 32.70600
H  48.04800 15.55200 34.60600
H  46.72900 14.71500 33.90000
H  46.76500 15.09500 36.28700
H  45.25400 15.19100 35.37300
H  52.68400 19.61700 29.52900
H  53.10900 18.07200 30.29500
H  51.89100 18.99700 30.98800
H  53.93700 18.00000 27.89500
H  53.63300 19.71100 27.64500
H  54.23800 18.77000 26.26000
H  48.20400 16.29400 23.94500
H  45.46500 15.73300 24.18000
H  47.19300 18.65700 24.81400
H  45.70500 17.93300 24.42500
H  47.01800 17.94800 23.15500
H  47.85300 13.99900 23.89300
H  46.37700 13.98300 22.99300
H  45.37400 12.76900 25.10300
H  46.97800 12.20100 25.42600
H  46.30400 12.07900 23.77100
H  42.08100 14.58100 27.20700
H  41.38000 14.00600 28.79200
H  42.27400 12.88400 27.86200
H  44.31600 14.53900 33.15500
H  42.53800 18.10100 34.78200
H  41.92300 16.80800 35.86100
H  40.93900 17.19200 34.43900
Mg 6.91500 54.11600 40.90500
C  6.76100 50.38800 41.07800
C  10.22500 53.65600 40.29000
C  6.96800 57.37000 40.17400
C  3.43600 54.08800 41.20000
N  8.34000 52.19400 40.60100
C  8.05800 50.84400 40.66800
C  9.31400 50.03300 40.43100
C  10.47500 51.09300 40.52900
C  9.66400 52.39200 40.47100
C  11.33100 51.00200 41.81400
C  9.20400 49.14300 39.12600
C  9.12500 49.93500 37.80400
H  7.76400 49.96700 37.11200
N  8.39000 55.33600 40.31400
C  9.69400 54.91500 40.14200
C  10.49800 56.09700 39.88500
C  9.63200 57.25500 40.06900
C  8.26500 56.71200 40.21600
C  11.99600 56.01000 39.50300
C  10.11600 58.63000 40.02200
O  11.26500 58.91500 39.71600
C  9.13200 59.73800 40.41400
N  5.40900 55.47400 40.49900
C  5.68100 56.82200 40.21400
C  4.45500 57.60500 40.15800
C  3.27800 56.46800 40.12200
C  4.05600 55.29500 40.73700
C  4.22500 58.45600 41.47400
C  2.87000 56.13500 38.65100
C  1.63600 56.69300 37.96000
N  5.35100 52.62500 41.17200
C  4.06000 52.79900 41.37500
C  3.47400 51.54600 41.84000
C  4.49600 50.59900 41.73200
C  5.65700 51.29100 41.32800
C  2.07500 51.36700 42.38600
C  4.79900 49.18900 41.85100
O  4.06700 48.33900 42.32600
C  6.30300 48.95500 41.33700
C  6.01100 48.11400 40.14000
O  5.22900 48.47400 39.26300
O  6.55500 46.82500 40.19700
C  6.29400 45.92400 39.01600
H  11.23400 53.60000 39.87600
H  6.90000 58.45500 40.07900
H  2.34600 54.13100 41.24100
H  9.26400 49.37300 41.29700
H  11.16600 50.97800 39.69400
H  11.32400 50.02800 42.30300
H  11.14400 51.74600 42.58900
H  12.37700 51.13300 41.53900
H  8.36700 48.44900 39.20100
H  10.07600 48.49200 39.18600
H  9.88300 49.44700 37.19200
H  9.48900 50.93200 38.05300
H  12.02500 55.61100 38.48800
H  12.58200 55.29700 40.08200
H  12.54100 56.95100 39.58300
H  8.59100 60.06100 39.52500
H  9.77000 60.50600 40.85100
H  8.42300 59.45400 41.19200
H  4.46300 58.24700 39.27700
H  2.46100 56.79500 40.76400
H  4.78600 58.06300 42.32200
H  3.14200 58.52200 41.57200
H  4.66500 59.45300 41.45000
H  2.74700 55.05400 38.57300
H  3.66500 56.45100 37.97600
H  1.14400 57.48200 38.52700
H  0.84700 55.94200 37.93100
H  1.88800 57.10700 36.98300
H  1.44300 50.88100 41.64400
H  1.58300 52.33600 42.47700
H  1.99400 50.76300 43.29000
H  6.86800 48.39300 42.08100
H  5.54100 45.24600 39.41800
H  7.10800 45.27400 38.69600
H  5.77900 46.36200 38.16100

