158

Mg 28.51100 58.80900 42.54400
C  25.87200 56.89200 41.03400
C  30.73500 56.99500 40.83600
C  30.72700 61.06900 43.39800
C  25.89000 60.99600 43.63300
N  28.23100 57.11500 41.12800
C  27.17000 56.50700 40.61000
C  27.52100 55.39500 39.59000
C  29.09800 55.35100 39.74100
C  29.39300 56.59800 40.64800
C  29.63300 54.07200 40.38100
C  26.99500 55.64200 38.14300
C  26.47400 54.48400 37.35900
H  27.08600 54.29500 35.98900
N  30.49300 58.98400 42.17100
C  31.29100 58.13600 41.45700
C  32.63900 58.55200 41.47100
C  32.65500 59.71800 42.23400
C  31.24600 59.96400 42.69300
C  33.77200 57.83300 40.77200
C  33.84700 60.53000 42.61800
O  34.94200 60.12500 42.30400
C  33.81300 61.70000 43.49200
N  28.31500 60.68500 43.57400
C  29.40200 61.36100 43.92200
C  29.04000 62.69800 44.57800
C  27.54800 62.66200 44.49600
C  27.17800 61.29600 43.90600
C  29.57600 62.75700 46.04400
C  26.99200 63.94500 43.78400
C  25.80100 64.61900 44.48000
N  26.31100 58.87100 42.58800
C  25.39200 59.78800 43.09300
C  24.05600 59.40900 42.94900
C  24.20200 58.30300 42.11300
C  25.56500 57.96400 41.91900
C  22.84400 60.10000 43.34800
C  23.36500 57.34800 41.46700
O  22.12300 57.18600 41.55800
C  24.48800 56.38200 40.70900
C  24.23600 54.96500 41.19600
O  24.07200 54.52100 42.32000
O  24.35200 54.15700 40.04100
C  24.47900 52.67900 40.22100
H  31.47100 56.29200 40.43900
H  31.48300 61.79200 43.71100
H  25.11100 61.69000 43.95300
H  26.94900 54.52100 39.90400
H  29.51000 55.32800 38.73200
H  30.40400 53.67500 39.72000
H  28.90800 53.28300 40.57900
H  30.18400 54.22000 41.30900
H  27.85800 56.09000 37.65100
H  26.17800 56.35600 38.24300
H  25.38500 54.50300 37.30100
H  26.68200 53.51600 37.81500
H  33.30900 56.96000 40.31000
H  34.69400 57.67400 41.33000
H  34.13900 58.44100 39.94500
H  33.41400 62.59900 43.02300
H  34.86900 61.89100 43.68500
H  33.35000 61.51600 44.46200
H  29.62300 63.49500 44.11800
H  27.03400 62.69400 45.45700
H  29.53500 63.77000 46.44400
H  30.62300 62.46700 45.96200
H  29.07800 62.10000 46.75800
H  26.58400 63.55500 42.85100
H  27.78300 64.64600 43.51700
H  25.70900 65.70300 44.41800
H  25.76300 64.32000 45.52800
H  24.89400 64.13700 44.11300
H  22.97100 60.73600 44.22300
H  21.99200 59.43200 43.47200
H  22.58000 60.69800 42.47600
H  24.18900 56.54100 39.67300
H  23.44900 52.32100 40.22000
H  24.94400 52.45200 41.18000
H  24.86500 52.18800 39.32700
Mg -2.50300 34.26400 26.24500
C  -3.95400 32.64100 28.95700
C  -0.92800 36.51000 28.37700
C  -1.30800 35.85900 23.60500
C  -4.22000 31.98800 24.07000
N  -2.47900 34.51100 28.44100
C  -3.03600 33.67100 29.38900
C  -2.89300 34.25400 30.79600
C  -1.91400 35.48600 30.59900
C  -1.70800 35.50900 29.09900
C  -2.34000 36.72800 31.37400
C  -2.33300 33.24300 31.83500
C  -3.23300 32.90300 33.07900
H  -2.46400 32.64400 34.46700
N  -1.34900 35.92300 26.03100
C  -0.79600 36.72800 27.01600
C  -0.00700 37.74500 26.43400
C  -0.02800 37.53100 25.02800
C  -0.94100 36.39500 24.82500
C  0.70300 38.77400 27.22700
C  0.63800 38.43100 23.90600
O  0.33300 38.28900 22.71200
C  1.67700 39.44300 24.35800
N  -2.88200 34.04700 24.09900
C  -2.14200 34.78200 23.21600
C  -2.51900 34.50300 21.76800
C  -3.26400 33.11300 21.95900
C  -3.50800 33.02300 23.44900
C  -3.37500 35.56000 21.16500
C  -2.46300 31.81500 21.47000
C  -1.04100 31.56300 21.87600
N  -3.80800 32.68500 26.39600
C  -4.37300 31.82400 25.43700
C  -5.11600 30.79800 26.18900
C  -5.02600 31.05100 27.54300
C  -4.19400 32.25800 27.57400
C  -5.88400 29.72700 25.49000
C  -5.39800 30.62200 28.81200
O  -6.09200 29.68500 29.13600
C  -4.86400 31.70000 29.75700
C  -5.84700 32.30100 30.62100
O  -6.44100 33.37500 30.38700
O  -6.01200 31.58000 31.72000
C  -6.96800 32.01200 32.76100
H  -0.47200 37.19000 29.10000
H  -0.91400 36.33200 22.70400
H  -4.58500 31.20600 23.40000
H  -3.89200 34.46000 31.18100
H  -0.97500 35.15300 31.04100
H  -2.38200 37.49500 30.60100
H  -1.54800 37.07000 32.03900
H  -3.31300 36.53700 31.82500
H  -1.27800 33.37100 32.07800
H  -2.24700 32.33300 31.24300
H  -3.87700 32.05100 32.86100
H  -3.89500 33.75000 33.26200
H  1.73400 38.95300 26.92100
H  0.65500 38.61000 28.30300
H  0.04500 39.62600 27.05400
H  1.89600 39.97100 23.43000
H  2.65600 39.01900 24.58100
H  1.25900 40.18500 25.03800
H  -1.60700 34.45100 21.17200
H  -4.27900 33.13200 21.56400
H  -2.83100 35.82800 20.26000
H  -3.33500 36.43800 21.81000
H  -4.39500 35.28900 20.89200
H  -2.51800 31.75400 20.38300
H  -2.93000 30.84500 21.64300
H  -0.95500 30.67900 22.50900
H  -0.67700 32.45900 22.37700
H  -0.44300 31.47800 20.96800
H  -5.26200 28.97000 25.01200
H  -6.49300 30.22000 24.73300
H  -6.52600 29.25000 26.23100
H  -4.23900 31.11900 30.43500
H  -7.02600 31.28900 33.57500
H  -7.98200 32.24100 32.43200
H  -6.52800 32.95500 33.08400

