158

Mg 54.89100 24.15900 44.42900
C  52.03400 26.15400 43.41500
C  53.09000 21.51900 43.49300
C  57.77000 22.43300 44.85100
C  56.46000 27.12000 45.36000
N  52.86000 23.95700 43.40400
C  51.80800 24.86900 43.09800
C  50.60000 24.16600 42.55900
C  50.87200 22.68800 43.06200
C  52.36800 22.68700 43.35500
C  50.20100 22.41700 44.40600
C  50.45000 24.24700 41.07000
C  49.00600 24.41600 40.52000
H  48.81100 24.04400 39.09300
N  55.38900 22.20800 44.07300
C  54.47400 21.26000 43.78800
C  55.05400 19.94800 43.84100
C  56.39100 20.19700 44.33300
C  56.61400 21.65000 44.42100
C  54.36400 18.74200 43.39200
C  57.40700 19.05600 44.60400
O  57.07100 17.87600 44.44700
C  58.73700 19.25600 45.10500
N  56.91100 24.68600 44.92200
C  57.93900 23.84300 45.03900
C  59.28100 24.52500 45.37400
C  58.79500 26.00500 45.69500
C  57.32600 25.94000 45.24900
C  60.22100 23.89100 46.48000
C  59.63600 27.05100 44.96600
C  60.92300 27.45700 45.75800
N  54.38200 26.19800 44.44800
C  55.09800 27.27900 44.92900
C  54.29000 28.50100 44.99600
C  53.07300 28.08200 44.36600
C  53.19400 26.70300 44.06700
C  54.71300 29.79400 45.74200
C  51.80400 28.57200 43.90700
O  51.33800 29.65900 43.89100
C  51.07000 27.35200 43.29200
C  50.53500 27.64200 41.93500
O  51.25200 27.81600 40.95900
O  49.18800 27.70300 41.90500
C  48.47700 28.00200 40.60300
H  52.48600 20.60900 43.52300
H  58.68000 21.85600 45.02900
H  56.92100 28.01900 45.77400
H  49.74400 24.57000 43.09800
H  50.61500 21.84900 42.41400
H  49.26800 21.88100 44.23000
H  49.95400 23.36400 44.88500
H  50.78500 21.82500 45.11100
H  50.78500 23.35400 40.54200
H  50.94700 25.12200 40.65000
H  48.61800 25.41700 40.71300
H  48.41300 23.65900 41.03300
H  55.02600 18.33500 42.62800
H  53.44400 19.05800 42.90000
H  54.19800 17.92600 44.09500
H  59.37900 19.80300 44.41600
H  59.21300 18.29700 45.31100
H  58.73300 19.79100 46.05500
H  59.83500 24.45900 44.43700
H  58.76300 26.01600 46.78500
H  61.03000 24.61000 46.61200
H  60.66500 22.94100 46.18400
H  59.72600 23.85800 47.45000
H  59.00700 27.92100 44.77600
H  59.98100 26.74800 43.97700
H  61.16800 28.48200 45.48000
H  61.78200 26.84900 45.47200
H  60.79600 27.39500 46.83900
H  54.03800 30.64900 45.77900
H  55.68000 30.14500 45.38100
H  54.73300 29.55200 46.80500
H  50.23100 27.25200 43.98000
H  48.39700 29.08700 40.52800
H  47.52400 27.47200 40.59900
H  48.98600 27.61500 39.72000
Mg 26.19800 50.96100 26.63000
C  23.91800 52.01600 29.08000
C  28.26600 50.03900 29.05000
C  28.40300 50.11000 24.27100
C  23.98400 52.20300 24.15100
N  26.19700 51.14200 28.78100
C  25.11000 51.46400 29.60300
C  25.38300 51.41300 31.02400
C  26.89200 51.05700 31.04400
C  27.21100 50.72000 29.53800
C  27.85300 52.14200 31.71000
C  24.37800 50.58300 31.83500
C  24.83000 49.89600 33.17500
H  25.49300 50.79900 34.24500
N  28.11300 50.12300 26.63100
C  28.80900 49.81100 27.78000
C  30.13700 49.32200 27.40500
C  30.24000 49.23900 25.98600
C  28.84000 49.80200 25.55400
C  31.24100 48.87400 28.38600
C  31.33300 48.78400 25.06500
O  31.14300 48.65600 23.83800
C  32.62900 48.50100 25.53800
N  26.30600 51.37400 24.52500
C  27.31200 50.75900 23.76500
C  27.00800 50.85900 22.25800
C  25.49400 51.28500 22.20800
C  25.22600 51.63000 23.71200
C  28.06700 51.63300 21.40900
C  24.60800 50.24200 21.63900
C  23.17200 50.74000 21.21700
N  24.37600 52.01500 26.57300
C  23.58000 52.37000 25.48900
C  22.37700 53.02600 26.04600
C  22.52800 52.95700 27.46000
C  23.63000 52.20900 27.69800
C  21.33000 53.83500 25.31100
C  21.92900 53.37500 28.71000
O  20.92900 54.06200 28.94500
C  22.78500 52.77300 29.73600
C  23.33700 53.91300 30.53500
O  24.32200 54.54000 30.23700
O  22.75900 54.07800 31.73100
C  23.17900 55.21700 32.54900
H  28.91600 49.55700 29.78300
H  29.04800 49.79500 23.44800
H  23.24900 52.53100 23.41200
H  25.25500 52.47700 31.22100
H  27.09400 50.21700 31.70800
H  27.23200 52.96700 32.06100
H  28.64100 52.47700 31.03500
H  28.34100 51.80900 32.62700
H  23.93100 49.83900 31.17500
H  23.66300 51.26800 32.29000
H  25.51800 49.12300 32.83200
H  23.92700 49.48600 33.62700
H  30.79700 48.36100 29.23900
H  31.74700 49.81300 28.61300
H  32.01800 48.24700 27.95000
H  33.35400 48.45400 24.72500
H  32.56100 47.49000 25.94100
H  32.98800 49.18900 26.30300
H  27.23800 49.86500 21.87400
H  25.41000 52.23100 21.67400
H  27.62600 52.57000 21.06800
H  28.47100 50.91200 20.69800
H  28.92500 51.80600 22.06000
H  24.44600 49.41100 22.32600
H  25.15900 49.71700 20.85900
H  23.09300 50.72200 20.13000
H  23.02300 51.81900 21.24600
H  22.47000 50.17900 21.83400
H  20.41500 53.24800 25.38800
H  21.62200 54.06000 24.28500
H  21.05200 54.75200 25.83100
H  22.30700 52.17500 30.51300
H  23.93500 54.96400 33.29200
H  22.41100 55.42700 33.29300
H  23.48000 56.14800 32.06800

