158

Mg 23.78700 -5.26900 45.95200
C  26.05800 -2.93900 44.45500
C  21.48400 -4.26800 43.65000
C  21.96100 -7.88300 46.89100
C  26.63700 -6.66900 47.64300
N  23.80100 -3.74300 44.36000
C  24.79800 -2.88500 43.84700
C  24.31100 -2.19600 42.54100
C  22.80800 -2.43800 42.54300
C  22.65800 -3.56800 43.62500
C  21.96800 -1.15800 42.86400
C  25.04600 -2.74200 41.26000
C  25.89900 -1.88000 40.33500
H  25.62700 -1.81200 38.82000
N  21.88000 -5.96400 45.34800
C  21.06800 -5.32100 44.46500
C  19.77900 -6.01400 44.49500
C  19.91200 -7.08000 45.50200
C  21.28000 -7.04300 45.98200
C  18.57400 -5.61200 43.76300
C  18.73000 -8.00800 45.90200
O  17.60600 -7.97400 45.36900
C  18.86100 -9.02300 46.98700
N  24.15500 -6.92400 47.18400
C  23.20500 -7.88900 47.40100
C  23.77500 -9.01900 48.32700
C  25.28300 -8.58400 48.57200
C  25.33200 -7.27700 47.81700
C  22.90200 -9.32500 49.60000
C  26.37400 -9.66700 48.20100
C  27.59600 -9.46400 49.06200
N  25.84500 -4.83500 46.20600
C  26.83300 -5.47700 46.96800
C  28.08700 -4.80900 46.73400
C  27.87000 -3.83100 45.80500
C  26.49300 -3.84300 45.47200
C  29.31100 -5.21600 47.39600
C  28.46000 -2.81900 45.02300
O  29.60100 -2.32900 45.03300
C  27.33600 -2.21100 44.08200
C  27.27300 -0.74400 44.09200
O  26.80400 -0.09100 45.01600
O  27.76900 -0.24000 42.90600
C  27.78800 1.24000 42.80500
H  20.69500 -3.87100 43.00800
H  21.29400 -8.69200 47.19500
H  27.53500 -7.09100 48.09800
H  24.52200 -1.13500 42.67500
H  22.41700 -2.78400 41.58600
H  21.61800 -1.36900 43.87500
H  21.23300 -1.10800 42.06100
H  22.54700 -0.27000 43.12000
H  24.32900 -3.43200 40.81600
H  25.76700 -3.46900 41.63500
H  26.89600 -2.31800 40.36300
H  25.82800 -0.85300 40.69500
H  17.77400 -5.26100 44.41400
H  18.16200 -6.47300 43.23600
H  18.85800 -4.82100 43.06900
H  19.30500 -8.57500 47.87600
H  19.38600 -9.91300 46.63900
H  17.87500 -9.34600 47.32000
H  23.66000 -9.95000 47.77200
H  25.37800 -8.22400 49.59600
H  21.95400 -8.83300 49.37900
H  23.33000 -8.96800 50.53700
H  22.73200 -10.40100 49.62300
H  26.68700 -9.65300 47.15700
H  25.99000 -10.63700 48.51600
H  27.63100 -10.14500 49.91200
H  27.58300 -8.49600 49.56200
H  28.52800 -9.60900 48.51500
H  29.17400 -5.37200 48.46600
H  30.09900 -4.46300 47.36100
H  29.59500 -6.13000 46.87500
H  27.70900 -2.50200 43.10100
H  28.66600 1.62800 42.28900
H  27.75900 1.67900 43.80200
H  26.98700 1.57900 42.14700
Mg -11.84900 15.65300 42.03300
C  -8.92400 13.81800 41.94400
C  -10.13900 18.29000 40.69100
C  -14.78700 17.23300 40.94800
C  -13.64500 12.76100 42.74100
N  -9.73600 15.97300 41.37900
C  -8.70600 15.09900 41.49000
C  -7.44900 15.63100 40.86600
C  -7.82600 17.12400 40.82000
C  -9.31100 17.16700 40.97000
C  -7.08100 17.97600 41.88600
C  -7.24300 14.93200 39.46200
C  -5.87400 14.38500 39.16400
H  -5.08800 14.80900 38.00700
N  -12.37400 17.50500 41.10500
C  -11.50100 18.44300 40.73100
C  -12.17100 19.63100 40.20600
C  -13.54500 19.26700 40.06000
C  -13.62600 17.92500 40.69500
C  -11.41000 20.89600 39.84600
C  -14.54100 19.94400 39.18000
O  -14.34500 21.02400 38.61600
C  -15.80800 19.13200 38.76800
N  -13.93300 15.11700 41.90000
C  -15.01800 15.94900 41.51700
C  -16.35200 15.17800 41.51100
C  -15.92100 13.76300 41.98300
C  -14.37500 13.86400 42.18400
C  -17.45900 15.84100 42.39100
C  -16.36600 12.60600 41.10700
C  -17.84200 12.14500 41.42700
N  -11.44500 13.67900 42.49000
C  -12.23600 12.60900 42.82900
C  -11.41800 11.49500 43.10500
C  -10.09700 11.87100 42.71000
C  -10.15700 13.25200 42.33400
C  -11.93900 10.07200 43.54100
C  -8.66300 11.46600 42.72900
O  -8.10300 10.53000 43.18400
C  -7.87600 12.71100 42.13600
C  -6.80100 13.12300 43.02600
O  -6.97000 13.40600 44.21000
O  -5.60400 13.28700 42.38200
C  -4.62000 14.15200 43.11400
H  -9.61000 19.21800 40.46300
H  -15.70300 17.78300 40.72100
H  -14.24300 11.86900 42.94200
H  -6.61700 15.48200 41.55500
H  -7.61900 17.56200 39.84300
H  -6.42600 17.38900 42.53000
H  -7.86000 18.54400 42.39500
H  -6.44200 18.70600 41.38900
H  -7.42600 15.57900 38.60400
H  -8.01400 14.16400 39.39100
H  -5.84600 13.30100 39.06200
H  -5.19100 14.60400 39.98500
H  -12.02600 21.76600 39.62000
H  -10.75300 20.77700 38.98500
H  -10.69000 21.21800 40.59900
H  -15.57800 18.08800 38.55000
H  -15.90700 19.44500 37.72800
H  -16.70300 19.42500 39.31700
H  -16.73500 15.12700 40.49200
H  -16.29600 13.53000 42.97900
H  -18.37200 15.82000 41.79600
H  -17.12600 16.82600 42.71700
H  -17.64200 15.27000 43.30100
H  -15.87100 11.67800 41.39300
H  -16.26300 12.79400 40.03800
H  -17.87300 11.51000 42.31300
H  -18.45000 11.67800 40.65200
H  -18.33600 13.06500 41.73800
H  -11.90500 9.32200 42.75200
H  -12.97800 10.16000 43.86000
H  -11.31000 9.79200 44.38600
H  -7.55800 12.31500 41.17200
H  -3.83200 13.55100 43.56800
H  -4.98600 14.88900 43.82800
H  -4.01700 14.64700 42.35200

