158

Mg 46.72000 25.06300 28.27600
C  47.42100 27.26400 30.83400
C  45.77900 22.68000 30.73500
C  46.14000 22.87100 25.87600
C  48.30400 27.23000 26.00200
N  46.81800 24.89000 30.49800
C  46.98000 26.06500 31.32800
C  46.63000 25.71000 32.78300
C  46.35500 24.14100 32.77200
C  46.31900 23.85000 31.21500
C  47.37000 23.20200 33.48400
C  45.59800 26.64500 33.35700
C  45.96300 27.40100 34.61200
H  46.62300 26.61300 35.76500
N  46.03700 22.97200 28.27900
C  45.72400 22.21100 29.36900
C  45.37900 20.90000 28.92400
C  45.34300 20.93000 27.48900
C  45.78900 22.28200 27.10700
C  44.97500 19.83800 29.86300
C  44.96200 19.95600 26.49900
O  44.92300 20.19000 25.29100
C  44.57300 18.59600 27.00400
N  47.12300 25.02100 26.20300
C  46.71500 24.03400 25.43200
C  47.22100 24.16700 23.99300
C  47.76400 25.60300 23.95400
C  47.83300 25.96800 25.49800
C  48.25300 23.08100 23.52800
C  46.86700 26.68900 23.26500
C  47.47400 27.93900 22.59900
N  47.65600 26.87200 28.30100
C  48.23600 27.66600 27.31700
C  48.62700 28.96100 27.86700
C  48.27500 28.85900 29.25200
C  47.69900 27.56200 29.47200
C  49.30100 30.07300 27.10500
C  48.31200 29.62000 30.48100
O  48.84500 30.65700 30.83200
C  47.88000 28.57700 31.54300
C  48.95800 28.31400 32.52800
O  49.90800 27.56600 32.28500
O  48.79800 29.15500 33.58400
C  49.85000 28.97400 34.57700
H  45.54700 22.01300 31.56800
H  46.09600 22.15800 25.05000
H  48.89300 27.86400 25.33600
H  47.54700 25.88400 33.34600
H  45.38300 24.06100 33.25900
H  46.74400 22.55100 34.09600
H  48.00300 23.77600 34.16000
H  47.91500 22.54000 32.81100
H  44.65800 26.13800 33.57400
H  45.35700 27.44600 32.65900
H  44.95800 27.61000 34.97900
H  46.49700 28.33800 34.45500
H  45.02500 19.91400 30.94900
H  45.55500 18.93100 29.69300
H  43.92800 19.68300 29.59900
H  43.57600 18.48200 27.43000
H  45.35900 18.28700 27.69300
H  44.60400 17.91700 26.15200
H  46.37200 24.05500 23.31800
H  48.73400 25.69300 23.46400
H  48.52300 22.46700 24.38700
H  49.20100 23.44800 23.13400
H  47.75900 22.52200 22.73300
H  46.10800 26.92800 24.01000
H  46.27600 26.21400 22.48300
H  47.10500 27.84300 21.57800
H  48.56100 27.87100 22.65900
H  47.15600 28.82900 23.14200
H  50.34600 29.98900 27.40100
H  48.91900 31.07800 27.28800
H  49.23100 29.89700 26.03200
H  47.00800 29.04900 31.99600
H  50.83800 28.77000 34.16400
H  49.55400 28.08500 35.13400
H  49.78700 29.68600 35.40000
Mg 29.90000 58.21600 40.10700
C  27.05900 56.17200 39.68000
C  31.87600 55.56600 39.17600
C  32.68200 60.28500 39.85800
C  27.91100 61.02600 40.15500
N  29.48500 56.03900 39.80300
C  28.24200 55.44800 39.59400
C  28.44000 53.99800 39.01200
C  30.02200 53.81800 39.27500
C  30.48100 55.25500 39.27700
C  30.42000 53.19900 40.65100
C  28.16500 53.98800 37.50200
C  28.20900 55.32800 36.68000
H  27.42700 55.41100 35.37600
N  31.99400 57.95400 39.71600
C  32.58800 56.79300 39.36900
C  33.97700 56.98900 39.34500
C  34.28000 58.33700 39.59900
C  32.93800 58.93100 39.76300
C  35.04200 55.86700 39.24700
C  35.72900 58.93200 39.61400
O  36.69900 58.22200 39.41300
C  35.90300 60.38100 40.12400
N  30.26700 60.27400 40.05500
C  31.48600 60.91800 39.95200
C  31.40800 62.43100 39.82500
C  29.81100 62.67800 40.07000
C  29.30500 61.27600 40.07700
C  32.29500 63.19800 40.85500
C  29.05200 63.70600 39.15300
C  28.47700 64.95200 39.91300
N  27.86600 58.52100 40.14800
C  27.19200 59.77400 40.11200
C  25.78300 59.56300 39.96400
C  25.67500 58.17000 39.73600
C  26.97400 57.59600 39.93600
C  24.72700 60.57900 39.91100
C  24.76300 57.05900 39.48000
O  23.55200 56.98200 39.28900
C  25.65100 55.79200 39.32300
C  25.08800 54.66600 40.11000
O  24.89700 54.78300 41.29800
O  24.86400 53.57600 39.35600
C  24.24100 52.38700 40.00400
H  32.45700 54.67600 38.92700
H  33.46400 61.04500 39.79500
H  27.37400 61.97600 40.17000
H  27.85200 53.23900 39.52800
H  30.58600 53.29300 38.50400
H  29.48600 52.77500 41.01900
H  30.80400 53.97700 41.31000
H  31.14500 52.39300 40.53500
H  27.18100 53.52700 37.41500
H  28.98000 53.44500 37.02400
H  29.27600 55.44100 36.48700
H  27.98600 56.22400 37.25800
H  35.63000 56.17100 38.38100
H  34.64600 54.92400 38.86800
H  35.74200 55.66100 40.05600
H  35.79200 61.04500 39.26800
H  36.87400 60.61600 40.55900
H  35.14600 60.51700 40.89700
H  31.69800 62.77900 38.83400
H  29.67600 62.99300 41.10500
H  31.64900 63.67100 41.59500
H  32.90800 63.92200 40.31800
H  32.88000 62.51400 41.47100
H  28.25400 63.31400 38.52200
H  29.82100 64.07600 38.47400
H  29.20300 65.73000 39.67700
H  28.40900 64.69800 40.97100
H  27.51000 65.19200 39.47300
H  24.61300 61.03200 40.89600
H  23.81100 60.07400 39.60600
H  25.05600 61.31300 39.17500
H  25.62600 55.53000 38.26500
H  24.58200 51.49000 39.48700
H  23.15300 52.43600 39.94900
H  24.38300 52.43400 41.08400

