158

Mg 46.32000 24.83500 28.23500
C  47.32400 26.91300 30.95900
C  45.57900 22.42900 30.55800
C  46.36100 22.65900 25.76500
C  47.38200 27.43400 26.10800
N  46.32400 24.77400 30.47900
C  46.71300 25.74100 31.34600
C  46.25800 25.35600 32.81600
C  45.88500 23.83900 32.68000
C  45.92300 23.65200 31.14200
C  46.88000 22.81300 33.32700
C  45.22700 26.32900 33.48600
C  45.54800 27.01100 34.80500
H  44.49800 27.08700 35.92900
N  45.94100 22.87700 28.20700
C  45.57800 22.03600 29.22300
C  45.18300 20.77900 28.67600
C  45.45600 20.76700 27.26600
C  46.00200 22.16800 27.00500
C  44.53600 19.66200 29.44400
C  45.11600 19.69000 26.19500
O  45.32200 19.85300 25.02400
C  44.59400 18.41000 26.58600
N  46.77600 25.02500 26.23700
C  46.72600 23.97200 25.37300
C  47.23900 24.36200 23.95800
C  47.21300 25.92500 24.05300
C  47.14600 26.16900 25.53500
C  48.57300 23.81400 23.39400
C  46.06600 26.61100 23.24000
C  46.46700 27.59800 22.18600
N  47.17300 26.74400 28.37100
C  47.53300 27.74600 27.46800
C  48.17800 28.85200 28.06100
C  47.97300 28.57800 29.47300
C  47.47200 27.24700 29.60700
C  48.91600 29.91200 27.38400
C  48.26800 29.14600 30.77300
O  48.86600 30.18600 30.99400
C  47.73900 28.10800 31.90700
C  48.95100 27.77100 32.75200
O  50.12900 27.63700 32.37000
O  48.59400 27.64800 34.08900
C  49.52500 27.29200 35.12500
H  45.29100 21.66700 31.28600
H  46.34900 21.90500 24.97500
H  47.65200 28.14200 25.32200
H  47.12000 25.36900 33.48200
H  44.85300 23.67300 32.99000
H  47.02000 23.18800 34.34100
H  47.82200 22.87700 32.78300
H  46.56700 21.77600 33.45000
H  44.31600 25.73900 33.58900
H  45.06500 27.12900 32.76400
H  45.77600 28.07000 34.68200
H  46.38400 26.48200 35.26300
H  45.04900 18.70900 29.31600
H  43.48100 19.52500 29.20600
H  44.51600 19.93000 30.50000
H  45.26000 17.88200 27.26800
H  44.31500 17.75600 25.76000
H  43.69800 18.71300 27.12800
H  46.57500 24.07600 23.14300
H  48.09800 26.47100 23.72600
H  48.42200 23.49800 22.36200
H  49.01000 23.03300 24.01500
H  49.34200 24.58600 23.36800
H  45.29900 27.04600 23.88100
H  45.55700 25.85600 22.64200
H  47.51000 27.53300 21.87700
H  46.26100 28.57200 22.63200
H  45.84900 27.46500 21.29800
H  49.11200 29.72000 26.32900
H  49.92800 30.02500 27.77200
H  48.39300 30.86100 27.50400
H  46.90600 28.49800 32.49200
H  49.62500 28.16300 35.77200
H  50.51000 27.12500 34.68900
H  49.17900 26.44100 35.71100
Mg 16.25000 51.81300 24.91500
C  18.33200 51.03200 27.50700
C  13.85600 52.54800 27.12300
C  14.30800 52.39700 22.26700
C  18.85300 50.96500 22.72300
N  16.10900 51.76500 27.07000
C  17.12400 51.47800 27.93700
C  16.66100 51.67000 29.38600
C  15.10400 51.94900 29.28900
C  14.99000 52.06300 27.77900
C  14.22900 50.82400 29.79800
C  17.38800 52.84000 30.18000
C  17.51000 52.72700 31.80000
H  16.69400 51.67600 32.61700
N  14.40600 52.38500 24.71800
C  13.55000 52.71900 25.74100
C  12.32400 53.14800 25.18900
C  12.40700 53.11800 23.73700
C  13.73800 52.66100 23.51700
C  11.20200 53.50900 26.10300
C  11.29900 53.34500 22.64600
O  11.41400 53.09900 21.44200
C  9.92400 53.92000 23.06700
N  16.54300 51.63200 22.79000
C  15.57200 51.86600 21.90000
C  16.00000 51.60000 20.45300
C  17.55800 51.46500 20.68000
C  17.70500 51.40700 22.12300
C  15.20300 50.47700 19.83800
C  18.43400 52.63500 20.01100
C  19.63300 52.09400 19.20600
N  18.20300 51.20100 25.02700
C  19.17100 50.89300 24.08100
C  20.44200 50.55200 24.69900
C  20.09700 50.53200 26.09100
C  18.79300 50.96600 26.20200
C  21.75200 50.21100 24.05700
C  20.65100 50.28200 27.42100
O  21.74900 49.94200 27.82600
C  19.51000 50.69700 28.40900
C  19.22400 49.58500 29.32700
O  18.70400 48.53500 29.00100
O  19.70200 49.88600 30.53400
C  19.57000 48.89800 31.66100
H  13.02600 52.87600 27.75400
H  13.74200 52.57300 21.35100
H  19.69400 50.91500 22.02900
H  16.85200 50.71200 29.87000
H  14.79100 52.89000 29.74100
H  14.58900 49.95300 30.34700
H  13.58200 50.51900 28.97600
H  13.54700 51.31800 30.49100
H  16.98100 53.82100 29.93600
H  18.36200 52.84500 29.69100
H  17.09600 53.67600 32.14000
H  18.56900 52.69400 32.05400
H  10.51700 54.25600 25.70200
H  11.58500 53.92800 27.03400
H  10.60500 52.60200 26.19500
H  10.06900 54.84500 23.62500
H  9.42900 53.13800 23.64400
H  9.32600 54.05000 22.16500
H  15.66000 52.43400 19.83900
H  17.76600 50.50000 20.21700
H  14.61000 51.00200 19.09000
H  14.60500 49.90200 20.54500
H  15.90800 49.84300 19.30100
H  18.85300 53.25800 20.80100
H  17.72700 53.21200 19.41600
H  19.58200 52.64800 18.26900
H  19.51700 51.01300 19.12500
H  20.61300 52.31700 19.62700
H  21.87300 50.67600 23.07800
H  21.63800 49.15000 23.83400
H  22.58900 50.49500 24.69400
H  19.88400 51.45700 29.09500
H  19.67700 49.31600 32.66300
H  20.32000 48.10700 31.63800
H  18.62700 48.35500 31.71700

