158

Mg 17.80600 -2.33300 28.02700
C  16.74200 0.01400 30.54000
C  19.64700 -3.89200 30.60700
C  19.16800 -4.22700 25.69900
C  16.24100 -0.41100 25.59000
N  17.98300 -2.06700 30.34800
C  17.42000 -1.06300 31.06900
C  17.74600 -1.29000 32.55900
C  18.76500 -2.49700 32.55500
C  18.75100 -2.90500 31.06900
C  20.12600 -2.01900 33.06400
C  16.44500 -1.53300 33.47700
C  16.25800 -0.70600 34.70300
H  17.47200 0.00600 35.30700
N  19.15400 -3.84300 28.13000
C  19.69300 -4.44800 29.23600
C  20.48800 -5.55000 28.86200
C  20.37600 -5.65800 27.41900
C  19.50600 -4.53300 27.04000
C  21.32000 -6.44700 29.80500
C  21.10900 -6.58000 26.46600
O  21.09300 -6.48400 25.25600
C  22.00100 -7.65800 27.01100
N  17.86700 -2.14800 25.94900
C  18.43500 -3.11200 25.20500
C  18.33200 -2.79400 23.69000
C  17.32400 -1.61500 23.66700
C  17.06600 -1.40900 25.15700
C  19.68400 -2.51400 22.94100
C  16.03800 -1.87200 22.91000
C  15.54200 -0.93700 21.76800
N  16.73400 -0.59300 28.01200
C  16.17100 0.10200 26.91300
C  15.49700 1.29400 27.41600
C  15.70800 1.28900 28.76700
C  16.46300 0.19000 29.11400
C  14.73800 2.26100 26.63600
C  15.46600 2.00800 30.04100
O  14.80500 3.00600 30.31800
C  16.17700 1.19400 31.18300
C  17.06200 2.11400 31.86700
O  18.30000 2.03900 31.85200
O  16.41100 2.97900 32.76800
C  17.18500 3.90300 33.57600
H  20.20000 -4.33200 31.43900
H  19.49300 -4.85200 24.86500
H  15.67700 0.16600 24.85500
H  18.22200 -0.32800 32.74700
H  18.44900 -3.29900 33.22200
H  20.10000 -1.02000 33.50000
H  20.75200 -1.89100 32.18100
H  20.59700 -2.75500 33.71500
H  16.46800 -2.59600 33.72000
H  15.59300 -1.48100 32.80000
H  15.80700 -1.38500 35.42600
H  15.51800 0.04300 34.42300
H  22.35300 -6.50700 29.46400
H  20.98800 -7.48500 29.83300
H  21.37700 -6.04400 30.81600
H  21.50700 -8.19500 27.82100
H  22.85900 -7.08800 27.36600
H  22.32900 -8.39300 26.27600
H  17.93600 -3.72100 23.27500
H  17.91600 -0.72600 23.44600
H  20.37600 -2.25300 23.74200
H  19.64200 -1.72800 22.18800
H  20.10700 -3.43300 22.53400
H  15.23400 -2.06000 23.62200
H  16.17400 -2.85100 22.45000
H  15.76200 -1.32400 20.77300
H  16.20600 -0.07300 21.75200
H  14.54300 -0.50100 21.79100
H  14.54300 3.17900 27.19100
H  13.83100 1.81100 26.23400
H  15.37300 2.59900 25.81700
H  15.47900 0.83700 31.94100
H  16.78800 4.91500 33.49400
H  18.26000 3.89300 33.39700
H  17.08100 3.63100 34.62700
Mg 47.11100 24.53400 28.73800
C  47.82200 26.73800 31.29900
C  45.84300 22.33300 31.28600
C  46.66000 22.22400 26.46500
C  48.30200 26.84100 26.42500
N  46.64100 24.64400 30.98400
C  47.08900 25.64700 31.79600
C  46.80200 25.37500 33.25500
C  46.32200 23.94800 33.27300
C  46.26600 23.57200 31.76300
C  47.14500 22.92000 34.16900
C  45.85300 26.49800 33.76400
C  45.93600 26.97300 35.20900
H  46.58800 26.14000 36.41000
N  46.34300 22.54100 28.83800
C  45.93600 21.81900 29.95600
C  45.59200 20.46200 29.55100
C  45.80300 20.38700 28.14200
C  46.25900 21.73700 27.76800
C  44.89100 19.40300 30.49200
C  45.51100 19.24300 27.19700
O  45.83700 19.22800 26.01100
C  44.72300 18.08300 27.58200
N  47.31100 24.60600 26.70800
C  47.08300 23.46200 25.97100
C  47.35400 23.75800 24.51000
C  47.63900 25.29900 24.46000
C  47.75300 25.66500 25.92800
C  48.52800 22.94000 23.80500
C  46.45000 26.04600 23.83700
C  45.05700 25.82200 24.38700
N  47.93800 26.32800 28.75500
C  48.42700 27.11000 27.75200
C  49.13800 28.25200 28.34100
C  48.91200 28.10400 29.67900
C  48.17400 26.93400 29.90800
C  49.90800 29.25700 27.63900
C  49.12500 28.79500 30.93300
O  49.65500 29.87200 31.23200
C  48.42900 27.92900 32.02400
C  49.32600 27.51400 33.13700
O  50.01900 26.49200 33.04100
O  49.32100 28.40600 34.17900
C  50.03500 28.08700 35.45200
H  45.60300 21.69200 32.13600
H  46.66100 21.49600 25.65100
H  48.64200 27.60400 25.72100
H  47.69300 25.54300 33.86100
H  45.29800 23.85500 33.63700
H  46.46100 22.55800 34.93700
H  48.06200 23.25500 34.65300
H  47.34500 21.99800 33.62400
H  44.83100 26.21100 33.51600
H  45.98800 27.36700 33.12000
H  44.89800 27.06300 35.52900
H  46.20100 28.02900 35.15400
H  43.99300 18.94100 30.08300
H  44.56900 19.77000 31.46700
H  45.59800 18.57300 30.50200
H  43.74900 18.41600 27.94200
H  45.30800 17.49900 28.29200
H  44.47500 17.42300 26.75000
H  46.45400 23.41000 24.00300
H  48.53500 25.71600 24.00000
H  49.18900 23.68000 23.35400
H  48.05800 22.20100 23.15700
H  49.04400 22.42200 24.61400
H  46.56000 25.73900 22.79700
H  46.58700 27.12600 23.88600
H  44.54100 26.76700 24.55500
H  45.14400 25.19000 25.27000
H  44.45900 25.26700 23.66500
H  49.42500 30.22400 27.49800
H  50.39500 28.93000 26.72000
H  50.72900 29.59800 28.27000
H  47.58800 28.52900 32.37000
H  49.28300 27.92900 36.22500
H  50.55200 28.99900 35.75000
H  50.72100 27.28300 35.18700

