158

Mg 52.48500 23.54500 43.89100
C  49.94500 25.83400 43.41900
C  50.51900 21.16700 42.40000
C  55.15900 21.54500 43.56700
C  54.62800 26.22700 45.00800
N  50.49400 23.59900 42.94400
C  49.60300 24.61800 42.90500
C  48.43000 24.28500 41.99400
C  48.43900 22.70600 42.02500
C  49.92000 22.45100 42.56500
C  47.34500 22.05900 42.87000
C  48.55700 25.10200 40.60100
C  48.73700 24.32400 39.33100
H  49.12300 25.11000 38.03800
N  52.77600 21.64200 43.15300
C  51.80600 20.79300 42.67700
C  52.38200 19.49800 42.28400
C  53.74300 19.56200 42.70100
C  54.00200 20.95600 43.10100
C  51.62000 18.36800 41.74900
C  54.78600 18.49100 42.58500
O  54.45400 17.39300 42.09800
C  56.17400 18.53100 43.03900
N  54.54600 23.91200 44.11900
C  55.39600 22.84200 43.99400
C  56.79300 23.28200 44.52800
C  56.69700 24.78700 44.77000
C  55.24400 25.02000 44.56500
C  57.16400 22.48500 45.83300
C  57.63800 25.62000 43.73500
C  58.64500 26.58300 44.33900
N  52.33200 25.52600 44.29600
C  53.20200 26.48800 44.87800
C  52.50700 27.72900 45.26200
C  51.23300 27.50000 44.63100
C  51.19900 26.12900 44.10500
C  53.07800 28.96300 46.00700
C  49.92300 28.11800 44.31900
O  49.58600 29.26100 44.55900
C  49.11000 27.06000 43.54100
C  48.77100 27.69400 42.22200
O  49.67800 28.06400 41.42400
O  47.41200 27.78200 41.98700
C  46.96400 28.14000 40.61600
H  50.02100 20.46200 41.73000
H  56.04700 20.91600 43.65000
H  55.22900 27.00900 45.47600
H  47.49700 24.72500 42.34400
H  48.32400 22.28100 41.02800
H  47.61700 21.86000 43.90700
H  46.87200 21.20100 42.39100
H  46.53900 22.79200 42.90400
H  49.32200 25.87800 40.56200
H  47.54600 25.50700 40.54300
H  47.76300 23.90700 39.07200
H  49.54500 23.62100 39.53400
H  51.39000 18.60000 40.71000
H  50.69400 18.36800 42.32500
H  52.05300 17.37800 41.89300
H  56.16200 18.84700 44.08200
H  56.62700 19.21000 42.31600
H  56.66900 17.56000 43.04300
H  57.54400 23.03200 43.77800
H  56.99800 25.07400 45.77700
H  56.33600 21.82000 46.07800
H  57.32000 23.16800 46.66800
H  58.12900 22.02600 45.61700
H  56.94500 26.19000 43.11600
H  58.13400 24.97500 43.00900
H  58.77800 26.53000 45.41900
H  58.26700 27.58800 44.15200
H  59.61700 26.47500 43.85600
H  54.15900 28.98100 45.87000
H  52.77700 28.87100 47.05000
H  52.62000 29.92700 45.78500
H  48.20000 26.88200 44.11500
H  46.47400 29.11200 40.67400
H  46.18400 27.45400 40.28400
H  47.63100 28.13000 39.75400
Mg 46.20900 24.76900 28.53000
C  46.39700 27.21900 31.10900
C  45.06300 22.51500 30.85500
C  46.21700 22.52600 26.13000
C  48.00900 26.95500 26.48000
N  45.58600 24.93100 30.70300
C  45.83100 25.99600 31.58200
C  45.45500 25.58700 33.00500
C  45.28300 24.01300 32.88400
C  45.37000 23.78400 31.37100
C  46.29500 23.20700 33.73800
C  44.31200 26.42600 33.57500
C  44.71100 27.09100 34.86900
H  45.11700 26.28900 36.20100
N  45.63200 22.90000 28.48900
C  45.12800 22.13900 29.53000
C  44.75200 20.85200 28.96200
C  45.02500 20.82600 27.55800
C  45.64700 22.10000 27.34900
C  44.13200 19.71400 29.77000
C  44.75500 19.82800 26.52100
O  45.03100 19.95500 25.33600
C  43.87700 18.58600 26.87500
N  46.95800 24.79000 26.60500
C  46.84700 23.68500 25.77800
C  47.31500 23.99800 24.27900
C  47.98500 25.41800 24.42600
C  47.56600 25.80700 25.88000
C  48.20000 23.01600 23.46200
C  47.58800 26.49900 23.39200
C  46.08000 26.95400 23.21100
N  47.04600 26.74100 28.67400
C  47.73600 27.45300 27.75500
C  48.13700 28.72600 28.31600
C  47.65500 28.62400 29.63400
C  46.98400 27.40900 29.84300
C  49.04300 29.76700 27.72800
C  47.62900 29.34800 30.92700
O  48.02100 30.45500 31.17400
C  46.86300 28.42200 31.95900
C  47.93200 28.00000 32.86700
O  48.62300 26.94500 32.78100
O  47.94800 28.71600 34.06200
C  48.95400 28.31000 35.06600
H  44.68300 21.97100 31.72300
H  46.17400 21.85700 25.26800
H  48.56200 27.51200 25.72100
H  46.32500 25.69800 33.65400
H  44.29900 23.76200 33.27700
H  47.19100 23.75400 34.03200
H  46.62600 22.54700 32.93600
H  45.84900 22.72200 34.60600
H  43.48700 25.78400 33.88200
H  44.07300 27.20300 32.84800
H  43.84500 27.67400 35.17900
H  45.62400 27.67800 34.76400
H  44.60500 18.73500 29.69200
H  43.05800 19.71300 29.58300
H  44.33800 19.92900 30.81800
H  44.41100 17.91300 27.54600
H  43.59800 18.20200 25.89400
H  42.99000 18.92200 27.41200
H  46.33400 24.12600 23.82000
H  49.06300 25.28400 24.33300
H  49.00500 23.58500 22.99800
H  47.66200 22.36500 22.77300
H  48.78700 22.37500 24.12100
H  47.90000 25.98800 22.48100
H  48.20200 27.38700 23.54000
H  45.64600 26.50600 22.31700
H  46.03800 28.03100 23.04600
H  45.40500 26.64900 24.01000
H  49.95500 29.27000 27.39800
H  49.36400 30.42400 28.53600
H  48.54300 30.25500 26.89100
H  46.06700 28.87300 32.55300
H  48.38600 27.56900 35.62800
H  49.03900 29.24800 35.61500
H  49.88600 27.94200 34.63600

