158

Mg -1.76700 18.17000 27.13700
C  -2.13400 16.12200 30.01100
C  -2.56700 20.81100 28.99000
C  -1.26700 20.01400 24.52300
C  -1.64800 15.24500 25.22400
N  -2.09700 18.38100 29.24200
C  -2.17600 17.49300 30.28100
C  -2.31000 18.15000 31.58700
C  -2.90100 19.51900 31.20000
C  -2.48400 19.59500 29.71700
C  -4.47300 19.58100 31.41000
C  -0.99800 18.16900 32.42000
C  -1.00600 17.58700 33.78800
H  0.28700 17.35600 34.65600
N  -1.69600 20.18900 26.85500
C  -2.11100 21.19300 27.72200
C  -1.85600 22.47100 27.14700
C  -1.36100 22.23000 25.84700
C  -1.37200 20.79200 25.64700
C  -2.15100 23.76000 27.96400
C  -1.08500 23.26000 24.77200
O  -0.77500 23.02700 23.61100
C  -1.12900 24.73100 25.20700
N  -1.51700 17.72200 25.15400
C  -1.40700 18.65900 24.25400
C  -1.34700 18.03000 22.86700
C  -1.33100 16.55500 23.08200
C  -1.60800 16.45200 24.54500
C  -2.43500 18.68300 21.92600
C  -0.16700 15.70400 22.52800
C  -0.47300 14.82600 21.30700
N  -1.87200 16.09100 27.49800
C  -1.68800 15.03100 26.57900
C  -1.69900 13.80900 27.26300
C  -1.88100 14.15900 28.65700
C  -1.98300 15.58200 28.71200
C  -1.66700 12.39100 26.70500
C  -2.18800 13.67700 29.96700
O  -2.31600 12.50600 30.38100
C  -2.11600 14.88700 30.86800
C  -0.92200 14.76300 31.72900
O  0.21300 14.98400 31.47400
O  -1.25900 14.22200 32.92100
C  -0.30500 13.61500 33.82600
H  -3.02800 21.65600 29.50500
H  -1.04000 20.59300 23.62500
H  -1.65300 14.34200 24.61000
H  -3.03900 17.53400 32.11500
H  -2.47500 20.39700 31.68600
H  -4.82800 19.40800 30.39500
H  -4.73800 20.52500 31.88700
H  -5.02100 18.81200 31.95400
H  -0.54300 19.15500 32.51100
H  -0.22500 17.69000 31.81800
H  -1.53200 16.63600 33.70000
H  -1.63100 18.28200 34.34900
H  -2.62100 23.55500 28.92700
H  -2.95400 24.15600 27.34300
H  -1.37000 24.50100 27.79600
H  -2.15100 25.01000 25.46400
H  -0.99800 25.47900 24.42600
H  -0.42400 24.98100 26.00000
H  -0.35900 18.23800 22.45600
H  -2.21300 16.08600 22.64500
H  -3.00200 19.44700 22.45600
H  -3.18800 17.96100 21.60800
H  -2.03900 19.13600 21.01700
H  0.16900 15.03000 23.31500
H  0.72300 16.29600 22.31200
H  -0.44200 13.77000 21.57700
H  0.26900 15.13500 20.57000
H  -1.42400 15.01000 20.80800
H  -1.05200 12.28300 25.81100
H  -2.71700 12.10000 26.71800
H  -1.13900 11.80800 27.46000
H  -3.00700 14.94300 31.49400
H  -0.36200 12.52800 33.77800
H  -0.44100 13.89700 34.87000
H  0.69100 13.96000 33.54900
Mg 36.02500 48.31000 26.01300
C  36.30600 46.25300 29.01400
C  34.97100 50.94000 28.07500
C  34.89000 49.84300 23.39200
C  36.31300 45.31900 24.22200
N  35.68300 48.60700 28.32200
C  36.04700 47.64200 29.29000
C  35.86100 48.27300 30.67300
C  35.40300 49.72200 30.35300
C  35.30200 49.80600 28.80500
C  34.02500 50.12000 31.01400
C  37.10800 48.13400 31.64400
C  36.83100 47.63100 33.04500
H  36.46100 48.60300 34.13700
N  35.26900 50.21500 25.76300
C  34.91000 51.15400 26.70800
C  34.67900 52.36500 26.14000
C  34.62200 52.09400 24.71500
C  34.93100 50.63200 24.54500
C  34.52600 53.67100 26.92100
C  34.29800 52.97100 23.53800
O  34.28800 52.52100 22.39900
C  33.89500 54.44300 23.83000
N  35.68200 47.67400 24.06800
C  35.20700 48.53000 23.16900
C  35.13800 47.90900 21.74600
C  35.61500 46.44500 22.01400
C  35.87900 46.48200 23.49900
C  33.71900 48.02700 21.10900
C  36.93700 45.97100 21.17600
C  38.32400 46.09600 21.82700
N  36.42600 46.26400 26.43700
C  36.56200 45.22800 25.60500
C  36.87900 44.02500 26.38400
C  36.75100 44.39100 27.70900
C  36.49800 45.75600 27.69400
C  37.20000 42.60900 25.89300
C  36.77800 43.90500 29.08000
O  36.85300 42.73300 29.53000
C  36.47700 45.12600 29.98400
C  35.16000 44.82500 30.62700
O  34.05100 45.12600 30.17000
O  35.39100 44.33000 31.85000
C  34.32900 44.15700 32.79700
H  34.72100 51.81700 28.67500
H  34.65200 50.34300 22.45100
H  36.32800 44.35400 23.71100
H  35.06300 47.70000 31.14500
H  36.12700 50.42800 30.76000
H  34.35800 50.83600 31.76500
H  33.57500 49.25500 31.50100
H  33.38200 50.59700 30.27400
H  37.64700 49.08000 31.69100
H  37.82900 47.39300 31.30000
H  37.76300 47.12500 33.29500
H  36.07200 46.84900 33.03600
H  33.49600 53.77400 27.26000
H  34.72800 54.56900 26.33800
H  35.16700 53.74600 27.79900
H  34.76400 55.05800 24.06200
H  33.13100 54.41000 24.60800
H  33.35800 54.81100 22.95600
H  35.75700 48.37800 20.98100
H  34.80200 45.75200 21.79600
H  33.57600 47.01600 20.72800
H  33.81800 48.72500 20.27700
H  33.00500 48.22600 21.90800
H  37.03700 46.58900 20.28400
H  36.78300 44.91900 20.94000
H  38.18900 46.83000 22.62200
H  39.08100 46.40100 21.10400
H  38.51400 45.12300 22.28000
H  38.20900 42.43200 26.26500
H  37.36400 42.44100 24.82800
H  36.52800 41.90800 26.38700
H  37.35100 45.27500 30.61800
H  34.42200 44.97600 33.51000
H  34.57100 43.24800 33.34800
H  33.29900 44.20500 32.44300

