158

Mg 46.91600 16.74900 28.07000
C  44.82400 16.18700 30.91200
C  49.00500 18.47900 30.32700
C  48.82200 17.85500 25.42000
C  44.75300 15.27100 26.00600
N  46.79700 17.36500 30.38000
C  45.88700 17.02500 31.33800
C  46.28400 17.43500 32.79500
C  47.52100 18.34500 32.41600
C  47.83500 18.07200 30.93700
C  47.28300 19.87400 32.78400
C  46.72200 16.21000 33.58900
C  46.54000 16.17200 35.15300
H  45.98400 17.44900 35.90500
N  48.67900 17.91300 27.89800
C  49.39000 18.45100 28.95600
C  50.60900 18.99100 28.46600
C  50.59300 18.95500 27.02600
C  49.33800 18.18000 26.71600
C  51.73200 19.56300 29.28300
C  51.67600 19.49800 26.03400
O  51.46300 19.48000 24.86000
C  52.96200 20.07700 26.48900
N  46.71600 16.76300 25.90900
C  47.65800 17.22500 25.06000
C  47.16900 16.95100 23.59200
C  45.95400 16.03700 23.82500
C  45.81000 15.95300 25.34200
C  46.85700 18.20800 22.73800
C  46.04900 14.60600 23.20100
C  44.83200 14.05200 22.42100
N  45.18400 15.86000 28.30500
C  44.37500 15.27400 27.39300
C  43.17500 14.74200 28.03200
C  43.33700 14.98500 29.44600
C  44.49000 15.79900 29.57400
C  42.00400 14.12300 27.36100
C  42.77400 14.85100 30.73100
O  41.77500 14.33600 31.09900
C  43.71100 15.64400 31.74600
C  42.85300 16.66500 32.37900
O  42.60400 17.80100 31.94600
O  42.40300 16.19200 33.60500
C  41.61600 17.07000 34.39500
H  49.81400 18.97300 30.87000
H  49.46500 18.26100 24.63700
H  44.08200 14.70000 25.36000
H  45.43700 17.96000 33.23500
H  48.37300 18.04600 33.02800
H  46.30200 20.12200 33.19000
H  47.63800 20.53600 31.99400
H  47.90900 20.14600 33.63400
H  47.78400 16.01200 33.44200
H  46.12200 15.36000 33.26400
H  47.48000 15.99900 35.67700
H  45.94400 15.31600 35.46900
H  51.98800 20.57700 28.97600
H  52.72800 19.17900 29.06200
H  51.51100 19.49500 30.34900
H  52.78900 21.03800 26.97300
H  53.47400 20.18800 25.53300
H  53.51500 19.34200 27.07400
H  47.93100 16.31500 23.14000
H  44.98600 16.39200 23.47200
H  47.19400 19.12300 23.22500
H  45.77500 18.19900 22.60700
H  47.31400 18.06700 21.75800
H  46.24800 13.94100 24.04200
H  46.87000 14.60500 22.48400
H  44.88500 12.96600 22.50100
H  45.02200 14.44700 21.42300
H  43.84300 14.42500 22.68700
H  41.93200 13.03800 27.43600
H  41.95100 14.48200 26.33300
H  41.13400 14.57900 27.83400
H  44.02600 14.94800 32.52300
H  42.01700 18.08300 34.42300
H  41.70700 16.72600 35.42600
H  40.58600 17.04800 34.03900
Mg 42.99000 41.41800 25.42200
C  42.24000 43.84000 27.83900
C  43.76200 39.27900 27.88500
C  43.54600 39.31500 23.00100
C  41.95300 43.92100 22.94000
N  43.19200 41.62000 27.63900
C  42.72300 42.61500 28.42100
C  42.81900 42.23000 29.94100
C  43.36300 40.75400 29.88400
C  43.46300 40.50200 28.38700
C  44.74000 40.56200 30.70500
C  41.49600 42.41500 30.76400
C  41.42300 41.71100 32.14200
H  41.45800 42.66100 33.33000
N  43.64500 39.59100 25.43800
C  43.84900 38.80400 26.53700
C  44.10000 37.48800 26.09700
C  44.20300 37.48900 24.71000
C  43.79900 38.85200 24.29200
C  44.22300 36.28100 27.12100
C  44.51700 36.33100 23.76700
O  44.76500 36.41400 22.55300
C  44.43300 34.91200 24.22600
N  42.65300 41.60000 23.31400
C  43.01200 40.51500 22.53700
C  42.77700 40.76000 20.97000
C  42.11200 42.14400 21.03500
C  42.19900 42.58200 22.49300
C  44.14700 40.76300 20.17500
C  40.68200 42.12100 20.46900
C  39.66600 41.37900 21.29200
N  42.44200 43.46800 25.34800
C  42.10000 44.30400 24.28200
C  41.90100 45.62500 24.83800
C  41.76800 45.41400 26.20500
C  42.13300 44.14000 26.47300
C  41.61400 46.84800 24.02200
C  41.45600 46.17600 27.37300
O  41.07000 47.31300 27.50300
C  41.64600 45.09300 28.57200
C  42.71700 45.64000 29.41100
O  43.89500 45.81800 29.17600
O  42.11200 46.12700 30.62500
C  43.06600 46.84900 31.48200
H  43.79800 38.50200 28.65100
H  43.79700 38.55400 22.25900
H  41.67500 44.67000 22.19500
H  43.44400 42.93200 30.49300
H  42.67900 39.97800 30.22800
H  44.75300 39.90300 31.57400
H  45.13200 41.55900 30.90500
H  45.45500 40.07600 30.04200
H  40.69900 42.25000 30.03800
H  41.34300 43.48800 30.87600
H  42.27900 41.06400 32.33200
H  40.51300 41.11300 32.19900
H  43.50400 35.49900 26.87900
H  43.86200 36.51200 28.12300
H  45.26700 35.96800 27.10600
H  43.54300 34.76600 24.83700
H  45.27000 34.55600 24.82600
H  44.47400 34.23000 23.37600
H  42.04000 40.05400 20.58600
H  42.67500 42.88900 20.47300
H  44.98400 40.35600 20.74300
H  44.42100 41.79100 19.93900
H  44.07200 40.12800 19.29300
H  40.72400 41.62200 19.50000
H  40.38100 43.16200 20.36000
H  39.17400 40.56700 20.75600
H  38.95100 42.13200 21.62200
H  40.03300 40.85200 22.17300
H  42.53000 47.22100 23.56600
H  41.30200 47.71300 24.60700
H  40.77100 46.56000 23.39300
H  40.68900 44.92600 29.06600
H  43.54800 47.71300 31.02400
H  43.88700 46.23100 31.84600
H  42.51000 47.21800 32.34400

