158

Mg 42.32300 41.39600 26.68400
C  41.42600 43.85000 29.21800
C  43.43600 39.36600 29.23700
C  43.75200 39.53700 24.34200
C  41.58400 43.92500 24.31200
N  42.46600 41.58700 28.93800
C  41.85800 42.60400 29.72800
C  41.81500 42.17600 31.20100
C  42.57300 40.76400 31.20600
C  42.85500 40.57000 29.74000
C  43.65000 40.52800 32.29900
C  40.42000 42.33500 31.91600
C  40.40300 41.67800 33.33000
H  39.76700 42.48500 34.48000
N  43.29800 39.58900 26.77600
C  43.69100 38.90500 27.89400
C  44.18300 37.60700 27.49300
C  44.21400 37.67600 26.08500
C  43.77300 38.97800 25.66700
C  44.45000 36.42000 28.47400
C  44.57600 36.58600 25.12400
O  44.63900 36.68200 23.91900
C  44.91600 35.18700 25.66400
N  42.72200 41.79200 24.76900
C  43.24700 40.76600 23.89000
C  43.12900 41.11300 22.45000
C  42.11000 42.24700 22.51300
C  42.21400 42.78000 23.93100
C  44.44900 41.35600 21.82900
C  40.72200 41.93900 21.91500
C  39.68900 41.28700 22.79900
N  41.56200 43.42400 26.71700
C  41.35800 44.25200 25.65100
C  40.98000 45.59600 26.15700
C  40.95800 45.43600 27.52600
C  41.37200 44.15300 27.82100
C  40.67400 46.77500 25.26800
C  40.71900 46.08800 28.71200
O  40.48500 47.30200 28.87400
C  40.93200 45.09200 29.87800
C  41.96800 45.64600 30.89200
O  43.20500 45.81600 30.73600
O  41.31000 45.80800 32.12200
C  42.00400 46.21800 33.31200
H  43.74100 38.64000 29.99400
H  44.02100 38.87700 23.51500
H  41.32600 44.65900 23.54600
H  42.44900 42.87000 31.75300
H  41.84600 39.98500 31.43600
H  44.54000 40.37200 31.68900
H  43.51600 39.60200 32.85700
H  43.94000 41.38800 32.90300
H  39.61800 41.92900 31.29900
H  40.35900 43.40700 32.10300
H  41.40700 41.39100 33.64500
H  39.79600 40.77700 33.24600
H  43.72100 35.61300 28.40300
H  44.55200 36.72000 29.51700
H  45.39900 35.91300 28.29500
H  45.84100 35.25200 26.23800
H  45.08600 34.42800 24.90100
H  43.99000 34.96000 26.19200
H  42.58200 40.32800 21.92900
H  42.58100 43.04600 21.94100
H  45.20400 40.95300 22.50300
H  44.61000 42.43100 21.74900
H  44.48700 40.78000 20.90400
H  40.81200 41.42300 20.95900
H  40.21700 42.89400 21.77700
H  39.43400 40.41500 22.19600
H  38.77300 41.82000 23.05300
H  40.05800 40.87900 23.74000
H  41.59400 47.31000 25.03600
H  40.01500 47.44200 25.82500
H  40.13700 46.33700 24.42700
H  39.97700 44.90100 30.36800
H  43.08700 46.30300 33.22500
H  41.79000 45.57800 34.16800
H  41.66300 47.20400 33.62600
Mg 26.64700 50.40500 26.90700
C  24.51800 51.56000 29.51700
C  28.79100 49.21300 29.48000
C  28.85400 49.48600 24.63200
C  24.52400 51.78400 24.57100
N  26.71100 50.50700 29.20800
C  25.66800 50.91700 30.04200
C  25.93300 50.55300 31.50400
C  27.34000 50.00300 31.47500
C  27.62400 49.90900 29.95900
C  28.40700 50.80300 32.27300
C  24.87400 49.58600 32.14600
C  24.18500 50.21700 33.36200
H  24.20500 49.43800 34.68300
N  28.51600 49.58100 27.02700
C  29.17900 49.09100 28.12500
C  30.37900 48.45400 27.69600
C  30.49100 48.51700 26.29200
C  29.30900 49.27000 25.93700
C  31.40600 47.80800 28.67700
C  31.63200 48.01900 25.35800
O  31.61400 48.21100 24.19200
C  32.86600 47.22900 25.85900
N  26.69800 50.72700 24.89700
C  27.67400 50.15800 24.15600
C  27.28500 50.23900 22.64800
C  25.92600 51.07400 22.67700
C  25.69100 51.22100 24.11100
C  28.45200 50.99800 21.79100
C  24.77400 50.42600 21.84200
C  23.67900 49.51100 22.54100
N  24.85000 51.41700 26.95000
C  24.09500 52.00000 25.93800
C  22.83500 52.49400 26.49100
C  23.02700 52.47100 27.87300
C  24.26500 51.74800 28.07800
C  21.66000 52.98700 25.68400
C  22.47700 52.82400 29.12900
O  21.55400 53.55500 29.45500
C  23.38800 52.17500 30.22600
C  23.98400 53.25300 31.04400
O  24.91200 54.04900 30.85100
O  23.28100 53.30000 32.20900
C  23.66900 54.25300 33.25400
H  29.39400 48.75900 30.27000
H  29.37000 48.93300 23.84400
H  23.73700 52.14400 23.90600
H  25.95500 51.51400 32.01700
H  27.32800 49.01500 31.93600
H  29.33500 50.23100 32.30000
H  28.07500 50.98200 33.29600
H  28.49900 51.76400 31.76600
H  25.24800 48.60600 32.44200
H  24.11100 49.40500 31.38900
H  23.12000 50.35400 33.17500
H  24.53900 51.22300 33.58400
H  32.39600 48.26300 28.65000
H  31.61900 46.78900 28.35200
H  31.08700 47.77600 29.71900
H  32.73900 46.15000 25.95600
H  33.05900 47.72300 26.81100
H  33.70000 47.44300 25.19100
H  27.12000 49.26300 22.19300
H  26.12400 52.01500 22.16300
H  28.11100 51.72700 21.05600
H  28.95700 50.27100 21.15500
H  29.16900 51.42800 22.49000
H  25.28200 49.70400 21.20300
H  24.33700 51.13900 21.14200
H  22.82100 50.17700 22.44800
H  23.84800 49.21100 23.57500
H  23.67700 48.55000 22.02700
H  20.90600 52.26500 25.37000
H  22.06900 53.58700 24.87000
H  21.16700 53.69300 26.35100
H  22.86500 51.46900 30.87100
H  24.71800 54.03700 33.46100
H  23.12100 54.14300 34.18900
H  23.36400 55.26600 32.99200

