158

Mg 2.61200 -0.61600 43.66500
C  6.21500 -0.07500 43.48600
C  2.15900 2.17600 41.88000
C  -0.46200 -1.72100 42.99000
C  3.48100 -3.92500 44.75000
N  4.10000 0.73400 42.67000
C  5.44500 0.83200 42.76900
C  5.95600 2.17000 42.25400
C  4.63500 3.01900 42.20600
C  3.53200 1.93300 42.20500
C  4.63200 4.13100 43.26600
C  6.77000 2.20300 40.97100
C  6.11900 1.53900 39.72900
H  6.21200 2.43500 38.47200
N  1.05200 0.14800 42.57700
C  0.99900 1.34800 42.01600
C  -0.31400 1.59900 41.54500
C  -1.16900 0.54500 41.91000
C  -0.19200 -0.41900 42.48800
C  -0.71900 2.86600 40.79300
C  -2.65100 0.41800 41.85100
O  -3.37500 1.16000 41.26100
C  -3.34100 -0.62000 42.65400
N  1.68300 -2.58200 43.66700
C  0.36200 -2.63700 43.59500
C  -0.25100 -4.00200 44.13600
C  1.05400 -4.74100 44.57000
C  2.16000 -3.71700 44.32200
C  -1.26300 -3.68600 45.30800
C  1.29800 -6.20300 44.05800
C  1.39300 -7.32400 45.16500
N  4.40900 -1.75400 44.22500
C  4.58900 -3.00900 44.76300
C  5.87400 -3.19500 45.30700
C  6.59100 -2.05400 44.74800
C  5.66400 -1.27900 44.10900
C  6.33100 -4.38800 46.06800
C  7.86400 -1.45300 44.66100
O  8.92000 -1.90000 45.08100
C  7.73300 -0.15700 43.77900
C  8.39400 1.00400 44.51700
O  9.37900 1.60600 44.05000
O  7.89600 1.10900 45.77300
C  8.45500 2.22600 46.63800
H  2.01000 3.23100 41.63800
H  -1.43500 -2.19700 42.85400
H  3.69000 -4.92000 45.14900
H  6.59200 2.61500 43.01800
H  4.58100 3.53800 41.24800
H  5.38700 4.03700 44.04600
H  3.64600 4.09700 43.72900
H  4.89300 5.05600 42.75000
H  7.75000 1.76600 41.16500
H  7.14100 3.20800 40.76600
H  5.05200 1.45700 39.93600
H  6.54000 0.54900 39.55600
H  -0.95200 2.62600 39.75500
H  0.06600 3.62200 40.78800
H  -1.59100 3.34400 41.23800
H  -4.17700 -0.03000 43.02900
H  -2.84200 -0.82700 43.60000
H  -3.59600 -1.49100 42.05000
H  -0.74500 -4.59000 43.36300
H  1.12800 -4.81100 45.65600
H  -1.60800 -2.67500 45.09200
H  -0.89600 -3.88500 46.31400
H  -2.17000 -4.28000 45.20100
H  2.18400 -6.11600 43.42900
H  0.43400 -6.51600 43.47200
H  2.34700 -7.84200 45.06400
H  0.64200 -8.10700 45.05500
H  1.21500 -6.89800 46.15200
H  7.03400 -4.85500 45.37900
H  5.53900 -5.08300 46.34800
H  6.82500 -4.15400 47.01100
H  8.42600 -0.25100 42.94300
H  9.43400 1.94100 47.02200
H  7.80400 2.35400 47.50400
H  8.47100 3.05000 45.92500
Mg -1.67400 34.37500 26.09800
C  -2.59000 32.49100 29.00100
C  0.26000 36.26500 28.14200
C  -1.23100 36.31800 23.53900
C  -3.35000 32.01000 24.14000
N  -1.21800 34.29600 28.32700
C  -1.64800 33.42800 29.35000
C  -1.18700 33.84900 30.71200
C  -0.28700 35.13800 30.40500
C  -0.44300 35.27300 28.88500
C  -0.58200 36.43500 31.22700
C  -0.49300 32.69400 31.55600
C  -1.01600 32.32900 32.92700
H  0.11000 32.38400 34.02200
N  -0.63100 36.11800 25.87600
C  0.25900 36.66100 26.73200
C  0.89700 37.86300 26.15400
C  0.31900 37.96900 24.82700
C  -0.53400 36.77400 24.70200
C  1.95700 38.65600 26.96300
C  0.50700 39.10300 23.78000
O  -0.08500 39.15300 22.70400
C  1.56600 40.10400 24.10700
N  -2.29500 34.29400 24.18600
C  -1.95000 35.19100 23.22600
C  -2.42400 34.77400 21.82900
C  -2.71900 33.26700 22.03200
C  -2.78200 33.18300 23.54900
C  -3.76500 35.60300 21.47200
C  -1.65300 32.29400 21.43500
C  -0.30600 32.26700 22.18800
N  -2.89100 32.75200 26.43100
C  -3.47600 31.85600 25.53400
C  -4.19700 30.89700 26.29200
C  -3.95800 31.12600 27.63300
C  -3.16200 32.26100 27.70000
C  -4.97100 29.74700 25.64300
C  -4.16100 30.58100 28.96800
O  -4.87800 29.63500 29.30400
C  -3.27600 31.46400 29.91600
C  -4.17900 31.94100 31.08500
O  -4.82100 32.98400 31.07000
O  -4.17200 31.04600 32.10100
C  -4.80200 31.52300 33.39000
H  0.84800 36.94100 28.76600
H  -1.13500 37.01100 22.70000
H  -3.70800 31.24700 23.44600
H  -1.96400 34.26600 31.35300
H  0.69300 34.79900 30.73900
H  -0.99500 37.24600 30.62600
H  0.37100 36.76200 31.64300
H  -1.30000 36.29200 32.03500
H  0.57900 32.88500 31.61800
H  -0.48900 31.74900 31.01300
H  -1.53500 31.37100 32.91800
H  -1.70300 33.09500 33.28600
H  1.58500 39.67200 27.10000
H  2.95500 38.71700 26.52700
H  2.10300 38.22500 27.95300
H  1.67800 40.88200 23.35200
H  2.47400 39.50200 24.10800
H  1.18000 40.53700 25.03000
H  -1.61800 34.89100 21.10500
H  -3.72700 32.93400 21.78600
H  -4.44800 34.91700 20.97000
H  -3.52300 36.45100 20.83100
H  -4.21300 35.91200 22.41700
H  -1.51500 32.74300 20.45200
H  -1.96300 31.24900 21.40700
H  0.47500 32.45500 21.45000
H  -0.14100 31.27400 22.60700
H  -0.18600 32.94000 23.03700
H  -6.00400 30.07800 25.53700
H  -4.81700 28.86000 26.25700
H  -4.72700 29.52700 24.60300
H  -2.63100 30.76900 30.45200
H  -5.51800 32.34000 33.29200
H  -4.04600 31.97300 34.03300
H  -5.46300 30.80500 33.87500

