158

Mg 24.02900 -5.07800 44.93000
C  25.60400 -2.33900 43.50600
C  21.14200 -4.16900 43.09100
C  22.76500 -8.19900 45.40300
C  27.27000 -6.27500 46.01900
N  23.51400 -3.43900 43.40500
C  24.29600 -2.39700 43.02700
C  23.56200 -1.40500 42.11600
C  22.12700 -1.74800 42.48400
C  22.22900 -3.25100 42.93700
C  21.50700 -0.87800 43.55500
C  23.98000 -1.57300 40.65300
C  24.35500 -0.28600 39.83400
H  25.22500 -0.57900 38.60100
N  22.16800 -6.00200 44.46800
C  21.09400 -5.50300 43.71500
C  20.00900 -6.48800 43.74200
C  20.47100 -7.67600 44.37400
C  21.80700 -7.30300 44.81800
C  18.70700 -6.12200 43.23100
C  19.68600 -8.90300 44.56000
O  18.47700 -8.95100 44.23500
C  20.29700 -10.15900 45.20000
N  24.90500 -6.96800 45.66900
C  24.13400 -8.04300 45.81500
C  24.96000 -9.16300 46.45100
C  26.42500 -8.55700 46.61100
C  26.22400 -7.20100 45.99900
C  24.23800 -9.75600 47.73200
C  27.58200 -9.30700 45.85600
C  28.84600 -9.57900 46.69100
N  26.07100 -4.47300 44.87900
C  27.23700 -4.95500 45.47900
C  28.25400 -4.06800 45.15600
C  27.71400 -3.04600 44.38000
C  26.36000 -3.32600 44.26500
C  29.67700 -4.27300 45.42300
C  27.98700 -1.73700 43.68600
O  29.06700 -1.24500 43.49400
C  26.59700 -1.26200 43.11600
C  26.33000 0.15000 43.62800
O  25.53600 0.45500 44.52900
O  27.19600 1.01800 43.02300
C  26.99800 2.40500 43.56000
H  20.21400 -3.80700 42.64400
H  22.52900 -9.23700 45.64400
H  28.29100 -6.65500 46.10000
H  23.69300 -0.38000 42.46400
H  21.53200 -1.55000 41.59200
H  22.05300 0.05300 43.70400
H  21.44100 -1.48900 44.45600
H  20.51200 -0.48600 43.34400
H  23.05700 -1.86200 40.15100
H  24.76400 -2.31700 40.51400
H  24.80400 0.41900 40.53400
H  23.47600 0.20600 39.41700
H  17.98300 -6.61900 43.87600
H  18.75600 -6.60800 42.25600
H  18.51400 -5.05200 43.30800
H  19.56700 -10.96500 45.13300
H  20.52600 -9.96800 46.24900
H  21.12500 -10.52500 44.59300
H  25.01300 -9.88400 45.63500
H  26.60400 -8.37200 47.67000
H  23.95400 -10.76900 47.44400
H  23.27500 -9.31700 47.99400
H  24.97100 -9.74700 48.53900
H  27.98000 -8.80100 44.97600
H  27.25200 -10.30700 45.57500
H  28.75900 -10.66500 46.71000
H  28.70100 -9.31600 47.73800
H  29.72900 -9.10400 46.26300
H  29.88300 -4.86900 46.31200
H  30.22400 -3.36700 45.68200
H  30.10800 -4.81300 44.58000
H  26.76500 -1.02100 42.06700
H  27.39800 3.10900 42.83000
H  27.57300 2.40800 44.48600
H  25.98300 2.70500 43.82000
Mg -12.18100 37.39300 43.30600
C  -9.98200 34.92000 42.03500
C  -10.30900 39.80100 41.64500
C  -14.61700 39.74900 43.93800
C  -14.26900 34.95200 44.28400
N  -10.27900 37.32500 41.93300
C  -9.59900 36.23600 41.59700
C  -8.43200 36.62200 40.68900
C  -8.44900 38.28300 40.75800
C  -9.68200 38.54300 41.65500
C  -7.19300 39.04600 41.29200
C  -8.55700 36.07100 39.24500
C  -7.34200 36.36400 38.47900
H  -7.12100 35.53600 37.19100
N  -12.41100 39.56500 42.85500
C  -11.59600 40.30700 42.12500
C  -12.11900 41.63400 41.86100
C  -13.47800 41.62400 42.37700
C  -13.51900 40.33000 43.09600
C  -11.33700 42.69800 41.06800
C  -14.49700 42.78800 42.32900
O  -14.11700 43.82000 41.84500
C  -15.81200 42.69000 42.89000
N  -14.07900 37.37300 44.02900
C  -14.89300 38.43000 44.42100
C  -16.28900 37.96800 44.90800
C  -16.16200 36.43200 44.85100
C  -14.69800 36.23300 44.38300
C  -16.73200 38.60600 46.27300
C  -17.19100 35.70400 43.94600
C  -17.95300 34.54500 44.51900
N  -12.08100 35.30600 43.37200
C  -13.02800 34.45400 43.93400
C  -12.51800 33.07400 43.75500
C  -11.27800 33.27100 43.10000
C  -11.08100 34.63200 42.78000
C  -13.15200 31.80900 44.19100
C  -10.05200 32.55300 42.56800
O  -9.75500 31.37800 42.53400
C  -9.20300 33.58000 41.91400
C  -7.88100 33.62100 42.66800
O  -6.91000 33.00000 42.29600
O  -7.90600 34.41500 43.77700
C  -6.54500 34.66800 44.35600
H  -9.68400 40.54200 41.14300
H  -15.29800 40.57200 44.16200
H  -15.02400 34.25200 44.64900
H  -7.56100 36.20700 41.19700
H  -8.75700 38.67600 39.78900
H  -7.30500 39.19200 42.36600
H  -6.86600 39.92700 40.74000
H  -6.32100 38.39300 41.29100
H  -9.48500 36.55800 38.94900
H  -8.80000 35.00900 39.28300
H  -6.39500 36.12900 38.96300
H  -7.34100 37.42600 38.23200
H  -11.59300 43.64200 41.55000
H  -11.58500 42.73800 40.00800
H  -10.25300 42.58700 41.07400
H  -16.47900 43.48500 42.55800
H  -15.68900 42.82400 43.96400
H  -16.28000 41.77200 42.53200
H  -16.99500 38.28700 44.14200
H  -16.20400 36.01600 45.85800
H  -16.88200 37.79200 46.98200
H  -17.69800 39.09400 46.13600
H  -15.97500 39.26500 46.69800
H  -16.79200 35.34900 42.99600
H  -17.96400 36.39900 43.61800
H  -17.83400 34.44900 45.59900
H  -17.60900 33.67500 43.95900
H  -18.98400 34.77800 44.25300
H  -13.83400 32.04200 45.00900
H  -12.42200 31.03700 44.43200
H  -13.71500 31.46200 43.32400
H  -9.03300 33.30100 40.87400
H  -6.11400 33.70100 44.61500
H  -6.47800 35.28900 45.24900
H  -5.90800 35.15000 43.61400

