158

Mg 35.58400 48.63900 24.95700
C  35.60900 47.05300 28.03400
C  34.73900 51.53400 26.66900
C  35.08100 50.08900 21.95700
C  36.31800 45.74500 23.35100
N  35.07000 49.16600 27.11400
C  35.22100 48.36700 28.21200
C  34.93800 49.20600 29.48900
C  34.59800 50.64200 29.02400
C  34.72400 50.42600 27.54300
C  33.13000 51.13000 29.33800
C  36.07800 49.12200 30.59500
C  35.65800 48.42400 31.92000
H  34.22000 48.40900 32.34400
N  34.89100 50.58100 24.34600
C  34.69700 51.62000 25.21600
C  34.45600 52.85500 24.36000
C  34.41000 52.42100 23.01300
C  34.79600 50.98900 23.07600
C  34.21800 54.21500 25.00600
C  34.18400 53.24000 21.69300
O  34.09400 52.72400 20.57800
C  33.91000 54.68400 21.79900
N  35.55600 48.04000 22.95200
C  35.42700 48.80400 21.89000
C  35.79300 48.14600 20.55800
C  36.32500 46.77000 21.07900
C  36.03900 46.81800 22.54000
C  34.63200 47.96400 19.53100
C  37.80200 46.45900 20.71200
C  38.96800 47.30300 21.36200
N  35.82300 46.72000 25.52900
C  36.20500 45.60300 24.73800
C  36.61400 44.53800 25.65800
C  36.43200 45.07300 26.92500
C  35.85600 46.37200 26.79500
C  37.08200 43.14700 25.22500
C  36.63100 44.76300 28.33600
O  36.98300 43.69300 28.85100
C  35.99900 45.93100 29.06700
C  34.90000 45.44400 29.82700
O  33.71900 45.73600 29.66800
O  35.26700 44.60000 30.78000
C  34.30300 44.06100 31.68600
H  34.58400 52.49800 27.15800
H  35.12400 50.65400 21.02300
H  36.70200 44.88800 22.79400
H  33.95600 48.83200 29.77700
H  35.25400 51.45500 29.33600
H  32.49500 51.15000 28.45200
H  33.18300 52.15800 29.69600
H  32.62700 50.52200 30.09000
H  36.33100 50.12200 30.94800
H  36.96200 48.61300 30.20900
H  36.26400 48.83500 32.72800
H  35.95500 47.37700 31.87100
H  34.94500 55.00200 24.80500
H  34.29700 54.16500 26.09200
H  33.22400 54.57900 24.74600
H  34.87100 55.15300 22.01000
H  33.10500 54.84100 22.51600
H  33.59400 55.00900 20.80800
H  36.58800 48.68100 20.03800
H  35.96900 45.89800 20.53100
H  33.71800 48.51100 19.76000
H  34.26200 46.94600 19.41700
H  34.92000 48.21800 18.51000
H  38.00600 46.59000 19.64900
H  37.88300 45.38200 20.86400
H  39.67800 47.68400 20.62800
H  39.69600 46.64500 21.83500
H  38.79400 48.20700 21.94500
H  36.42100 42.70900 24.47700
H  36.98200 42.52600 26.11500
H  38.08700 43.22400 24.81100
H  36.83300 46.17800 29.72400
H  33.27400 44.41500 31.63800
H  34.61400 44.14900 32.72700
H  34.24600 42.97500 31.60400
Mg 0.20300 43.47100 26.94400
C  2.75400 43.69500 29.34400
C  -2.05800 42.89000 29.36200
C  -2.04000 42.54800 24.61600
C  2.74200 43.74600 24.44200
N  0.35200 43.37000 29.08900
C  1.45800 43.52500 29.85900
C  1.07900 43.45100 31.33700
C  -0.38800 42.94200 31.31600
C  -0.75200 43.10300 29.81900
C  -0.75300 41.56000 31.89500
C  1.29200 44.78100 32.08500
C  1.52100 44.70300 33.64000
H  1.26500 43.31900 34.41800
N  -1.90200 43.14300 27.02400
C  -2.63900 42.96200 28.14400
C  -3.99100 42.64800 27.75900
C  -3.99700 42.50900 26.30300
C  -2.58100 42.68700 25.89800
C  -5.02600 42.34900 28.77400
C  -5.12100 42.18500 25.33700
O  -5.02700 42.10200 24.11000
C  -6.58600 41.96300 25.92200
N  0.31500 43.26700 24.84400
C  -0.72900 42.77000 24.13100
C  -0.28400 42.40000 22.70900
C  0.99700 43.29200 22.58300
C  1.45000 43.40000 24.06100
C  -0.07100 40.85800 22.56200
C  0.77600 44.80300 22.16200
C  1.13300 45.20400 20.70900
N  2.31200 43.74000 26.79300
C  3.20800 43.93600 25.76600
C  4.56800 44.06400 26.22400
C  4.43500 44.00400 27.66300
C  3.06900 43.83700 27.93100
C  5.78500 44.11700 25.34900
C  5.17000 43.98800 28.91600
O  6.41400 43.98400 29.03600
C  4.05500 44.04600 30.06400
C  4.52700 42.97000 31.03300
O  4.75900 41.78100 30.78600
O  4.67200 43.55100 32.26300
C  5.24900 42.78900 33.32400
H  -2.81200 42.66900 30.12000
H  -2.85600 42.24900 23.95400
H  3.49800 43.81200 23.65700
H  1.75000 42.69800 31.75000
H  -1.05100 43.68600 31.75900
H  -1.49400 41.66000 32.68800
H  0.15900 41.12300 32.30000
H  -1.09300 40.79900 31.19200
H  0.39300 45.39600 32.07000
H  2.01900 45.45600 31.63400
H  0.89000 45.46300 34.10000
H  2.52700 45.08500 33.81900
H  -5.81600 43.09900 28.81200
H  -4.68300 42.33900 29.80900
H  -5.38500 41.32500 28.67100
H  -6.61200 41.17800 26.67800
H  -7.15500 41.65800 25.04400
H  -7.06000 42.90800 26.18700
H  -1.09000 42.69500 22.03800
H  1.72700 42.80200 21.93800
H  -0.65400 40.40500 21.76000
H  -0.40800 40.44600 23.51300
H  0.98600 40.62100 22.43500
H  1.34400 45.39100 22.88300
H  -0.24700 45.07000 22.42600
H  0.29800 44.88200 20.08700
H  2.08500 44.73800 20.45300
H  1.30900 46.27900 20.74900
H  5.69000 43.41200 24.52300
H  6.63000 43.96100 26.02000
H  5.83100 45.12100 24.92900
H  4.22500 45.08100 30.36200
H  6.30800 42.55000 33.22900
H  4.57600 41.93400 33.39600
H  5.25300 43.40500 34.22300

