158

Mg 35.70600 48.80000 25.45400
C  36.03500 47.27700 28.57900
C  34.37300 51.56600 27.04200
C  35.09800 50.33300 22.37600
C  36.47000 45.83900 23.89000
N  35.14900 49.22400 27.54800
C  35.59600 48.56500 28.63100
C  35.30900 49.34000 29.90500
C  34.67000 50.70700 29.38600
C  34.67400 50.50400 27.86000
C  33.24800 51.06900 29.90300
C  36.60800 49.50800 30.74900
C  36.51600 49.48500 32.29100
H  35.24600 49.85300 32.99800
N  34.89200 50.68900 24.82600
C  34.33000 51.66400 25.67100
C  33.85800 52.73500 24.91700
C  34.04500 52.34800 23.50100
C  34.74500 51.11500 23.54800
C  33.31300 54.09300 25.53200
C  33.77400 53.25200 22.27700
O  33.99500 52.95200 21.12300
C  33.16400 54.55700 22.47600
N  35.60900 48.17600 23.42800
C  35.61400 49.02900 22.34100
C  36.04300 48.28700 21.04200
C  36.50200 46.93500 21.67000
C  36.13700 46.94400 23.08900
C  35.02200 48.16200 19.93400
C  37.98000 46.63500 21.50000
C  38.53600 46.67800 20.12200
N  36.14900 46.88900 26.08500
C  36.44900 45.79100 25.31800
C  36.77300 44.60200 26.26300
C  36.62900 45.19800 27.60600
C  36.29000 46.55300 27.41600
C  37.37800 43.29200 25.92600
C  36.76600 44.96600 29.02200
O  36.98200 43.96500 29.65400
C  36.25100 46.25100 29.73600
C  34.95600 45.90200 30.39000
O  33.87200 45.63300 29.87900
O  35.08900 46.15200 31.75900
C  33.84500 45.87500 32.51500
H  34.12600 52.48200 27.58300
H  34.83100 50.67700 21.37400
H  36.63700 44.85500 23.44500
H  34.53200 48.74500 30.38400
H  35.31900 51.52300 29.70300
H  33.06700 50.54800 30.84300
H  32.48500 50.79500 29.17400
H  33.28600 52.11600 30.20500
H  37.06700 50.45200 30.45800
H  37.30200 48.76600 30.35400
H  37.37200 50.13100 32.48800
H  36.72700 48.46500 32.61200
H  34.03700 54.86100 25.26000
H  33.31700 54.05400 26.62200
H  32.38000 54.45800 25.10400
H  32.96200 55.14400 21.57900
H  33.90100 55.04200 23.11600
H  32.23500 54.34300 23.00400
H  36.91500 48.83600 20.68600
H  35.96300 46.04700 21.34200
H  35.65100 48.47200 19.10000
H  34.08800 48.65100 20.20900
H  34.85300 47.10500 19.72800
H  38.10000 45.60100 21.82500
H  38.44500 47.32100 22.20800
H  38.71500 45.70100 19.67200
H  39.57100 47.01800 20.16100
H  37.95300 47.27400 19.42000
H  38.19700 43.14300 26.62900
H  37.92200 43.46100 24.99700
H  36.62600 42.50600 25.86200
H  36.99300 46.57000 30.46800
H  33.93000 44.79700 32.65300
H  32.94300 46.26400 32.04400
H  33.90600 46.37900 33.48000
Mg 6.89500 54.43500 41.22200
C  5.80000 51.18500 41.27400
C  9.89000 53.40600 40.00400
C  7.63300 57.71300 40.52500
C  3.81400 55.54000 42.32500
N  7.67400 52.48700 40.61800
C  7.07200 51.29300 40.69700
C  8.02400 50.23100 40.12500
C  9.45400 50.89500 40.28200
C  8.96000 52.33900 40.23500
C  10.35000 50.63300 41.54200
C  7.67100 49.59300 38.69600
C  6.73300 50.36700 37.75300
H  7.42000 50.83700 36.40400
N  8.56800 55.45200 40.35900
C  9.74100 54.83400 40.07900
C  10.72400 55.83700 39.77600
C  10.08200 57.12600 39.80900
C  8.70500 56.80200 40.25600
C  12.17600 55.58400 39.40600
C  10.70000 58.41100 39.50300
O  11.93400 58.47300 39.43400
C  9.90000 59.71500 39.28600
N  5.82700 56.36800 41.39300
C  6.35600 57.52200 41.03100
C  5.37100 58.73300 41.33600
C  4.33000 58.05100 42.24700
C  4.65700 56.55400 42.06100
C  5.99300 59.98500 42.07600
C  2.90300 58.44400 41.70100
C  2.46800 59.92300 42.00900
N  5.10100 53.58300 41.62700
C  3.92200 54.14300 42.17800
C  2.95200 53.06700 42.51400
C  3.66500 51.92800 42.22700
C  4.98200 52.26900 41.65200
C  1.56000 53.22500 43.07400
C  3.66700 50.49900 42.23300
O  2.84900 49.61200 42.54800
C  4.99400 49.94100 41.68500
C  4.62600 49.01300 40.57100
O  4.08100 49.33400 39.54200
O  5.04400 47.71500 40.74900
C  4.65600 46.70500 39.68200
H  10.89400 53.17000 39.64800
H  7.91200 58.76800 40.56100
H  2.79000 55.75200 42.64000
H  7.86100 49.45000 40.86700
H  9.99700 50.69900 39.35700
H  9.75900 50.01600 42.21900
H  10.49900 51.56500 42.08700
H  11.34600 50.24100 41.33800
H  7.38500 48.57700 38.96600
H  8.58600 49.45500 38.11900
H  6.43500 51.23800 38.33600
H  5.83700 49.78100 37.54800
H  12.34200 55.80600 38.35200
H  12.40700 54.52200 39.49000
H  12.93500 56.09600 39.99600
H  9.07300 59.61700 38.58300
H  10.44400 60.52400 38.80000
H  9.55300 60.04800 40.26400
H  4.97700 59.04800 40.37000
H  4.45700 58.28800 43.30400
H  5.55600 60.22600 43.04500
H  5.87100 60.81100 41.37500
H  7.05200 59.87700 42.30700
H  2.21000 57.74200 42.16400
H  2.78700 58.32200 40.62400
H  1.48200 59.95200 42.47300
H  2.41200 60.60300 41.15900
H  3.15900 60.42000 42.68900
H  1.72400 53.89800 43.91600
H  1.25000 52.27600 43.51100
H  0.95000 53.70100 42.30600
H  5.40900 49.22800 42.39800
H  5.36900 45.91000 39.90300
H  5.02400 47.07600 38.72500
H  3.59000 46.48100 39.66300

