158

Mg 40.22800 9.94900 29.39700
C  41.94200 10.76700 32.15300
C  37.45900 9.09800 31.32000
C  38.64300 8.82200 26.55200
C  42.91900 11.00000 27.33000
N  39.78400 9.95400 31.47000
C  40.63000 10.39800 32.40000
C  40.05400 10.20800 33.86100
C  38.55200 9.70400 33.46700
C  38.60100 9.54200 31.97300
C  38.08000 8.34100 34.19800
C  40.00500 11.36800 34.71800
C  40.82500 11.23000 36.07400
H  41.30400 12.41900 36.85400
N  38.24800 9.11900 28.99400
C  37.30700 8.92500 29.92600
C  36.11600 8.32500 29.23700
C  36.53500 8.13400 27.87500
C  37.89100 8.70000 27.77600
C  34.92300 7.86000 30.03800
C  35.70800 7.54700 26.74100
O  36.18500 7.27600 25.68000
C  34.25900 7.13800 27.01200
N  40.81800 9.72800 27.35900
C  39.91700 9.29200 26.38300
C  40.47300 9.42300 24.96500
C  41.79300 10.33200 25.19800
C  41.79600 10.35100 26.76600
C  40.74600 8.12700 24.15100
C  41.79500 11.71100 24.45900
C  41.30800 12.92100 25.22000
N  42.15300 10.67100 29.71700
C  43.12900 11.05200 28.80100
C  44.28400 11.49100 29.59800
C  43.90500 11.30300 30.96700
C  42.60500 10.78300 30.94200
C  45.58600 12.03300 29.03400
C  44.32200 11.59200 32.33500
O  45.37400 12.11700 32.79200
C  43.05500 11.14400 33.16600
C  43.46900 10.23400 34.24400
O  43.72900 9.06700 34.13400
O  43.79700 11.05000 35.35000
C  44.40900 10.30100 36.43400
H  36.63800 8.89300 32.01000
H  38.17900 8.50300 25.61600
H  43.67400 11.33600 26.61700
H  40.56700 9.35300 34.30200
H  37.77500 10.41700 33.74300
H  39.00000 8.02200 34.68900
H  37.73400 7.61100 33.46600
H  37.21400 8.52300 34.83300
H  38.97300 11.67900 34.88000
H  40.48900 12.21000 34.22300
H  41.60100 10.46600 36.03100
H  40.10500 10.82200 36.78400
H  34.98100 8.47800 30.93500
H  35.06800 6.83000 30.36400
H  33.95200 8.00000 29.56300
H  33.70700 8.07000 27.13300
H  34.03900 6.46900 27.84400
H  33.84700 6.62700 26.14200
H  39.80600 10.14700 24.49700
H  42.74500 9.90700 24.88100
H  40.02200 7.99700 23.34600
H  40.72100 7.31200 24.87400
H  41.74300 8.18700 23.71600
H  41.11600 11.61100 23.61300
H  42.80600 11.92100 24.11100
H  40.88900 12.74700 26.21100
H  40.49500 13.56100 24.87600
H  42.15900 13.60000 25.26100
H  45.36300 12.73300 28.22900
H  46.24900 11.23500 28.69800
H  46.16100 12.53300 29.81300
H  42.66500 11.97700 33.75100
H  45.44100 10.04800 36.19000
H  43.87800 9.36700 36.61500
H  44.31500 10.95800 37.29900
Mg 35.66600 48.02300 25.50700
C  36.20400 46.20600 28.47700
C  34.08600 50.47700 27.22700
C  35.31800 49.63800 22.62000
C  37.32100 45.47700 23.78700
N  35.25400 48.31200 27.56900
C  35.59600 47.48400 28.63200
C  35.42300 48.13500 29.98600
C  34.49100 49.34300 29.56600
C  34.59200 49.43500 27.99800
C  32.97000 49.35500 29.98000
C  36.72000 48.64900 30.72400
C  36.64800 48.66100 32.27200
H  35.27600 48.52600 32.91200
N  34.99000 49.88400 24.99300
C  34.31900 50.77200 25.84600
C  33.87800 51.92600 25.12900
C  34.17100 51.72600 23.74700
C  34.78500 50.33200 23.67800
C  33.21000 53.08000 25.82800
C  33.87900 52.70500 22.58700
O  34.24500 52.39200 21.49500
C  33.24800 53.96800 22.84500
N  36.25600 47.58300 23.45500
C  36.02900 48.49200 22.49100
C  36.74900 48.08600 21.15600
C  37.57400 46.88400 21.61700
C  37.06200 46.64600 23.02200
C  35.63100 47.88800 20.06600
C  39.13800 47.12800 21.41800
C  39.90900 46.25900 20.45600
N  36.45000 46.17000 25.91100
C  37.04100 45.21700 25.14100
C  37.33100 44.05400 25.85400
C  37.05300 44.39800 27.22600
C  36.52400 45.71200 27.20200
C  38.03000 42.80000 25.36200
C  37.13800 43.94300 28.61500
O  37.58400 42.91400 29.11100
C  36.57900 45.14000 29.46500
C  35.37200 44.72600 30.25800
O  34.22800 44.67000 29.86900
O  35.79400 44.49900 31.57000
C  34.62300 43.96600 32.38600
H  33.39400 51.05000 27.84800
H  35.14600 50.20600 21.70400
H  37.96300 44.77100 23.25500
H  34.85300 47.46300 30.62800
H  34.76700 50.27900 30.05100
H  32.39500 49.07800 29.09700
H  32.59900 50.32500 30.30900
H  32.70800 48.71000 30.81900
H  36.95500 49.65800 30.38600
H  37.56400 47.99300 30.50800
H  37.13600 49.55600 32.65800
H  37.38400 47.91300 32.56400
H  32.29900 53.41200 25.33000
H  33.78200 54.00700 25.82400
H  32.92400 52.82400 26.84800
H  33.13900 54.42200 21.86100
H  33.89100 54.58400 23.47500
H  32.25200 53.84700 23.27000
H  37.35400 48.94300 20.85900
H  37.28900 45.99700 21.05000
H  34.70100 48.38500 20.34000
H  35.51500 46.80600 20.00500
H  35.91500 48.27300 19.08600
H  39.60900 47.01000 22.39400
H  39.36100 48.16700 21.17400
H  40.61300 45.66700 21.04200
H  40.53900 46.89600 19.83400
H  39.24900 45.59100 19.90400
H  37.26800 42.02600 25.26300
H  38.75200 42.50100 26.12100
H  38.53700 43.04200 24.42800
H  37.38700 45.34000 30.16800
H  34.93100 44.16100 33.41300
H  34.42000 42.89700 32.31400
H  33.70800 44.54900 32.28300

