158

Mg 53.23900 24.37600 45.27400
C  50.83600 26.68600 44.20700
C  51.22800 21.90100 44.05200
C  55.85800 22.24300 45.34500
C  55.39600 27.03700 45.91000
N  51.20500 24.38100 44.32900
C  50.40800 25.45400 43.95000
C  49.29000 24.89700 43.04500
C  49.30900 23.40700 43.32900
C  50.71300 23.18700 43.89300
C  48.20900 22.99800 44.38400
C  49.42800 25.09800 41.49900
C  48.23300 25.65200 40.66200
H  48.02000 25.06700 39.30300
N  53.51000 22.25900 44.79200
C  52.55900 21.40700 44.33700
C  52.99600 20.04000 44.35100
C  54.34200 20.09600 44.74700
C  54.66100 21.55800 44.93100
C  52.20500 18.84400 43.90900
C  55.33900 18.87400 44.91200
O  55.05500 17.72600 44.54100
C  56.63800 18.94600 45.48900
N  55.35000 24.65200 45.39000
C  56.15800 23.53500 45.60600
C  57.48900 23.89800 46.18400
C  57.39400 25.43100 46.45900
C  56.03800 25.77900 45.81900
C  58.08400 23.03500 47.35100
C  58.46700 26.36300 45.97900
C  59.49400 26.67400 47.09600
N  53.19400 26.39200 45.33100
C  54.05100 27.35600 45.66500
C  53.46000 28.63200 45.64200
C  52.20000 28.42400 45.07300
C  52.10300 27.03400 44.87100
C  54.07500 29.89200 46.16300
C  51.01700 29.09400 44.66000
O  50.68700 30.25700 44.78300
C  50.16900 27.99900 43.86400
C  50.17000 28.41700 42.42700
O  51.07400 28.22600 41.58900
O  48.91000 28.93200 42.08600
C  48.81500 29.53900 40.75500
H  50.60600 21.04200 43.79300
H  56.64800 21.51500 45.54300
H  55.92100 27.91400 46.29400
H  48.36500 25.38600 43.35100
H  49.17500 22.73600 42.48000
H  48.22300 23.77500 45.14900
H  48.59500 22.11300 44.88900
H  47.23600 22.82800 43.92400
H  49.76900 24.11800 41.16500
H  50.19600 25.80000 41.17400
H  48.37400 26.70900 40.43900
H  47.25100 25.56000 41.12500
H  51.40700 19.22100 43.26900
H  51.71700 18.30000 44.71700
H  52.87200 18.20500 43.33000
H  57.28800 19.64000 44.95600
H  57.06000 17.94100 45.48800
H  56.54300 19.37600 46.48700
H  58.18800 23.79300 45.35400
H  57.13500 25.39400 47.51700
H  57.36700 22.26600 47.63900
H  58.44100 23.54300 48.24700
H  58.93000 22.45900 46.97700
H  58.08400 27.27600 45.52400
H  58.99800 25.85200 45.17600
H  59.73700 27.73300 47.18800
H  60.45400 26.23100 46.83000
H  59.33900 26.50500 48.16100
H  53.48600 30.75200 45.84600
H  55.11800 29.78700 45.86600
H  53.97100 29.89700 47.24800
H  49.12800 27.98800 44.18700
H  48.73100 30.59300 41.01800
H  47.82900 29.33400 40.33700
H  49.58400 29.34200 40.00800
Mg 48.36100 35.21400 27.44100
C  46.39900 33.50000 29.78900
C  48.86400 37.72100 29.50800
C  49.67100 36.92100 24.78400
C  47.60100 32.57700 25.12300
N  47.83400 35.36400 29.45700
C  47.09300 34.59200 30.29600
C  46.92400 35.27600 31.66300
C  47.36000 36.83400 31.44400
C  48.15100 36.58100 30.08000
C  46.22000 37.88600 31.30500
C  47.69700 34.56000 32.81000
C  48.38900 35.36000 34.03600
H  47.53600 36.50600 34.62800
N  49.29900 37.07800 27.23100
C  49.51900 37.96200 28.25400
C  50.28800 39.07100 27.74100
C  50.48400 38.85300 26.35000
C  49.79800 37.59300 26.05100
C  50.77700 40.23000 28.59200
C  51.16300 39.73700 25.33100
O  51.20500 39.42100 24.20500
C  51.76900 41.04200 25.76900
N  48.59700 34.82300 25.32300
C  49.17600 35.67400 24.42000
C  49.24700 35.12500 22.95900
C  48.71900 33.67300 23.15900
C  48.27000 33.64600 24.63500
C  48.41000 36.00900 22.12400
C  49.68800 32.51100 22.72700
C  49.07700 31.29800 21.91800
N  47.33900 33.36200 27.43600
C  47.02900 32.46000 26.44200
C  46.15800 31.34300 26.86300
C  45.91900 31.77500 28.22200
C  46.63000 32.96400 28.48000
C  45.70800 30.08900 26.09300
C  45.18300 31.48600 29.42900
O  44.42400 30.52000 29.62600
C  45.37800 32.63000 30.44600
C  45.94400 32.11900 31.65800
O  47.07400 31.72400 31.90400
O  44.93800 32.12200 32.57600
C  45.18200 31.46400 33.87300
H  48.84600 38.59500 30.16200
H  49.95400 37.46100 23.87800
H  47.38000 31.70500 24.50400
H  45.86000 35.19800 31.88600
H  47.98200 37.37300 32.15800
H  45.37400 37.40000 31.79000
H  45.92900 38.05100 30.26800
H  46.50500 38.83400 31.76200
H  48.55500 33.96100 32.50500
H  46.88900 33.99700 33.27700
H  49.32900 35.68400 33.59000
H  48.71300 34.74700 34.87700
H  50.54600 41.20100 28.15400
H  51.84600 40.12900 28.78000
H  50.38200 40.20200 29.60800
H  50.95400 41.73400 25.98200
H  52.30700 41.36200 24.87700
H  52.44900 41.07300 26.62000
H  50.32200 35.15500 22.78000
H  47.76600 33.64000 22.63100
H  49.11900 36.61600 21.56200
H  47.70900 36.66700 22.63700
H  47.96100 35.40900 21.33300
H  50.22200 32.11100 23.58900
H  50.45300 32.96500 22.09700
H  47.99000 31.30800 21.84200
H  49.46100 30.36300 22.32600
H  49.32900 31.38200 20.86100
H  46.46100 29.41200 25.69000
H  45.19400 30.46200 25.20600
H  44.88700 29.54700 26.56200
H  44.44700 33.16300 30.64200
H  45.97600 32.10400 34.25800
H  45.62500 30.47600 33.74800
H  44.28900 31.41900 34.49700

