158

Mg 47.30600 24.73400 27.71600
C  48.18000 27.10900 30.24100
C  46.21500 22.65100 30.15900
C  46.81300 22.42100 25.31600
C  48.82200 26.86800 25.38400
N  47.15900 25.00600 29.94700
C  47.51500 26.01200 30.73200
C  47.23100 25.75900 32.26900
C  46.76800 24.25600 32.24500
C  46.69300 23.91800 30.65300
C  47.65100 23.27500 33.08400
C  46.18100 26.67800 32.86800
C  45.50500 26.12600 34.19000
H  45.56200 26.96600 35.47700
N  46.54700 22.72400 27.72500
C  46.15600 22.08900 28.85900
C  45.75200 20.73800 28.45000
C  45.80300 20.64500 27.00900
C  46.38800 21.98400 26.61000
C  45.49800 19.64400 29.46000
C  45.52400 19.55800 26.03000
O  45.66300 19.66200 24.83100
C  45.16100 18.26000 26.67300
N  47.89200 24.62700 25.74900
C  47.49200 23.60400 24.94500
C  47.94000 23.79200 23.52700
C  48.31300 25.26500 23.49900
C  48.44900 25.61000 24.98800
C  49.16200 22.83500 23.09200
C  47.30200 26.13200 22.74400
C  47.81100 26.97400 21.51100
N  48.36500 26.64300 27.70500
C  48.90500 27.29800 26.64000
C  49.38100 28.54100 27.21400
C  49.12200 28.54400 28.61900
C  48.60900 27.23600 28.86400
C  50.06600 29.66200 26.37000
C  49.38200 29.26900 29.82100
O  50.02800 30.26500 30.09800
C  48.73700 28.28300 30.90800
C  49.64300 28.03400 32.08000
O  50.66600 27.40700 32.07900
O  49.26500 28.88600 33.06900
C  49.95400 28.86900 34.36700
H  45.84800 21.89000 30.85200
H  46.60700 21.71700 24.50700
H  49.29500 27.51000 24.63800
H  48.17500 25.85800 32.80500
H  45.72900 24.07600 32.52300
H  48.48200 23.00100 32.43400
H  47.01500 22.45600 33.42200
H  48.08400 23.89900 33.86500
H  45.52600 27.14200 32.13100
H  46.72200 27.54900 33.23900
H  45.96800 25.16400 34.41300
H  44.43900 25.97600 34.01900
H  44.47700 19.35400 29.21100
H  45.31800 20.04000 30.46000
H  46.26100 18.87300 29.35600
H  44.10900 18.18400 26.94600
H  45.84700 17.98700 27.47500
H  45.35800 17.63100 25.80500
H  47.08800 23.61400 22.87100
H  49.32900 25.47900 23.16500
H  49.44000 22.18100 23.91900
H  49.96700 23.26900 22.50000
H  48.72500 22.08000 22.43900
H  46.91000 26.89600 23.41600
H  46.36800 25.59200 22.59200
H  47.69800 28.04700 21.66200
H  47.35900 26.73600 20.54800
H  48.89000 26.93500 21.35800
H  50.09700 30.55000 27.00200
H  49.42000 29.87500 25.51800
H  51.02700 29.30600 26.00100
H  47.93000 28.86900 31.34900
H  49.24700 28.70200 35.18000
H  50.25600 29.90000 34.55000
H  50.81100 28.19500 34.35700
Mg 6.46700 54.55900 40.43900
C  5.73700 51.09000 40.14600
C  9.66900 53.86900 39.96500
C  6.83300 57.59600 39.49400
C  2.98300 54.98500 40.90700
N  7.48200 52.75400 39.93200
C  7.04900 51.43400 39.92600
C  8.24200 50.42700 39.63100
C  9.38600 51.41100 40.05700
C  8.85200 52.77400 40.06200
C  9.98900 51.05900 41.48400
C  8.26700 49.95200 38.19300
C  8.01600 50.99300 37.09700
H  6.84100 50.65900 36.09800
N  8.15800 55.66500 39.99900
C  9.41900 55.26800 39.90400
C  10.28600 56.32800 39.64700
C  9.43800 57.50900 39.32400
C  8.05800 56.96500 39.56400
C  11.85600 56.26400 39.58900
C  9.90500 58.94400 38.98100
O  11.06900 59.25100 38.93900
C  8.97800 60.09600 38.95000
N  5.07400 56.06000 40.18000
C  5.52900 57.27000 39.81100
C  4.27400 58.27500 39.58900
C  3.09400 57.47400 40.17800
C  3.66400 56.07200 40.36200
C  4.51500 59.54500 40.49800
C  1.78800 57.47300 39.26900
C  0.43600 57.84900 39.84700
N  4.67900 53.30200 40.54600
C  3.43500 53.62500 40.92100
C  2.67600 52.47200 41.25200
C  3.53300 51.40300 40.84000
C  4.72800 51.98400 40.42600
C  1.23900 52.48100 41.65000
C  3.66500 49.91100 40.82100
O  2.96800 49.00600 41.28900
C  5.09900 49.73500 40.32800
C  5.02300 48.93500 38.99600
O  4.59800 49.45300 37.96000
O  5.37300 47.66500 39.20600
C  5.40000 46.89900 37.99000
H  10.71700 53.56800 40.02800
H  6.93000 58.60200 39.08000
H  1.97900 55.23900 41.25100
H  8.12300 49.60900 40.34200
H  10.27100 51.35100 39.42400
H  10.94700 50.58500 41.27400
H  9.35900 50.35100 42.02300
H  10.09700 51.89200 42.17900
H  7.58100 49.11500 38.06600
H  9.28500 49.65500 37.93900
H  8.91200 51.17300 36.50300
H  7.76400 51.93900 37.57600
H  12.25700 56.23100 38.57600
H  12.20400 55.40300 40.15800
H  12.36800 56.97000 40.24300
H  9.52200 60.99800 39.23100
H  8.19000 60.07100 39.70200
H  8.58200 60.14700 37.93600
H  4.22900 58.49100 38.52200
H  2.77700 57.83700 41.15600
H  4.16500 60.40600 39.92800
H  5.53200 59.60100 40.88600
H  3.93100 59.50900 41.41800
H  1.56100 56.43100 39.04100
H  1.92500 58.07500 38.37100
H  -0.38300 57.13200 39.79700
H  0.09100 58.66500 39.21200
H  0.61600 58.09200 40.89400
H  1.12000 53.32100 42.33400
H  0.90300 51.66100 42.28500
H  0.55600 52.64000 40.81600
H  5.59700 49.05300 41.01700
H  5.76500 47.49900 37.15800
H  4.36500 46.60100 37.82400
H  5.96700 45.97800 38.13300

