158

Mg 2.39800 -0.09300 44.41200
C  5.94700 0.35800 43.98400
C  1.91900 2.55700 42.26300
C  -0.70000 -1.04600 43.93600
C  3.17100 -3.42600 45.69000
N  3.82400 1.26100 43.24100
C  5.19100 1.32600 43.26900
C  5.63100 2.51800 42.48900
C  4.30700 3.29300 42.20800
C  3.26600 2.22200 42.49900
C  4.00400 4.62000 43.01700
C  6.41800 2.10100 41.16700
C  5.53600 1.42200 40.05600
H  5.36500 2.19300 38.78800
N  0.78400 0.83100 43.53400
C  0.79500 1.98900 42.78000
C  -0.66000 2.34400 42.59000
C  -1.45000 1.32900 43.20400
C  -0.45400 0.28900 43.59300
C  -1.12600 3.52500 41.73300
C  -2.88100 1.39100 43.39700
O  -3.53200 2.29400 42.95500
C  -3.61900 0.18200 43.85800
N  1.35500 -1.99300 44.86700
C  0.09100 -2.15100 44.34200
C  -0.40000 -3.60400 44.42900
C  0.73900 -4.27500 45.25500
C  1.85800 -3.15800 45.33200
C  -1.91800 -3.81400 44.92400
C  1.25900 -5.63400 44.60800
C  0.90900 -6.90200 45.42600
N  4.11700 -1.21900 44.93900
C  4.28100 -2.47400 45.52700
C  5.71200 -2.74400 45.77900
C  6.34900 -1.62700 45.19400
C  5.37800 -0.78200 44.69000
C  6.35600 -3.95400 46.34600
C  7.65100 -1.07600 45.01600
O  8.70800 -1.55700 45.45500
C  7.45700 0.12700 44.05400
C  8.31800 1.27400 44.46200
O  8.95900 1.94100 43.65900
O  8.31600 1.40500 45.80100
C  9.27800 2.36700 46.33800
H  1.85000 3.47600 41.67800
H  -1.67000 -1.36900 43.55200
H  3.49000 -4.38500 46.10400
H  6.25100 3.18400 43.09000
H  4.43900 3.61500 41.17500
H  3.06700 4.50100 43.56100
H  3.91100 5.28200 42.15600
H  4.82700 4.76500 43.71700
H  7.19200 1.39500 41.46700
H  6.78700 3.05000 40.77700
H  4.56500 1.22100 40.50800
H  6.01000 0.48800 39.75400
H  -1.51700 3.15500 40.78500
H  -0.24100 4.10900 41.48300
H  -1.96400 4.11600 42.10300
H  -3.26100 -0.33100 44.75100
H  -3.64800 -0.49700 43.00600
H  -4.64600 0.46800 44.08500
H  -0.34900 -4.01800 43.42200
H  0.49300 -4.49800 46.29300
H  -2.68000 -4.03200 44.17500
H  -2.31500 -2.94400 45.44700
H  -2.00100 -4.67300 45.59000
H  2.31500 -5.71900 44.34900
H  0.87200 -5.77900 43.59900
H  0.52200 -6.59700 46.39800
H  1.77600 -7.55800 45.51000
H  0.08200 -7.45000 44.97300
H  6.15200 -4.87900 45.80600
H  5.88900 -4.13300 47.31500
H  7.43300 -3.78800 46.38000
H  7.74300 -0.29000 43.08900
H  8.99800 2.22200 47.38200
H  9.03200 3.37900 46.01700
H  10.32300 2.10700 46.16900
Mg 35.66700 0.62500 29.68500
C  33.35700 1.86700 32.17400
C  38.14000 0.72600 32.06000
C  37.94500 -0.01600 27.30400
C  33.22300 1.36000 27.27200
N  35.69300 1.29900 31.82900
C  34.62800 1.53100 32.69900
C  35.12800 1.68200 34.10400
C  36.70400 1.46400 34.02200
C  36.87600 1.15900 32.57500
C  37.60400 2.57000 34.56000
C  34.33000 0.89000 35.23700
C  34.02000 1.65000 36.46700
H  35.15500 2.52200 36.93500
N  37.71700 0.50700 29.65800
C  38.58400 0.42300 30.75900
C  39.91900 -0.03600 30.38700
C  39.90100 -0.27200 28.99100
C  38.49500 0.03900 28.56500
C  41.02500 -0.16400 31.46200
C  41.08900 -0.66000 27.99400
O  40.86800 -0.70200 26.77200
C  42.46200 -0.75700 28.59500
N  35.59600 0.69900 27.60400
C  36.70300 0.39900 26.82200
C  36.36700 0.61700 25.30900
C  34.82700 0.97000 25.39400
C  34.49400 0.95500 26.85200
C  37.31200 1.56700 24.50700
C  33.82300 0.31600 24.42100
C  33.25200 -1.03700 24.88900
N  33.75500 1.33900 29.65700
C  32.81600 1.55300 28.57700
C  31.53000 1.93500 29.08200
C  31.69500 2.06700 30.47300
C  33.00700 1.76300 30.77600
C  30.35000 2.31400 28.19600
C  31.06300 2.40000 31.71900
O  29.90800 2.71800 31.97800
C  32.03100 2.21600 32.95000
C  32.14700 3.42200 33.79200
O  33.03100 4.21400 33.64800
O  31.27500 3.42800 34.91100
C  31.51500 4.73800 35.67900
H  38.74400 0.51200 32.94400
H  38.68900 -0.31000 26.56100
H  32.37300 1.58700 26.62500
H  35.00000 2.73800 34.34100
H  36.86300 0.54800 34.59300
H  37.25700 3.26200 35.32800
H  38.25700 3.06800 33.84300
H  38.18600 1.88700 35.17900
H  34.94000 0.05300 35.57500
H  33.41600 0.52100 34.77100
H  33.74800 1.00200 37.30000
H  33.18700 2.31800 36.24700
H  41.67600 0.69500 31.62300
H  41.67700 -1.00400 31.22100
H  40.58000 -0.37300 32.43500
H  42.44400 -1.66500 29.19800
H  42.76000 0.13500 29.14600
H  43.17200 -0.88800 27.77800
H  36.55600 -0.34800 24.83900
H  34.82700 1.99900 25.03600
H  38.08400 1.83400 25.22900
H  36.80700 2.41700 24.04800
H  37.80500 1.04300 23.68800
H  34.30200 0.13300 23.45900
H  33.01800 1.03100 24.24900
H  33.54800 -1.67400 24.05600
H  32.17600 -1.00900 25.06300
H  33.76100 -1.30800 25.81400
H  30.65900 2.65700 27.20800
H  29.79800 3.00700 28.83100
H  29.75600 1.43800 27.93700
H  31.60400 1.34000 33.43700
H  31.33000 5.63300 35.08500
H  32.56100 4.64300 35.97000
H  30.89300 4.67200 36.57200

