158

Mg 40.76300 7.95300 30.08100
C  42.77000 9.29500 32.65700
C  38.41200 7.22200 32.43700
C  39.18300 6.25300 27.75500
C  43.42900 8.46500 27.91000
N  40.78300 8.05200 32.36700
C  41.55300 8.85200 33.11200
C  40.98100 9.15900 34.53700
C  39.64800 8.25500 34.53500
C  39.57000 7.71300 33.04200
C  39.53600 7.09200 35.57800
C  40.73900 10.68800 34.83100
C  39.99200 10.87400 36.15100
H  40.48200 11.91100 37.14100
N  38.98000 6.88100 30.11300
C  38.10400 6.75200 31.12400
C  36.88400 6.12600 30.63700
C  37.04700 5.99300 29.20600
C  38.40000 6.40600 28.94300
C  35.74400 5.79600 31.56500
C  36.09500 5.48000 28.14400
O  36.32700 5.55100 26.94000
C  34.77100 4.88100 28.58200
N  41.25800 7.36000 28.15800
C  40.40300 6.68800 27.36000
C  40.93800 6.46900 25.93700
C  42.21900 7.34200 25.94300
C  42.34100 7.74000 27.44900
C  41.17700 5.03100 25.40300
C  42.07800 8.51000 24.93200
C  41.28700 9.76500 25.40100
N  42.61800 8.88100 30.18000
C  43.62500 9.08900 29.22000
C  44.81100 9.63800 29.79900
C  44.49300 9.85400 31.10500
C  43.17000 9.34000 31.30800
C  46.14200 9.82700 29.16500
C  44.94300 10.46000 32.32300
O  45.95900 11.07900 32.62900
C  43.78300 10.15400 33.33000
C  44.36600 9.50200 34.61400
O  44.94200 8.41100 34.69500
O  44.15400 10.29800 35.65100
C  44.58000 9.76200 36.97900
H  37.56200 7.29700 33.11800
H  38.61500 5.85700 26.91100
H  44.25000 8.38100 27.19500
H  41.73700 8.80500 35.23700
H  38.79900 8.88100 34.80600
H  39.70600 6.18600 34.99600
H  38.54500 7.12300 36.03100
H  40.36200 7.24000 36.27300
H  40.26000 11.23400 34.01800
H  41.67300 11.11200 35.20000
H  39.77900 9.92200 36.63700
H  39.02800 11.34900 35.97000
H  36.10400 5.82500 32.59300
H  35.51500 4.75600 31.33100
H  34.92400 6.49400 31.39400
H  34.21100 4.55200 27.70600
H  34.14800 5.63400 29.06400
H  34.88000 3.99300 29.20400
H  40.26400 6.95300 25.23000
H  43.10400 6.71900 25.81400
H  40.63800 4.29200 25.99700
H  42.23300 4.83200 25.22400
H  40.82000 4.94700 24.37600
H  41.60300 8.12000 24.03100
H  43.12600 8.63600 24.66100
H  41.81700 10.68600 25.15900
H  41.15900 9.75600 26.48400
H  40.26100 9.81000 25.03700
H  46.27000 10.78300 28.65700
H  46.26300 9.09200 28.36800
H  46.91600 9.75500 29.92900
H  43.31900 11.11200 33.56300
H  43.94500 8.90400 37.19800
H  44.32400 10.50300 37.73700
H  45.63600 9.53400 37.12300
Mg 25.85600 50.18000 25.68500
C  23.97800 51.18300 28.32900
C  28.19600 48.85400 27.99000
C  27.85300 49.32000 23.15700
C  23.67900 51.63700 23.41000
N  26.11800 50.13400 27.92700
C  25.13600 50.60000 28.81600
C  25.58500 50.43500 30.29600
C  26.89900 49.62600 30.09500
C  27.12400 49.54800 28.58800
C  28.03000 50.12900 30.95000
C  24.46200 49.79600 31.15200
C  24.79700 49.04000 32.44600
H  24.09100 49.56800 33.69300
N  27.70100 49.22700 25.57300
C  28.50200 48.75400 26.61600
C  29.72200 48.19300 26.06200
C  29.71200 48.54900 24.66800
C  28.35100 49.07700 24.42100
C  30.71800 47.49600 26.87500
C  30.87500 48.39200 23.67800
O  30.82000 48.74200 22.53000
C  32.19700 47.88100 24.16700
N  25.66600 50.31900 23.55400
C  26.65300 49.77900 22.70100
C  26.30000 50.10700 21.26100
C  24.81000 50.77900 21.38700
C  24.68000 50.94300 22.90100
C  27.35600 51.02700 20.53800
C  23.59500 49.91700 20.85600
C  23.57700 49.82200 19.30600
N  24.24300 51.21500 25.77900
C  23.45700 51.78700 24.82700
C  22.24500 52.32400 25.47300
C  22.43200 52.15500 26.85100
C  23.64900 51.48800 27.01800
C  21.07500 52.95500 24.74400
C  21.81100 52.34100 28.13700
O  20.73200 52.74500 28.49700
C  22.83800 51.69600 29.19300
C  23.21300 52.84100 30.10900
O  24.09400 53.66800 29.99400
O  22.30900 52.64700 31.24600
C  22.60300 53.63100 32.31100
H  28.83200 48.43900 28.77500
H  28.58500 49.01400 22.40600
H  22.91400 52.09200 22.77800
H  25.77000 51.41900 30.72700
H  26.66100 48.60200 30.38200
H  28.82500 50.32100 30.22900
H  28.44500 49.41100 31.65700
H  27.73400 51.01300 31.51400
H  23.97600 49.14700 30.42400
H  23.94600 50.69900 31.47900
H  25.85800 49.24100 32.59900
H  24.53800 47.98600 32.34500
H  30.31700 47.28800 27.86700
H  31.68800 47.99100 26.92400
H  30.84000 46.49500 26.46200
H  32.12600 46.89800 24.63300
H  32.58600 48.55800 24.92700
H  32.92000 47.96500 23.35600
H  26.16600 49.15900 20.74000
H  24.89300 51.73700 20.87200
H  28.26700 51.28900 21.07700
H  26.98000 51.94800 20.09300
H  27.75400 50.59500 19.62000
H  22.60400 50.31500 21.07400
H  23.77300 48.94600 21.32000
H  23.64000 48.80100 18.92900
H  24.32400 50.42600 18.79100
H  22.68900 50.11100 18.74500
H  20.88000 52.41200 23.81900
H  21.21400 53.96800 24.36700
H  20.09900 52.80100 25.20400
H  22.32700 50.90800 29.74700
H  22.96400 54.60400 31.98000
H  23.29400 53.24200 33.06000
H  21.74900 53.82200 32.96000

