158

Mg 26.16800 50.32700 26.94600
C  24.04600 51.78900 29.56200
C  28.08500 49.14100 29.46800
C  28.26800 49.26300 24.68900
C  24.50200 52.25300 24.65100
N  25.99200 50.32200 29.26500
C  25.00000 50.91900 30.03500
C  25.19100 50.50900 31.48900
C  26.64400 50.03100 31.51200
C  27.03000 49.88700 29.98000
C  27.66500 51.01900 32.17500
C  24.04900 49.52300 31.98800
C  23.62500 49.62200 33.53100
H  24.44200 50.25200 34.67400
N  27.95500 49.30000 27.01200
C  28.57000 48.90700 28.17200
C  29.76400 48.15500 27.78100
C  29.88900 48.16200 26.38700
C  28.69100 48.86700 25.96200
C  30.60900 47.45000 28.77400
C  30.91100 47.62500 25.45400
O  30.71000 47.63900 24.19400
C  32.19900 47.03700 26.02600
N  26.34400 50.70200 25.00200
C  27.22200 50.03400 24.21600
C  26.96300 50.17200 22.71500
C  25.69200 51.02200 22.74100
C  25.51500 51.39300 24.21900
C  27.99600 50.57500 21.66300
C  24.46600 50.44500 22.08100
C  23.41500 51.40700 21.37000
N  24.56500 51.68000 27.02200
C  23.97500 52.47500 25.98300
C  22.82400 53.18200 26.44600
C  22.90500 53.00700 27.86700
C  23.96100 52.08700 28.20100
C  21.93300 53.98100 25.59700
C  22.19200 53.35200 29.12800
O  21.17200 53.98400 29.28300
C  23.01800 52.63600 30.29100
C  23.71100 53.59100 31.28400
O  24.65300 54.32500 30.99600
O  23.00100 53.68400 32.48300
C  23.65400 54.45700 33.48700
H  28.65900 48.71400 30.29300
H  28.77600 48.84200 23.81900
H  23.88000 52.65900 23.85000
H  25.17900 51.46300 32.01600
H  26.67900 49.03400 31.95100
H  27.10400 51.52800 32.95900
H  28.05800 51.82500 31.55600
H  28.42400 50.45700 32.71900
H  24.26200 48.45700 31.91500
H  23.15500 49.66300 31.38100
H  23.21500 48.63500 33.74900
H  22.83100 50.36400 33.44700
H  31.62600 47.81000 28.62200
H  30.59000 46.37900 28.57100
H  30.29000 47.59100 29.80700
H  32.69100 47.77200 26.66300
H  32.76800 46.59300 25.21000
H  31.81900 46.26400 26.69400
H  26.65300 49.14600 22.51600
H  25.74200 51.99900 22.26000
H  27.79700 51.56700 21.25800
H  27.79900 49.83400 20.88900
H  29.02100 50.49900 22.02700
H  23.90500 49.80400 22.76100
H  24.74300 49.69800 21.33700
H  23.28800 51.11700 20.32700
H  23.80700 52.42400 21.36700
H  22.45500 51.31300 21.87700
H  22.02200 53.77900 24.53000
H  22.01800 55.01600 25.92800
H  20.93600 53.69700 25.93300
H  22.35100 51.91300 30.75900
H  23.95100 55.43400 33.10500
H  24.62900 53.98400 33.61000
H  23.02100 54.48700 34.37400
Mg -10.53000 17.06900 40.59700
C  -7.12300 16.56300 40.49000
C  -10.14700 20.32000 39.93000
C  -13.80300 17.13700 39.94100
C  -10.79400 13.42500 40.71700
N  -8.80100 18.27700 39.97500
C  -7.48600 17.92200 40.15800
C  -6.57800 19.07500 39.92300
C  -7.52000 20.28700 40.12700
C  -8.89500 19.62600 39.94200
C  -7.42500 20.94700 41.54500
C  -5.94100 19.06600 38.50800
C  -4.42000 18.74100 38.49000
H  -3.93200 17.89400 37.30800
N  -11.81400 18.57000 39.98000
C  -11.48900 19.87300 39.88200
C  -12.64200 20.67800 39.76000
C  -13.70100 19.79600 39.68000
C  -13.13900 18.41800 39.88600
C  -12.62100 22.16700 39.75300
C  -15.20200 20.20600 39.61800
O  -15.47200 21.37400 39.40300
C  -16.32400 19.18000 39.76900
N  -12.06400 15.55500 40.35200
C  -13.30900 15.89200 40.08500
C  -14.34200 14.62500 40.18300
C  -13.28900 13.49700 40.24500
C  -11.99600 14.19200 40.52300
C  -15.36100 14.67100 41.43500
C  -13.22800 12.62900 38.99700
C  -13.05800 11.08000 39.17500
N  -9.24800 15.29400 40.71200
C  -9.48100 13.92500 40.75400
C  -8.24200 13.22900 40.94900
C  -7.24600 14.22000 40.89800
C  -7.89300 15.44200 40.60200
C  -8.01400 11.71700 41.21700
C  -5.88300 14.39600 40.91800
O  -4.93300 13.61000 41.16300
C  -5.72800 16.01600 40.76400
C  -5.01200 16.61400 41.91500
O  -3.99800 17.28600 41.79800
O  -5.53600 16.11300 43.06400
C  -4.84000 16.51600 44.31400
H  -10.06900 21.40800 39.88900
H  -14.89300 17.16700 39.87900
H  -10.82300 12.34100 40.84200
H  -5.76100 19.12500 40.64300
H  -7.41300 20.96900 39.28400
H  -6.37000 20.83300 41.79300
H  -8.08900 20.35500 42.17500
H  -7.76600 21.95000 41.28800
H  -6.03900 20.09400 38.16000
H  -6.47000 18.31600 37.91900
H  -4.18900 18.35800 39.48400
H  -3.92800 19.70400 38.35500
H  -13.38900 22.64300 40.36200
H  -12.69900 22.55700 38.73800
H  -11.73800 22.66300 40.15600
H  -16.26800 18.58600 38.85600
H  -17.22400 19.78200 39.89400
H  -16.27000 18.51000 40.62700
H  -14.80100 14.54300 39.19800
H  -13.51300 12.85200 41.09400
H  -15.68400 13.68400 41.76500
H  -16.30200 15.18400 41.23300
H  -14.82600 15.26000 42.18000
H  -12.47500 13.03300 38.32000
H  -14.19000 12.78900 38.51100
H  -13.91800 10.63400 39.67400
H  -12.20200 10.90400 39.82800
H  -12.80900 10.48300 38.29800
H  -6.97700 11.64300 41.54300
H  -8.15300 11.10000 40.32900
H  -8.65900 11.28900 41.98500
H  -5.12200 16.31500 39.90900
H  -3.79900 16.20000 44.25300
H  -5.35000 16.22400 45.23200
H  -4.88300 17.60500 44.30100

