158

Mg 23.90800 -4.46900 46.21600
C  26.25600 -2.24900 44.65200
C  21.62500 -3.38400 43.97900
C  22.17900 -7.17800 46.84500
C  26.60800 -5.84500 48.01400
N  24.06000 -3.11700 44.38400
C  24.99700 -2.23800 44.03600
C  24.58800 -1.21000 43.05800
C  23.00600 -1.40900 42.98100
C  22.84800 -2.69400 43.91300
C  22.11500 -0.18100 43.39300
C  25.18500 -1.40000 41.56600
C  25.64900 -0.12900 40.80800
H  25.10200 0.08600 39.38300
N  22.12900 -5.17200 45.50100
C  21.30500 -4.57400 44.60300
C  20.07800 -5.33800 44.37900
C  20.20100 -6.41500 45.29700
C  21.55500 -6.34200 45.88100
C  19.01700 -4.97800 43.42800
C  19.05300 -7.38900 45.54100
O  17.93200 -7.21300 45.07900
C  19.26000 -8.63200 46.37500
N  24.30000 -6.31600 47.27200
C  23.45300 -7.23600 47.41100
C  23.86400 -8.29700 48.41300
C  25.27100 -7.84300 48.81500
C  25.43400 -6.56700 48.02100
C  22.84300 -8.54000 49.58700
C  26.45000 -8.93400 48.83900
C  27.07000 -9.38800 50.14200
N  25.95000 -4.08000 46.44200
C  26.84700 -4.71100 47.23100
C  28.09800 -3.94000 47.11700
C  27.93200 -2.94800 46.11500
C  26.64100 -3.19600 45.68500
C  29.33900 -4.22500 47.82600
C  28.60400 -1.87600 45.43800
O  29.77400 -1.50000 45.60900
C  27.57000 -1.42000 44.38300
C  27.47000 0.04100 44.46500
O  26.80000 0.68500 45.21700
O  28.16100 0.61400 43.41900
C  28.08000 2.11300 43.30600
H  20.80300 -2.91200 43.43600
H  21.52100 -7.96600 47.21700
H  27.37100 -6.19000 48.71400
H  24.84900 -0.22700 43.45000
H  22.67600 -1.74600 41.99800
H  21.26800 -0.24100 42.70900
H  22.70800 0.72000 43.24100
H  21.85300 -0.27700 44.44700
H  24.51700 -1.84300 40.82700
H  25.96300 -2.16400 41.57300
H  26.73600 -0.09600 40.87000
H  25.31300 0.68800 41.44700
H  18.45900 -5.84100 43.06500
H  19.47100 -4.49800 42.56100
H  18.39400 -4.25300 43.95200
H  18.96500 -8.44600 47.40800
H  20.23100 -9.12500 46.32000
H  18.57000 -9.40300 46.03300
H  23.88200 -9.26600 47.91400
H  25.11500 -7.46400 49.82500
H  22.35400 -9.50600 49.46200
H  22.14800 -7.71900 49.41500
H  23.28400 -8.38300 50.57200
H  27.29500 -8.50600 48.29800
H  26.03300 -9.82100 48.36200
H  27.44300 -10.40200 49.99500
H  26.44200 -9.16900 51.00600
H  28.00900 -8.91000 50.41900
H  29.34900 -5.30300 47.98700
H  29.40500 -3.62500 48.73300
H  30.27600 -4.03400 47.30100
H  28.02100 -1.76200 43.45100
H  27.03500 2.36800 43.13400
H  28.70300 2.51300 42.50600
H  28.31200 2.59400 44.25600
Mg 41.06500 9.19500 29.91500
C  43.03800 10.60000 32.33200
C  38.92100 7.96900 32.28800
C  39.18000 7.69100 27.48400
C  43.59400 9.91600 27.46000
N  40.96900 9.29200 32.04600
C  41.89600 9.95000 32.86500
C  41.38600 9.98700 34.27000
C  40.24200 8.94700 34.23300
C  40.01300 8.65300 32.73200
C  40.57400 7.61400 35.07000
C  41.00300 11.41200 34.73400
C  40.48400 11.60200 36.21800
H  41.33500 12.37200 37.31300
N  39.15500 8.14200 29.84200
C  38.43200 7.76800 30.99300
C  37.14800 7.22100 30.48000
C  37.22600 7.14000 29.06200
C  38.55500 7.64700 28.74100
C  36.11800 6.73000 31.51100
C  36.17800 6.69700 28.02500
O  36.33600 6.61500 26.84200
C  34.88100 6.39200 28.50100
N  41.35200 8.80300 27.77700
C  40.39900 8.20000 27.04600
C  40.70300 8.26100 25.52700
C  42.08100 8.98400 25.52400
C  42.38900 9.29100 26.99500
C  40.68500 6.92600 24.74300
C  42.10700 10.22100 24.59600
C  41.80800 11.59600 25.12700
N  42.96100 10.10000 29.84800
C  43.85400 10.27800 28.79000
C  45.04000 10.86400 29.31100
C  44.72200 11.11100 30.70300
C  43.51900 10.52600 30.95000
C  46.33500 11.21300 28.60000
C  45.17600 11.71100 31.91800
O  46.24100 12.20400 32.18100
C  44.16600 11.27900 33.11000
C  44.90100 10.42800 34.04200
O  45.25000 9.24600 33.84000
O  45.14800 11.17500 35.10600
C  45.99000 10.58700 36.10600
H  38.21900 7.63200 33.05300
H  38.55500 7.37400 26.64500
H  44.35500 10.19600 26.72900
H  42.21200 9.58800 34.85800
H  39.38600 9.37200 34.75600
H  41.62300 7.32000 35.03500
H  40.04300 6.75700 34.65500
H  40.29500 7.82200 36.10300
H  40.26800 11.91800 34.10800
H  41.95500 11.91300 34.56200
H  40.23600 10.70000 36.77800
H  39.47900 12.00200 36.35200
H  36.42300 6.67200 32.55600
H  35.83000 5.75800 31.11100
H  35.22800 7.35700 31.45200
H  34.40900 7.25100 28.97800
H  35.06200 5.56600 29.18900
H  34.22100 5.97000 27.74300
H  39.89700 8.90000 25.16500
H  42.90200 8.34600 25.19800
H  40.07800 6.94100 23.83800
H  40.17800 6.16700 25.33900
H  41.70700 6.60500 24.54100
H  41.37300 10.08400 23.80200
H  43.04600 10.37200 24.06500
H  42.79700 11.98700 25.36400
H  41.22500 11.42200 26.03100
H  41.17200 12.22700 24.50700
H  46.14700 11.02800 27.54200
H  47.16600 10.59200 28.93700
H  46.56300 12.21400 28.96600
H  43.76500 12.16700 33.59900
H  45.82900 9.56600 36.45400
H  45.76600 11.24100 36.94900
H  46.96600 10.64200 35.62300

