158

Mg 23.58200 -4.44700 45.58100
C  25.84700 -2.24000 44.11000
C  21.19000 -3.07200 43.54500
C  21.69000 -7.22700 46.11800
C  26.25100 -5.96100 47.28300
N  23.59200 -2.89200 43.88600
C  24.61200 -2.14800 43.50100
C  24.21300 -1.06900 42.56800
C  22.60500 -1.13300 42.49900
C  22.43300 -2.42200 43.43000
C  21.81400 0.16100 43.02500
C  24.88200 -1.34100 41.21100
C  25.33200 -0.00000 40.52000
H  25.16200 0.03000 38.98500
N  21.74000 -5.04700 44.92200
C  20.91200 -4.30600 44.11000
C  19.64400 -5.05700 43.99700
C  19.77700 -6.26400 44.71400
C  21.12100 -6.25200 45.29600
C  18.43400 -4.56600 43.14700
C  18.62500 -7.32000 44.94200
O  17.53100 -7.25300 44.43500
C  18.73000 -8.42100 45.97200
N  23.95600 -6.40800 46.53400
C  22.99700 -7.34000 46.62400
C  23.51000 -8.52500 47.47900
C  24.82100 -7.93200 48.15200
C  25.05000 -6.68900 47.21700
C  22.55800 -9.02700 48.61900
C  26.01700 -9.03600 48.15500
C  26.95900 -9.04300 49.39400
N  25.58800 -4.10700 45.78700
C  26.53600 -4.82600 46.59200
C  27.75500 -4.08200 46.52100
C  27.55100 -3.09800 45.52000
C  26.26900 -3.13900 45.11600
C  29.01500 -4.51100 47.27000
C  28.17800 -2.03100 44.83300
O  29.32200 -1.57100 44.93500
C  27.16900 -1.49200 43.78400
C  27.21200 -0.03600 44.01900
O  26.52000 0.60100 44.78000
O  28.35700 0.50700 43.40500
C  28.86800 1.80000 43.83900
H  20.46600 -2.50600 42.95500
H  21.17300 -8.15000 46.38900
H  26.96200 -6.51700 47.89800
H  24.59400 -0.17100 43.05400
H  22.25700 -1.39300 41.50000
H  22.48700 1.01800 42.99400
H  21.42100 0.04100 44.03500
H  20.96500 0.31000 42.35800
H  24.20200 -1.74300 40.46100
H  25.72600 -2.03000 41.26800
H  26.32200 0.19100 40.93300
H  24.69000 0.80400 40.87800
H  18.23900 -5.35500 42.42100
H  18.63300 -3.63100 42.62300
H  17.66900 -4.35600 43.89500
H  17.79600 -8.97200 46.08200
H  19.10300 -7.82100 46.80200
H  19.54100 -9.10700 45.72800
H  23.80600 -9.38000 46.87100
H  24.64400 -7.69000 49.20000
H  21.63700 -9.51900 48.30500
H  22.27600 -8.09900 49.11600
H  23.09400 -9.75700 49.22600
H  26.62200 -8.97500 47.25100
H  25.48500 -9.98700 48.18600
H  26.83800 -8.12800 49.97200
H  27.98200 -9.27500 49.09900
H  26.57000 -9.90000 49.94500
H  29.09800 -5.56700 47.01000
H  28.97200 -4.50800 48.35900
H  29.91100 -3.91800 47.08600
H  27.66000 -1.78900 42.85700
H  28.11400 2.48900 44.22100
H  29.45400 2.33000 43.08800
H  29.53200 1.56800 44.67100
Mg -2.58900 35.13700 26.68000
C  -4.28600 33.44200 29.05600
C  -1.15300 37.26600 29.19900
C  -0.85600 36.68100 24.37200
C  -4.28300 33.31000 24.20800
N  -2.79100 35.36900 28.89400
C  -3.47400 34.45100 29.65100
C  -3.34800 34.78300 31.12600
C  -2.41000 36.03000 31.16100
C  -2.08400 36.28800 29.65500
C  -2.86400 37.37700 31.78100
C  -3.09000 33.63400 32.16300
C  -2.30200 34.01300 33.41700
H  -2.64700 33.26100 34.69300
N  -1.40900 36.94600 26.72300
C  -0.90700 37.58500 27.86300
C  -0.02500 38.68500 27.36200
C  -0.06700 38.59000 25.95500
C  -0.79100 37.35500 25.61500
C  0.65400 39.71600 28.28700
C  0.50800 39.61400 24.96000
O  0.44700 39.36600 23.73800
C  1.25800 40.74600 25.39300
N  -2.60200 35.05300 24.46600
C  -1.72600 35.74600 23.77200
C  -1.75500 35.25900 22.26900
C  -2.97500 34.25600 22.27000
C  -3.31200 34.19600 23.76300
C  -1.74400 36.35800 21.15000
C  -2.72200 32.81500 21.71800
C  -1.68800 31.92100 22.34400
N  -3.89400 33.61500 26.57500
C  -4.55200 32.99600 25.52900
C  -5.31400 31.90400 26.02300
C  -5.30800 32.05200 27.40100
C  -4.40500 33.13100 27.66800
C  -6.01900 30.92700 25.19600
C  -5.74500 31.50100 28.65600
O  -6.52300 30.54900 28.76600
C  -5.14500 32.39400 29.76800
C  -6.17500 33.03000 30.52900
O  -6.73700 34.04100 30.22200
O  -6.47300 32.22400 31.66900
C  -7.70200 32.54700 32.41200
H  -0.40600 37.70900 29.86200
H  -0.29400 37.13600 23.55300
H  -4.77400 32.68400 23.46000
H  -4.37600 35.11600 31.26800
H  -1.51500 35.66400 31.66400
H  -3.88500 37.60800 31.47700
H  -2.11100 38.14800 31.61800
H  -2.84800 37.16500 32.85000
H  -2.68900 32.77500 31.62400
H  -4.07100 33.51400 32.62200
H  -2.69800 35.01600 33.58100
H  -1.21800 33.93700 33.33700
H  0.49400 40.73400 27.93200
H  1.70600 39.43100 28.28200
H  0.26100 39.63500 29.30000
H  0.67600 41.51400 25.90300
H  1.75100 41.19300 24.53100
H  2.03100 40.36000 26.05700
H  -0.89600 34.63800 22.01200
H  -3.85500 34.57400 21.71100
H  -0.83100 36.34500 20.55300
H  -2.07200 37.34600 21.47200
H  -2.51800 36.05900 20.44300
H  -2.41300 33.00000 20.68900
H  -3.76300 32.49400 21.69300
H  -1.00000 31.66500 21.53800
H  -2.04900 30.95500 22.69500
H  -1.21400 32.40900 23.19600
H  -6.05100 29.98200 25.73800
H  -5.56100 30.82500 24.21200
H  -7.08400 31.13600 25.09100
H  -4.52100 31.83900 30.46800
H  -8.50200 32.36600 31.69400
H  -7.65400 33.53100 32.87800
H  -7.72200 31.81200 33.21700

