158

Mg 10.38700 47.55400 25.96700
C  8.54300 47.07700 28.96600
C  12.89300 48.99100 27.74400
C  11.99100 48.20600 23.05900
C  7.63300 46.62700 24.27000
N  10.62800 48.05100 28.16900
C  9.79000 47.68400 29.20800
C  10.54400 47.93500 30.58700
C  11.88000 48.66800 30.05300
C  11.80100 48.58600 28.51600
C  12.01700 50.15100 30.62000
C  10.89000 46.65700 31.49300
C  10.15300 46.91700 32.88500
H  10.40900 45.86800 33.94000
N  12.23200 48.43300 25.50400
C  13.16000 48.85600 26.36000
C  14.37200 49.25600 25.63900
C  14.21400 48.82100 24.28000
C  12.80200 48.45400 24.22900
C  15.60800 49.82300 26.43300
C  15.15000 48.81700 23.20200
O  14.92000 48.49000 22.05900
C  16.55200 49.40200 23.42500
N  9.93400 47.46500 23.90900
C  10.73300 47.79700 22.89400
C  9.90600 47.90500 21.59300
C  8.74500 46.92200 21.99300
C  8.75900 46.94500 23.50300
C  9.57700 49.34400 21.11200
C  8.84000 45.54600 21.37700
C  9.88100 44.67100 21.92400
N  8.40600 46.99800 26.49100
C  7.38400 46.70900 25.66400
C  6.16400 46.37700 26.37500
C  6.59800 46.44900 27.72300
C  7.94100 46.87700 27.70300
C  4.79500 45.96800 25.92200
C  6.20300 46.22200 29.00000
O  5.11500 45.83800 29.37700
C  7.51900 46.56300 29.98400
C  7.84500 45.31400 30.61000
O  8.49400 44.42200 30.09300
O  7.16500 45.14800 31.75400
C  6.95500 43.82900 32.43300
H  13.70800 49.23500 28.42900
H  12.38400 48.59300 22.11600
H  6.80900 46.15200 23.73400
H  9.82600 48.59600 31.07300
H  12.78800 48.18600 30.41500
H  12.88400 50.24200 31.27400
H  11.16800 50.19500 31.30200
H  11.89000 50.92300 29.86100
H  11.95200 46.65500 31.73600
H  10.53200 45.69400 31.12800
H  9.07800 47.08600 32.82000
H  10.70200 47.78600 33.24800
H  15.94400 50.61400 25.76300
H  16.33700 49.01400 26.47000
H  15.34100 50.25500 27.39800
H  17.03800 49.59900 22.46900
H  17.20300 48.92400 24.15600
H  16.31800 50.42100 23.73100
H  10.48900 47.41700 20.81200
H  7.78900 47.33900 21.67600
H  10.02600 49.62400 20.15900
H  9.93100 50.10800 21.80400
H  8.49700 49.49300 21.09400
H  8.86400 45.54200 20.28700
H  7.82800 45.19200 21.57300
H  10.42400 45.21700 22.69600
H  10.60400 44.33200 21.18300
H  9.39500 43.80500 22.37300
H  4.66900 45.83100 24.84800
H  4.06600 46.73200 26.19300
H  4.49100 45.01900 26.36300
H  7.47600 47.39300 30.68900
H  5.90400 43.55500 32.34100
H  7.35400 43.71700 33.44100
H  7.41000 42.98300 31.91700
Mg 2.22200 41.77100 24.65900
C  3.94000 41.75400 27.64900
C  -0.43800 40.19700 26.16800
C  0.70600 41.58300 21.56400
C  5.07900 42.88100 23.07800
N  1.89500 41.04300 26.63600
C  2.62700 41.32100 27.77700
C  1.83100 41.11800 29.06100
C  0.45300 40.55300 28.55200
C  0.63200 40.59500 26.96000
C  -0.06100 39.20200 29.11500
C  1.63500 42.37300 30.03400
C  1.60100 41.97700 31.57300
H  0.17000 42.05700 32.14200
N  0.38500 41.09300 23.97100
C  -0.56300 40.43300 24.73900
C  -1.66700 40.01900 23.86700
C  -1.51200 40.54700 22.60600
C  -0.09500 41.02500 22.65100
C  -2.81800 39.18700 24.39200
C  -2.44100 40.45100 21.30000
O  -2.06100 40.72800 20.15200
C  -3.80000 40.01200 21.40600
N  2.80900 42.21700 22.59400
C  1.98600 42.10200 21.52200
C  2.61900 42.71600 20.24700
C  3.91200 43.37200 20.87800
C  3.98900 42.80700 22.20800
C  2.87400 41.78500 19.06500
C  3.94400 44.95400 20.83100
C  5.13700 45.54100 20.02900
N  4.20600 42.18100 25.17700
C  5.21000 42.54000 24.45100
C  6.46100 42.61700 25.27300
C  5.94500 42.26100 26.55100
C  4.58600 42.01300 26.42800
C  7.80100 43.21600 25.03000
C  6.32800 42.13900 28.00200
O  7.38200 42.29200 28.53100
C  4.99300 41.87800 28.76200
C  5.14800 40.72800 29.72900
O  5.28300 39.58100 29.41000
O  5.44100 41.18700 30.95700
C  6.08800 40.31400 31.92000
H  -1.38000 39.86800 26.61200
H  0.22100 41.58800 20.58600
H  5.95300 43.33700 22.60800
H  2.31600 40.33000 29.63700
H  -0.24100 41.35700 28.79500
H  0.49900 38.86700 29.98800
H  0.00400 38.61000 28.20200
H  -1.04700 39.38000 29.54200
H  0.69100 42.85900 29.78600
H  2.52900 42.98700 29.93300
H  2.07900 42.71300 32.21800
H  1.95900 40.98300 31.84200
H  -3.17400 38.60400 23.54200
H  -3.60100 39.89400 24.66600
H  -2.54400 38.50500 25.19700
H  -4.27000 40.74900 20.75500
H  -4.28500 40.20800 22.36200
H  -3.94200 38.99300 21.04500
H  1.79900 43.37700 19.96600
H  4.75700 43.06500 20.26300
H  3.60900 42.16400 18.35500
H  1.93800 41.52900 18.56900
H  3.22600 40.86800 19.53800
H  4.00000 45.41700 21.81600
H  3.06800 45.41100 20.37100
H  5.83700 45.84700 20.80600
H  4.80000 46.38300 19.42500
H  5.70400 44.82300 19.43600
H  7.90200 43.97700 24.25600
H  8.54400 42.49700 24.68600
H  8.24000 43.73200 25.88400
H  4.71400 42.77300 29.32000
H  5.42700 39.48400 32.17100
H  6.43000 40.92000 32.76000
H  7.00100 39.91100 31.48200

