158

Mg 31.44300 58.69800 39.82900
C  28.80800 56.83000 38.53600
C  33.53500 56.07000 39.56300
C  33.98300 60.93900 39.97700
C  29.15900 61.43100 40.31400
N  31.23300 56.77200 38.92500
C  30.03600 56.16000 38.49400
C  30.38400 54.73200 37.99700
C  31.70500 54.49400 38.76100
C  32.18500 55.84000 39.21800
C  31.62600 53.46900 39.98600
C  30.51500 54.48600 36.39100
C  29.38300 53.79400 35.60500
H  28.53900 54.62700 34.61000
N  33.49700 58.54100 39.67600
C  34.16600 57.38400 39.65000
C  35.56800 57.66400 39.49500
C  35.78300 59.01800 39.72900
C  34.40100 59.59000 39.80500
C  36.55100 56.55300 39.21800
C  37.13400 59.73500 39.92600
O  38.17800 59.08200 39.86100
C  37.28100 61.15800 40.21800
N  31.58400 60.93300 40.05800
C  32.76400 61.58300 40.17100
C  32.54700 63.10600 40.45100
C  31.03900 63.21300 40.79900
C  30.47600 61.75600 40.39500
C  33.68600 63.66000 41.34400
C  30.24800 64.33600 39.97300
C  29.43700 65.29600 40.85300
N  29.33800 59.07000 39.57400
C  28.53300 60.22500 39.82200
C  27.16500 59.92100 39.42900
C  27.20900 58.57900 39.01400
C  28.54300 58.17900 39.02200
C  26.02200 60.89400 39.37600
C  26.40700 57.48900 38.49600
O  25.20700 57.41900 38.24000
C  27.41800 56.30800 38.06900
C  26.93900 55.17300 38.93500
O  27.47500 54.89900 40.00100
O  25.87400 54.61600 38.37600
C  25.49300 53.34900 38.99200
H  34.14400 55.17500 39.71000
H  34.81100 61.61700 40.19400
H  28.46700 62.21300 40.63300
H  29.55800 54.06500 38.24200
H  32.46800 54.02000 38.14500
H  31.92400 52.44400 39.76400
H  30.58800 53.32300 40.28500
H  32.14700 53.82400 40.87600
H  31.43900 54.03000 36.03500
H  30.57900 55.51700 36.04100
H  28.65100 53.44700 36.33400
H  29.73400 52.92000 35.05700
H  36.96900 56.62500 38.21400
H  36.08500 55.58100 39.37700
H  37.30400 56.49200 40.00300
H  36.87200 61.75300 39.40100
H  38.28800 61.57700 40.23500
H  36.86400 61.34400 41.20800
H  32.66800 63.59100 39.48200
H  30.91600 63.38400 41.86800
H  34.16700 62.85900 41.90400
H  33.20900 64.26000 42.11800
H  34.43200 64.34300 40.93800
H  29.55700 63.83200 39.29700
H  30.98900 64.85600 39.36700
H  29.60400 66.33800 40.57900
H  29.75900 65.29700 41.89400
H  28.37900 65.04600 40.77700
H  25.14600 60.26600 39.21300
H  26.20800 61.50000 38.48900
H  25.87600 61.41700 40.32100
H  27.41400 55.96700 37.03400
H  25.17100 53.59200 40.00400
H  26.29700 52.61400 38.95200
H  24.62200 53.05600 38.40600
Mg 36.93900 49.14600 24.69600
C  36.70200 47.45400 27.74400
C  35.21000 51.84900 25.97500
C  36.61500 50.36300 21.50600
C  38.03600 46.13000 23.24700
N  35.91000 49.54200 26.61800
C  36.14500 48.78200 27.75200
C  35.56400 49.53000 28.97600
C  35.27000 50.98800 28.42300
C  35.41400 50.80000 26.91100
C  33.94500 51.61600 28.82600
C  36.58100 49.60700 30.18500
C  36.08900 49.08500 31.54500
H  36.02800 50.20100 32.61400
N  36.11400 50.91400 23.86800
C  35.58500 51.91500 24.60300
C  35.23900 53.02500 23.65100
C  35.69000 52.66500 22.34300
C  36.17300 51.29200 22.51100
C  34.60100 54.30800 24.15200
C  35.68400 53.45200 21.07400
O  36.29100 53.03800 20.15500
C  34.88400 54.79400 20.89500
N  37.30600 48.36000 22.68200
C  37.05600 49.05300 21.52500
C  37.19400 48.13400 20.37300
C  38.13500 47.00500 20.99200
C  37.74700 47.14900 22.40700
C  35.91400 47.60400 19.66100
C  39.67300 47.25900 20.56500
C  40.40400 46.06500 20.16600
N  37.35700 47.21900 25.31000
C  37.81600 46.13000 24.59300
C  37.95700 44.97300 25.47600
C  37.56600 45.44000 26.74400
C  37.17100 46.79000 26.58300
C  38.39800 43.58900 25.10700
C  37.34100 45.11800 28.14800
O  37.57100 44.08300 28.78000
C  36.84600 46.43200 28.79700
C  35.51200 46.12400 29.40600
O  34.42500 45.91500 28.89800
O  35.72300 46.01600 30.72500
C  34.68900 45.39200 31.48000
H  34.87600 52.76700 26.46400
H  36.49200 50.66600 20.46400
H  38.53100 45.21800 22.90800
H  34.63800 49.07700 29.33100
H  36.10800 51.66600 28.58200
H  34.14700 52.68400 28.90200
H  33.51600 51.31200 29.78100
H  33.24100 51.36400 28.03300
H  37.03300 50.59200 30.29800
H  37.45500 49.00300 29.94000
H  36.69200 48.25700 31.91800
H  35.02700 48.86200 31.43900
H  33.86000 54.67900 23.44500
H  35.33200 55.07400 24.41100
H  34.06600 53.96400 25.03700
H  35.46700 55.49200 21.49500
H  33.85000 54.61200 21.18800
H  35.04200 55.19700 19.89500
H  37.68400 48.70700 19.58600
H  37.91900 45.95900 20.77600
H  35.81100 46.52300 19.75600
H  36.00400 47.88000 18.61000
H  35.04600 48.04700 20.14900
H  40.23900 47.66600 21.40300
H  39.57500 47.92600 19.70800
H  39.90700 45.19700 20.59900
H  41.46400 46.06700 20.42200
H  40.50300 45.94600 19.08700
H  39.29100 43.56500 24.48200
H  37.66000 43.02000 24.54200
H  38.59600 43.06400 26.04200
H  37.58200 46.72500 29.54500
H  34.55700 44.42600 30.99300
H  33.88000 46.12300 31.48300
H  35.03900 45.15400 32.48500

