158

Mg 15.89600 -2.02800 27.80000
C  15.00600 0.17400 30.43500
C  18.10100 -3.46300 30.06600
C  17.26500 -3.59400 25.20600
C  14.36700 0.30900 25.56500
N  16.45800 -1.70900 30.01900
C  15.89800 -0.88600 30.91600
C  16.44700 -1.17600 32.38200
C  17.39900 -2.32900 32.13700
C  17.41000 -2.50200 30.64300
C  18.82200 -2.09200 32.77800
C  15.23900 -1.38400 33.36900
C  15.29600 -0.69900 34.70000
H  16.59700 -0.16800 35.24500
N  17.35600 -3.48200 27.64800
C  18.16500 -3.96900 28.62100
C  19.04000 -5.01800 28.06200
C  18.69700 -5.14200 26.71700
C  17.73900 -4.05200 26.46600
C  19.96200 -5.86200 28.83700
C  19.21400 -6.06100 25.67900
O  18.78800 -5.99100 24.51900
C  20.05700 -7.30300 26.05200
N  16.03700 -1.54500 25.70400
C  16.47100 -2.51200 24.85600
C  16.19300 -2.15000 23.34400
C  15.31700 -0.87000 23.46400
C  15.24800 -0.62200 25.02700
C  17.50300 -1.86500 22.63800
C  13.87600 -0.93000 22.76800
C  13.46800 0.33600 22.05200
N  14.80000 -0.20800 27.96300
C  14.22500 0.60500 26.97700
C  13.62000 1.74000 27.52200
C  13.86900 1.58600 28.90700
C  14.56500 0.39900 29.13300
C  12.92300 2.83200 26.78500
C  13.49000 2.15300 30.21900
O  12.95600 3.21000 30.51400
C  14.23300 1.23500 31.25200
C  15.06500 2.23700 32.00400
O  15.92300 2.98500 31.58400
O  14.52600 2.34700 33.31200
C  14.90400 3.50900 34.12300
H  18.71800 -4.05700 30.74400
H  17.70600 -4.00400 24.29600
H  13.96700 0.90000 24.73700
H  17.09400 -0.40800 32.80600
H  17.07300 -3.26900 32.58300
H  18.88300 -1.21600 33.42400
H  19.52200 -2.16300 31.94500
H  19.10100 -2.93800 33.40600
H  15.04000 -2.43700 33.57100
H  14.34400 -1.00400 32.87600
H  14.84700 -1.31200 35.48200
H  14.54000 0.08100 34.79400
H  20.96000 -5.98900 28.41700
H  19.62000 -6.89500 28.89600
H  20.00900 -5.58600 29.89100
H  20.27900 -7.80100 25.10800
H  19.40900 -7.86800 26.72200
H  21.01200 -6.89700 26.38500
H  15.63600 -3.01900 22.99300
H  15.74200 0.04300 23.04700
H  17.49700 -0.95400 22.04000
H  17.83300 -2.64400 21.95100
H  18.29900 -1.86800 23.38200
H  13.13300 -1.12600 23.54100
H  13.74600 -1.76600 22.08000
H  14.37300 0.88800 21.79800
H  12.86400 0.91100 22.75300
H  13.02600 0.08800 21.08700
H  12.26700 2.46200 25.99600
H  13.66400 3.49900 26.34600
H  12.35500 3.38000 27.53600
H  13.44200 0.80700 31.86700
H  15.75100 3.43900 34.80500
H  13.96900 3.71200 34.64600
H  15.10900 4.43200 33.58200
Mg 26.98600 50.39300 26.20000
C  24.66800 51.31100 28.70100
C  29.13900 49.40200 28.74700
C  29.22000 49.89700 23.89900
C  24.81800 51.96300 23.75400
N  26.92300 50.41600 28.50900
C  25.78600 50.67700 29.27400
C  26.02100 50.51600 30.76100
C  27.47500 49.90200 30.73400
C  27.85500 49.78800 29.26100
C  28.55000 50.66100 31.60000
C  24.89200 49.50200 31.40000
C  24.23600 49.86000 32.72700
H  25.15300 50.57000 33.77800
N  28.93000 49.75400 26.25900
C  29.59900 49.39900 27.39100
C  30.99100 49.07100 26.98900
C  31.04000 49.18200 25.58500
C  29.72500 49.61400 25.16400
C  32.07000 48.63700 27.97300
C  32.21500 48.88600 24.64000
O  32.14100 49.07600 23.41500
C  33.43600 48.26400 25.07800
N  27.03700 51.02700 24.13800
C  28.08200 50.58200 23.39100
C  27.77500 50.65800 21.91100
C  26.24000 50.98300 21.86700
C  25.97500 51.31400 23.35800
C  28.66800 51.66300 21.13700
C  25.28800 49.84200 21.34900
C  23.98100 50.43300 20.85200
N  25.16100 51.50100 26.16200
C  24.42800 52.09200 25.10900
C  23.18100 52.55000 25.62300
C  23.28000 52.31800 27.08800
C  24.46400 51.61600 27.34600
C  22.09000 53.21200 24.88300
C  22.60000 52.60300 28.25800
O  21.59200 53.30900 28.44800
C  23.35600 51.83600 29.31000
C  23.49000 52.77200 30.57100
O  24.51400 53.42400 30.79900
O  22.33500 52.66200 31.28400
C  22.39700 53.32200 32.63100
H  29.80100 49.09600 29.56100
H  29.94900 49.48400 23.20000
H  24.04000 52.22300 23.03400
H  26.01300 51.51300 31.20300
H  27.41600 48.85800 31.03900
H  29.32300 51.18700 31.04000
H  28.98300 49.92700 32.28000
H  28.08600 51.38000 32.27600
H  25.40200 48.55100 31.55500
H  24.08700 49.39000 30.67300
H  23.90800 48.93100 33.19300
H  23.27900 50.34700 32.54100
H  32.51100 47.67200 27.72300
H  31.58700 48.68400 28.94900
H  32.87400 49.36900 27.90500
H  33.31600 47.31300 25.59600
H  33.84900 48.97700 25.79100
H  34.06300 48.21800 24.18700
H  27.82100 49.66800 21.45700
H  26.08100 51.87800 21.26600
H  29.62200 51.78000 21.65000
H  28.18500 52.61700 20.92900
H  28.83600 51.22200 20.15500
H  25.04300 49.11400 22.12300
H  25.68600 49.31600 20.48100
H  23.99100 51.51500 20.72400
H  23.20300 50.17100 21.57000
H  23.80200 50.07100 19.84000
H  22.63300 53.79700 24.14000
H  21.54900 54.00300 25.40300
H  21.36300 52.53400 24.43600
H  22.78200 50.98500 29.67800
H  22.89700 52.59700 33.27300
H  21.41300 53.53700 33.04800
H  22.95300 54.25800 32.59500

