158

Mg 25.69100 0.74600 29.37700
C  27.78300 0.30500 32.10400
C  23.08800 1.19700 31.51800
C  23.69800 0.90400 26.70900
C  28.35600 0.23900 27.29700
N  25.40700 0.59400 31.57600
C  26.41000 0.52400 32.52000
C  25.93000 0.83200 34.00300
C  24.42200 0.98700 33.67600
C  24.26200 0.90800 32.14600
C  23.42700 0.08100 34.47900
C  26.69400 2.07100 34.63700
C  27.60700 1.80400 35.80000
H  27.46300 2.69500 37.05300
N  23.65200 1.00300 29.12900
C  22.76600 1.20500 30.15400
C  21.50400 1.51200 29.55900
C  21.63900 1.28700 28.19600
C  23.04000 1.12700 27.93600
C  20.27300 1.80100 30.48600
C  20.61700 1.39700 27.17800
O  20.85100 1.19800 25.99700
C  19.16100 1.57400 27.59800
N  25.97800 0.78900 27.32700
C  25.03600 0.72900 26.41900
C  25.57800 0.80900 24.97800
C  27.11100 0.72400 25.19100
C  27.15600 0.60000 26.74000
C  25.04300 -0.30400 24.04100
C  27.97500 1.90000 24.72400
C  29.40200 1.51700 24.17700
N  27.63500 0.27700 29.60100
C  28.61200 0.08600 28.64100
C  29.84700 -0.29000 29.29200
C  29.51500 -0.18300 30.62900
C  28.18900 0.15900 30.76700
C  31.15100 -0.72300 28.64700
C  30.06600 -0.26200 31.93100
O  31.22900 -0.56800 32.23500
C  28.95100 0.06900 32.96800
C  28.90400 -1.11600 33.83700
O  28.77800 -2.28700 33.46200
O  28.98800 -0.73500 35.15900
C  28.86000 -1.80200 36.19700
H  22.27500 1.61900 32.11300
H  23.26400 1.15300 25.73800
H  29.16700 0.16200 26.57000
H  26.18700 -0.11000 34.48800
H  24.15900 2.01100 33.93900
H  23.32200 -0.81600 33.87000
H  22.49000 0.63800 34.49000
H  23.74700 -0.22400 35.47500
H  25.98200 2.72500 35.14200
H  27.32500 2.57000 33.90100
H  28.63400 1.92700 35.45700
H  27.55800 0.75800 36.10500
H  19.71000 0.86700 30.48900
H  19.64200 2.64300 30.20400
H  20.49600 2.14400 31.49600
H  18.52400 1.42600 26.72700
H  19.12000 2.63900 27.82500
H  18.91700 0.84500 28.37200
H  25.32700 1.77500 24.54000
H  27.55300 -0.16000 24.73200
H  24.18100 0.14000 23.54300
H  24.61100 -1.18100 24.52300
H  25.86700 -0.56900 23.37900
H  28.04200 2.68900 25.47300
H  27.41100 2.29700 23.87900
H  30.11800 2.11700 24.73900
H  29.53900 1.74500 23.12000
H  29.58800 0.44400 24.21900
H  31.22500 -0.22300 27.68200
H  31.23500 -1.81000 28.64200
H  31.99900 -0.32200 29.20100
H  29.20700 0.90700 33.61500
H  29.11000 -2.79800 35.83000
H  27.90600 -1.77400 36.72300
H  29.53600 -1.61600 37.03200
Mg 36.14200 48.72000 25.87800
C  36.36200 47.05200 28.89600
C  35.24600 51.52000 27.65700
C  36.09900 50.35900 23.02200
C  36.86000 45.68100 24.17700
N  35.64300 49.13300 28.05400
C  35.93100 48.36400 29.14200
C  35.68000 49.04800 30.48600
C  34.94300 50.36300 29.97400
C  35.24400 50.33600 28.46300
C  33.45400 50.60200 30.37100
C  37.02300 49.26100 31.33200
C  36.84900 48.94200 32.76600
H  35.49600 49.11000 33.41500
N  35.74000 50.68000 25.40000
C  35.46600 51.69200 26.29800
C  35.45500 52.94200 25.58900
C  35.77300 52.64400 24.20100
C  35.80900 51.17600 24.12400
C  35.08400 54.27000 26.22000
C  35.98700 53.61300 23.00100
O  36.43300 53.22100 21.90600
C  35.79600 55.06500 23.05100
N  36.16300 48.01800 23.81800
C  36.28600 48.99700 22.82300
C  36.41500 48.23500 21.51400
C  37.01600 46.83400 21.97300
C  36.65700 46.78000 23.39500
C  35.16800 48.20600 20.64500
C  38.56800 46.61700 21.71500
C  38.94900 45.49800 20.89800
N  36.51700 46.74500 26.33000
C  36.89600 45.69000 25.55700
C  37.18600 44.57900 26.37600
C  36.91200 45.00800 27.71900
C  36.56600 46.38900 27.60100
C  37.65200 43.25700 25.85000
C  36.94300 44.69400 29.13500
O  37.17100 43.62100 29.68300
C  36.55100 46.03500 29.92600
C  35.34400 45.77800 30.75800
O  34.15100 45.71700 30.27900
O  35.58700 45.68100 32.05100
C  34.47300 45.14900 32.87200
H  34.89200 52.34600 28.27700
H  36.11800 50.87700 22.06100
H  37.00400 44.70000 23.72100
H  34.90800 48.49600 31.02200
H  35.35900 51.24900 30.45300
H  33.41400 51.52600 30.94900
H  33.15700 49.84800 31.09900
H  32.91100 50.65800 29.42700
H  37.34800 50.30200 31.32300
H  37.69400 48.49400 30.94600
H  37.46400 49.56200 33.41900
H  37.17200 47.90700 32.88200
H  34.89300 54.24500 27.29200
H  34.20700 54.70700 25.74200
H  35.90400 54.97500 26.08100
H  36.34400 55.49100 22.21000
H  36.37600 55.39600 23.91200
H  34.77900 55.45200 22.98400
H  37.15100 48.86200 21.01000
H  36.55800 46.02300 21.40600
H  35.17800 47.40800 19.90200
H  35.16400 49.09500 20.01400
H  34.34500 48.15200 21.35700
H  39.01900 46.40300 22.68400
H  38.98900 47.55900 21.36200
H  39.36700 46.01100 20.03200
H  38.07500 44.91500 20.60500
H  39.67800 44.88500 21.42800
H  38.67100 43.51300 25.55900
H  37.08800 43.01300 24.95000
H  37.53100 42.50700 26.63200
H  37.38000 46.28900 30.58700
H  34.17200 44.24300 32.34700
H  33.79300 46.00100 32.85800
H  34.77700 44.84100 33.87300

