158

Mg 44.60200 3.82900 47.35500
C  43.49000 7.00000 46.33100
C  41.75200 2.32800 46.16300
C  46.07800 0.63900 47.51400
C  47.91300 5.27700 48.04100
N  42.90300 4.52600 46.35700
C  42.61300 5.87500 46.11000
C  41.21500 6.02900 45.47300
C  40.55900 4.65500 45.89500
C  41.80700 3.76600 46.13300
C  39.56600 4.62700 47.16600
C  41.36900 6.24200 43.95200
C  40.76000 7.58900 43.34200
H  40.13100 7.52400 41.88900
N  43.94500 1.80100 47.07500
C  42.70000 1.44800 46.63400
C  42.56600 0.02000 46.69000
C  43.79100 -0.48600 47.10200
C  44.66900 0.64400 47.23100
C  41.24900 -0.66300 46.32900
C  44.08300 -1.99000 47.44800
O  43.26200 -2.82700 47.19100
C  45.29900 -2.38400 48.20800
N  46.74500 3.10100 47.52700
C  46.97400 1.72800 47.64800
C  48.53200 1.54900 47.97900
C  49.07400 2.98700 48.22600
C  47.81800 3.85900 47.94900
C  48.95800 0.65700 49.18800
C  50.27900 3.47700 47.43200
C  51.24700 4.46900 48.16700
N  45.54700 5.74700 47.35200
C  46.85500 6.19300 47.73600
C  46.88400 7.60800 47.55700
C  45.63500 8.00900 46.91400
C  44.82400 6.80200 46.88900
C  48.10400 8.41200 47.93900
C  44.82300 9.07000 46.46900
O  44.97300 10.27200 46.58800
C  43.39600 8.46300 46.01600
C  42.41400 9.10400 46.94400
O  42.20200 8.78200 48.08600
O  41.75400 10.25000 46.44500
C  40.69300 10.85500 47.32700
H  40.85800 1.89800 45.70500
H  46.50400 -0.35900 47.63200
H  48.87700 5.71800 48.30500
H  40.59200 6.76000 45.98900
H  40.06000 4.20100 45.03900
H  40.04900 4.13700 48.01100
H  38.67800 4.03600 46.94000
H  39.21200 5.61700 47.45300
H  40.85800 5.41600 43.45800
H  42.37300 6.07300 43.56400
H  41.49100 8.39700 43.37200
H  40.02800 7.87200 44.09900
H  41.29200 -1.24600 45.40900
H  40.46600 0.09300 46.25600
H  40.91300 -1.33600 47.11700
H  45.47900 -1.77900 49.09700
H  46.19700 -2.21900 47.61200
H  45.26500 -3.43000 48.51100
H  48.87800 0.97000 47.12300
H  49.26200 3.00200 49.29900
H  48.08300 0.24500 49.68900
H  49.71700 1.11500 49.82200
H  49.38100 -0.25000 48.75600
H  49.94600 3.82900 46.45600
H  50.94600 2.66200 47.14900
H  52.11800 3.88600 48.46500
H  50.73700 4.71100 49.09900
H  51.34900 5.43700 47.67700
H  48.58100 7.91700 48.78500
H  47.74000 9.39800 48.22800
H  48.86200 8.40300 47.15600
H  43.12600 8.69200 44.98500
H  39.96000 11.42500 46.75500
H  41.18800 11.41900 48.11700
H  40.13200 10.03200 47.77000
Mg 46.64200 24.92900 28.71600
C  47.15700 27.26900 31.51900
C  45.38600 22.77100 30.77600
C  46.76900 22.93900 26.16000
C  48.00400 27.53100 26.61400
N  46.49600 24.99800 30.92600
C  46.59900 26.00800 31.81700
C  46.01300 25.60600 33.18000
C  45.45500 24.14400 32.91300
C  45.73300 24.00500 31.41600
C  46.21100 23.11400 33.82000
C  44.96000 26.55100 33.78700
C  45.23500 26.89600 35.19400
H  44.12200 27.00600 36.24700
N  46.25400 23.01500 28.55900
C  45.75200 22.23100 29.55400
C  45.37200 20.95800 28.93800
C  45.82100 20.93800 27.53000
C  46.30700 22.32300 27.34800
C  44.58800 19.93500 29.73500
C  45.70600 19.85400 26.52700
O  46.05700 20.06400 25.42700
C  44.97600 18.53900 26.84400
N  47.35500 25.23900 26.66000
C  47.19400 24.23200 25.80400
C  47.47000 24.62100 24.36200
C  47.68100 26.14300 24.45900
C  47.66300 26.34900 25.97700
C  48.65000 23.87900 23.71300
C  46.70400 27.11500 23.76900
C  45.29100 26.97400 24.39900
N  47.47600 26.94500 28.92800
C  47.98300 27.85300 28.04700
C  48.39700 29.09700 28.73500
C  48.00000 28.91600 30.09100
C  47.56600 27.56200 30.18200
C  48.95000 30.35900 28.06100
C  47.81800 29.56700 31.37800
O  47.97900 30.72000 31.74700
C  47.42900 28.45100 32.40100
C  48.58500 28.13800 33.23100
O  49.71400 28.33700 32.95000
O  48.11900 27.75200 34.44900
C  49.20600 27.44400 35.45700
H  44.82100 22.06700 31.39200
H  46.66900 22.23900 25.32800
H  48.41100 28.27200 25.92400
H  46.85300 25.48500 33.86300
H  44.42500 24.10500 33.26800
H  46.12500 23.54600 34.81800
H  47.29200 23.10000 33.67900
H  45.86600 22.08200 33.75800
H  43.99700 26.05200 33.89500
H  44.86400 27.44300 33.16700
H  45.62400 27.91300 35.24900
H  46.06600 26.32000 35.60100
H  43.76700 19.44300 29.21200
H  44.23000 20.30500 30.69600
H  45.32400 19.18900 30.03200
H  45.41900 17.98700 27.67300
H  44.96200 17.84500 26.00300
H  43.90800 18.69300 27.00100
H  46.55800 24.44000 23.79400
H  48.66600 26.42200 24.08600
H  49.34900 23.63500 24.51300
H  48.96300 24.49900 22.87300
H  48.27600 22.89900 23.41300
H  46.56800 26.95000 22.70000
H  47.04700 28.14000 23.90600
H  44.55500 27.17000 23.62000
H  45.18200 27.83100 25.06500
H  45.06600 26.03300 24.90100
H  48.33200 31.19500 28.38800
H  48.88500 30.11400 27.00000
H  49.98700 30.51900 28.35600
H  46.65600 28.86000 33.05100
H  48.74900 27.19900 36.41500
H  49.97600 28.21100 35.53800
H  49.83000 26.63900 35.06900

