158

Mg -2.39100 16.80000 25.95100
C  -3.10000 14.42100 28.32400
C  -3.02500 19.30600 28.18300
C  -2.48900 18.90000 23.32100
C  -2.77500 14.06600 23.48500
N  -2.93300 16.87900 27.99100
C  -3.11900 15.77200 28.82300
C  -3.34000 16.15600 30.30600
C  -3.34600 17.74100 30.23900
C  -3.05500 18.02400 28.73100
C  -4.64800 18.38900 30.82700
C  -2.31800 15.49100 31.34900
C  -1.73200 16.24200 32.61000
H  -1.37300 15.38300 33.80600
N  -2.55000 18.76500 25.79200
C  -2.66700 19.66000 26.84300
C  -2.60000 20.99500 26.38700
C  -2.33800 20.93200 24.99500
C  -2.47500 19.43400 24.63500
C  -2.78400 22.24500 27.18800
C  -1.95500 22.06700 24.06500
O  -1.80100 21.98200 22.86700
C  -1.58100 23.44500 24.56400
N  -2.59700 16.53900 23.69300
C  -2.56800 17.61800 22.89600
C  -2.81400 17.20100 21.42800
C  -2.93700 15.65700 21.52000
C  -2.70000 15.36000 22.98800
C  -3.86200 18.01000 20.64000
C  -1.96000 14.85100 20.54600
C  -2.76500 14.52100 19.26300
N  -2.95400 14.73000 25.85800
C  -2.80300 13.76300 24.86800
C  -2.91600 12.44700 25.38200
C  -3.14900 12.63900 26.73300
C  -3.11000 14.03800 26.97800
C  -2.84400 11.16100 24.74200
C  -3.30200 11.99800 27.95300
O  -3.49700 10.82400 28.22200
C  -3.17300 13.05300 29.06400
C  -2.09700 12.65000 29.94900
O  -0.92400 12.90000 29.76700
O  -2.71500 11.97200 30.99200
C  -1.72900 11.41800 31.96700
H  -3.16100 20.12500 28.89200
H  -2.48600 19.73200 22.61300
H  -2.71400 13.20000 22.82200
H  -4.29500 15.72000 30.59900
H  -2.49300 18.13500 30.79100
H  -4.35600 19.16900 31.52900
H  -5.24700 17.62200 31.31800
H  -5.09200 18.93700 29.99600
H  -1.43500 15.16000 30.80300
H  -2.73600 14.59700 31.81100
H  -2.41900 17.07100 32.77800
H  -0.77600 16.62800 32.25500
H  -1.97400 22.97400 27.19100
H  -3.05800 22.11600 28.23500
H  -3.57200 22.74700 26.62600
H  -2.46700 24.04500 24.77500
H  -1.01900 24.00700 23.81800
H  -0.87000 23.37900 25.38800
H  -1.83200 17.39700 20.99600
H  -3.98400 15.47200 21.27900
H  -4.59900 17.39800 20.12000
H  -3.55000 18.87700 20.05800
H  -4.42400 18.52500 21.42000
H  -1.45800 13.99300 20.99300
H  -1.17000 15.49500 20.15800
H  -3.70000 14.13700 19.67200
H  -2.31500 13.70800 18.69300
H  -2.89100 15.47300 18.74700
H  -3.84700 10.88900 24.41600
H  -2.59500 10.41400 25.49600
H  -2.21200 11.13500 23.85400
H  -4.10000 13.04900 29.63800
H  -2.29900 11.41000 32.89600
H  -0.80800 11.96400 32.16900
H  -1.48100 10.39900 31.66800
Mg 46.72100 25.25300 28.46900
C  47.75500 27.53500 31.00600
C  45.62500 23.14200 30.84800
C  45.97100 23.21600 25.96000
C  48.30000 27.51200 26.11200
N  46.79500 25.26900 30.71600
C  47.19900 26.32000 31.51600
C  46.96600 25.95600 32.99800
C  46.18800 24.54700 32.90700
C  46.19000 24.26600 31.35100
C  46.67600 23.28800 33.84800
C  46.38400 27.05000 33.93900
C  45.62000 26.63000 35.10200
H  46.37300 26.34700 36.44200
N  45.78800 23.56700 28.39600
C  45.43700 22.77000 29.48600
C  44.79200 21.61400 29.01400
C  44.89300 21.50300 27.59800
C  45.59700 22.81600 27.22400
C  44.24600 20.60200 29.83400
C  44.52100 20.41500 26.61500
O  44.83900 20.42000 25.46300
C  43.76600 19.25000 27.04600
N  46.97800 25.48500 26.38400
C  46.64200 24.40700 25.60800
C  47.03200 24.59800 24.13000
C  47.40000 26.09600 24.13000
C  47.62000 26.39600 25.65000
C  48.20500 23.70800 23.64900
C  46.42400 27.12800 23.48800
C  47.04600 28.35100 22.84400
N  47.84600 27.09200 28.51700
C  48.44100 27.85900 27.48900
C  48.90200 29.17400 27.98900
C  48.66400 29.07500 29.38500
C  47.99400 27.80700 29.63100
C  49.63100 30.14900 27.17500
C  48.82200 29.77100 30.62100
O  49.22300 30.91900 30.84900
C  48.40500 28.75600 31.73800
C  49.65500 28.38200 32.49300
O  50.70500 27.93500 32.05000
O  49.47500 28.56200 33.84000
C  50.45700 28.06800 34.81700
H  45.19200 22.34400 31.45600
H  45.67200 22.56300 25.13800
H  48.69600 28.30400 25.47200
H  48.00500 25.76500 33.26900
H  45.15900 24.69300 33.23500
H  47.30800 23.67500 34.64700
H  47.26500 22.65900 33.18100
H  45.85900 22.74400 34.32100
H  45.81300 27.78500 33.37100
H  47.28300 27.41100 34.43900
H  44.95400 25.80000 34.86600
H  45.04200 27.53500 35.28700
H  44.80500 19.66600 29.82800
H  43.23100 20.31000 29.56200
H  44.19100 20.98500 30.85300
H  42.88600 19.69100 27.51400
H  44.44600 18.59100 27.58600
H  43.38800 18.77800 26.14000
H  46.12700 24.31500 23.59200
H  48.43900 26.32400 23.88900
H  48.62900 23.05500 24.41200
H  48.94100 24.40300 23.24500
H  47.79800 23.16000 22.80000
H  45.65700 27.38500 24.21900
H  45.72900 26.67800 22.77900
H  46.66600 28.50100 21.83300
H  48.11900 28.19000 22.95000
H  46.84200 29.20100 23.49600
H  49.40300 31.15200 27.53400
H  49.32000 30.20700 26.13200
H  50.67900 30.01300 27.44300
H  47.65900 29.28300 32.33400
H  50.67700 28.92600 35.45200
H  51.43100 27.78700 34.41700
H  49.98400 27.23600 35.33800

