158

Mg 9.13900 3.20700 27.58000
C  10.15800 1.59700 30.57900
C  7.56200 5.47300 29.51300
C  7.96500 4.55500 24.76400
C  10.20300 0.39100 25.90900
N  9.01500 3.54500 29.73000
C  9.55400 2.86800 30.79700
C  9.26900 3.42400 32.18900
C  8.36400 4.64100 31.80000
C  8.29300 4.62700 30.26800
C  6.96400 4.77900 32.45500
C  10.58300 3.59400 33.05200
C  10.58600 4.74800 34.09600
H  11.19900 4.36800 35.52300
N  7.87100 4.74000 27.22900
C  7.32500 5.58400 28.10200
C  6.62600 6.64900 27.35700
C  6.91700 6.45900 25.95000
C  7.66500 5.24800 25.94000
C  5.83100 7.78900 28.09200
C  6.49900 7.26500 24.66100
O  6.81100 6.89300 23.58800
C  5.64000 8.47100 24.81700
N  9.21900 2.65800 25.62600
C  8.68900 3.35400 24.63300
C  8.95900 2.80900 23.17300
C  9.64900 1.42200 23.59400
C  9.74900 1.49900 25.11900
C  7.78000 2.74800 22.23500
C  11.06900 1.22500 22.88300
C  11.16000 0.16800 21.80200
N  10.09800 1.38700 28.05900
C  10.44700 0.33500 27.24000
C  11.07700 -0.69500 28.01900
C  11.00400 -0.27200 29.35700
C  10.42600 0.99100 29.33400
C  11.87200 -1.80400 27.42800
C  11.29100 -0.59500 30.76400
O  11.74700 -1.59000 31.30300
C  10.78800 0.62000 31.60600
C  9.75500 0.14600 32.58600
O  8.62100 -0.09800 32.27800
O  10.19700 0.10500 33.84000
C  9.13700 0.06000 34.88100
H  6.96600 6.16800 30.10700
H  7.78100 4.95200 23.76300
H  10.66000 -0.41500 25.33200
H  8.54400 2.70200 32.56500
H  8.83200 5.56900 32.12900
H  6.20500 4.49400 31.72600
H  6.68800 5.80600 32.69500
H  6.88600 4.19100 33.37000
H  11.42700 3.76000 32.38400
H  10.76800 2.61800 33.50000
H  9.55700 4.99000 34.36200
H  11.12800 5.64900 33.80800
H  6.48300 8.66300 28.06400
H  5.45300 7.48500 29.06800
H  4.90400 8.03700 27.57600
H  4.77000 8.02600 25.30000
H  5.45300 8.85200 23.81300
H  6.18600 9.26500 25.32700
H  9.64100 3.45600 22.62100
H  9.09000 0.57000 23.20900
H  8.02400 3.38100 21.38200
H  6.87500 3.22400 22.61000
H  7.48500 1.72700 21.99200
H  11.80400 1.05500 23.67000
H  11.24100 2.18400 22.39200
H  10.80800 -0.80200 22.15200
H  12.16400 -0.08900 21.46400
H  10.52700 0.41200 20.94900
H  12.45900 -1.45000 26.58100
H  11.15100 -2.49400 26.99000
H  12.56600 -2.16700 28.18700
H  11.65300 1.15800 31.99500
H  8.53400 0.96800 34.91100
H  9.44100 0.06600 35.92700
H  8.49700 -0.78400 34.62600
Mg 25.92500 -1.37900 29.52200
C  27.96000 -1.47400 32.39800
C  23.20100 -0.99100 31.45000
C  24.00800 -1.32200 26.76200
C  28.78300 -2.21100 27.65000
N  25.67500 -1.08700 31.70400
C  26.63800 -1.22200 32.67700
C  26.00600 -0.97300 34.07200
C  24.48100 -0.98600 33.71800
C  24.46200 -0.97900 32.18000
C  23.68600 -2.22500 34.29700
C  26.41900 0.30100 34.79200
C  26.69700 0.03700 36.24900
H  26.75200 1.23600 37.29800
N  23.86100 -1.26100 29.14400
C  22.89800 -1.09600 30.11800
C  21.57700 -1.16600 29.49100
C  21.83400 -0.96500 28.11100
C  23.28600 -1.17700 27.95100
C  20.26200 -1.24500 30.35100
C  20.82600 -0.55000 26.98100
O  21.05500 -0.50700 25.77000
C  19.40800 -0.39800 27.39300
N  26.32300 -1.83500 27.50700
C  25.36700 -1.68700 26.50500
C  26.02000 -1.67500 25.12400
C  27.52200 -2.10400 25.40300
C  27.53600 -2.15900 26.93100
C  25.31100 -2.61300 24.06900
C  28.68800 -1.23000 24.79700
C  28.67500 0.32900 25.02300
N  27.99700 -1.77100 29.85500
C  28.99800 -2.10500 29.02500
C  30.31800 -2.03000 29.72600
C  29.91500 -1.74000 31.04600
C  28.52100 -1.67100 31.11700
C  31.61900 -2.39400 29.11800
C  30.41200 -1.55000 32.44600
O  31.55200 -1.45700 32.85200
C  29.15500 -1.42100 33.34200
C  29.34000 -2.45600 34.42000
O  28.69100 -3.46600 34.31200
O  30.20300 -2.10700 35.37900
C  30.36700 -2.95600 36.53300
H  22.33300 -0.94000 32.11100
H  23.49800 -1.06000 25.83200
H  29.69500 -2.51200 27.13100
H  26.16900 -1.86200 34.68000
H  24.05600 -0.15100 34.27500
H  22.73300 -1.89100 34.70800
H  24.16200 -2.77900 35.10500
H  23.39400 -2.86600 33.46500
H  25.62200 1.03900 34.69800
H  27.25900 0.70100 34.22400
H  27.61500 -0.49000 36.50800
H  25.87600 -0.60700 36.56500
H  19.51500 -1.71500 29.71100
H  20.00200 -0.22100 30.62100
H  20.31700 -1.83000 31.26900
H  19.28100 0.21400 28.28600
H  19.04300 -1.42100 27.48000
H  18.81400 0.06200 26.60300
H  25.82600 -0.65800 24.78400
H  27.56400 -3.07800 24.91500
H  26.05300 -3.35300 23.77200
H  25.14000 -1.94600 23.22400
H  24.32300 -2.94600 24.38900
H  28.56600 -1.39100 23.72600
H  29.67700 -1.61600 25.04400
H  28.11900 0.58300 25.92500
H  28.35600 0.78700 24.08600
H  29.73400 0.56900 25.11900
H  32.31100 -1.62600 29.46400
H  31.67700 -2.49100 28.03400
H  31.99600 -3.33700 29.51300
H  29.26300 -0.48900 33.89500
H  30.33300 -4.03600 36.38800
H  29.57500 -2.70100 37.23700
H  31.37900 -2.70200 36.84800

