158

Mg 17.11700 -1.68400 27.81700
C  15.75200 0.32100 30.30800
C  19.26000 -3.01400 30.38400
C  18.96000 -3.34700 25.41800
C  15.66700 0.35600 25.45000
N  17.40400 -1.44800 30.11700
C  16.66700 -0.55800 30.80800
C  17.12000 -0.63900 32.30500
C  18.31900 -1.52300 32.24000
C  18.29600 -2.09000 30.84100
C  19.67400 -0.88700 32.66600
C  15.90600 -0.98700 33.28100
C  15.80200 -0.20600 34.54400
H  17.00700 0.58600 35.05200
N  18.80800 -3.05800 27.91200
C  19.49500 -3.48800 29.03000
C  20.40300 -4.55100 28.62300
C  20.26500 -4.75700 27.22900
C  19.30900 -3.72900 26.75900
C  21.24900 -5.25300 29.60400
C  20.91600 -5.73100 26.34200
O  20.63100 -5.74600 25.11000
C  21.98200 -6.69300 26.89500
N  17.39200 -1.48000 25.77000
C  18.08600 -2.36600 25.04200
C  17.89900 -2.06500 23.53500
C  16.81700 -0.92300 23.51800
C  16.67400 -0.53500 24.99000
C  19.23400 -1.66200 22.72500
C  15.46700 -1.36600 22.91800
C  14.87700 -0.47000 21.84000
N  15.82700 -0.00900 27.79200
C  15.32900 0.71600 26.78500
C  14.38400 1.68500 27.29000
C  14.53600 1.59300 28.70400
C  15.45500 0.56300 28.97100
C  13.43300 2.62600 26.56200
C  14.14100 2.10400 29.95900
O  13.36200 3.01300 30.26900
C  14.88700 1.33600 31.06800
C  15.75400 2.40200 31.81000
O  16.89300 2.72200 31.40600
O  15.07000 2.96400 32.78800
C  15.59700 4.21400 33.33600
H  19.87100 -3.43900 31.18300
H  19.33300 -3.92300 24.56800
H  14.98200 0.92900 24.82200
H  17.34700 0.38000 32.61700
H  18.06600 -2.38200 32.86300
H  20.31200 -0.64400 31.81600
H  20.20600 -1.64900 33.23600
H  19.55400 0.08000 33.15300
H  15.96400 -2.03000 33.59200
H  15.00100 -0.83200 32.69300
H  15.47800 -0.83700 35.37100
H  14.92000 0.40300 34.34800
H  22.24100 -5.28100 29.15200
H  20.91200 -6.19900 30.02800
H  21.47200 -4.53500 30.39400
H  22.12100 -7.46100 26.13500
H  21.52000 -7.17300 27.75800
H  22.95300 -6.21100 27.01300
H  17.45100 -2.91300 23.01800
H  17.20600 -0.04300 23.00600
H  18.98800 -1.54500 21.66900
H  19.87000 -2.53700 22.86100
H  19.61300 -0.77500 23.23100
H  14.74000 -1.48300 23.72200
H  15.48900 -2.36800 22.49100
H  15.23900 0.55700 21.80100
H  13.79900 -0.40100 21.98900
H  15.17100 -1.05900 20.97100
H  13.04200 1.99000 25.76800
H  14.07900 3.36100 26.08300
H  12.64400 3.02900 27.19600
H  14.19800 0.89200 31.78700
H  16.55000 3.79900 33.66300
H  14.98400 4.58800 34.15500
H  15.74500 4.96600 32.56000
Mg 49.75000 46.57000 42.40400
C  46.42400 46.98900 41.76700
C  49.39800 43.37100 40.66000
C  53.13500 46.14200 42.39500
C  50.15200 49.80300 43.33600
N  48.13800 45.36900 41.16200
C  46.88000 45.84000 41.07800
C  46.09900 45.01300 40.14100
C  46.98000 43.72400 39.86700
C  48.26900 44.17700 40.53600
C  46.32000 42.49400 40.48900
C  45.69800 45.71900 38.83500
C  44.11300 45.73700 38.54800
H  43.71000 45.66300 37.08300
N  51.03900 45.03800 41.77100
C  50.64800 43.76000 41.16800
C  51.77000 42.84600 41.34400
C  52.93300 43.66200 41.69600
C  52.39400 45.09000 41.95900
C  51.66600 41.33500 41.06300
C  54.35100 43.07000 41.76700
O  54.57800 41.83200 41.67300
C  55.51100 43.96000 41.97200
N  51.44300 47.77800 42.80000
C  52.74500 47.39600 42.77700
C  53.69700 48.57100 43.11700
C  52.66200 49.72300 43.52800
C  51.30400 49.06800 43.24800
C  54.78500 48.18600 44.23900
C  52.84300 51.03700 42.72800
C  52.72300 52.33900 43.61800
N  48.58200 48.11200 42.63300
C  48.86500 49.41600 43.05400
C  47.58200 50.10200 43.17100
C  46.67000 49.09300 42.79200
C  47.29400 47.96900 42.37000
C  47.25600 51.44600 43.75100
C  45.29000 48.96900 42.62300
O  44.35300 49.67500 42.92400
C  45.07800 47.62200 41.93100
C  44.14100 46.70400 42.76400
O  44.27400 46.32700 43.90100
O  43.15300 46.24600 41.95800
C  42.18200 45.36000 42.61000
H  49.27900 42.38300 40.21000
H  54.16600 45.92800 42.68400
H  50.28500 50.86300 43.56100
H  45.16300 44.73200 40.62300
H  47.16800 43.59400 38.80100
H  45.63800 42.63100 41.32800
H  47.13200 41.93600 40.95400
H  45.84800 41.92500 39.68800
H  46.37900 45.38500 38.05200
H  46.00600 46.74300 39.04900
H  43.73300 46.67500 38.95500
H  43.54200 45.06100 39.18500
H  50.64600 40.95100 41.10500
H  52.37600 40.76500 41.66200
H  51.94900 41.29200 40.01100
H  55.52100 44.28600 43.01200
H  55.55100 44.75300 41.22500
H  56.47700 43.46000 41.89000
H  54.20500 48.78300 42.17600
H  52.63800 49.84000 44.61100
H  54.99500 47.11600 44.25200
H  54.56100 48.58500 45.22800
H  55.70700 48.76500 44.18300
H  52.13100 51.13100 41.90800
H  53.86500 51.10900 42.35600
H  53.51800 52.31600 44.36300
H  51.81800 52.54300 44.19100
H  52.83200 53.13100 42.87700
H  46.70600 52.13600 43.11200
H  48.15500 51.86300 44.20600
H  46.54400 51.24300 44.55100
H  44.75300 47.65200 40.89100
H  41.30000 45.40500 41.97200
H  42.00800 45.78500 43.59900
H  42.61800 44.37200 42.75600

