158

Mg 49.25800 46.33100 43.09300
C  46.10000 46.87500 42.12800
C  49.18000 43.24600 41.39000
C  52.75500 46.03500 43.23000
C  49.55500 49.72100 44.06400
N  47.80900 45.30400 41.79300
C  46.56500 45.61700 41.60500
C  45.88400 44.64700 40.63100
C  46.77500 43.33400 40.76600
C  47.99700 43.96000 41.37700
C  46.11900 42.27700 41.68500
C  46.01700 45.22000 39.18000
C  44.80200 45.04900 38.20900
H  45.00100 44.03500 37.15500
N  50.74700 44.78800 42.59500
C  50.47300 43.63400 41.81000
C  51.78000 42.90900 41.58500
C  52.73200 43.62000 42.30700
C  52.12900 44.86700 42.80000
C  51.94600 41.60500 40.86900
C  54.14900 43.21900 42.45400
O  54.41000 42.16600 41.96300
C  55.11900 44.02200 43.24100
N  50.90100 47.66500 43.51000
C  52.21100 47.30000 43.57200
C  53.08400 48.51400 44.03700
C  52.06800 49.59300 44.37400
C  50.74000 48.91600 44.03900
C  54.13000 48.24900 45.10800
C  52.16200 51.07900 43.76000
C  52.18600 52.23500 44.85300
N  48.09000 47.99500 43.22600
C  48.29300 49.25300 43.69000
C  46.94700 49.87100 43.80500
C  46.07700 48.94300 43.18800
C  46.86000 47.85100 42.78600
C  46.56000 51.19100 44.36900
C  44.67700 48.79200 42.80100
O  43.72300 49.52700 42.88700
C  44.67400 47.42500 42.12800
C  43.85700 46.47300 42.99900
O  44.36200 45.72500 43.81700
O  42.49000 46.66100 42.81000
C  41.52400 45.96700 43.69300
H  49.04400 42.28000 40.89900
H  53.81700 46.09000 43.48000
H  49.74600 50.75500 44.36000
H  44.82700 44.58500 40.88900
H  46.89500 42.89900 39.77400
H  46.32900 42.39400 42.74800
H  46.40000 41.27900 41.34800
H  45.02900 42.31000 41.67700
H  46.94200 44.89400 38.70400
H  46.26800 46.27900 39.24900
H  44.51500 46.01900 37.80200
H  43.95600 44.66600 38.77900
H  50.97300 41.36500 40.44100
H  52.22100 40.78100 41.52800
H  52.72100 41.65300 40.10400
H  56.02800 43.42600 43.33000
H  54.65900 44.15700 44.22000
H  55.44700 44.99000 42.86300
H  53.69000 48.78800 43.17400
H  51.86200 49.78000 45.42800
H  54.38100 47.23000 45.40200
H  53.77100 48.70100 46.03200
H  55.06700 48.74300 44.85400
H  51.42800 51.26300 42.97500
H  53.16500 51.25800 43.37300
H  51.66500 52.14100 45.80600
H  51.70600 53.09700 44.39100
H  53.23600 52.46400 45.03700
H  45.68400 51.09300 45.00900
H  46.24100 51.74000 43.48300
H  47.28900 51.78300 44.92300
H  44.39900 47.56600 41.08300
H  41.00900 45.15400 43.18100
H  40.76800 46.67500 44.03400
H  41.90900 45.36200 44.51400
Mg -11.18800 38.53300 41.45800
C  -9.46400 35.54100 40.76000
C  -8.67400 40.24600 39.71300
C  -13.23200 41.21000 41.15400
C  -13.83500 36.63300 42.66700
N  -9.43300 37.92900 40.21400
C  -8.87300 36.63200 40.14600
C  -7.45000 36.65200 39.62000
C  -7.22500 38.19000 39.29500
C  -8.54100 38.88300 39.80100
C  -5.88300 38.63900 39.87300
C  -7.28300 35.74400 38.39500
C  -6.06500 34.71100 38.56300
H  -4.87700 34.76400 37.51100
N  -10.92900 40.49200 40.74700
C  -9.81200 40.97700 40.03100
C  -10.03100 42.39400 39.69200
C  -11.29600 42.77200 40.18900
C  -11.87500 41.49300 40.73500
C  -9.02400 43.25400 39.00200
C  -11.92200 44.19700 40.06200
O  -11.17900 45.08300 39.64400
C  -13.30200 44.52200 40.51600
N  -13.28800 38.81300 41.56600
C  -13.90700 39.99800 41.49400
C  -15.39400 39.95400 41.77500
C  -15.54300 38.55900 42.39800
C  -14.11200 37.97600 42.29300
C  -16.03300 41.09100 42.63000
C  -16.62600 37.62100 41.67200
C  -17.33700 36.72400 42.68200
N  -11.60300 36.44800 41.75100
C  -12.69900 35.88500 42.32500
C  -12.41700 34.47300 42.46600
C  -11.18700 34.29800 41.82600
C  -10.70300 35.54800 41.40900
C  -13.41000 33.44900 42.98900
C  -10.22500 33.33100 41.43800
O  -10.25400 32.11400 41.50400
C  -9.01000 34.10800 40.88600
C  -7.85500 33.82900 41.80000
O  -7.09000 32.83100 41.70800
O  -7.53000 34.82000 42.77500
C  -6.55900 34.56200 43.85700
H  -7.76100 40.72800 39.35800
H  -13.85300 42.10100 41.04700
H  -14.67800 36.10100 43.11300
H  -6.64000 36.39600 40.30300
H  -7.01400 38.33900 38.23600
H  -5.09700 37.90400 39.69900
H  -6.03400 38.54400 40.94800
H  -5.73300 39.69500 39.64700
H  -7.29500 36.37000 37.50400
H  -8.23200 35.20800 38.36700
H  -6.49700 33.71300 38.63600
H  -5.52600 34.89200 39.49300
H  -8.92100 44.22700 39.48300
H  -8.99500 43.41600 37.92400
H  -8.05900 42.76400 39.13500
H  -13.50900 44.09900 41.49900
H  -14.00100 44.06500 39.81600
H  -13.50200 45.59300 40.47400
H  -15.72800 39.88100 40.74000
H  -15.68500 38.70400 43.46800
H  -16.57100 41.64200 41.85800
H  -15.39000 41.85000 43.07600
H  -16.72500 40.64900 43.34700
H  -16.09500 36.96600 40.98200
H  -17.27200 38.28900 41.10100
H  -18.34000 36.49400 42.32400
H  -17.54100 37.19400 43.64400
H  -16.88000 35.73500 42.69300
H  -13.78800 33.60400 43.99900
H  -13.09100 32.41000 42.90600
H  -14.24800 33.50500 42.29400
H  -8.72000 33.60200 39.96500
H  -6.85800 33.67800 44.42100
H  -6.57700 35.36900 44.58900
H  -5.58300 34.52400 43.37500

