158

Mg 47.11400 16.02900 28.45200
C  44.88300 15.65900 31.15500
C  48.54400 18.64700 30.12500
C  49.14900 16.41000 25.73100
C  44.96200 13.98900 26.43700
N  46.87900 16.88500 30.51100
C  45.92200 16.54600 31.38900
C  46.20100 17.30200 32.70300
C  47.31900 18.35600 32.37400
C  47.55900 18.00200 30.91200
C  46.72300 19.77600 32.56000
C  46.62300 16.29500 33.78900
C  46.76700 16.95600 35.20500
H  48.11900 16.87800 35.93900
N  48.61000 17.36200 28.03200
C  49.07800 18.32600 28.83900
C  50.17100 18.98200 28.18400
C  50.40100 18.35400 26.96200
C  49.39200 17.27600 26.86800
C  50.85500 20.21100 28.77400
C  51.41300 18.63900 25.85900
O  51.42200 17.95100 24.85500
C  52.46800 19.73200 25.96800
N  47.05000 15.28300 26.37200
C  48.06200 15.52500 25.44900
C  47.87000 14.62600 24.19300
C  46.54300 13.80400 24.53900
C  46.12000 14.41400 25.83900
C  47.79000 15.55500 22.98500
C  46.82400 12.25900 24.64000
C  47.32700 11.52600 23.37500
N  45.32900 15.07100 28.73100
C  44.58100 14.27600 27.85300
C  43.40500 13.80400 28.48900
C  43.48400 14.37800 29.77000
C  44.70100 15.13500 29.85900
C  42.28000 12.90300 27.91700
C  42.80600 14.43100 31.05800
O  41.74500 13.99500 31.37300
C  43.70400 15.21000 31.97600
C  42.88100 16.35200 32.51700
O  42.36900 17.25300 31.88700
O  42.72300 16.22400 33.88900
C  42.00900 17.41900 34.48700
H  48.88300 19.55900 30.62100
H  49.78600 16.33700 24.84700
H  44.25800 13.42800 25.81900
H  45.22000 17.72000 32.93200
H  48.14600 18.19800 33.06600
H  47.00800 20.45400 31.75600
H  47.27800 20.00000 33.47100
H  45.66600 19.89100 32.79800
H  47.55300 15.80200 33.51000
H  45.91600 15.49100 33.99600
H  46.06200 16.47600 35.88300
H  46.50900 18.01400 35.14200
H  50.46000 21.08300 28.25200
H  51.91900 20.43900 28.71200
H  50.59400 20.40900 29.81300
H  52.81000 19.94900 24.95600
H  53.25100 19.33900 26.61700
H  52.02100 20.66000 26.32400
H  48.64400 13.85900 24.17900
H  45.79300 13.83900 23.74800
H  46.82800 15.55000 22.47300
H  48.59100 15.40500 22.26100
H  47.71500 16.58000 23.34800
H  45.95300 11.72100 25.01200
H  47.63800 12.14600 25.35700
H  48.41100 11.46200 23.28000
H  46.90500 12.14800 22.58500
H  46.93500 10.51000 23.32500
H  41.43100 12.77000 28.58800
H  42.76500 11.94700 27.71900
H  41.91500 13.25600 26.95200
H  43.97400 14.54500 32.79600
H  41.56600 17.06300 35.41800
H  41.23500 17.91900 33.90500
H  42.80000 18.14600 34.67400
Mg 47.56000 45.30000 43.79100
C  44.19600 44.96500 43.03200
C  48.06900 42.13200 42.70900
C  50.76600 45.94600 43.93800
C  46.98000 48.72300 44.54000
N  46.32800 43.85300 42.91800
C  44.98900 43.89700 42.65300
C  44.53700 42.65400 41.90200
C  45.56000 41.59600 42.43600
C  46.73500 42.55900 42.74100
C  45.05100 40.83700 43.69600
C  44.51100 42.82700 40.36700
C  43.10600 42.72000 39.64600
H  43.11200 41.84700 38.29300
N  49.24800 44.11900 43.45700
C  49.25800 42.90700 42.88600
C  50.68700 42.44800 42.83000
C  51.49600 43.52100 43.34100
C  50.50600 44.59000 43.57200
C  51.03300 41.05100 42.35800
C  52.95000 43.42000 43.67800
O  53.63800 42.48800 43.30300
C  53.73800 44.56300 44.41300
N  48.65800 47.13600 44.00700
C  50.02300 47.13500 44.05000
C  50.65300 48.43000 44.47500
C  49.46400 49.33100 44.62700
C  48.27500 48.37600 44.42500
C  51.61200 48.42900 45.72400
C  49.42300 50.54000 43.59300
C  49.28900 51.90300 44.23300
N  45.92200 46.63600 43.88300
C  45.84200 47.91500 44.15800
C  44.42500 48.41300 44.13500
C  43.71500 47.26100 43.73300
C  44.70000 46.19100 43.56200
C  43.86900 49.74500 44.41900
C  42.38900 46.71100 43.32700
O  41.32100 47.31500 43.28000
C  42.69400 45.14500 42.91800
C  42.04100 44.35500 44.06100
O  41.15900 43.56600 43.89100
O  42.57300 44.67400 45.29900
C  42.32800 43.89500 46.47900
H  48.23400 41.05800 42.60000
H  51.83000 46.12100 44.11000
H  46.65400 49.74700 44.73200
H  43.54600 42.46800 42.31600
H  45.83000 40.89400 41.64700
H  44.00300 40.97200 43.96400
H  45.61800 41.19000 44.55700
H  45.27600 39.79800 43.45400
H  45.22900 42.12900 39.93700
H  44.89600 43.79800 40.05700
H  42.76600 43.65700 39.20600
H  42.30100 42.24300 40.20600
H  51.88700 40.92300 41.69300
H  50.23500 40.49500 41.86400
H  51.30100 40.47000 43.24000
H  54.00500 45.37000 43.73100
H  54.68000 44.19700 44.82100
H  53.13700 45.07300 45.16700
H  51.17600 48.81200 43.59800
H  49.43800 49.71400 45.64700
H  51.46200 49.24400 46.43200
H  52.59600 48.54800 45.27000
H  51.46500 47.44200 46.16200
H  48.58400 50.27300 42.95100
H  50.37200 50.56700 43.05700
H  48.28300 52.12100 44.59300
H  49.60100 52.59600 43.45300
H  49.95500 51.96200 45.09400
H  43.98000 50.38100 43.54100
H  44.54200 50.07900 45.20900
H  42.80800 49.60500 44.62600
H  42.31000 44.90800 41.92600
H  41.85500 44.58300 47.17900
H  43.22300 43.68600 47.06500
H  41.83900 42.93300 46.32600

