158

Mg 46.14700 24.94400 29.24800
C  46.72000 27.37200 31.66700
C  45.49600 22.70600 31.65400
C  45.93700 22.77700 26.77500
C  47.41400 27.43600 26.76200
N  46.10700 25.01800 31.31000
C  46.34000 26.11900 32.14000
C  46.01200 25.90600 33.57200
C  45.69200 24.37300 33.55000
C  45.76800 23.99100 32.04600
C  46.54400 23.50900 34.49800
C  44.99500 26.78100 34.28700
C  45.32200 27.36100 35.66400
H  44.20000 27.21600 36.76900
N  45.78600 22.98900 29.27200
C  45.38400 22.23300 30.32300
C  45.12900 20.89100 29.86100
C  45.25100 20.93700 28.40700
C  45.63700 22.30400 28.07600
C  44.73800 19.79000 30.82300
C  45.07400 19.79200 27.42500
O  45.16500 20.00200 26.18600
C  44.74600 18.33600 27.88500
N  46.70600 25.03300 27.00600
C  46.46100 23.97600 26.23100
C  46.95600 24.30200 24.76900
C  46.93600 25.87100 24.82200
C  47.07700 26.16300 26.27000
C  48.47300 23.78900 24.64100
C  45.57600 26.50000 24.22800
C  44.63000 27.35100 25.10800
N  46.92200 26.98000 29.13800
C  47.25400 27.87800 28.11100
C  47.68300 29.11000 28.74100
C  47.54400 29.00600 30.10700
C  47.02600 27.66100 30.32700
C  48.22500 30.26400 27.99900
C  47.64200 29.65900 31.40100
O  47.98400 30.80300 31.58800
C  47.14600 28.58500 32.47300
C  48.37500 28.30300 33.34300
O  49.21000 27.48500 33.05100
O  48.25600 28.99900 34.49600
C  49.28800 28.68200 35.49700
H  45.19900 22.04700 32.47300
H  45.84200 22.08800 25.93200
H  47.69200 28.08000 25.92500
H  46.86000 26.05600 34.24000
H  44.67200 24.17300 33.88000
H  46.68800 22.59600 33.92100
H  46.01800 23.34000 35.43800
H  47.48600 23.99400 34.75500
H  44.06000 26.24700 34.45700
H  44.76600 27.60700 33.61400
H  45.35600 28.42100 35.41500
H  46.27300 27.01300 36.06800
H  43.69800 19.53000 30.62400
H  44.92000 20.00300 31.87600
H  45.42100 18.98600 30.54900
H  44.70600 17.67500 27.01900
H  43.82300 18.32500 28.46500
H  45.49900 17.96600 28.58100
H  46.21100 23.88100 24.09300
H  47.82000 26.38400 24.44500
H  48.98700 24.33600 23.85200
H  48.38900 22.75700 24.29800
H  49.03400 23.77500 25.57500
H  45.03400 25.76200 23.63600
H  45.93700 27.17600 23.45300
H  43.58200 27.26100 24.82200
H  44.81000 28.42400 25.04400
H  44.64200 27.08200 26.16500
H  47.66300 31.17600 28.20200
H  48.12800 30.15500 26.91900
H  49.27600 30.44300 28.22400
H  46.36000 29.04100 33.07500
H  48.95000 27.82200 36.07500
H  49.32300 29.51200 36.20300
H  50.23800 28.46400 35.01000
Mg 15.61300 51.96100 25.18000
C  17.20000 50.81100 28.16100
C  13.05300 53.02300 27.28700
C  14.11700 53.40900 22.64700
C  18.25300 50.90400 23.34800
N  15.22100 51.96600 27.50900
C  16.07700 51.57000 28.47800
C  15.49800 51.89000 29.92100
C  14.11100 52.40300 29.57400
C  14.15600 52.48600 28.01400
C  12.86300 51.59900 30.19700
C  16.47200 52.91400 30.56200
C  16.44300 52.98000 32.13400
H  15.50300 52.10600 32.97100
N  13.72500 52.85100 24.94300
C  12.84400 53.20600 25.91900
C  11.61800 53.83700 25.30300
C  11.97500 54.10100 23.97200
C  13.27800 53.35800 23.77000
C  10.45600 54.24800 26.11100
C  11.23500 54.95700 22.93600
O  11.59900 55.12200 21.76800
C  10.02800 55.69500 23.27100
N  16.11100 52.24500 23.32100
C  15.39900 52.88200 22.39200
C  16.14800 52.95700 21.00000
C  17.51600 52.31100 21.43600
C  17.29200 51.77500 22.72600
C  15.43700 52.32800 19.80000
C  18.73700 53.26400 21.44500
C  19.71500 53.05800 20.27200
N  17.36900 51.03200 25.61300
C  18.34000 50.61200 24.73300
C  19.30100 49.84500 25.47100
C  18.92800 49.88000 26.81000
C  17.72600 50.55900 26.84500
C  20.54400 49.31900 24.91300
C  19.28000 49.53000 28.13800
O  20.17700 48.82200 28.61900
C  18.23100 50.19000 29.08100
C  17.64200 49.08700 29.98900
O  16.59400 48.54100 29.87100
O  18.46700 49.02800 31.07600
C  18.07700 48.26900 32.24500
H  12.26900 53.30500 27.99300
H  13.71000 54.00700 21.82900
H  19.09900 50.63900 22.71100
H  15.41900 51.04200 30.60100
H  14.06600 53.42300 29.95500
H  13.17800 50.77800 30.84100
H  12.23800 51.17300 29.41300
H  12.29800 52.28800 30.82500
H  16.17000 53.89700 30.19900
H  17.52400 52.81600 30.29400
H  16.17600 54.03300 32.22500
H  17.46700 52.78900 32.45300
H  10.26800 53.47600 26.85700
H  9.53500 54.28300 25.53000
H  10.63100 55.19500 26.62100
H  10.35500 56.10600 24.22600
H  9.26000 54.94100 23.44400
H  9.86000 56.48600 22.54000
H  16.22700 54.02400 20.79000
H  17.76800 51.55800 20.69000
H  15.21500 53.09100 19.05400
H  14.45600 51.90600 20.02000
H  16.02200 51.57700 19.27100
H  19.31100 53.08300 22.35400
H  18.34200 54.27700 21.36500
H  19.40200 52.41900 19.44600
H  20.62400 52.65000 20.71500
H  20.03600 54.00000 19.82800
H  21.33400 50.06800 24.96700
H  20.35400 49.16000 23.85200
H  20.74100 48.31700 25.29400
H  18.74300 50.97300 29.63900
H  17.78700 47.28400 31.87700
H  17.23700 48.64700 32.82700
H  18.90600 48.11200 32.93500

