158

Mg -1.06300 7.74500 25.83200
C  -0.30100 9.75300 28.57800
C  -0.98500 4.95000 27.89000
C  -1.94800 5.77100 23.23800
C  -1.06000 10.53900 23.74500
N  -0.66900 7.36800 28.04700
C  -0.50600 8.36100 28.97100
C  -0.52800 7.79500 30.34500
C  -0.73700 6.24800 30.14200
C  -0.87600 6.14400 28.63600
C  0.43100 5.38000 30.75200
C  -1.58500 8.36200 31.27300
C  -1.57500 7.95300 32.79200
H  -0.18400 7.80100 33.56100
N  -1.33000 5.61200 25.54600
C  -1.24500 4.65700 26.50000
C  -1.35000 3.40600 25.89000
C  -1.57100 3.61200 24.45900
C  -1.60300 5.05000 24.34500
C  -1.16900 2.20600 26.71500
C  -1.54200 2.63700 23.35300
O  -1.59500 2.88300 22.12000
C  -1.44000 1.15600 23.70700
N  -1.46700 8.13500 23.82500
C  -1.84800 7.11600 22.98100
C  -2.20400 7.65800 21.59900
C  -1.91900 9.25100 21.74900
C  -1.57000 9.32300 23.23900
C  -1.40700 7.01100 20.44500
C  -3.21800 10.12200 21.41100
C  -3.02500 11.58100 20.96900
N  -0.69800 9.69100 26.08700
C  -0.76700 10.72700 25.14100
C  -0.34400 11.97500 25.77300
C  -0.16700 11.62000 27.10200
C  -0.46400 10.24100 27.26900
C  -0.22100 13.30100 25.09400
C  0.19800 12.01200 28.41200
O  0.63500 13.09900 28.75200
C  -0.01500 10.88900 29.49500
C  1.24500 10.81200 30.27200
O  2.25300 10.40600 29.81300
O  1.04200 11.44600 31.45200
C  2.24600 11.63200 32.27800
H  -1.16700 4.12700 28.58400
H  -2.35300 5.23600 22.37700
H  -0.90800 11.38300 23.07000
H  0.45300 8.09600 30.71300
H  -1.61200 5.84800 30.65200
H  1.13400 6.13300 31.10900
H  0.97600 4.81500 29.99500
H  0.07900 4.68700 31.51600
H  -2.59100 8.18700 30.89100
H  -1.46100 9.44500 31.24000
H  -2.32700 7.17200 32.90300
H  -1.91000 8.87500 33.26700
H  -1.46400 1.25600 26.26900
H  -1.88100 2.29500 27.53500
H  -0.15200 2.18700 27.10600
H  -0.55000 1.05800 24.32800
H  -1.26500 0.65700 22.75400
H  -2.25500 0.61600 24.18900
H  -3.27800 7.60400 21.42300
H  -1.00000 9.55600 21.24800
H  -1.19100 7.71800 19.64400
H  -2.20000 6.33700 20.12100
H  -0.55200 6.46600 20.84600
H  -3.91200 10.17900 22.25000
H  -3.77400 9.67200 20.58800
H  -3.58100 11.73300 20.04400
H  -1.99500 11.92800 20.88000
H  -3.44200 12.22700 21.74200
H  0.46400 13.26000 24.24800
H  0.23500 13.99400 25.80200
H  -1.20000 13.73700 24.89400
H  -0.86000 11.18200 30.11900
H  2.33600 10.89500 33.07600
H  2.10000 12.60200 32.75400
H  3.17900 11.65400 31.71500
Mg 10.21900 47.16300 25.45600
C  8.04700 47.50500 28.27000
C  12.73200 48.33000 27.48200
C  12.34700 46.48200 22.98200
C  7.45900 46.50900 23.50900
N  10.33200 48.02700 27.62800
C  9.41000 47.85800 28.59800
C  9.87200 48.38800 29.95700
C  11.29500 48.97300 29.60200
C  11.51300 48.43200 28.13900
C  11.30900 50.46900 29.64100
C  9.95400 47.27000 31.03800
C  10.74500 47.66600 32.25100
H  10.00900 47.88600 33.58400
N  12.32700 47.39200 25.20300
C  13.17900 47.79400 26.18700
C  14.52400 47.54600 25.72400
C  14.40300 46.90800 24.43400
C  13.01500 46.87500 24.13200
C  15.82300 47.78200 26.65700
C  15.49300 46.43900 23.47800
O  15.33900 45.90700 22.41500
C  16.94000 46.64100 23.77400
N  9.87200 46.73100 23.53600
C  10.94100 46.34700 22.71600
C  10.43300 45.89600 21.31900
C  8.86800 45.96600 21.49500
C  8.68900 46.28200 22.93900
C  11.04000 46.79900 20.12300
C  8.08300 44.78600 21.02300
C  7.23400 45.04500 19.76900
N  8.11400 47.17000 25.73100
C  7.09000 46.86100 24.86700
C  5.80900 46.95100 25.55300
C  6.16500 47.05100 26.88100
C  7.57100 47.22900 26.95800
C  4.52600 46.73200 24.99600
C  5.59700 47.05500 28.20000
O  4.43200 46.82200 28.61500
C  6.85000 47.20600 29.17600
C  7.07500 45.91200 29.93500
O  7.88500 45.03100 29.76200
O  6.17100 45.93600 31.00800
C  6.31200 44.86500 32.01000
H  13.49700 48.69600 28.17000
H  12.98900 46.33000 22.11200
H  6.61700 46.27800 22.85300
H  9.17100 49.11100 30.37400
H  12.11200 48.49400 30.14200
H  12.36900 50.72100 29.67600
H  10.76800 50.73200 30.55000
H  10.79600 50.82600 28.74900
H  10.39100 46.40100 30.54700
H  8.94100 47.09300 31.39800
H  11.47900 48.46200 32.11900
H  11.32700 46.77300 32.47700
H  16.43100 46.88200 26.56200
H  15.55200 47.86500 27.70900
H  16.28400 48.73200 26.38600
H  17.48000 46.76800 22.83500
H  17.12300 45.77000 24.40300
H  17.06900 47.52300 24.40200
H  10.69700 44.84100 21.24200
H  8.55000 46.91700 21.06700
H  10.21700 47.17800 19.51700
H  11.59900 46.16900 19.43100
H  11.63600 47.63400 20.49300
H  7.52700 44.30100 21.82500
H  8.82000 44.09400 20.61400
H  7.33900 46.06600 19.40200
H  6.22600 44.74800 20.05800
H  7.59600 44.39400 18.97300
H  4.63200 46.45400 23.94800
H  3.97800 47.67100 25.07300
H  3.93500 46.05200 25.61000
H  6.71400 48.02300 29.88400
H  6.91600 44.01900 31.68000
H  5.35600 44.40900 32.26700
H  6.66000 45.19100 32.99000

