158

Mg 6.84700 55.10300 42.08700
C  6.08400 51.64600 41.49200
C  10.07900 54.33800 41.01200
C  7.45200 58.43200 41.97900
C  3.62200 55.57800 42.72300
N  7.96800 53.23300 41.34400
C  7.51900 51.92100 41.29600
C  8.60600 50.94300 40.97700
C  9.90300 51.73800 41.21500
C  9.31200 53.19600 41.20300
C  10.61900 51.40700 42.59200
C  8.56000 50.29200 39.50500
C  8.71100 51.29900 38.29100
H  8.00100 51.14700 36.96700
N  8.57100 56.26700 41.57700
C  9.73800 55.73900 41.08100
C  10.64500 56.89900 40.68700
C  9.91800 58.14200 41.08500
C  8.56900 57.64400 41.61900
C  11.93300 56.68800 39.92500
C  10.39600 59.58300 40.85800
O  11.52100 59.73100 40.42400
C  9.60100 60.77600 41.08000
N  5.79200 56.67800 42.42900
C  6.14000 58.02100 42.40500
C  5.03700 59.02700 42.74700
C  3.85400 58.02100 43.00200
C  4.45200 56.66000 42.62600
C  5.52500 59.95800 43.91700
C  2.53000 58.52200 42.26200
C  1.41400 59.04400 43.12300
N  5.13200 53.88800 42.17200
C  3.89600 54.25000 42.53300
C  3.08500 53.00700 42.68300
C  3.96900 51.94600 42.37500
C  5.14600 52.54600 42.00100
C  1.57700 52.94900 43.05800
C  4.04200 50.50200 42.28100
O  3.26800 49.58300 42.60500
C  5.43200 50.29000 41.62000
C  5.26100 49.60300 40.34100
O  4.60100 49.94900 39.34700
O  6.10800 48.54000 40.28200
C  5.97000 47.65800 39.09900
H  11.04000 54.07200 40.56500
H  7.55900 59.51700 41.90300
H  2.55800 55.75400 42.89200
H  8.41800 50.17400 41.72600
H  10.56000 51.53200 40.37000
H  10.16700 50.55300 43.09700
H  10.44000 52.23300 43.28000
H  11.68700 51.29400 42.40100
H  7.62900 49.75500 39.32200
H  9.35000 49.55000 39.39400
H  9.74500 51.15400 37.97900
H  8.74100 52.36500 38.51900
H  11.88300 55.90600 39.16800
H  12.70400 56.45100 40.65800
H  12.11100 57.62000 39.38800
H  8.81200 60.85600 40.33200
H  10.10400 61.72500 40.89500
H  9.21500 60.85200 42.09600
H  4.84100 59.62800 41.86000
H  3.82300 58.07200 44.09000
H  6.43600 59.81900 44.49900
H  4.58800 60.04300 44.46600
H  5.54800 60.97100 43.51300
H  2.21700 57.66300 41.66800
H  2.80900 59.35300 41.61500
H  1.47500 60.13200 43.11300
H  1.51200 58.66400 44.14000
H  0.38600 58.80000 42.85800
H  1.15700 53.85700 43.48900
H  1.34900 52.11900 43.72700
H  1.08300 52.66100 42.13000
H  6.01500 49.66200 42.29400
H  5.99500 48.19500 38.15100
H  5.08200 47.08100 39.35400
H  6.77100 46.91800 39.12100
Mg -5.31600 25.07300 25.66900
C  -4.09000 26.84100 28.55800
C  -6.87000 22.93100 28.00700
C  -6.22700 23.19000 23.07700
C  -3.26000 27.03600 23.73000
N  -5.55500 24.97300 28.05600
C  -4.88500 25.72300 28.94900
C  -5.27800 25.31600 30.39400
C  -5.95900 23.87600 30.16600
C  -6.10300 23.88500 28.68600
C  -5.24400 22.60000 30.68100
C  -6.25000 26.37000 30.99200
C  -6.73100 26.16100 32.37700
H  -6.23200 24.96700 33.20500
N  -6.41000 23.28700 25.54400
C  -7.14200 22.70600 26.55300
C  -8.04400 21.69500 25.96600
C  -7.78700 21.69400 24.55600
C  -6.80200 22.73800 24.31600
C  -9.10500 20.91100 26.80700
C  -8.40700 20.85400 23.47600
O  -7.98400 20.94000 22.33500
C  -9.48200 19.76900 23.86700
N  -4.79200 25.07000 23.74000
C  -5.29300 24.19900 22.79700
C  -4.85300 24.53000 21.34500
C  -4.05300 25.90900 21.66200
C  -3.98900 26.02800 23.11200
C  -4.04700 23.36600 20.64200
C  -4.74200 27.20400 21.19800
C  -3.79400 28.16300 20.47200
N  -3.88500 26.67200 25.98900
C  -3.16000 27.38300 25.09400
C  -2.54700 28.49600 25.72900
C  -2.77700 28.24000 27.13100
C  -3.62200 27.11000 27.28600
C  -1.84400 29.63300 24.99300
C  -2.50100 28.68400 28.43700
O  -1.81900 29.59000 28.95400
C  -3.33800 27.80900 29.44000
C  -2.36900 27.13700 30.43400
O  -1.43800 26.44600 30.03500
O  -2.79200 27.20700 31.71100
C  -1.94700 26.61000 32.78700
H  -7.36100 22.18000 28.63000
H  -6.56700 22.63400 22.20000
H  -2.67200 27.77100 23.17700
H  -4.34300 25.17000 30.93500
H  -6.89800 23.94100 30.71500
H  -4.52900 22.16200 29.98400
H  -5.93000 21.82800 31.03200
H  -4.69800 22.77200 31.60900
H  -7.14500 26.30600 30.37300
H  -5.81300 27.36400 30.88900
H  -7.81800 26.08300 32.34400
H  -6.47800 27.07100 32.92100
H  -9.35700 21.51100 27.68100
H  -8.67800 19.98700 27.19700
H  -10.10200 20.76900 26.38900
H  -9.04000 19.32500 24.75900
H  -9.58700 18.99800 23.10300
H  -10.42400 20.27300 24.08000
H  -5.67300 24.77500 20.67000
H  -3.01500 25.87100 21.32900
H  -2.97000 23.52000 20.58100
H  -4.36800 23.19900 19.61400
H  -4.22100 22.44200 21.19300
H  -5.21200 27.70500 22.04400
H  -5.54100 26.97200 20.49400
H  -4.28200 28.53300 19.57100
H  -2.89700 27.61800 20.18000
H  -3.45300 29.02000 21.05300
H  -1.83300 30.58700 25.52000
H  -2.30400 29.81900 24.02300
H  -0.78000 29.53400 24.77700
H  -4.03700 28.48700 29.92800
H  -2.06100 25.53200 32.67400
H  -2.24200 26.96900 33.77300
H  -0.92000 26.91300 32.58000

