158

Mg 53.65800 24.82400 45.52700
C  51.17400 27.03500 44.41700
C  52.02800 22.20200 43.88200
C  56.54400 22.86400 45.78100
C  55.51600 27.62800 46.49800
N  51.80300 24.74600 44.18100
C  50.95800 25.72500 43.89800
C  49.79700 25.10200 43.03500
C  49.89100 23.57200 43.30800
C  51.32400 23.53600 43.84700
C  48.78400 22.95100 44.26500
C  49.70400 25.52800 41.53300
C  50.99300 25.52700 40.69200
H  52.17300 24.59700 41.03500
N  54.12900 22.77200 44.95900
C  53.27900 21.85200 44.35000
C  53.96000 20.54500 44.41800
C  55.27200 20.74300 44.99500
C  55.35500 22.19600 45.25600
C  53.31500 19.39600 43.70900
C  56.31700 19.66400 45.25000
O  56.10600 18.51500 44.91500
C  57.58500 19.83900 45.95400
N  55.73900 25.19500 45.92500
C  56.70000 24.24200 46.03400
C  58.02700 24.76300 46.59600
C  57.74300 26.32600 46.51700
C  56.20800 26.40500 46.33100
C  58.29100 24.22800 48.00900
C  58.55600 27.13600 45.48900
C  58.69700 28.64200 45.71100
N  53.36700 26.88800 45.60700
C  54.19400 27.85600 46.17400
C  53.41400 29.02100 46.32400
C  52.26700 28.82300 45.57400
C  52.32100 27.48700 45.07600
C  53.79500 30.23100 47.05200
C  51.04800 29.41900 45.11800
O  50.57400 30.55500 45.28000
C  50.29500 28.30500 44.29600
C  50.03500 28.72400 42.90400
O  50.88800 28.93800 42.03800
O  48.65000 28.82800 42.71900
C  48.28900 29.18400 41.31600
H  51.56500 21.37200 43.34400
H  57.49000 22.33600 45.91600
H  56.02200 28.53600 46.83300
H  48.88200 25.54100 43.43400
H  49.88800 22.92600 42.43000
H  47.86800 23.54200 44.23000
H  49.12600 22.76400 45.28300
H  48.69700 21.96200 43.81600
H  49.18100 26.47100 41.37400
H  49.08400 24.80200 41.00800
H  51.33700 26.55200 40.55300
H  50.67500 25.32500 39.67000
H  53.11000 19.64800 42.66800
H  52.29800 19.18100 44.03800
H  53.84500 18.44400 43.73900
H  57.81400 18.83700 46.31500
H  57.50700 20.44000 46.86100
H  58.36700 20.25900 45.32200
H  58.81500 24.46700 45.90400
H  58.05300 26.78300 47.45700
H  58.05200 23.17500 48.15800
H  57.83600 24.86800 48.76500
H  59.37800 24.21900 47.93800
H  58.07200 27.02900 44.51800
H  59.54500 26.67800 45.45300
H  59.73900 28.70500 46.02400
H  57.99800 28.98000 46.47600
H  58.53100 29.17600 44.77600
H  54.37000 30.08200 47.96600
H  52.89200 30.78700 47.30400
H  54.45100 30.85900 46.45100
H  49.34000 28.10800 44.78400
H  48.76800 28.55200 40.56800
H  48.37600 30.24800 41.09300
H  47.27200 28.96500 40.98900
Mg 49.70200 45.44500 42.57600
C  46.21900 45.30700 41.37000
C  49.55300 42.06400 42.33500
C  52.83800 45.67700 42.83900
C  49.19600 48.82300 42.46700
N  48.01700 43.91000 41.89800
C  46.79100 44.05200 41.41600
C  46.06400 42.75400 41.15400
C  47.10400 41.71400 41.70500
C  48.26900 42.58900 42.00200
C  46.56000 40.98900 43.06300
C  45.59300 42.53100 39.70600
C  46.67300 42.78000 38.66600
H  46.12700 43.43400 37.35100
N  51.09100 43.98000 42.71300
C  50.83800 42.64600 42.50800
C  52.08600 41.99100 42.58300
C  53.16400 43.00200 42.74600
C  52.41400 44.29300 42.78800
C  52.13300 40.41100 42.67500
C  54.59300 42.80000 42.86200
O  55.03900 41.62000 42.97500
C  55.69300 43.95900 42.89300
N  50.92200 47.05400 42.48800
C  52.21200 46.93000 42.84400
C  52.84200 48.30300 42.92500
C  51.56800 49.25200 43.17000
C  50.48500 48.32600 42.63800
C  53.77600 48.44400 44.17700
C  51.66500 50.63500 42.38700
C  51.14100 51.78800 43.30100
N  48.07400 46.87800 42.07000
C  48.04300 48.19600 42.05800
C  46.75500 48.76000 41.61300
C  46.05900 47.56500 41.33900
C  46.85400 46.47500 41.74400
C  46.48600 50.17500 41.49300
C  44.71100 47.18800 40.96100
O  43.72700 47.84200 40.62100
C  44.71800 45.68600 41.02300
C  43.65300 45.11700 41.95200
O  42.49600 44.92300 41.68200
O  44.25500 44.96600 43.15100
C  43.42200 44.47600 44.27500
H  49.60200 41.00000 42.09500
H  53.88000 45.68500 43.16300
H  49.04300 49.90000 42.55600
H  45.17000 42.74000 41.77800
H  47.35100 40.90600 41.01600
H  45.48200 40.83500 43.09700
H  46.88700 41.58200 43.91700
H  46.97500 39.98100 43.06300
H  44.72700 43.17800 39.56900
H  45.26100 41.51100 39.51200
H  47.06800 41.81000 38.36600
H  47.54600 43.34100 39.00000
H  52.83900 40.20500 41.87000
H  51.18400 39.90500 42.49700
H  52.48700 40.22400 43.68900
H  55.59200 44.53900 41.97600
H  56.63200 43.41500 42.79100
H  55.69100 44.44400 43.86900
H  53.32500 48.51200 41.97000
H  51.33500 49.27600 44.23400
H  54.48000 47.62100 44.29700
H  53.27600 48.53000 45.14200
H  54.44700 49.26600 43.93000
H  51.00100 50.50300 41.53300
H  52.67500 50.82000 42.02200
H  50.13000 51.97400 42.94100
H  51.74100 52.68600 43.15600
H  51.09300 51.59400 44.37200
H  45.65600 50.20300 40.78700
H  47.32800 50.65300 40.99400
H  46.24900 50.64300 42.44900
H  44.44600 45.32600 40.03000
H  43.90400 43.54700 44.57900
H  42.38800 44.20900 44.05600
H  43.41900 45.02000 45.21900

