158

Mg 39.64700 9.87500 29.89700
C  41.74500 11.19300 32.48000
C  37.52400 8.91700 32.56300
C  37.82200 8.23800 27.61300
C  41.90800 10.97800 27.55100
N  39.75100 9.90600 32.34400
C  40.66300 10.57100 33.09700
C  40.22600 10.58100 34.55400
C  38.89000 9.73700 34.51800
C  38.71300 9.56600 33.01200
C  38.85700 8.34600 35.23300
C  40.01900 11.99900 35.16400
C  40.92600 12.32900 36.37000
H  40.25300 12.72800 37.69700
N  37.86700 8.71400 30.08500
C  37.07800 8.53500 31.26400
C  35.90300 7.84100 30.76000
C  36.09200 7.53900 29.35500
C  37.28200 8.17700 28.93900
C  34.79300 7.48000 31.75400
C  35.14900 6.70800 28.50700
O  35.43600 6.35200 27.35700
C  33.87100 6.37500 29.02500
N  39.78000 9.84800 27.78000
C  38.89700 8.99800 27.08700
C  39.30500 8.98100 25.58700
C  40.54100 10.02400 25.57900
C  40.79500 10.24700 27.03900
C  39.61300 7.60400 25.03400
C  40.22900 11.25800 24.71000
C  41.39500 12.19600 24.44000
N  41.47900 10.80800 29.96600
C  42.26400 11.22100 28.89100
C  43.47100 11.94800 29.38600
C  43.25800 11.99700 30.78900
C  42.01300 11.26900 31.07600
C  44.57600 12.45500 28.49700
C  43.83300 12.48300 32.00900
O  44.86100 13.17300 32.17200
C  42.84800 12.03800 33.18100
C  43.59500 11.13600 34.07300
O  43.80200 9.92400 33.97600
O  43.96300 11.80300 35.23500
C  44.72200 11.11300 36.23500
H  36.75000 8.85300 33.33000
H  37.16900 7.83300 26.83800
H  42.58500 11.20900 26.72600
H  41.00400 9.98000 35.02400
H  38.03300 10.29800 34.88800
H  39.85900 7.93500 35.36200
H  38.46200 7.51300 34.65300
H  38.30700 8.35500 36.17400
H  38.98700 12.11900 35.49400
H  40.12400 12.76800 34.39900
H  41.30500 13.31200 36.09100
H  41.65300 11.53700 36.54800
H  34.80100 8.18000 32.58900
H  34.96100 6.44800 32.05900
H  33.83600 7.58900 31.24300
H  33.41100 7.31500 29.33100
H  34.02200 5.63000 29.80600
H  33.26100 5.85400 28.28800
H  38.39300 9.34400 25.11400
H  41.38200 9.51000 25.11400
H  39.71600 6.86100 25.82500
H  40.41400 7.56700 24.29500
H  38.70000 7.29000 24.53000
H  39.40100 11.86000 25.08300
H  39.89300 10.83300 23.76400
H  41.16700 12.68500 23.49300
H  42.36500 11.70100 24.39400
H  41.41200 13.03700 25.13200
H  45.52600 11.99000 28.76300
H  44.57200 13.48300 28.85900
H  44.48500 12.35300 27.41500
H  42.41400 12.94400 33.60500
H  45.56200 10.62200 35.74300
H  44.15100 10.27500 36.63500
H  45.06600 11.74300 37.05500
Mg 46.53500 26.02100 29.03500
C  47.65400 27.77600 31.92900
C  45.25000 23.66600 31.22700
C  45.94100 24.06600 26.50800
C  48.65300 28.06500 27.12600
N  46.47000 25.77800 31.30200
C  46.91900 26.63800 32.24400
C  46.55700 26.13300 33.58000
C  45.72200 24.86600 33.38300
C  45.90000 24.69000 31.90100
C  46.16200 23.65600 34.18000
C  45.86900 27.29300 34.47300
C  46.51900 27.50900 35.82400
H  45.82300 28.21500 37.03800
N  45.56600 24.20700 28.91500
C  45.00100 23.44200 29.89500
C  44.33100 22.26000 29.21200
C  44.50100 22.43700 27.83700
C  45.38300 23.58800 27.67900
C  43.73600 21.12200 30.00000
C  44.12700 21.59800 26.59800
O  44.35600 21.86600 25.40000
C  43.39000 20.34200 26.91500
N  47.35900 25.98000 27.07500
C  46.84600 25.11900 26.19900
C  47.41600 25.39500 24.77000
C  48.07500 26.88600 24.94500
C  48.04200 27.05200 26.48100
C  48.26000 24.19800 24.27100
C  47.22500 27.96600 24.24900
C  47.01900 27.69800 22.74700
N  47.82700 27.61700 29.41000
C  48.56400 28.40000 28.47500
C  49.14300 29.53900 29.16200
C  48.88200 29.29600 30.56900
C  48.05300 28.15000 30.60900
C  50.07000 30.52400 28.53800
C  49.12800 29.72500 31.87200
O  49.94100 30.58800 32.21500
C  48.43100 28.78700 32.80500
C  49.52700 28.09800 33.42100
O  49.96200 27.08100 32.90500
O  49.85300 28.55700 34.65300
C  50.77400 27.70900 35.35000
H  44.97700 22.75700 31.76700
H  45.67700 23.64400 25.53700
H  48.87600 28.75700 26.31100
H  47.54700 25.95300 33.99900
H  44.68700 25.03600 33.67900
H  47.15400 23.53200 33.74700
H  45.56200 22.76600 33.99000
H  46.43600 23.81100 35.22300
H  44.87900 26.91100 34.72300
H  45.74600 28.24100 33.95000
H  47.49600 27.97200 35.68500
H  46.75900 26.50800 36.18200
H  42.66700 21.30600 29.89500
H  43.91700 21.07300 31.07400
H  43.92000 20.10800 29.64600
H  43.90300 19.56000 27.47500
H  43.06900 19.86100 25.99100
H  42.55600 20.70500 27.51500
H  46.54200 25.39300 24.11800
H  49.07900 27.04300 24.55100
H  48.19000 23.22300 24.75300
H  49.28800 24.49700 24.48000
H  48.20500 24.16300 23.18300
H  47.80600 28.88300 24.34900
H  46.26400 28.07700 24.75200
H  47.52100 26.79200 22.40500
H  47.50300 28.46600 22.14300
H  45.95800 27.82400 22.53300
H  50.06800 31.55700 28.88700
H  49.63100 30.55400 27.54100
H  51.05900 30.14900 28.27400
H  47.90800 29.33000 33.59200
H  50.42300 26.86200 35.94100
H  51.33500 28.36600 36.01400
H  51.46900 27.36700 34.58400

