158

Mg 42.94400 2.80400 47.65200
C  40.61900 5.27500 47.19000
C  40.38900 0.43600 47.47100
C  45.16900 0.44600 46.86600
C  45.48100 5.21200 47.04700
N  40.80000 2.84200 47.32300
C  40.06600 3.99800 47.15200
C  38.58000 3.70000 46.83200
C  38.53100 2.17200 47.11500
C  40.00600 1.77600 47.34300
C  37.52700 1.74900 48.20100
C  38.35900 4.11700 45.35100
C  37.20900 5.12700 45.03700
H  37.43200 6.06800 43.80500
N  42.86400 0.72400 47.42700
C  41.71800 -0.04000 47.41900
C  42.05800 -1.51000 47.20300
C  43.48000 -1.51000 46.94800
C  43.92300 -0.08400 47.13500
C  41.02500 -2.59800 47.20400
C  44.28100 -2.78400 46.68300
O  43.77400 -3.90700 46.57900
C  45.74200 -2.76000 46.46600
N  45.01800 2.78300 47.11400
C  45.75000 1.69400 46.83100
C  47.25700 1.94000 46.57000
C  47.35600 3.50800 46.71400
C  45.84600 3.86100 46.93000
C  48.21200 1.11000 47.47600
C  47.96200 4.20900 45.41400
C  48.86200 5.44800 45.69800
N  43.06600 4.88900 47.29200
C  44.14100 5.71100 47.18900
C  43.69700 7.03400 46.93000
C  42.30300 6.97200 47.03100
C  42.00500 5.57700 47.24000
C  44.58100 8.26000 46.88600
C  41.03600 7.68200 46.95300
O  40.75500 8.84300 46.76500
C  39.92100 6.63100 47.09600
C  39.25400 6.83300 48.45200
O  39.75200 6.48900 49.55200
O  37.93900 7.29600 48.32600
C  37.19500 7.54600 49.58500
H  39.60000 -0.30900 47.35100
H  45.83600 -0.32200 46.46700
H  46.20300 6.02500 46.95000
H  37.90600 4.20700 47.52300
H  38.33600 1.56500 46.23100
H  37.06300 2.63300 48.63700
H  38.06600 1.30100 49.03500
H  36.72300 1.13900 47.78800
H  38.06900 3.18900 44.85900
H  39.31900 4.36000 44.89500
H  37.05600 5.79200 45.88600
H  36.34300 4.50300 44.81700
H  41.33800 -3.33700 46.46700
H  40.04900 -2.25500 46.85900
H  40.97400 -3.20800 48.10600
H  46.10400 -2.19000 45.61000
H  46.17900 -3.75600 46.40000
H  46.13300 -2.26100 47.35300
H  47.40600 1.52400 45.57400
H  48.00400 3.86000 47.51700
H  47.60000 0.80000 48.32400
H  48.91800 1.78300 47.96400
H  48.67500 0.31300 46.89600
H  47.16800 4.65500 44.81400
H  48.52100 3.51800 44.78400
H  49.45900 5.75300 44.83900
H  49.50400 5.33700 46.57200
H  48.26800 6.27000 46.09800
H  45.21300 8.22000 45.99900
H  45.22200 8.36100 47.76200
H  43.97800 9.16800 46.87300
H  39.15300 6.82800 46.34800
H  37.49100 6.88900 50.40300
H  36.13800 7.43500 49.34500
H  37.35100 8.58500 49.87500
Mg 52.88300 24.18100 45.45700
C  50.08800 26.33500 44.76600
C  51.14000 21.78200 43.88700
C  55.65600 22.53600 45.53400
C  54.52000 27.11200 46.58200
N  50.89300 24.22100 44.19700
C  49.97800 25.12900 44.04300
C  48.74400 24.51200 43.26800
C  48.89900 23.01100 43.52300
C  50.40700 22.98500 43.94800
C  48.12000 22.35000 44.60500
C  48.75400 24.93700 41.76200
C  47.30100 25.04200 41.16500
H  46.89700 23.87300 40.23400
N  53.34800 22.41000 44.76500
C  52.51500 21.50500 44.21200
C  53.22700 20.25900 44.09400
C  54.55900 20.51300 44.55400
C  54.58200 21.93700 44.98900
C  52.65900 19.04700 43.37100
C  55.72600 19.48200 44.52500
O  55.51600 18.33300 44.06500
C  57.15500 19.80900 44.87400
N  54.85200 24.79800 45.86400
C  55.78500 23.87600 45.98000
C  56.95300 24.39200 46.85400
C  56.73000 25.94900 46.73600
C  55.27400 25.94300 46.38500
C  57.04300 23.81700 48.31400
C  57.54300 26.63800 45.62300
C  58.49800 27.79300 45.98200
N  52.39200 26.28200 45.87400
C  53.16100 27.32700 46.37100
C  52.29400 28.50300 46.56500
C  51.09200 28.13300 45.94900
C  51.21700 26.76600 45.51600
C  52.74400 29.89900 47.13300
C  49.73500 28.57300 45.68200
O  49.20600 29.57900 46.08100
C  49.13700 27.58300 44.72300
C  49.04800 28.25800 43.44400
O  49.93600 28.49100 42.67800
O  47.66300 28.35100 43.25400
C  47.27100 28.84400 41.91900
H  50.55100 20.99100 43.41700
H  56.50300 21.90800 45.81800
H  55.14400 27.96000 46.87400
H  47.73400 24.77900 43.57800
H  48.70600 22.48100 42.59000
H  47.42500 23.05900 45.05600
H  48.81100 21.92100 45.33000
H  47.59700 21.47900 44.21000
H  49.28800 24.24800 41.10700
H  49.24600 25.90800 41.81100
H  47.38200 25.89200 40.48800
H  46.52000 25.17200 41.91400
H  52.96000 18.90200 42.33300
H  51.58900 19.25700 43.34500
H  52.77600 18.07000 43.84000
H  57.84200 19.07100 44.46100
H  57.06500 19.82500 45.96000
H  57.43000 20.75600 44.40900
H  57.88000 24.12000 46.34900
H  56.95400 26.31000 47.73900
H  56.43000 22.92100 48.42000
H  56.76800 24.61500 49.00400
H  58.10200 23.60900 48.46400
H  56.90300 27.06900 44.85300
H  58.00900 25.82600 45.06400
H  58.41900 27.92800 47.06000
H  58.31000 28.77100 45.53900
H  59.53700 27.50200 45.82800
H  52.06700 30.26000 47.90800
H  52.75400 30.59100 46.29000
H  53.75000 29.83100 47.54700
H  48.10600 27.28200 44.91100
H  47.07400 29.91400 41.99000
H  46.33600 28.35200 41.65000
H  48.00800 28.50200 41.19200

