158

Mg 35.15700 49.18600 25.10500
C  35.21400 47.51400 28.23300
C  33.78700 52.00400 26.73900
C  34.43400 50.49300 22.16700
C  36.04200 46.13500 23.63400
N  34.48500 49.64600 27.24500
C  34.73600 48.86800 28.36800
C  34.29300 49.60400 29.65700
C  33.77400 51.02200 29.12000
C  34.08500 50.94100 27.59400
C  32.28800 51.41700 29.43800
C  35.48500 49.67000 30.62300
C  35.19000 49.15100 32.07800
H  33.68800 48.96200 32.55300
N  34.29200 51.04700 24.49600
C  33.84200 52.06600 25.31600
C  33.30600 53.20400 24.45600
C  33.40800 52.70500 23.11700
C  34.07600 51.39200 23.16700
C  32.62300 54.47700 25.08000
C  33.01100 53.36400 21.84300
O  33.06300 52.81600 20.69300
C  32.33200 54.76200 21.80200
N  35.38200 48.45100 23.15600
C  35.05400 49.21300 22.14100
C  35.38700 48.48800 20.77900
C  35.90700 47.08500 21.28400
C  35.76600 47.20100 22.77100
C  34.20700 48.40700 19.78700
C  37.33000 46.84000 20.79500
C  38.33900 47.85600 21.39900
N  35.64700 47.22200 25.74200
C  36.09700 46.09700 25.02000
C  36.40700 45.00300 25.99600
C  36.11900 45.56400 27.23300
C  35.65800 46.88400 27.03000
C  36.78300 43.54600 25.76200
C  36.05500 45.19300 28.59300
O  36.31900 44.17000 29.24200
C  35.44800 46.52600 29.31600
C  34.22300 45.95600 30.05100
O  33.07400 45.96300 29.65400
O  34.53800 45.46500 31.28000
C  33.43500 44.81100 32.10700
H  33.49300 52.93300 27.23200
H  34.22300 50.94000 21.19300
H  36.38700 45.21600 23.15700
H  33.51700 48.91600 29.99100
H  34.44700 51.73700 29.59500
H  31.57000 50.63500 29.68500
H  31.92400 51.90300 28.53200
H  32.39500 52.14000 30.24600
H  36.03900 50.59700 30.76600
H  36.26200 49.01400 30.23100
H  35.79100 49.76700 32.74600
H  35.56800 48.13500 32.18900
H  32.52600 55.41500 24.53200
H  33.04200 54.71500 26.05800
H  31.62600 54.18100 25.40600
H  32.45000 55.03100 20.75200
H  32.91600 55.50400 22.34700
H  31.32300 54.56000 22.16000
H  36.16700 49.06300 20.27900
H  35.26200 46.25600 20.99300
H  34.62700 48.55400 18.79200
H  33.31600 49.02400 19.90600
H  33.75700 47.41500 19.78300
H  37.31500 47.09800 19.73600
H  37.73300 45.83000 20.87000
H  38.02600 48.52300 22.20200
H  38.62900 48.44100 20.52700
H  39.23900 47.34400 21.73900
H  37.20200 43.60100 24.75700
H  35.91800 42.88300 25.76000
H  37.60000 43.34500 26.45500
H  36.21500 46.93400 29.97400
H  33.24000 43.75100 31.94400
H  32.42500 45.19600 31.96400
H  33.66300 44.91100 33.16800
Mg -8.90200 40.78400 41.15400
C  -8.14700 37.48900 40.47000
C  -5.96600 41.71500 39.58500
C  -10.04400 43.82900 41.07800
C  -12.18900 39.57300 42.22000
N  -7.28800 39.76900 40.05600
C  -7.22500 38.41000 39.94300
C  -5.97700 37.98400 39.12000
C  -5.11800 39.27500 39.19100
C  -6.19400 40.34700 39.56700
C  -3.98500 39.25800 40.33100
C  -6.34700 37.56200 37.73200
C  -5.87300 36.20100 37.29000
H  -4.91100 36.29600 36.04400
N  -8.12200 42.54100 40.50100
C  -6.86000 42.73600 40.02200
C  -6.64800 44.20400 39.97400
C  -7.76000 44.81800 40.45100
C  -8.73200 43.69300 40.65000
C  -5.35000 44.71300 39.48500
C  -8.02600 46.35800 40.65800
O  -7.14900 47.15800 40.41700
C  -9.28000 46.90600 41.18000
N  -10.94100 41.56400 41.54300
C  -11.02400 42.93900 41.47200
C  -12.46500 43.28600 41.65700
C  -13.22700 41.97000 42.18300
C  -12.09500 40.96200 41.96500
C  -12.86300 44.53800 42.46000
C  -14.56000 41.78500 41.44100
C  -15.79400 41.38800 42.29900
N  -9.88500 38.90600 41.47700
C  -11.18200 38.59400 41.89800
C  -11.26100 37.19300 42.08000
C  -10.07700 36.66900 41.50700
C  -9.31800 37.78100 41.17500
C  -12.48700 36.44600 42.63500
C  -9.32400 35.51100 41.19100
O  -9.52100 34.35200 41.49300
C  -8.05600 35.98600 40.45200
C  -6.88700 35.39800 41.13900
O  -6.38800 35.80100 42.17900
O  -6.65300 34.16000 40.54200
C  -5.60700 33.30300 41.12000
H  -4.92800 42.00500 39.41200
H  -10.53100 44.79200 40.91000
H  -13.20600 39.20500 42.36800
H  -5.48400 37.15200 39.62300
H  -4.61400 39.56600 38.26900
H  -3.99800 38.27200 40.79400
H  -4.22700 40.00200 41.09100
H  -3.01000 39.41700 39.87100
H  -6.00600 38.34800 37.05900
H  -7.40400 37.70000 37.50500
H  -6.72000 35.52200 37.19800
H  -5.23600 35.68500 38.00800
H  -4.56700 44.37800 40.16500
H  -5.35100 45.80000 39.40900
H  -5.15000 44.46800 38.44100
H  -9.64400 46.46400 42.10700
H  -10.08800 46.87500 40.44900
H  -9.08300 47.97000 41.31300
H  -12.83000 43.59800 40.67900
H  -13.39800 42.18200 43.23800
H  -11.98100 45.02100 42.88100
H  -13.50900 44.41600 43.33000
H  -13.23800 45.35600 41.84400
H  -14.47000 41.02800 40.66200
H  -14.77200 42.71900 40.92000
H  -16.03100 40.38000 41.96000
H  -16.61700 42.04200 42.01000
H  -15.49900 41.37100 43.34900
H  -13.31800 36.48200 41.93100
H  -12.75300 36.91500 43.58200
H  -12.36900 35.41400 42.96700
H  -8.02200 35.72500 39.39500
H  -5.09600 33.82300 41.93100
H  -4.88600 33.12200 40.32300
H  -6.04200 32.37100 41.47900

