158

Mg 17.31800 52.84600 26.77400
C  19.41600 51.26800 28.92400
C  15.06300 53.11800 29.25600
C  15.09300 54.25600 24.55100
C  19.40500 52.12800 24.20800
N  17.28600 52.31300 28.85000
C  18.31000 51.81400 29.59700
C  17.99500 51.85000 31.09100
C  16.42200 51.85900 31.02100
C  16.21200 52.52300 29.63100
C  15.74700 50.41000 31.19800
C  18.70800 53.07700 31.74700
C  18.29700 53.32900 33.13300
H  17.41400 52.28700 33.87300
N  15.38200 53.80100 26.92400
C  14.64300 53.80400 28.06400
C  13.37500 54.51900 27.75400
C  13.38000 54.84000 26.40600
C  14.63600 54.27600 25.85700
C  12.40200 54.83300 28.90300
C  12.26600 55.51900 25.67100
O  12.38100 55.89800 24.51900
C  10.97900 55.72700 26.32600
N  17.19800 52.99200 24.67900
C  16.25800 53.74600 23.99300
C  16.67100 53.94900 22.50100
C  18.22800 53.57900 22.54800
C  18.29700 52.82500 23.87400
C  15.84800 53.04000 21.56500
C  19.21400 54.79400 22.48200
C  20.23000 54.64700 21.30300
N  19.09400 51.85800 26.50300
C  19.81700 51.63000 25.42200
C  21.04800 50.89900 25.81400
C  20.93100 50.76000 27.22900
C  19.74100 51.35300 27.56300
C  22.20600 50.25300 25.01800
C  21.56300 50.12900 28.39900
O  22.52800 49.40100 28.59200
C  20.69100 50.66200 29.56200
C  20.26600 49.49300 30.29500
O  19.65800 48.51900 29.86700
O  20.72900 49.63400 31.60200
C  20.30300 48.51700 32.46100
H  14.27600 53.17400 30.01200
H  14.33300 54.66300 23.88000
H  20.08100 51.90800 23.37900
H  18.40200 50.94900 31.55100
H  15.83100 52.46100 31.71200
H  15.17100 50.28600 30.28100
H  15.12000 50.28500 32.08200
H  16.55200 49.67900 31.26700
H  18.58900 54.02600 31.22400
H  19.76300 52.85300 31.90700
H  17.82700 54.31100 33.17300
H  19.13600 53.43900 33.82000
H  12.71500 54.45300 29.87600
H  11.47600 54.33000 28.62600
H  12.31400 55.90600 29.07400
H  10.56200 54.76000 26.60600
H  10.23300 56.09900 25.62300
H  11.13000 56.37500 27.18900
H  16.42000 54.94300 22.13100
H  18.40000 52.96300 21.66600
H  15.51700 52.13100 22.06700
H  16.50400 52.81900 20.72300
H  14.96700 53.65300 21.37200
H  19.70000 54.80400 23.45800
H  18.66000 55.72100 22.33600
H  20.15400 53.74300 20.69800
H  21.21900 54.61300 21.76100
H  20.14000 55.55200 20.70300
H  23.06100 50.55800 25.62200
H  22.19100 50.63600 23.99800
H  22.08200 49.17100 25.02400
H  21.28300 51.34700 30.16900
H  20.72600 48.60300 33.46200
H  20.72400 47.57600 32.10800
H  19.21400 48.55500 32.47900
Mg -0.80300 33.68800 27.18500
C  -2.78200 31.91200 29.42600
C  0.49100 35.40900 29.80900
C  0.61200 35.82200 24.88000
C  -2.33700 32.00900 24.53400
N  -1.14600 33.62800 29.34400
C  -1.84700 32.73100 30.06500
C  -1.59400 32.83500 31.55700
C  -0.60000 34.06000 31.68800
C  -0.36400 34.37700 30.21800
C  -1.11800 35.21500 32.57200
C  -1.05000 31.58000 32.21300
C  -1.79800 30.96200 33.40400
H  -1.02800 30.89900 34.74100
N  0.44700 35.29800 27.35000
C  0.85400 35.84200 28.52500
C  1.76600 36.95100 28.18700
C  1.87100 37.08900 26.79300
C  0.98700 36.04500 26.24900
C  2.42600 37.77900 29.24900
C  2.60800 38.06600 25.95000
O  2.81700 37.90800 24.74900
C  3.16400 39.36200 26.55900
N  -0.86700 33.84300 25.04000
C  -0.30900 34.87700 24.31000
C  -0.80100 34.85200 22.81400
C  -1.45300 33.44900 22.74200
C  -1.61100 33.11500 24.22800
C  -1.73400 35.96600 22.50200
C  -0.55600 32.42700 21.95100
C  0.48600 31.44900 22.71600
N  -2.16000 32.19500 26.97500
C  -2.66500 31.50500 25.85200
C  -3.59400 30.50700 26.26600
C  -3.66200 30.67200 27.67700
C  -2.87800 31.71500 28.00800
C  -4.40700 29.59500 25.39000
C  -4.27100 30.23000 28.83800
O  -5.15900 29.40900 28.94900
C  -3.67100 30.95300 30.07400
C  -4.81400 31.65600 30.71700
O  -5.44700 32.59100 30.24600
O  -5.10700 31.06600 31.92400
C  -6.25900 31.47800 32.74500
H  0.90000 36.02200 30.61500
H  1.03900 36.58300 24.22300
H  -2.69300 31.30100 23.78200
H  -2.55500 33.16400 31.95200
H  0.35600 33.72500 32.09100
H  -2.00400 35.06200 33.18800
H  -1.30600 36.01300 31.85400
H  -0.36400 35.34800 33.34800
H  0.00600 31.75600 32.41700
H  -0.98200 30.78400 31.47200
H  -1.89300 29.89100 33.22500
H  -2.79400 31.39700 33.48800
H  3.50500 37.71500 29.10900
H  2.26400 37.38300 30.25100
H  1.99600 38.77900 29.30600
H  2.27700 39.66100 27.11800
H  3.48500 39.98700 25.72600
H  3.92900 39.03900 27.26500
H  0.07000 34.93400 22.16400
H  -2.42200 33.49500 22.24500
H  -1.63200 36.69000 23.31100
H  -2.78100 35.66300 22.48800
H  -1.50700 36.29200 21.48700
H  -0.06200 32.89600 21.10000
H  -1.31300 31.77000 21.52200
H  0.12200 30.42500 22.62700
H  0.47700 31.59900 23.79600
H  1.46800 31.66800 22.29600
H  -5.40500 29.59700 25.83000
H  -3.97600 28.64000 25.08800
H  -4.60900 30.17600 24.49100
H  -3.13500 30.25700 30.71900
H  -6.00100 32.40400 33.25800
H  -6.52000 30.66600 33.42400
H  -7.11100 31.70100 32.10300

