158

Mg 35.29100 3.47800 29.61400
C  32.76500 4.02600 32.15200
C  37.63300 3.63400 31.96500
C  37.48100 2.40400 27.26800
C  32.86900 3.80900 27.11900
N  35.17700 4.04700 31.75700
C  34.12500 4.05000 32.61900
C  34.58100 3.99700 34.06700
C  36.14000 4.26700 33.92800
C  36.32800 3.91400 32.46800
C  36.61900 5.67900 34.33200
C  34.35800 2.56600 34.68300
C  34.33000 2.50900 36.17700
H  35.15100 3.56400 36.85900
N  37.30300 3.08000 29.59600
C  38.06400 3.17100 30.70100
C  39.42600 2.86200 30.32700
C  39.47100 2.40600 28.94000
C  38.05300 2.53400 28.54400
C  40.41400 2.75400 31.48300
C  40.59300 1.67800 28.11400
O  40.44800 1.12400 26.98700
C  42.04000 1.61200 28.70400
N  35.18300 3.30000 27.52100
C  36.20200 2.79500 26.76200
C  35.81400 2.58100 25.28500
C  34.27500 3.06200 25.23300
C  34.10600 3.38800 26.65900
C  36.72700 3.42700 24.29800
C  33.36400 1.91600 24.68700
C  32.35700 2.45800 23.66100
N  33.16300 3.88600 29.55700
C  32.33300 3.92500 28.51900
C  30.99100 4.18400 28.90700
C  31.10600 4.23900 30.36000
C  32.45100 4.03300 30.73900
C  29.75600 4.28500 28.04400
C  30.34500 4.22900 31.58500
O  29.12600 4.17100 31.68900
C  31.40100 4.16800 32.80200
C  31.42000 5.47800 33.62300
O  31.72300 6.58000 33.22300
O  31.02000 5.18500 34.91100
C  31.20600 6.15600 36.03000
H  38.33700 3.86100 32.76700
H  38.18300 2.05900 26.50600
H  32.17200 3.72900 26.28200
H  33.97100 4.66500 34.67500
H  36.67400 3.51000 34.50300
H  36.60700 5.73900 35.42000
H  35.84000 6.32400 33.92600
H  37.57600 5.87100 33.84600
H  35.18200 1.93900 34.34000
H  33.40200 2.25100 34.26400
H  34.74300 1.54400 36.47200
H  33.30000 2.56000 36.52900
H  40.35500 3.56200 32.21300
H  41.46600 2.79900 31.20200
H  40.10900 1.81900 31.95200
H  42.38100 2.63500 28.86500
H  42.67300 1.10500 27.97600
H  42.06900 1.15000 29.69100
H  35.82900 1.51200 25.07300
H  34.17900 4.05100 24.78400
H  37.48700 2.84700 23.77400
H  37.32200 4.16900 24.83200
H  36.24100 4.06400 23.55900
H  32.79300 1.54300 25.53800
H  33.89800 1.10000 24.20100
H  32.55600 3.46200 23.28800
H  31.33300 2.41000 24.03400
H  32.34600 1.73900 22.84200
H  28.89200 4.02600 28.65600
H  29.75400 3.38600 27.42800
H  29.64700 5.15900 27.40200
H  31.26000 3.30000 33.44700
H  30.25300 6.62900 36.26600
H  31.88500 7.00300 35.93000
H  31.55800 5.64000 36.92300
Mg -12.03300 16.94900 41.60000
C  -9.15200 14.96300 41.11900
C  -10.45300 19.48200 40.12000
C  -15.00300 18.50700 41.23800
C  -13.70700 13.96000 42.64900
N  -10.04100 17.13400 40.55300
C  -9.01600 16.23300 40.54100
C  -7.71500 16.81500 40.04100
C  -8.12000 18.34700 40.02900
C  -9.66600 18.30300 40.29500
C  -7.47400 19.30400 41.03800
C  -7.24000 16.15600 38.74400
C  -5.76900 15.84700 38.57400
H  -5.09100 16.39400 37.28600
N  -12.61700 18.78500 40.66800
C  -11.81600 19.74500 40.25200
C  -12.56400 20.94400 39.97100
C  -13.92100 20.69100 40.24400
C  -13.94500 19.28700 40.78100
C  -11.99100 22.23300 39.44900
C  -15.11000 21.64800 40.18100
O  -14.98900 22.87000 40.03600
C  -16.53500 21.16800 40.38900
N  -14.05700 16.31300 41.92500
C  -15.14100 17.21200 41.66100
C  -16.44700 16.37600 41.67800
C  -16.05000 14.98200 42.29500
C  -14.52200 15.05500 42.22900
C  -17.64900 17.15300 42.35800
C  -16.73400 13.81500 41.43000
C  -17.10300 12.47800 42.07500
N  -11.57900 14.92500 41.99800
C  -12.30700 13.88900 42.45800
C  -11.47700 12.73000 42.66200
C  -10.24600 13.12700 42.15600
C  -10.36000 14.48500 41.69000
C  -11.87600 11.37800 43.17700
C  -8.87800 12.69600 41.84900
O  -8.36400 11.59900 42.03400
C  -8.12300 13.84500 41.05600
C  -6.88900 14.15900 41.83300
O  -6.83500 14.83900 42.84100
O  -5.69700 13.66900 41.26500
C  -4.48700 14.34400 41.81100
H  -9.88900 20.38700 39.88600
H  -16.00800 18.93500 41.24400
H  -14.30300 13.05600 42.79100
H  -6.87400 16.64100 40.71300
H  -8.01900 18.76500 39.02700
H  -6.75000 18.68900 41.57100
H  -8.27700 19.69400 41.66300
H  -6.94300 20.24400 40.88400
H  -7.54100 16.84500 37.95500
H  -7.74300 15.21300 38.52700
H  -5.69400 14.76100 38.63300
H  -5.28500 16.26200 39.45800
H  -11.47400 21.94800 38.53200
H  -11.22000 22.50800 40.16800
H  -12.64300 23.03600 39.10600
H  -17.24200 21.96600 40.16200
H  -16.62000 20.90700 41.44400
H  -16.76300 20.28100 39.79800
H  -16.64000 16.33400 40.60600
H  -16.32200 14.98600 43.35000
H  -18.43800 17.31200 41.62300
H  -17.42000 18.06700 42.90600
H  -17.91300 16.56300 43.23500
H  -15.96200 13.50800 40.72500
H  -17.55300 14.22800 40.84200
H  -16.53100 11.68900 41.58800
H  -18.15000 12.22100 41.91600
H  -16.86000 12.42400 43.13700
H  -12.09900 11.62100 44.21600
H  -11.19600 10.54400 43.00300
H  -12.78700 11.21800 42.60100
H  -7.89100 13.57300 40.02600
H  -4.55900 15.42300 41.94300
H  -3.69600 13.99800 41.14400
H  -4.27400 13.98600 42.81800

