158

Mg 25.08500 1.02700 29.18300
C  27.32100 0.41400 31.79700
C  22.55400 1.50100 31.53700
C  22.90100 0.92000 26.73600
C  27.63700 0.04300 26.92400
N  25.02800 1.19900 31.43000
C  26.07000 0.87500 32.30700
C  25.64300 1.21800 33.75400
C  24.08600 1.37500 33.67200
C  23.85100 1.41600 32.09000
C  23.30000 0.22100 34.29300
C  26.36400 2.46200 34.15200
C  27.28600 2.40100 35.35100
H  26.99900 3.47000 36.57100
N  23.04000 1.33500 29.13200
C  22.18700 1.53900 30.17500
C  20.86200 1.63000 29.62100
C  20.91200 1.35800 28.19600
C  22.29900 1.21400 27.94600
C  19.63800 1.72400 30.50200
C  19.73900 1.15600 27.20500
O  19.95800 0.78700 26.01300
C  18.32100 1.43000 27.62600
N  25.23400 0.56900 27.10900
C  24.20500 0.77800 26.29400
C  24.52700 0.52100 24.73000
C  26.08300 0.34000 24.83900
C  26.33800 0.37400 26.37200
C  23.74200 -0.61000 24.00400
C  26.92400 1.44700 24.11300
C  27.80900 1.00500 22.93300
N  27.08300 0.39500 29.31100
C  27.99000 0.02100 28.30500
C  29.27200 -0.42800 28.89500
C  29.07700 -0.16400 30.29800
C  27.75000 0.28900 30.45300
C  30.47700 -0.91800 28.23500
C  29.70000 -0.20700 31.56400
O  30.82800 -0.44400 31.90900
C  28.64100 0.27800 32.57900
C  28.49800 -0.75900 33.60600
O  28.03000 -1.88800 33.41000
O  29.00700 -0.31000 34.83900
C  29.03500 -1.38300 35.76800
H  21.74800 1.69200 32.24800
H  22.22600 1.01100 25.88200
H  28.49900 -0.10500 26.27100
H  25.86400 0.54600 34.58400
H  23.69200 2.27300 34.14700
H  22.65300 -0.30000 33.58800
H  22.76500 0.57500 35.17500
H  23.97800 -0.58400 34.57500
H  25.61400 3.23800 34.30500
H  26.94100 2.82200 33.30100
H  28.33800 2.54400 35.10100
H  27.16700 1.54200 36.01100
H  19.88800 1.56500 31.55100
H  18.88200 0.99900 30.20100
H  19.25800 2.74600 30.49400
H  17.73800 1.53700 26.71100
H  18.34700 2.39800 28.12700
H  18.04500 0.58600 28.25800
H  24.29200 1.48600 24.28200
H  26.47500 -0.60700 24.46600
H  23.01300 -1.04000 24.69100
H  24.43400 -1.34300 23.58900
H  23.14900 -0.22300 23.17600
H  27.53600 2.06900 24.76600
H  26.35800 2.17100 23.52700
H  27.54100 1.35000 21.93400
H  27.81000 -0.08200 22.84100
H  28.85500 1.26500 23.09500
H  30.58000 -0.63700 27.18700
H  30.49500 -2.00400 28.33200
H  31.32700 -0.50700 28.78000
H  28.91100 1.22000 33.05600
H  28.01500 -1.33500 36.15000
H  29.67300 -1.12700 36.61400
H  29.36300 -2.30300 35.28400
Mg 43.69200 4.38600 46.46600
C  41.96400 7.46000 46.83500
C  40.80900 2.60800 46.34900
C  45.57100 1.70000 45.86600
C  46.65500 6.46400 46.28500
N  41.64300 5.03300 46.56200
C  41.14400 6.27400 46.78100
C  39.61600 6.17800 46.83900
C  39.29200 4.63100 46.86300
C  40.66300 4.01500 46.64600
C  38.60200 4.12300 48.18800
C  38.85300 7.06300 45.78100
C  39.42000 7.40000 44.40600
H  38.76600 6.58000 43.17000
N  43.25700 2.43700 46.14000
C  42.01300 1.87300 46.08400
C  42.05700 0.43200 45.84300
C  43.43800 0.12700 45.81400
C  44.16600 1.44800 45.89200
C  40.79500 -0.35900 45.66300
C  44.03000 -1.31700 45.66200
O  43.22500 -2.27100 45.64300
C  45.46500 -1.52000 45.46300
N  45.81700 4.17600 45.99100
C  46.32000 2.83000 46.00300
C  47.87900 2.83200 46.07300
C  48.17500 4.37700 46.01100
C  46.82100 5.10700 46.11400
C  48.39300 1.91000 47.22900
C  48.88900 4.88000 44.74100
C  50.42000 4.83500 44.95300
N  44.30000 6.53900 46.52300
C  45.46900 7.18400 46.48500
C  45.27200 8.63700 46.67800
C  43.87200 8.68000 46.83100
C  43.33500 7.44400 46.73800
C  46.21800 9.72900 46.75300
C  42.78400 9.58200 47.07700
O  42.82800 10.80500 47.38400
C  41.49100 8.82300 47.06000
C  40.93500 8.93600 48.47600
O  41.24300 8.26800 49.45500
O  40.01700 9.93500 48.38100
C  39.34300 10.37700 49.60900
H  39.78700 2.22200 46.31800
H  46.10800 0.75300 45.77100
H  47.51000 7.13000 46.42100
H  39.40000 6.53300 47.84700
H  38.51800 4.38200 46.13600
H  38.43400 5.00100 48.81100
H  39.30900 3.50800 48.74400
H  37.65800 3.60400 48.02400
H  38.61000 8.04400 46.18900
H  37.89300 6.63800 45.48700
H  40.49700 7.50400 44.27500
H  39.08900 8.41400 44.18300
H  40.56000 -0.66800 46.68100
H  41.05600 -1.17200 44.98500
H  40.00900 0.32300 45.34000
H  45.45200 -2.60500 45.35800
H  46.04100 -1.29900 46.36200
H  45.84200 -1.07400 44.54200
H  48.29100 2.31900 45.20400
H  48.67500 4.73100 46.91300
H  48.96100 1.04400 46.89000
H  47.53200 1.51700 47.77000
H  49.07400 2.45100 47.88700
H  48.50000 5.88300 44.56600
H  48.70600 4.39700 43.78100
H  51.00100 4.60000 44.06000
H  50.61800 4.07000 45.70300
H  50.85900 5.81000 45.16700
H  46.70300 9.78100 47.72800
H  45.57600 10.59100 46.57300
H  46.95000 9.75600 45.94700
H  40.79300 9.25800 46.34400
H  39.73400 10.01500 50.56000
H  38.31100 10.04900 49.48500
H  39.45900 11.45400 49.73200

