158

Mg 46.55000 25.39000 28.89500
C  47.49300 27.66300 31.50700
C  45.91900 23.07400 31.31300
C  46.28200 22.99000 26.38000
C  47.92700 27.61000 26.64900
N  46.53800 25.42400 31.15600
C  46.76200 26.52600 31.99000
C  46.39300 26.25300 33.41900
C  45.95600 24.70800 33.36500
C  46.09500 24.36900 31.87900
C  46.93300 23.80100 34.18600
C  45.19900 27.19800 33.90200
C  45.40400 27.87800 35.20900
H  46.23100 27.16400 36.31000
N  46.02700 23.31000 28.81300
C  45.87800 22.52800 30.00900
C  45.48200 21.17900 29.53800
C  45.52600 21.14500 28.09100
C  45.96400 22.51300 27.70100
C  45.07600 20.09200 30.54700
C  45.12200 20.00800 27.20500
O  45.26400 19.98200 25.97800
C  44.56400 18.77600 27.92600
N  46.86000 25.36700 26.83200
C  46.61400 24.29900 25.95600
C  46.97100 24.66800 24.51300
C  47.31200 26.15100 24.64500
C  47.41500 26.41500 26.13000
C  48.19300 23.90800 23.94700
C  46.30300 27.13800 23.96700
C  46.91100 28.41000 23.32000
N  47.50700 27.24500 28.94300
C  47.94900 28.01800 27.97100
C  48.56400 29.20700 28.53700
C  48.35100 29.12900 29.87900
C  47.74400 27.91600 30.11600
C  49.16700 30.22700 27.78800
C  48.59800 29.82900 31.16700
O  49.01300 30.95400 31.47500
C  48.02400 28.82100 32.26900
C  49.00300 28.49500 33.24400
O  49.56800 27.38500 33.26900
O  49.26600 29.46400 34.12300
C  50.17400 29.13500 35.25100
H  45.78100 22.35600 32.12400
H  45.92200 22.40800 25.52900
H  48.29000 28.27300 25.86000
H  47.24000 26.30700 34.10400
H  44.94600 24.39500 33.63000
H  47.41200 24.37700 34.97800
H  47.74400 23.51700 33.51500
H  46.34300 23.00900 34.64700
H  44.20300 26.76000 33.84100
H  45.13000 27.99300 33.15900
H  44.43400 28.04300 35.67700
H  45.78000 28.88700 35.04100
H  43.99400 19.97700 30.47100
H  45.29300 20.45500 31.55100
H  45.66000 19.18100 30.41400
H  43.80300 19.05600 28.65400
H  45.38500 18.13300 28.24200
H  44.13900 18.25400 27.06800
H  46.09000 24.39300 23.93300
H  48.30200 26.45500 24.30500
H  47.92300 23.25800 23.11400
H  48.51000 23.28600 24.78400
H  49.03300 24.57500 23.75300
H  45.68900 27.46100 24.80700
H  45.61600 26.56700 23.34200
H  46.60400 28.55200 22.28400
H  47.99500 28.36600 23.20900
H  46.68000 29.33100 23.85600
H  49.58200 29.98000 26.81100
H  50.05200 30.54900 28.33600
H  48.48100 31.06300 27.65300
H  47.22600 29.38000 32.75800
H  51.01900 28.53200 34.91900
H  49.55300 28.66400 36.01300
H  50.44500 30.08700 35.70700
Mg 30.12800 58.02600 40.53600
C  27.11400 56.28500 39.87300
C  31.89300 55.33000 39.43500
C  32.86800 59.99900 40.09100
C  28.17300 60.87600 41.20900
N  29.47600 56.06500 39.65400
C  28.19500 55.49500 39.56700
C  28.32500 54.02800 39.22400
C  29.87400 53.82100 39.07000
C  30.47100 55.15400 39.48900
C  30.41100 52.56300 39.83400
C  27.40400 53.51600 38.06400
C  27.19500 54.33100 36.81500
H  27.97400 54.07500 35.50900
N  32.13700 57.67700 40.15000
C  32.61300 56.48000 39.68500
C  34.06000 56.53000 39.65900
C  34.36800 57.90500 39.80600
C  33.09800 58.61700 39.97200
C  34.95300 55.43800 39.28100
C  35.73700 58.51300 39.56700
O  36.72000 57.83300 39.35000
C  35.92500 60.03100 39.70200
N  30.47500 60.16200 40.59800
C  31.70800 60.72700 40.45800
C  31.66800 62.26900 40.63100
C  30.16500 62.49700 41.04700
C  29.54100 61.11500 40.92200
C  32.73000 62.79100 41.70600
C  29.36400 63.51700 40.15700
C  28.44700 64.50300 40.99900
N  28.04900 58.54700 40.70800
C  27.45000 59.72400 40.99000
C  26.00300 59.53200 40.97000
C  25.81700 58.24800 40.53300
C  27.09300 57.64900 40.33200
C  25.01600 60.62300 41.33800
C  24.81300 57.24400 40.12100
O  23.61300 57.29500 40.20900
C  25.60700 55.93500 39.79100
C  25.30500 54.81500 40.73600
O  25.95100 54.48200 41.66000
O  24.12300 54.22600 40.23300
C  23.70500 52.98800 40.96200
H  32.53800 54.46900 39.24700
H  33.63200 60.77100 40.20000
H  27.47900 61.65400 41.53500
H  28.01200 53.46800 40.10500
H  30.12000 53.63000 38.02500
H  31.39700 52.21900 39.52300
H  29.70900 51.77800 39.55200
H  30.49300 52.72800 40.90800
H  26.39000 53.44600 38.45800
H  27.68200 52.50500 37.76500
H  27.26700 55.38400 37.08900
H  26.19300 54.17200 36.41600
H  35.64600 55.81500 38.52900
H  34.55400 54.58600 38.73100
H  35.55000 55.21100 40.16400
H  35.57600 60.35800 40.68100
H  35.32300 60.34200 38.84900
H  36.97200 60.33200 39.65100
H  31.79400 62.79300 39.68400
H  30.20700 62.79600 42.09400
H  33.18500 61.94800 42.22700
H  32.29300 63.41000 42.49000
H  33.53200 63.31100 41.18300
H  28.80100 63.00400 39.37700
H  30.08800 64.19900 39.71200
H  28.68400 65.56300 41.09800
H  28.46100 64.30700 42.07100
H  27.39800 64.45000 40.71000
H  25.44800 61.51200 41.79600
H  24.43700 60.11400 42.10900
H  24.43500 60.95700 40.47800
H  25.44200 55.69300 38.74100
H  22.70800 52.66600 40.66400
H  23.79200 53.06100 42.04700
H  24.52600 52.28400 40.82800

