158

Mg 24.71200 -6.29700 46.10700
C  26.75600 -4.02000 44.28900
C  22.05900 -5.42500 44.00700
C  23.01300 -9.10300 47.06600
C  27.53000 -7.39400 47.67600
N  24.45400 -4.76900 44.38500
C  25.35900 -3.84600 43.95000
C  24.70700 -2.97600 42.81000
C  23.19900 -3.38200 42.99900
C  23.18700 -4.65400 43.78200
C  22.27500 -2.31900 43.62600
C  25.24900 -3.09900 41.36200
C  25.98900 -1.89500 40.70300
H  25.73000 -1.76000 39.16600
N  22.80000 -7.13500 45.58300
C  21.85800 -6.57800 44.75700
C  20.61600 -7.33200 44.81400
C  20.86500 -8.38400 45.82500
C  22.24300 -8.29300 46.18100
C  19.40900 -7.22100 43.95200
C  19.91200 -9.38600 46.24400
O  18.74500 -9.41200 45.82200
C  20.20900 -10.37400 47.36800
N  25.19500 -8.08400 47.11500
C  24.34000 -9.02600 47.51400
C  25.10700 -10.11300 48.35100
C  26.53600 -9.63400 48.24000
C  26.42200 -8.25100 47.67500
C  24.57400 -10.12200 49.81900
C  27.49900 -10.62300 47.39700
C  28.73200 -11.17500 48.13000
N  26.71700 -5.60000 46.24200
C  27.68100 -6.18700 47.01000
C  28.95800 -5.62200 46.56500
C  28.60700 -4.79400 45.52900
C  27.25400 -4.77900 45.36400
C  30.33600 -5.93400 47.04800
C  29.18700 -3.96900 44.45200
O  30.32400 -3.60900 44.20200
C  27.96800 -3.24600 43.75000
C  27.92900 -1.81000 44.16200
O  27.76300 -0.94400 43.34900
O  27.98700 -1.68800 45.50800
C  27.43900 -0.42600 46.09200
H  21.18900 -5.03300 43.47600
H  22.54200 -9.96500 47.54300
H  28.50800 -7.65000 48.08900
H  24.86500 -1.93000 43.07000
H  22.70200 -3.79200 42.12100
H  22.78000 -1.39100 43.89600
H  21.94600 -2.82700 44.53300
H  21.47100 -2.30200 42.89100
H  24.40800 -3.35000 40.71700
H  25.89400 -3.97400 41.44200
H  27.06400 -1.99000 40.85900
H  25.81800 -0.99100 41.28800
H  19.61800 -6.81400 42.96200
H  18.70700 -6.55100 44.44800
H  18.87900 -8.14800 43.73300
H  20.89100 -11.14200 47.00500
H  19.18400 -10.72000 47.50400
H  20.65400 -9.85200 48.21600
H  25.07900 -11.08300 47.85500
H  27.02500 -9.61300 49.21300
H  25.19000 -9.57000 50.52900
H  24.36900 -11.09700 50.26100
H  23.61800 -9.60200 49.76800
H  27.78200 -10.11500 46.47500
H  26.95900 -11.45800 46.95300
H  28.34600 -12.16800 48.35900
H  28.82400 -10.60900 49.05700
H  29.65200 -11.11900 47.55000
H  30.79500 -6.78400 46.54200
H  30.28800 -5.95100 48.13700
H  31.11200 -5.18300 46.90200
H  28.07300 -3.37600 42.67300
H  26.93000 -0.63900 47.03200
H  26.70200 0.05700 45.45000
H  28.23200 0.29400 46.29300
Mg 43.87000 3.87200 46.83300
C  41.45000 6.51600 46.66000
C  41.22400 1.71900 46.42600
C  46.15500 1.56200 46.17900
C  46.39700 6.44200 46.84000
N  41.52000 4.09800 46.61500
C  40.84700 5.29600 46.56500
C  39.30200 5.03200 46.44700
C  39.22200 3.41900 46.66300
C  40.70800 3.00300 46.44700
C  38.66200 2.94100 47.99300
C  38.65200 5.57800 45.15400
C  39.36800 5.33300 43.83100
H  39.52600 6.51500 42.96000
N  43.70300 1.84100 46.46100
C  42.52200 1.18200 46.33000
C  42.84200 -0.16700 45.94600
C  44.21000 -0.23400 45.67400
C  44.75900 1.07900 46.11600
C  41.80200 -1.25100 45.69600
C  45.05300 -1.41000 44.98300
O  44.47500 -2.44100 44.61300
C  46.49000 -1.32600 44.75300
N  45.98000 4.00300 46.58600
C  46.69000 2.90000 46.41700
C  48.24200 3.16000 46.49100
C  48.26400 4.66200 46.90100
C  46.79800 5.06000 46.76300
C  49.00000 2.27100 47.43300
C  49.25700 5.43700 46.02300
C  50.16700 6.36100 46.86500
N  44.00200 6.05600 46.72300
C  45.06300 6.91800 46.76700
C  44.59100 8.27600 46.81200
C  43.15500 8.19100 46.78400
C  42.87300 6.76200 46.72300
C  45.54400 9.49800 46.89000
C  41.90300 8.92500 46.73800
O  41.63800 10.11900 46.60900
C  40.79500 7.84000 46.79000
C  39.99800 7.91000 48.04000
O  40.36100 7.73800 49.17100
O  38.79700 8.35600 47.74400
C  37.67700 8.12500 48.71400
H  40.35100 1.06900 46.34400
H  46.86900 0.75400 46.01100
H  47.25000 7.09700 47.03200
H  38.83900 5.59000 47.26100
H  38.63500 3.09300 45.80500
H  37.82900 3.62300 48.16700
H  39.42500 3.03400 48.76600
H  38.35100 1.89700 47.94700
H  38.43800 6.64300 45.23800
H  37.64600 5.17000 45.06500
H  38.76800 4.59000 43.30600
H  40.32000 4.86500 44.08100
H  41.85900 -1.69800 44.70400
H  40.75700 -0.95700 45.79300
H  42.01000 -2.11400 46.32900
H  46.99700 -1.26600 45.71600
H  46.72600 -0.45800 44.13700
H  46.76700 -2.29400 44.33500
H  48.67900 2.95600 45.51400
H  48.47100 4.69000 47.97100
H  49.96100 2.69300 47.72900
H  49.24500 1.33700 46.92700
H  48.42400 2.01500 48.32100
H  48.63600 6.07000 45.39000
H  49.83000 4.77000 45.37700
H  51.17300 5.98900 46.67300
H  50.04900 6.48300 47.94200
H  50.03600 7.29800 46.32400
H  46.05300 9.38000 47.84600
H  45.02300 10.45300 46.81700
H  46.25600 9.42300 46.06800
H  40.07900 7.93500 45.97300
H  37.75500 8.69300 49.64100
H  37.58100 7.07400 48.98300
H  36.73700 8.36000 48.21400

