158

Mg -0.01800 7.42100 26.14400
C  1.00900 9.10700 28.91800
C  -0.45400 4.69000 27.87700
C  -0.74700 5.90300 23.18300
C  0.86300 10.34200 24.23900
N  0.44200 6.91900 28.17300
C  0.64600 7.77000 29.17700
C  0.53800 7.06300 30.54900
C  0.40400 5.55300 30.16200
C  0.12500 5.71100 28.63500
C  1.68400 4.71100 30.44600
C  -0.68600 7.56400 31.42900
C  -0.49600 7.62800 32.90300
H  0.62800 6.79700 33.57800
N  -0.57400 5.53100 25.60200
C  -0.68400 4.52600 26.46800
C  -1.25100 3.37400 25.76500
C  -1.34800 3.77900 24.35300
C  -0.84200 5.09200 24.33200
C  -1.69500 2.11100 26.55700
C  -1.77500 2.87900 23.22400
O  -1.88900 3.16300 22.02700
C  -2.11900 1.37500 23.54800
N  0.10000 8.03100 24.05600
C  -0.19500 7.18000 23.07000
C  0.11600 7.76300 21.62800
C  0.32200 9.26600 21.92600
C  0.41400 9.24700 23.52700
C  1.26600 7.03300 20.87300
C  -0.69800 10.17400 21.34800
C  -2.17600 10.08700 21.93700
N  0.70600 9.37200 26.45200
C  1.03700 10.39900 25.61200
C  1.42900 11.60000 26.36400
C  1.51900 11.18300 27.65100
C  1.01200 9.79900 27.67600
C  1.73000 12.98200 25.88000
C  1.84800 11.52600 29.01200
O  2.38000 12.54300 29.54900
C  1.44700 10.22200 29.86500
C  2.60300 9.85300 30.77700
O  3.54600 9.14500 30.45600
O  2.51300 10.60600 31.88800
C  3.68300 10.87300 32.74300
H  -0.61500 3.75800 28.42200
H  -1.24600 5.37500 22.36800
H  0.99700 11.25400 23.65300
H  1.51500 7.23000 31.00200
H  -0.48300 5.13000 30.63400
H  2.28600 4.70000 29.53700
H  1.55700 3.67900 30.77100
H  2.30800 5.26200 31.15000
H  -1.59400 7.01700 31.17500
H  -0.89000 8.57200 31.06900
H  -1.34800 7.15100 33.38600
H  -0.46500 8.61700 33.36100
H  -2.66600 1.78100 26.18700
H  -1.79000 2.06000 27.64100
H  -1.03000 1.27300 26.34700
H  -1.19300 0.94600 23.93200
H  -2.37500 0.79600 22.66100
H  -2.95300 1.51400 24.23600
H  -0.77800 7.61600 21.02200
H  1.27800 9.56600 21.49600
H  1.25200 5.97300 21.12700
H  2.18700 7.44000 21.29100
H  1.22200 7.10000 19.78600
H  -0.72700 10.07200 20.26300
H  -0.35300 11.17300 21.61600
H  -2.42700 11.09100 22.28000
H  -2.20100 9.45200 22.82300
H  -2.97500 9.63200 21.35000
H  1.58400 13.70300 26.68500
H  1.13900 13.20800 24.99200
H  2.77100 13.05200 25.56300
H  0.53900 10.51800 30.38900
H  3.59500 10.28500 33.65700
H  3.56700 11.94400 32.90600
H  4.66400 10.64700 32.32500
Mg 42.53700 41.50600 26.40600
C  41.72900 43.93200 28.68700
C  43.59100 39.42500 29.19400
C  43.60800 39.08900 24.31100
C  42.09100 43.76600 23.87100
N  42.65400 41.71600 28.67700
C  42.21900 42.77900 29.32100
C  42.15500 42.45700 30.86400
C  43.01900 41.17800 31.03600
C  43.12600 40.71700 29.53600
C  44.35500 41.50800 31.68300
C  40.69600 42.37300 31.51600
C  40.27400 43.50400 32.47100
H  39.58900 43.04000 33.76300
N  43.34900 39.45700 26.70000
C  43.74000 38.86600 27.90700
C  44.13700 37.55800 27.60200
C  44.01300 37.38000 26.21800
C  43.66100 38.67800 25.66400
C  44.56000 36.53700 28.61200
C  44.13500 36.07000 25.41000
O  44.07200 36.02400 24.19800
C  44.48300 34.84100 26.08700
N  42.91200 41.48400 24.45100
C  43.19100 40.32900 23.72300
C  43.16900 40.60300 22.21500
C  42.69300 42.09600 22.04300
C  42.55300 42.51200 23.51300
C  44.56400 40.31000 21.54400
C  41.40500 42.36100 21.32500
C  41.36700 43.65600 20.37700
N  41.89600 43.44000 26.22500
C  41.85500 44.26300 25.16100
C  41.25200 45.54400 25.63600
C  41.25900 45.46400 26.97300
C  41.66000 44.19000 27.31200
C  40.96000 46.71500 24.77700
C  40.99400 46.20300 28.20200
O  40.73200 47.37000 28.33500
C  41.23500 45.19200 29.39600
C  42.12800 45.90800 30.32700
O  43.32600 46.06800 30.21200
O  41.40600 46.40200 31.38200
C  42.20900 47.01600 32.44200
H  43.95400 38.88400 30.07000
H  43.89600 38.37400 23.53800
H  41.91200 44.47700 23.06100
H  42.66700 43.29300 31.33800
H  42.49400 40.43000 31.63000
H  44.46800 42.57300 31.88800
H  45.24600 41.10300 31.20300
H  44.44900 41.11200 32.69500
H  40.63200 41.39500 31.99200
H  40.01900 42.30100 30.66500
H  39.55400 44.24500 32.12300
H  41.19200 44.05300 32.68100
H  44.53800 36.87000 29.65000
H  45.57500 36.20600 28.39300
H  43.90900 35.67000 28.73300
H  43.74900 34.68400 26.87800
H  45.40600 34.88500 26.66500
H  44.61600 33.95100 25.47200
H  42.46300 39.99000 21.65500
H  43.54700 42.68900 21.71600
H  45.26800 39.88700 22.26000
H  44.91300 41.19600 21.01300
H  44.44600 39.50000 20.82400
H  40.61500 42.29900 22.07300
H  41.16300 41.46000 20.76100
H  41.13100 43.37300 19.35200
H  42.32300 44.16700 20.48800
H  40.63000 44.38200 20.72000
H  41.65900 47.50400 25.05400
H  39.95900 47.02300 25.07900
H  41.10500 46.54200 23.71100
H  40.26800 44.93900 29.83000
H  43.29600 47.05600 32.38100
H  42.01300 46.41200 33.32800
H  41.97300 48.07600 32.53500

