158

Mg 17.37600 -1.03900 28.41300
C  16.11200 0.97200 31.03200
C  18.89600 -2.86000 30.85400
C  18.82300 -2.74600 25.97700
C  15.62500 0.98300 26.16000
N  17.67000 -0.78100 30.71400
C  16.96200 -0.01600 31.55300
C  17.26900 -0.32200 33.04800
C  18.27600 -1.49900 32.91500
C  18.32400 -1.72900 31.34800
C  19.69400 -1.23500 33.50300
C  15.94900 -0.59100 33.87900
C  15.69600 0.16700 35.18400
H  16.75300 0.07500 36.24000
N  18.77200 -2.58100 28.40500
C  19.15600 -3.22600 29.51700
C  19.92300 -4.44900 29.13400
C  19.87000 -4.44600 27.70000
C  19.12800 -3.26700 27.29100
C  20.41000 -5.40400 30.13300
C  20.49500 -5.38500 26.67000
O  20.28500 -5.22000 25.46900
C  21.39600 -6.62200 27.11000
N  17.25600 -0.87100 26.40700
C  17.98700 -1.67400 25.58200
C  17.77600 -1.27500 24.09100
C  16.66600 -0.24300 24.19200
C  16.40400 -0.06800 25.63200
C  19.08900 -0.82900 23.39800
C  15.28000 -0.39900 23.48300
C  14.28400 -1.35600 24.11600
N  16.11600 0.61000 28.43600
C  15.52300 1.33100 27.49600
C  14.83500 2.43700 27.99900
C  14.86400 2.25400 29.44900
C  15.78100 1.18000 29.65900
C  14.10600 3.45900 27.19700
C  14.38600 2.77900 30.65200
O  13.46600 3.58400 30.88800
C  15.26900 2.03400 31.73700
C  16.14500 3.09200 32.33700
O  17.25100 3.43400 31.91300
O  15.59100 3.49500 33.59400
C  16.46900 4.42400 34.27400
H  19.29900 -3.49900 31.64200
H  19.17900 -3.15500 25.02900
H  15.12900 1.64300 25.44600
H  17.70800 0.53700 33.55600
H  17.96900 -2.39500 33.45400
H  19.75600 -1.85700 34.39500
H  19.86200 -0.20200 33.80800
H  20.47000 -1.57700 32.81900
H  16.00200 -1.58400 34.32400
H  15.03700 -0.66500 33.28700
H  14.84400 -0.40300 35.55500
H  15.36500 1.18800 34.99500
H  21.49400 -5.44100 30.02400
H  19.97300 -6.36600 29.86600
H  20.21300 -5.15700 31.17600
H  20.83000 -7.20800 27.83400
H  22.26900 -6.28700 27.67100
H  21.58800 -7.19200 26.20100
H  17.41900 -2.20900 23.65800
H  17.05700 0.72500 23.87800
H  19.16200 0.20800 23.06900
H  19.28900 -1.48500 22.55100
H  19.80200 -0.97100 24.21000
H  15.52700 -0.52300 22.42900
H  14.81400 0.58300 23.56500
H  13.58400 -0.74400 24.68500
H  14.68600 -1.96500 24.92500
H  13.75300 -1.85100 23.30300
H  13.02000 3.36400 27.22100
H  14.30700 3.39100 26.12800
H  14.28600 4.45800 27.59500
H  14.56700 1.70200 32.50200
H  16.48200 5.42300 33.83700
H  17.49200 4.05300 34.33600
H  16.14000 4.52000 35.30900
Mg 36.53100 2.46000 30.66300
C  33.67000 3.46500 32.59300
C  38.28400 2.79100 33.66800
C  39.20700 1.91400 28.95800
C  34.54000 2.66300 27.84500
N  35.97900 3.21400 32.82700
C  34.80600 3.37200 33.38600
C  34.83800 3.56100 34.91500
C  36.42300 3.63400 35.13500
C  36.95900 3.19700 33.77600
C  36.96800 5.08800 35.43100
C  34.06700 2.38200 35.62600
C  33.55300 2.43600 37.13600
H  34.21100 3.44500 38.07100
N  38.49800 2.26800 31.34700
C  39.05500 2.33500 32.54600
C  40.43400 1.93000 32.51700
C  40.75200 1.80900 31.14300
C  39.46400 2.04000 30.40900
C  41.23300 1.60300 33.70000
C  42.11700 1.45100 30.48000
O  42.32400 1.35000 29.29000
C  43.36500 1.24700 31.36700
N  36.83000 2.32800 28.67000
C  38.05700 2.08700 28.20600
C  38.00100 2.01000 26.69900
C  36.46200 2.16800 26.36900
C  35.89700 2.41400 27.73700
C  38.77200 3.15400 26.06100
C  35.75400 1.08000 25.58200
C  35.59700 -0.27300 26.29800
N  34.48800 2.91400 30.28900
C  33.83200 2.91200 29.06900
C  32.40800 3.23600 29.21200
C  32.34300 3.40500 30.60900
C  33.61400 3.24900 31.16800
C  31.36100 3.15400 28.19100
C  31.40300 3.68500 31.73800
O  30.18700 3.85800 31.68200
C  32.25500 3.64000 33.06900
C  32.06700 4.90600 33.89600
O  32.62300 5.96300 33.70800
O  31.18800 4.75700 34.95600
C  31.29200 5.82000 35.98200
H  38.81700 2.72500 34.61800
H  40.03700 1.61600 28.31400
H  33.91500 2.76900 26.95500
H  34.44400 4.55200 35.14100
H  36.81300 2.98000 35.91500
H  37.25900 5.09900 36.48100
H  36.25300 5.89500 35.27000
H  37.79800 5.29600 34.75500
H  34.74400 1.53200 35.70900
H  33.26900 1.99400 34.99300
H  33.70600 1.46900 37.61300
H  32.48600 2.64800 37.08000
H  41.56800 0.56700 33.65500
H  40.72200 1.72700 34.65400
H  42.13900 2.18900 33.85300
H  43.38200 0.32000 31.94100
H  43.28400 2.11700 32.01900
H  44.25900 1.23200 30.74300
H  38.33900 1.08100 26.23900
H  36.28800 3.11700 25.86200
H  39.84100 3.02000 26.22400
H  38.41200 4.03100 26.60000
H  38.60800 3.29000 24.99200
H  36.26100 0.95000 24.62600
H  34.77300 1.48900 25.34000
H  35.86000 -0.28100 27.35500
H  36.12700 -1.09300 25.81400
H  34.54600 -0.56200 26.26500
H  31.33700 3.95800 27.45600
H  30.39700 3.11700 28.69800
H  31.55100 2.16600 27.77100
H  31.89100 2.78200 33.63500
H  30.79000 6.75800 35.74400
H  32.32700 6.00700 36.26800
H  30.74100 5.47000 36.85500

