158

Mg 46.59900 44.35700 42.60000
C  43.26400 43.43400 42.93400
C  47.25300 40.96300 42.39000
C  49.84100 45.06600 41.88900
C  45.70100 47.70200 42.24700
N  45.37000 42.42400 42.80900
C  44.01000 42.31700 42.81500
C  43.54800 40.86800 42.79200
C  44.94900 40.13300 43.05800
C  45.90800 41.26400 42.64400
C  45.23400 39.65800 44.46600
C  42.84700 40.46700 41.52800
C  43.27100 40.99500 40.13800
H  43.98300 40.16200 39.04700
N  48.30600 43.13100 42.22100
C  48.38300 41.75400 42.23600
C  49.73300 41.29400 41.96200
C  50.47300 42.48600 41.70700
C  49.56000 43.65200 41.95800
C  50.15100 39.83800 42.07600
C  51.94100 42.46800 41.43400
O  52.54300 41.43800 41.29900
C  52.67200 43.84500 41.35600
N  47.55500 46.12000 42.05900
C  48.91600 46.16700 41.95400
C  49.46700 47.60600 41.97700
C  48.18800 48.45500 42.29400
C  47.05200 47.40400 42.12100
C  50.62300 47.98300 42.87100
C  48.06000 49.78300 41.46800
C  47.86300 51.13800 42.26800
N  44.82500 45.45900 42.58100
C  44.61600 46.82500 42.54300
C  43.25200 47.04800 42.80500
C  42.64600 45.75800 42.96700
C  43.64900 44.76900 42.75800
C  42.57800 48.42800 42.75800
C  41.46600 45.04200 43.25000
O  40.31200 45.40800 43.45600
C  41.84300 43.53100 43.30700
C  41.67700 43.03900 44.74800
O  42.29500 43.41600 45.72900
O  40.65000 42.09800 44.87600
C  40.55500 41.36000 46.12300
H  47.40200 39.88200 42.34200
H  50.89200 45.36100 41.93200
H  45.44500 48.76100 42.32800
H  42.88600 40.70000 43.64100
H  45.11900 39.35600 42.31300
H  45.76600 40.46800 44.96500
H  45.99600 38.87900 44.48900
H  44.29800 39.46100 44.98800
H  41.79500 40.64900 41.74900
H  42.96000 39.39600 41.36500
H  43.78500 41.95500 40.18800
H  42.31100 41.20600 39.66700
H  50.39700 39.29300 41.16500
H  49.45100 39.17500 42.58400
H  51.04900 39.85600 42.69300
H  52.23300 44.47700 40.58400
H  53.73300 43.65000 41.20100
H  52.56300 44.16700 42.39100
H  49.81700 47.76600 40.95700
H  48.35400 48.70100 43.34400
H  50.68600 48.99000 43.28400
H  51.54600 47.79600 42.32200
H  50.70200 47.32300 43.73400
H  47.32500 49.72500 40.66500
H  49.06200 49.91800 41.05900
H  47.01400 51.68900 41.86300
H  48.73000 51.79900 42.24500
H  47.71100 50.91600 43.32400
H  41.56900 48.20700 43.10600
H  42.46500 48.87700 41.77100
H  42.93200 49.12900 43.51400
H  41.11500 42.95200 42.74000
H  41.37200 41.60400 46.80200
H  40.62600 40.30400 45.85900
H  39.68100 41.65400 46.70500
Mg 16.40800 52.25500 25.31800
C  18.04100 51.21500 28.19700
C  13.59000 52.94200 27.08600
C  15.00200 53.15700 22.36000
C  19.02300 50.73700 23.43800
N  15.99300 52.16900 27.43600
C  16.83400 51.86300 28.45000
C  16.22300 52.14000 29.86700
C  14.78900 52.61700 29.46500
C  14.74200 52.51600 27.86200
C  13.59900 51.81900 30.20300
C  17.07900 53.20800 30.69900
C  17.73000 52.80200 32.05100
H  16.88300 52.01800 33.02400
N  14.57300 52.95600 24.80900
C  13.51000 53.20500 25.66600
C  12.36800 53.72900 24.92400
C  12.76700 53.87700 23.53100
C  14.20700 53.35900 23.49100
C  11.01500 54.01900 25.62900
C  12.03000 54.36700 22.28800
O  12.52300 54.62200 21.16000
C  10.65200 54.77900 22.40900
N  16.98000 52.07400 23.26500
C  16.23800 52.57600 22.20700
C  16.86300 52.20800 20.81500
C  18.28300 51.73100 21.26700
C  18.08700 51.42700 22.75400
C  16.02800 51.11300 20.10200
C  19.37700 52.79800 20.95200
C  20.06700 52.57900 19.62600
N  18.19100 51.14800 25.67100
C  19.11500 50.57300 24.83700
C  20.08000 49.86200 25.58100
C  19.65900 50.10200 26.94000
C  18.54600 50.92100 26.93000
C  21.37600 49.16200 25.21500
C  20.05400 49.73400 28.28200
O  20.96800 49.05000 28.71600
C  18.90300 50.45100 29.25800
C  18.20500 49.31600 29.88300
O  17.17600 48.83400 29.51000
O  18.83200 48.96500 31.05900
C  18.12100 48.00300 31.88500
H  12.73000 53.21000 27.70300
H  14.58500 53.46100 21.39800
H  19.91700 50.53600 22.84200
H  16.07700 51.19600 30.39100
H  14.59800 53.65500 29.73600
H  14.01900 51.15400 30.95800
H  13.03600 51.26500 29.45100
H  12.91700 52.52400 30.67600
H  16.52600 54.14700 30.71700
H  17.87900 53.52500 30.03000
H  18.17600 53.59900 32.64500
H  18.65600 52.26800 31.84000
H  10.34400 53.16400 25.54100
H  10.55000 54.91300 25.21300
H  11.09000 54.20800 26.70000
H  10.16000 55.10200 21.49200
H  10.59800 55.68100 23.01900
H  10.23300 54.00500 23.05300
H  17.06300 53.00400 20.09900
H  18.68900 50.84200 20.78500
H  15.70200 51.41900 19.10900
H  15.22900 50.71900 20.73000
H  16.68300 50.25200 19.97100
H  20.03700 52.94600 21.80600
H  18.91400 53.77600 20.82100
H  21.13500 52.41500 19.77000
H  19.99800 53.44000 18.96200
H  19.51200 51.80000 19.10300
H  21.74600 49.53600 24.26100
H  21.37100 48.07200 25.20400
H  22.15800 49.44600 25.92000
H  19.45100 51.00900 30.01700
H  17.89900 48.48100 32.83900
H  18.84700 47.22500 32.12200
H  17.16600 47.58400 31.56900

