158

Mg 46.40800 24.58100 28.25100
C  46.92700 26.95300 30.73000
C  45.38100 22.33600 30.52600
C  46.50500 22.21800 25.93700
C  47.85400 26.87500 26.08200
N  46.29000 24.69500 30.40600
C  46.40000 25.79200 31.19400
C  46.01000 25.45900 32.63100
C  45.55700 23.96900 32.64100
C  45.80200 23.63200 31.11900
C  46.39400 23.12600 33.64700
C  45.01300 26.44500 33.30600
C  45.52500 27.07500 34.59400
H  44.60200 27.35300 35.78500
N  45.97400 22.54900 28.19800
C  45.45100 21.88400 29.24000
C  45.19100 20.54500 28.80700
C  45.53600 20.46700 27.42200
C  45.94500 21.81400 27.12100
C  44.68900 19.45100 29.70300
C  45.34100 19.30900 26.36000
O  45.45300 19.39600 25.16600
C  44.75400 17.96800 26.83200
N  47.27300 24.50800 26.40300
C  47.11800 23.42100 25.58400
C  47.70700 23.59400 24.19500
C  48.16500 25.13400 24.25800
C  47.70700 25.56900 25.65800
C  48.74800 22.64800 23.51800
C  47.67600 26.01200 23.05900
C  46.18800 26.51300 23.12200
N  47.19000 26.55600 28.27900
C  47.65800 27.37100 27.29800
C  48.03700 28.60700 27.86200
C  47.73400 28.54000 29.13800
C  47.31100 27.23600 29.41100
C  48.72100 29.74100 27.15300
C  47.80400 29.26400 30.46700
O  48.14600 30.46700 30.77600
C  47.25600 28.26500 31.51300
C  48.36000 28.05700 32.52300
O  49.46700 27.58200 32.17700
O  47.99900 28.40500 33.79000
C  48.97500 28.06800 34.85900
H  44.90900 21.67500 31.25500
H  46.27400 21.52400 25.12600
H  48.23300 27.61700 25.37600
H  46.96600 25.56400 33.14500
H  44.51200 23.88700 32.94000
H  45.78700 22.54400 34.34000
H  47.17300 23.69700 34.15200
H  46.89900 22.29900 33.14800
H  44.08200 25.92500 33.53100
H  44.89300 27.28000 32.61500
H  45.89500 28.03000 34.22400
H  46.45000 26.65200 34.98600
H  43.98500 18.77600 29.21600
H  44.33600 19.76800 30.68400
H  45.60700 18.87400 29.81600
H  45.47800 17.66700 27.58900
H  44.77500 17.25100 26.01200
H  43.74000 17.92400 27.23200
H  46.84300 23.58200 23.53000
H  49.25300 25.19200 24.30200
H  48.68600 21.73000 24.10200
H  49.73900 23.10100 23.49200
H  48.44500 22.52600 22.47800
H  47.68700 25.33100 22.20800
H  48.35300 26.86600 23.02100
H  45.73900 26.30900 24.09400
H  45.70300 26.14600 22.21700
H  46.18900 27.60100 23.05800
H  48.57300 30.63000 27.76700
H  48.12400 29.95400 26.26700
H  49.73700 29.47100 26.86600
H  46.39200 28.79900 31.90700
H  49.55900 27.16900 34.66100
H  48.34000 27.78200 35.69700
H  49.69100 28.85100 35.10800
Mg 0.38200 42.71100 25.08600
C  2.71600 42.37900 27.91300
C  -2.06600 41.82800 27.20200
C  -1.70000 42.46000 22.38500
C  3.12300 43.31200 23.12700
N  0.40800 42.09100 27.31100
C  1.37800 42.16600 28.31800
C  0.78400 42.07900 29.66700
C  -0.70600 41.76400 29.32000
C  -0.82700 41.88100 27.85400
C  -1.11900 40.32600 29.84200
C  0.97700 43.36700 30.53300
C  1.33100 43.20200 32.02200
H  0.88300 42.02900 32.75600
N  -1.58600 42.12400 24.79200
C  -2.46600 41.79500 25.82500
C  -3.77100 41.49900 25.26500
C  -3.66600 41.67600 23.82500
C  -2.29800 42.12100 23.61300
C  -4.98400 41.15400 26.07300
C  -4.73000 41.62900 22.74000
O  -4.45000 41.90500 21.62100
C  -6.09000 41.21700 23.08100
N  0.65800 42.94900 23.11100
C  -0.37600 42.93900 22.24100
C  0.08100 43.42900 20.86700
C  1.56300 44.02400 21.20800
C  1.84300 43.36400 22.58100
C  -0.03000 42.50200 19.60200
C  1.64900 45.60600 21.34200
C  0.96100 46.59500 20.43600
N  2.52200 42.78700 25.32500
C  3.48600 42.90700 24.40000
C  4.77000 42.90900 24.92100
C  4.50000 42.68700 26.31200
C  3.11000 42.68400 26.53000
C  6.09700 43.10900 24.28200
C  5.11300 42.54700 27.58800
O  6.26500 42.38700 27.83600
C  3.98300 42.52100 28.71900
C  4.28600 41.30400 29.51800
O  4.03200 40.13400 29.17200
O  4.90500 41.72300 30.69900
C  5.06200 40.64300 31.64700
H  -2.89400 41.61000 27.88000
H  -2.29300 42.66200 21.49000
H  4.01900 43.54600 22.54800
H  1.33300 41.19900 30.00400
H  -1.49500 42.40100 29.72000
H  -0.48200 39.79600 30.54900
H  -1.11100 39.63100 29.00200
H  -2.14500 40.37400 30.20700
H  0.02300 43.85900 30.34300
H  1.73600 43.95600 30.01800
H  0.84100 44.04200 32.51400
H  2.40500 43.33300 32.15800
H  -4.68700 41.18400 27.12100
H  -5.31400 40.18400 25.70200
H  -5.84200 41.82300 26.02800
H  -6.63200 41.17000 22.13700
H  -6.60300 42.05400 23.55500
H  -6.30100 40.33200 23.68200
H  -0.62200 44.22500 20.62100
H  2.35800 43.65600 20.56000
H  -0.28500 41.50200 19.95400
H  0.84500 42.60500 18.95900
H  -0.87700 42.85000 19.01000
H  2.71800 45.80200 21.25500
H  1.29200 45.83000 22.34700
H  0.20600 47.11500 21.02500
H  0.51400 46.02000 19.62500
H  1.78700 47.23100 20.11700
H  6.35400 44.15700 24.43600
H  6.14300 42.82900 23.23000
H  6.78500 42.43000 24.78700
H  3.99400 43.41800 29.33900
H  5.28100 41.07700 32.62300
H  5.89200 39.97000 31.42900
H  4.16400 40.03000 31.71200

