158

Mg 0.72900 6.70300 25.06700
C  1.27100 8.91600 27.67100
C  1.17700 4.20300 27.35800
C  0.11900 4.64600 22.64600
C  0.78300 9.43200 22.86000
N  0.87600 6.61300 27.33700
C  1.03700 7.58700 28.10700
C  0.94400 7.10300 29.57400
C  1.22200 5.59000 29.45500
C  1.12200 5.47200 27.96500
C  2.52600 4.91200 30.11700
C  -0.35700 7.47200 30.23000
C  -0.42400 7.42700 31.73400
H  0.75900 6.78200 32.47000
N  0.63000 4.76800 25.03500
C  0.90300 3.82800 26.07900
C  0.76000 2.54900 25.54200
C  0.31800 2.60200 24.18400
C  0.33800 4.05100 23.88000
C  1.15800 1.28900 26.39800
C  -0.00800 1.47500 23.24600
O  -0.40200 1.64400 22.10500
C  0.05000 0.03600 23.72400
N  0.16300 7.08600 23.02600
C  0.10400 6.01000 22.23300
C  0.03000 6.53300 20.76000
C  0.12300 8.09900 20.86700
C  0.42300 8.27300 22.33400
C  0.99600 5.88000 19.77800
C  -1.11500 9.00700 20.49000
C  -0.82100 10.41200 20.01000
N  1.15400 8.75800 25.17400
C  1.10600 9.74500 24.20000
C  1.55800 11.02900 24.77000
C  1.70400 10.69100 26.11200
C  1.35400 9.33300 26.30300
C  1.77000 12.36000 24.00900
C  2.03700 11.29500 27.45500
O  2.43400 12.44200 27.76300
C  1.71800 10.11100 28.51100
C  2.89400 9.86000 29.25100
O  3.97800 9.47300 28.84500
O  2.63300 10.15700 30.51600
C  3.75700 9.85700 31.39700
H  1.54200 3.54200 28.14700
H  -0.17900 3.93100 21.87600
H  0.92100 10.27900 22.18500
H  1.66700 7.63400 30.19300
H  0.38200 4.97200 29.77200
H  2.96000 5.56900 30.87100
H  3.29300 4.76500 29.35700
H  2.30600 3.94100 30.56000
H  -1.22000 6.97800 29.78400
H  -0.52900 8.51600 29.96600
H  -1.43300 7.10700 31.99700
H  -0.42200 8.43300 32.15400
H  1.69000 0.59400 25.74800
H  0.18600 0.88500 26.68100
H  1.64800 1.55600 27.33500
H  -0.69500 -0.29300 24.44800
H  1.08400 -0.08600 24.04800
H  -0.17700 -0.53800 22.82500
H  -0.94700 6.13800 20.48200
H  0.99900 8.52400 20.37800
H  1.73400 6.61100 19.44800
H  0.52500 5.47100 18.88500
H  1.46300 5.03600 20.28400
H  -1.81400 9.05200 21.32600
H  -1.66400 8.47200 19.71600
H  0.25200 10.60400 19.96600
H  -1.32200 11.16100 20.62400
H  -1.11900 10.49700 18.96500
H  1.11700 12.63000 23.17900
H  2.80900 12.29700 23.68400
H  1.72100 13.06200 24.84100
H  0.92800 10.56200 29.11200
H  4.11900 8.83000 31.36200
H  3.51200 9.91800 32.45700
H  4.52800 10.62200 31.30700
Mg 25.75800 0.34100 29.24500
C  27.36100 0.27500 32.43800
C  22.81000 0.56300 30.90600
C  24.27400 -0.32500 26.40200
C  28.87500 -0.71100 27.96700
N  25.14400 0.47900 31.55100
C  26.02500 0.52100 32.61600
C  25.29300 0.79600 33.87800
C  23.78300 0.76000 33.34000
C  23.85600 0.62000 31.88300
C  22.88200 -0.30800 34.06400
C  25.68800 2.16300 34.52700
C  26.02000 2.04300 36.02600
H  25.60100 3.10500 37.10900
N  23.87800 0.22000 28.69300
C  22.77700 0.34400 29.54400
C  21.57500 0.13500 28.79800
C  21.92600 -0.00300 27.46200
C  23.39600 0.04400 27.46400
C  20.17900 0.14700 29.44700
C  21.06800 -0.29000 26.23800
O  21.55700 -0.42500 25.11700
C  19.60700 -0.47400 26.35400
N  26.48900 -0.46700 27.42000
C  25.69200 -0.48000 26.34200
C  26.54900 -0.58400 25.04600
C  28.01400 -0.37500 25.57300
C  27.82200 -0.52800 27.08300
C  26.37700 -2.02300 24.45800
C  28.75200 0.94400 25.16600
C  28.05300 2.24400 25.13600
N  27.79300 -0.13000 30.02000
C  28.88100 -0.45700 29.35800
C  30.03300 -0.44100 30.28800
C  29.44600 -0.25700 31.50400
C  28.05300 -0.06100 31.26000
C  31.34500 -0.90400 29.92200
C  29.70600 -0.09000 32.90500
O  30.77300 -0.00100 33.48300
C  28.38400 0.28000 33.59200
C  28.17400 -0.81400 34.58800
O  27.55900 -1.83800 34.40700
O  28.82700 -0.45100 35.77500
C  28.86600 -1.51900 36.82800
H  21.86600 0.70600 31.43600
H  23.84000 -0.72000 25.48200
H  29.88200 -0.70100 27.54500
H  25.43200 -0.00800 34.60000
H  23.23200 1.68000 33.53500
H  22.03800 -0.59200 33.43600
H  22.46900 0.16000 34.95700
H  23.49800 -1.14000 34.40600
H  24.92200 2.92500 34.37700
H  26.53500 2.52500 33.94500
H  27.10600 2.12600 36.05300
H  25.75300 1.10000 36.50400
H  19.74900 1.14500 29.36500
H  20.23500 -0.09700 30.50800
H  19.58700 -0.68700 29.07300
H  19.42600 -1.47500 26.74600
H  19.32000 -0.22100 25.33400
H  19.33000 0.30300 27.06600
H  26.38300 0.15100 24.25900
H  28.61100 -1.19000 25.16300
H  26.47500 -1.97500 23.37300
H  25.46700 -2.51600 24.79700
H  27.20800 -2.67600 24.72400
H  29.25700 0.87800 24.20200
H  29.55200 1.01600 25.90300
H  28.12800 2.71100 24.15400
H  28.16300 3.01500 25.89800
H  26.98700 2.05300 25.26100
H  31.92400 -0.23500 29.28600
H  31.51900 -1.95100 29.67500
H  31.83900 -0.86400 30.89200
H  28.33900 1.32000 33.91600
H  29.40200 -2.40100 36.47700
H  27.93300 -1.68200 37.36700
H  29.47400 -1.20100 37.67500

