158

Mg 47.07100 44.47500 43.52000
C  43.52000 44.13800 43.14400
C  47.19500 41.06900 42.58900
C  50.41400 44.76700 43.25200
C  46.70100 47.92100 43.58600
N  45.53200 42.84600 42.92000
C  44.22000 42.95200 42.88200
C  43.60800 41.60300 42.68200
C  44.72600 40.54000 42.77800
C  45.92500 41.54900 42.75700
C  44.68200 39.44400 43.88400
C  42.61400 41.34500 41.45500
C  42.86600 42.14800 40.15700
H  42.89700 41.44700 38.85100
N  48.66400 43.14400 43.00200
C  48.43300 41.84700 42.54900
C  49.73700 41.25500 42.27600
C  50.71000 42.25200 42.52600
C  49.97000 43.45000 42.96400
C  49.89600 39.75800 42.01300
C  52.16500 42.04000 42.49700
O  52.62200 41.04900 41.92500
C  53.15600 43.05300 43.05500
N  48.44900 46.12800 43.58800
C  49.76000 46.02200 43.51000
C  50.46300 47.34600 43.45600
C  49.26700 48.30200 43.15400
C  48.06200 47.41900 43.44800
C  51.18000 47.62900 44.74000
C  49.26600 48.97600 41.78600
C  49.66700 50.45000 41.77600
N  45.49300 45.83200 43.47900
C  45.44300 47.19100 43.61800
C  44.07300 47.59900 43.94600
C  43.31700 46.43800 43.70100
C  44.16600 45.36000 43.44800
C  43.64300 49.09600 44.25300
C  41.98600 45.93100 43.65100
O  40.94100 46.52000 43.78500
C  42.01300 44.43300 43.26700
C  41.35300 43.58900 44.22600
O  40.71300 42.63200 43.95600
O  41.43100 44.00900 45.49500
C  41.16000 42.99600 46.47100
H  47.12500 40.01400 42.31500
H  51.49800 44.89300 43.21600
H  46.77600 49.00900 43.64300
H  43.06400 41.56400 43.62600
H  44.76500 40.04200 41.80800
H  43.66400 39.40700 44.27300
H  45.33400 39.60100 44.74300
H  44.91000 38.60500 43.22600
H  41.59100 41.47900 41.80700
H  42.74200 40.26700 41.36000
H  43.76800 42.75900 40.16400
H  42.09700 42.91900 40.10900
H  50.00600 39.52800 40.95300
H  49.11400 39.17300 42.49800
H  50.81700 39.48900 42.53000
H  53.33000 43.87000 42.35400
H  54.09000 42.52400 43.24200
H  52.78200 43.38700 44.02300
H  51.16800 47.31600 42.62600
H  49.33500 49.15000 43.83500
H  51.44200 46.73500 45.30500
H  50.72100 48.37100 45.39400
H  52.17500 48.02900 44.55000
H  48.28900 48.88700 41.31000
H  49.91000 48.42400 41.10100
H  50.11400 50.75800 42.72200
H  48.75900 51.04500 41.67000
H  50.35900 50.70200 40.97300
H  43.29100 49.59300 43.34900
H  44.42400 49.73300 44.66800
H  42.78100 49.01900 44.91500
H  41.56300 44.36600 42.27600
H  41.41300 41.97700 46.17900
H  40.08300 42.98800 46.63400
H  41.66700 43.24900 47.40200
Mg 30.00100 58.31400 40.66000
C  27.07700 56.64900 39.41200
C  31.94900 55.83000 39.63300
C  32.49100 60.40500 40.92000
C  27.79100 61.14800 41.16900
N  29.48100 56.54100 39.48100
C  28.31200 55.95500 39.16900
C  28.62600 54.52000 38.62700
C  30.06400 54.19200 39.30400
C  30.56500 55.70300 39.45100
C  30.03800 53.32000 40.64900
C  28.50200 54.54100 37.12600
C  27.32100 53.92300 36.42200
H  26.43700 54.81400 35.47500
N  32.02100 58.08000 40.49900
C  32.65600 56.94100 40.09100
C  34.08200 57.15800 40.03400
C  34.24500 58.55800 40.37600
C  32.91100 59.11000 40.58200
C  35.05700 56.15200 39.49900
C  35.59300 59.23200 40.41400
O  36.57900 58.59900 40.04800
C  35.78200 60.69900 40.73800
N  30.05500 60.47800 41.19700
C  31.26300 61.06400 41.20300
C  31.17600 62.54700 41.33300
C  29.65800 62.77800 41.59400
C  29.13400 61.38500 41.26900
C  32.11700 63.19600 42.42300
C  29.04900 63.93900 40.74700
C  28.71200 65.17200 41.60400
N  27.84000 58.81900 40.45400
C  27.16100 59.96300 40.76000
C  25.81600 59.79300 40.60400
C  25.74200 58.52200 40.01200
C  26.96500 57.90900 39.95500
C  24.74400 60.73300 40.88100
C  24.82500 57.54800 39.56800
O  23.61700 57.62600 39.48500
C  25.66000 56.27600 39.05600
C  25.05600 55.16900 39.87500
O  25.14600 55.01100 41.09200
O  24.44400 54.32100 38.98800
C  23.51000 53.30900 39.60600
H  32.57700 55.00400 39.29100
H  33.37000 61.03000 40.74900
H  27.31100 62.12600 41.25500
H  27.94000 53.72200 38.91100
H  30.67000 53.65200 38.57600
H  30.24100 54.06300 41.42100
H  30.82100 52.56500 40.57700
H  29.03300 52.92500 40.79800
H  29.31100 53.89100 36.79500
H  28.74900 55.51500 36.70200
H  26.64700 53.61600 37.22200
H  27.55200 52.97000 35.94700
H  35.57700 56.31700 38.55500
H  34.65400 55.14000 39.55100
H  35.89800 55.91800 40.15300
H  35.35400 60.82900 41.73200
H  35.37700 61.38800 39.99700
H  36.85700 60.88200 40.73500
H  31.39700 63.00700 40.37000
H  29.42900 62.97000 42.64200
H  32.88400 62.46100 42.66600
H  31.50400 63.28500 43.32000
H  32.60100 64.13300 42.15200
H  28.17100 63.68700 40.15200
H  29.74500 64.31700 39.99900
H  29.54500 65.87200 41.54400
H  28.79100 64.80800 42.62900
H  27.75700 65.62000 41.33100
H  23.85100 60.13800 41.07200
H  24.57800 61.29700 39.96300
H  24.99800 61.39000 41.71300
H  25.58500 56.09000 37.98500
H  23.70700 53.01800 40.63800
H  23.59200 52.43700 38.95700
H  22.49000 53.66900 39.47400

