158

Mg 1.28000 43.58100 25.98900
C  3.50000 43.80800 28.67700
C  -1.25900 42.94800 27.97500
C  -0.50200 42.93400 23.25900
C  4.19100 43.92900 23.83200
N  1.15500 43.40400 27.98100
C  2.13100 43.74800 28.92400
C  1.58100 43.81800 30.39200
C  0.23000 43.13100 30.20100
C  -0.01400 43.20200 28.64700
C  -0.03300 41.75700 30.80200
C  1.52900 45.27900 30.81500
C  1.47500 45.57200 32.37500
H  1.22000 44.45600 33.40000
N  -0.63400 43.12300 25.65400
C  -1.59500 42.99700 26.60400
C  -2.88000 42.72400 26.07200
C  -2.71700 42.62200 24.68000
C  -1.23200 42.88200 24.44100
C  -4.13900 42.50600 26.91300
C  -3.71800 42.37600 23.60500
O  -3.44300 42.21000 22.41000
C  -5.14700 42.28800 23.96200
N  1.77500 43.58500 23.85500
C  0.84700 43.15800 22.98900
C  1.43500 42.98100 21.58200
C  2.85500 43.53000 21.74200
C  2.97400 43.61600 23.26700
C  1.41300 41.49400 21.12100
C  3.00900 44.96800 20.92600
C  4.36800 45.57200 20.97100
N  3.40800 43.87300 26.16000
C  4.37900 44.03000 25.16700
C  5.62400 44.22500 25.85100
C  5.40400 44.13500 27.24300
C  4.00100 43.88200 27.35700
C  6.94300 44.61400 25.16900
C  5.92000 44.19500 28.56000
O  7.09200 44.37200 28.90300
C  4.74700 44.04400 29.53500
C  5.05700 43.06400 30.58000
O  4.84900 41.84800 30.50700
O  5.65700 43.63800 31.69200
C  5.68900 42.76700 32.98400
H  -2.02500 42.62100 28.68200
H  -1.12100 42.68000 22.39500
H  5.03600 43.96900 23.14200
H  2.12300 43.20300 31.11000
H  -0.60700 43.72500 30.56700
H  -0.87100 41.75400 31.49800
H  0.93000 41.48000 31.23200
H  -0.08900 40.99200 30.02700
H  0.61600 45.69600 30.39000
H  2.43800 45.80100 30.51600
H  0.58600 46.17800 32.55200
H  2.35000 46.03900 32.82800
H  -4.53300 41.52800 26.63600
H  -4.81900 43.28100 26.56100
H  -4.05900 42.62800 27.99300
H  -5.51400 43.21600 24.40100
H  -5.36900 41.38200 24.52600
H  -5.76400 42.35600 23.06600
H  0.82800 43.68900 21.01800
H  3.51700 42.76600 21.33400
H  1.36100 40.79200 21.95200
H  2.34600 41.35300 20.57600
H  0.57700 41.35500 20.43500
H  2.27200 45.75500 21.09100
H  2.78700 44.79500 19.87300
H  4.42400 46.22800 21.84000
H  4.61400 46.23400 20.14100
H  5.12500 44.80800 21.14800
H  6.86500 45.23100 24.27400
H  7.45100 43.68800 24.90200
H  7.57600 45.02500 25.95600
H  4.63700 45.01300 30.02200
H  4.98400 43.18500 33.70400
H  6.70000 42.55500 33.33000
H  5.20400 41.82200 32.74100
Mg -1.76200 34.85500 25.73500
C  -3.77000 33.33900 28.31800
C  -1.10000 37.47800 27.99900
C  0.04700 36.40900 23.37700
C  -2.82100 32.44100 23.66600
N  -2.67600 35.54700 27.79500
C  -3.20600 34.59100 28.70000
C  -3.17300 35.17700 30.19200
C  -2.47200 36.54900 30.01300
C  -2.08500 36.54500 28.50600
C  -3.41500 37.80600 30.24700
C  -2.49900 34.23300 31.22300
C  -3.19600 34.07900 32.64400
H  -2.52400 34.82300 33.74600
N  -0.66400 36.73700 25.66400
C  -0.50400 37.61200 26.73900
C  0.35300 38.69900 26.29900
C  0.76300 38.33600 25.03200
C  0.05900 37.13500 24.63300
C  0.66200 39.94300 27.09100
C  1.78100 38.93600 24.17300
O  2.13200 38.47700 23.10500
C  2.59500 40.10100 24.71800
N  -1.61700 34.58400 23.72100
C  -0.71300 35.30500 22.97100
C  -0.44500 34.45500 21.60900
C  -1.19400 33.12900 21.88900
C  -1.93300 33.39200 23.15400
C  -1.12600 35.18400 20.38500
C  -0.30400 31.80100 21.98800
C  0.97900 31.82900 22.87500
N  -3.10000 33.27600 25.86600
C  -3.33900 32.32900 24.92000
C  -4.24800 31.32200 25.49300
C  -4.45700 31.64000 26.87600
C  -3.76200 32.84000 27.03600
C  -4.80800 30.15700 24.69900
C  -5.05800 31.24600 28.07900
O  -5.82600 30.35900 28.36800
C  -4.55200 32.33400 29.15900
C  -5.67800 32.87100 29.91800
O  -6.30800 33.90100 29.72700
O  -5.89300 32.12000 31.03600
C  -6.95200 32.53200 31.98800
H  -0.75200 38.17200 28.76700
H  0.70300 36.56200 22.51700
H  -3.04000 31.61700 22.98300
H  -4.20600 35.36400 30.48600
H  -1.64100 36.65300 30.71100
H  -4.34200 37.45000 30.69700
H  -3.60000 38.42300 29.36800
H  -2.83800 38.41500 30.94300
H  -1.49200 34.59800 31.42100
H  -2.46000 33.20000 30.87900
H  -3.26500 33.01700 32.87900
H  -4.19000 34.49100 32.47000
H  1.71400 40.14900 27.28600
H  0.01200 39.90700 27.96500
H  0.21900 40.80500 26.59400
H  2.07300 41.05200 24.82500
H  3.38800 40.31300 24.00100
H  3.21500 39.76000 25.54700
H  0.63900 34.46400 21.50000
H  -1.96000 32.85200 21.16500
H  -1.73800 35.97400 20.81900
H  -1.80700 34.52300 19.84800
H  -0.39700 35.65600 19.72700
H  0.13300 31.50900 21.03300
H  -0.96500 31.05800 22.43400
H  0.88300 31.12600 23.70300
H  1.09400 32.86500 23.19100
H  1.87000 31.58900 22.29500
H  -3.93400 29.76400 24.17800
H  -5.50000 30.53200 23.94500
H  -5.34000 29.42600 25.30800
H  -3.89900 31.88200 29.90500
H  -6.51600 33.45100 32.38000
H  -6.97100 31.76000 32.75700
H  -7.91700 32.71500 31.51600

