158

Mg 9.07100 4.00100 27.93400
C  10.04200 2.26800 30.88900
C  7.48100 6.37800 29.99500
C  7.48900 5.20700 25.17900
C  10.28300 1.20700 25.99600
N  8.81000 4.29000 30.19500
C  9.34400 3.44900 31.16400
C  9.07200 4.04000 32.59500
C  8.05300 5.15800 32.29800
C  8.17000 5.30700 30.69300
C  6.65900 4.98200 32.88600
C  10.35900 4.44800 33.42000
C  10.08100 4.66900 34.87100
H  10.61100 3.65200 35.93800
N  7.87000 5.72800 27.58900
C  7.36100 6.55300 28.55800
C  6.54900 7.57800 27.86900
C  6.48900 7.24500 26.50300
C  7.30900 5.98600 26.36200
C  5.86700 8.72600 28.57100
C  5.85400 8.06400 25.35500
O  5.91400 7.65100 24.20100
C  5.16200 9.35200 25.65600
N  8.91400 3.27400 25.84800
C  8.25700 4.01100 24.97600
C  8.41500 3.42000 23.56500
C  9.49500 2.33300 23.76500
C  9.51200 2.19800 25.30300
C  7.04900 2.85100 23.01100
C  10.95000 2.70400 23.22200
C  11.62200 1.58000 22.49400
N  10.10300 2.24000 28.27400
C  10.52500 1.26100 27.40000
C  11.31000 0.30800 28.24000
C  11.11400 0.63300 29.58600
C  10.36900 1.83300 29.55800
C  12.15800 -0.84300 27.76300
C  11.50300 0.31100 30.98600
O  12.16300 -0.59700 31.46300
C  10.77700 1.32000 31.85100
C  10.07100 0.49500 32.77900
O  8.95100 0.07000 32.58300
O  10.76200 0.49800 34.01200
C  9.94200 -0.11400 35.12600
H  6.92400 7.04000 30.66200
H  6.88700 5.58100 24.34800
H  10.74400 0.32200 25.55100
H  8.46800 3.23000 33.00500
H  8.36600 6.08000 32.78600
H  6.50300 5.89500 33.46100
H  6.46200 4.13500 33.54200
H  5.84900 4.89400 32.16200
H  10.64500 5.40900 32.99100
H  11.20400 3.76000 33.43700
H  9.01100 4.74300 35.06600
H  10.52600 5.61600 35.17600
H  6.33700 9.70500 28.66500
H  5.91700 8.58400 29.65100
H  4.84900 8.70900 28.18100
H  5.77800 10.00600 26.27300
H  4.34600 8.94300 26.25100
H  4.80700 9.93600 24.80700
H  8.84900 4.17600 22.91100
H  9.06700 1.38400 23.44200
H  7.14500 1.79900 22.74100
H  6.75000 3.41900 22.13000
H  6.24700 2.97800 23.73800
H  11.50500 3.09800 24.07400
H  10.80600 3.50300 22.49400
H  11.58800 1.74200 21.41600
H  11.21500 0.59600 22.72800
H  12.67800 1.41300 22.70900
H  12.71300 -0.61500 26.85300
H  11.46800 -1.68000 27.65500
H  12.82900 -1.14000 28.56900
H  11.56900 1.84400 32.38600
H  9.85300 -1.17400 34.88800
H  8.90200 0.20400 35.19100
H  10.48400 -0.04600 36.06900
Mg -10.07100 40.65500 42.97700
C  -8.64100 37.59300 42.13200
C  -7.44000 42.21700 41.30900
C  -11.75500 43.55700 43.23400
C  -12.78600 38.95600 44.39900
N  -8.33700 39.99800 41.67300
C  -7.97200 38.64600 41.44800
C  -6.66400 38.58700 40.67300
C  -6.19700 40.09500 40.68500
C  -7.44300 40.81500 41.13800
C  -4.98200 40.40900 41.49600
C  -7.00400 38.10500 39.24100
C  -6.39800 36.79900 38.66600
H  -5.23300 37.10600 37.59100
N  -9.61300 42.59100 42.46400
C  -8.47900 43.04200 41.82900
C  -8.53500 44.44400 41.56100
C  -9.81900 44.87600 42.16200
C  -10.48800 43.66800 42.67200
C  -7.53200 45.26300 40.70200
C  -10.29000 46.33900 41.97000
O  -9.50500 47.20700 41.60700
C  -11.75000 46.68900 42.28400
N  -12.05300 41.20200 43.48500
C  -12.52400 42.43400 43.59500
C  -13.88300 42.50200 44.24600
C  -14.18300 41.02000 44.52700
C  -12.92000 40.32300 44.14900
C  -13.86800 43.29700 45.52700
C  -15.33400 40.40700 43.80400
C  -16.60800 40.18200 44.67300
N  -10.60100 38.66100 43.34200
C  -11.66300 38.16500 44.00400
C  -11.54500 36.72000 44.04500
C  -10.32400 36.43300 43.35800
C  -9.82400 37.66100 42.88300
C  -12.40700 35.73700 44.77500
C  -9.37400 35.44800 42.86400
O  -9.32200 34.22800 42.89500
C  -8.27000 36.16600 42.07800
C  -6.92600 35.89100 42.72200
O  -6.46100 36.44600 43.63900
O  -6.27700 34.92600 41.92700
C  -4.86500 34.82700 41.93400
H  -6.46900 42.63700 41.03800
H  -12.39500 44.43900 43.30600
H  -13.61000 38.45500 44.91200
H  -6.02200 37.87600 41.19300
H  -6.06100 40.44800 39.66300
H  -4.40400 41.17700 40.98300
H  -4.30000 39.55900 41.53000
H  -5.29600 40.73000 42.48900
H  -6.72200 38.86500 38.51100
H  -8.08300 37.96000 39.18600
H  -7.20300 36.23300 38.19700
H  -5.96200 36.20600 39.47000
H  -6.77400 44.68600 40.17200
H  -7.04000 45.96500 41.37500
H  -8.14100 45.61700 39.87000
H  -11.84800 46.86000 43.35600
H  -12.36500 45.85200 41.95500
H  -12.01400 47.45400 41.55400
H  -14.54100 43.08900 43.60500
H  -14.18800 40.82000 45.59900
H  -14.76800 42.94000 46.02800
H  -13.97700 44.38100 45.48000
H  -12.94300 43.18800 46.09300
H  -15.07400 39.45700 43.33600
H  -15.54600 40.94800 42.88300
H  -16.59000 40.91000 45.48500
H  -16.51900 39.16500 45.05500
H  -17.54300 40.28800 44.12300
H  -13.39200 35.66300 44.31400
H  -12.54200 35.97100 45.83100
H  -11.91500 34.76500 44.73600
H  -8.27200 35.75000 41.07100
H  -4.57100 34.14300 41.13800
H  -4.43900 34.30500 42.79000
H  -4.35900 35.78600 41.82500

