158

Mg 40.84200 9.27900 29.22800
C  42.46300 10.76600 31.96700
C  38.54400 7.99900 31.45600
C  39.12300 8.07100 26.60300
C  43.38000 10.41400 27.28000
N  40.60300 9.38300 31.44700
C  41.38500 10.06100 32.39900
C  40.77000 10.02500 33.77400
C  39.67300 8.90900 33.54100
C  39.54900 8.74300 32.02700
C  40.01300 7.61800 34.30800
C  40.19500 11.26800 34.45300
C  39.76300 11.21600 35.92800
H  40.24300 12.41700 36.77100
N  39.00500 8.22800 29.05900
C  38.23900 7.79600 30.05000
C  37.03300 7.17100 29.52700
C  37.06400 7.40900 28.08300
C  38.43600 7.94900 27.83400
C  36.00200 6.60200 30.40500
C  36.02300 7.15700 27.07400
O  36.19400 7.26100 25.86900
C  34.73800 6.79200 27.50400
N  41.24400 9.11900 27.28000
C  40.39900 8.63100 26.37300
C  41.01800 8.61400 24.94200
C  42.31900 9.49300 25.19700
C  42.32600 9.78600 26.67600
C  41.12300 7.16800 24.35600
C  42.41000 10.83900 24.37600
C  41.56500 12.09300 24.87900
N  42.63000 10.20600 29.51100
C  43.52500 10.62000 28.60900
C  44.55600 11.39800 29.23700
C  44.17200 11.54800 30.55600
C  42.97500 10.80800 30.70500
C  45.77000 11.87000 28.47700
C  44.56000 12.02600 31.86400
O  45.57400 12.67800 32.17200
C  43.38200 11.59700 32.86100
C  44.01000 10.82500 33.98800
O  44.90700 10.06600 33.86400
O  43.58000 11.22300 35.13800
C  44.15300 10.80700 36.40000
H  37.80400 7.56200 32.12900
H  38.63400 7.65400 25.72000
H  44.15000 10.92800 26.70200
H  41.45700 9.64900 34.53300
H  38.75200 9.30500 33.97000
H  41.03100 7.65000 34.69600
H  39.99900 6.76300 33.63100
H  39.30200 7.41700 35.11000
H  39.37900 11.59100 33.80600
H  40.91600 12.05700 34.23600
H  39.97700 10.24700 36.37900
H  38.68600 11.33400 36.04100
H  36.52100 6.24600 31.29400
H  35.50500 5.73700 29.96600
H  35.27400 7.39500 30.57900
H  34.63200 5.70700 27.52700
H  33.99400 7.09100 26.76600
H  34.41000 7.27400 28.42400
H  40.30400 9.20300 24.36600
H  43.15000 8.84000 24.92800
H  40.65100 7.19900 23.37400
H  40.62800 6.44600 25.00500
H  42.18600 6.93000 24.40400
H  42.20100 10.70700 23.31400
H  43.45600 11.13000 24.47700
H  40.95000 11.67000 25.67300
H  41.10900 12.37600 23.93000
H  42.22500 12.89400 25.21000
H  46.24200 11.05500 27.92900
H  46.46100 12.16800 29.26500
H  45.59000 12.65500 27.74300
H  42.98600 12.54100 33.23600
H  45.22000 10.61900 36.27900
H  43.68000 9.88300 36.73100
H  43.87800 11.53900 37.15900
Mg 50.12000 46.35700 42.83000
C  46.84100 46.91200 41.65800
C  49.85000 43.24300 41.29800
C  53.38400 45.97200 43.38300
C  50.25500 49.75600 43.63100
N  48.41100 45.19700 41.69000
C  47.23900 45.65900 41.34900
C  46.55200 44.68800 40.38700
C  47.45200 43.37300 40.47500
C  48.65600 43.98100 41.19400
C  46.79700 42.19000 41.26500
C  46.42200 45.20500 38.89900
C  45.01100 45.00700 38.27100
H  45.04800 43.76600 37.35100
N  51.46200 44.79100 42.48400
C  51.13200 43.58300 41.90600
C  52.32200 42.90600 41.66900
C  53.38100 43.62700 42.22900
C  52.76700 44.86200 42.74200
C  52.33400 41.63600 40.94100
C  54.90500 43.12600 42.23200
O  55.29300 42.07300 41.79400
C  55.89700 43.89900 42.97500
N  51.54000 47.62400 43.53500
C  52.80300 47.28300 43.60700
C  53.68100 48.50600 44.00200
C  52.63200 49.62800 44.14400
C  51.40100 48.98700 43.68200
C  54.56800 48.29400 45.30100
C  53.08100 50.95800 43.36500
C  53.04500 52.27100 44.09500
N  48.75600 47.99700 42.96200
C  48.98400 49.32100 43.18000
C  47.72300 50.06100 43.00600
C  46.83300 49.20600 42.45600
C  47.54700 47.93800 42.39100
C  47.58700 51.51100 43.26200
C  45.55500 49.07900 41.89100
O  44.66200 49.96300 41.79900
C  45.45000 47.55800 41.36800
C  44.27100 46.97900 42.06200
O  44.36900 46.52700 43.19500
O  43.29500 46.84900 41.18300
C  42.18900 46.05600 41.64600
H  49.67600 42.24300 40.89600
H  54.45400 45.95700 43.60100
H  50.28300 50.84700 43.68700
H  45.56200 44.44800 40.77500
H  47.76700 42.88300 39.55400
H  45.74500 42.09800 40.99300
H  46.77300 42.34500 42.34300
H  47.28400 41.23900 41.05000
H  47.17100 44.72000 38.27400
H  46.67200 46.26600 38.87000
H  44.86600 45.89800 37.66000
H  44.11900 44.85200 38.87900
H  51.87800 40.83500 41.52400
H  53.34100 41.22400 40.88500
H  51.76300 41.70400 40.01500
H  56.72200 43.18700 42.99700
H  55.54400 44.00700 44.00000
H  56.30600 44.74700 42.42500
H  54.25400 48.54900 43.07600
H  52.47700 49.79700 45.21000
H  54.28000 48.58800 46.31100
H  55.38700 48.95500 45.01800
H  54.89300 47.25400 45.30100
H  52.42000 51.04800 42.50300
H  54.09600 50.77600 43.01200
H  52.68100 52.13800 45.11300
H  52.62300 53.11000 43.54300
H  54.10300 52.51900 44.18700
H  48.07900 51.70400 44.21600
H  46.53600 51.79000 43.34100
H  48.06500 52.17400 42.54200
H  45.18700 47.55900 40.31000
H  41.28100 46.58700 41.93100
H  42.47200 45.41200 42.47900
H  41.91600 45.34900 40.86300

