158

Mg 24.30300 -5.61100 45.67200
C  26.33800 -3.30800 44.06000
C  21.64000 -4.34700 43.73100
C  22.48200 -8.38900 46.25200
C  27.09700 -7.16500 46.98100
N  24.06600 -4.13300 43.84700
C  25.03000 -3.21200 43.59900
C  24.38900 -2.09500 42.68300
C  22.88000 -2.46000 42.64400
C  22.82200 -3.71900 43.49800
C  21.90100 -1.34400 43.13500
C  25.00900 -2.18400 41.24700
C  25.60200 -0.87300 40.63200
H  25.63400 -0.78100 39.06400
N  22.37000 -6.21700 45.15000
C  21.42300 -5.53800 44.44200
C  20.11800 -6.25400 44.47300
C  20.30900 -7.37500 45.34300
C  21.75600 -7.35100 45.65000
C  18.99400 -5.71700 43.64300
C  19.25800 -8.41400 45.67600
O  18.09500 -8.29800 45.24700
C  19.60700 -9.58800 46.50200
N  24.78700 -7.60700 46.29900
C  23.80600 -8.50100 46.61300
C  24.39800 -9.72700 47.28400
C  25.92200 -9.33800 47.38300
C  25.99200 -8.05400 46.78300
C  23.81300 -10.17200 48.65900
C  26.88000 -10.37800 46.83500
C  27.81100 -11.03400 47.84600
N  26.27800 -5.21100 45.79100
C  27.29000 -5.84900 46.48800
C  28.50100 -5.06200 46.43900
C  28.20200 -4.07400 45.48300
C  26.84700 -4.25300 45.04800
C  29.79000 -5.33000 47.10600
C  28.75300 -2.91300 44.80400
O  29.85600 -2.33200 44.84400
C  27.52800 -2.39200 43.84600
C  27.21700 -1.00300 44.24000
O  26.52200 -0.66100 45.13000
O  27.72200 -0.17300 43.18200
C  27.51000 1.27000 43.29200
H  20.77000 -3.91400 43.23300
H  21.96300 -9.32000 46.48600
H  27.93200 -7.64600 47.49500
H  24.56900 -1.09100 43.06700
H  22.51900 -2.65900 41.63500
H  21.50800 -0.81700 42.26600
H  22.53100 -0.62200 43.65500
H  21.14800 -1.69000 43.84300
H  24.61900 -2.73100 40.38800
H  25.93500 -2.73900 41.40000
H  26.62100 -0.85000 41.01700
H  25.13200 0.04400 40.98700
H  19.30800 -5.48100 42.62600
H  18.61600 -4.85700 44.19700
H  18.17500 -6.43500 43.65000
H  20.12100 -9.25800 47.40500
H  20.19800 -10.34800 45.99200
H  18.63400 -9.97100 46.81000
H  24.26900 -10.49900 46.52600
H  26.17600 -9.03600 48.39900
H  23.60200 -11.24100 48.68500
H  23.02500 -9.48600 48.97000
H  24.54100 -10.11700 49.46900
H  27.42300 -9.98600 45.97500
H  26.30700 -11.18700 46.38300
H  28.78700 -11.00800 47.36100
H  27.64800 -12.07500 48.12700
H  27.78900 -10.42500 48.74900
H  30.25800 -6.27600 46.83300
H  29.63600 -5.45600 48.17700
H  30.52300 -4.58500 46.79800
H  28.05300 -2.44000 42.89100
H  28.46000 1.63000 42.89700
H  27.36200 1.51600 44.34400
H  26.72700 1.54100 42.58400
Mg 42.28200 41.63000 26.35400
C  41.39400 43.97300 28.74500
C  43.52400 39.61200 28.98400
C  43.11000 39.30800 24.03900
C  41.53200 43.86100 23.84600
N  42.52900 41.78100 28.57500
C  41.87700 42.78000 29.30400
C  41.82500 42.48100 30.80700
C  42.69900 41.19400 30.80500
C  42.99800 40.82400 29.39300
C  44.05800 41.34300 31.60100
C  40.26500 42.32500 31.39400
C  40.15800 42.69800 32.91400
H  39.68000 41.73100 33.91000
N  43.12400 39.68700 26.46500
C  43.59600 39.10000 27.62500
C  44.11300 37.77000 27.22000
C  43.88900 37.60100 25.86500
C  43.37200 38.90800 25.39500
C  44.80700 36.88600 28.23500
C  44.02800 36.33000 24.99600
O  43.94500 36.38900 23.74300
C  44.51600 35.03400 25.63500
N  42.36000 41.59400 24.28300
C  42.65300 40.50800 23.54900
C  42.46900 40.72600 22.07900
C  41.96500 42.18700 22.04700
C  41.87300 42.61300 23.47000
C  43.80700 40.45900 21.38300
C  40.77200 42.49700 21.09800
C  41.12700 42.44400 19.59000
N  41.63700 43.56000 26.24300
C  41.35600 44.33600 25.14400
C  40.84100 45.59700 25.57300
C  40.81200 45.56800 27.04100
C  41.31300 44.25700 27.36300
C  40.35300 46.71200 24.66000
C  40.42400 46.23000 28.23400
O  39.89000 47.32600 28.41700
C  40.81800 45.20300 29.40700
C  41.58100 45.79300 30.58000
O  42.81400 45.77800 30.75700
O  40.64600 46.31400 31.46000
C  41.18700 46.80100 32.73200
H  43.65000 38.85600 29.76200
H  43.27700 38.52700 23.29400
H  41.22800 44.53300 23.04000
H  42.26100 43.25900 31.43400
H  42.08200 40.45800 31.32000
H  44.20600 42.28400 32.13200
H  44.87800 41.26100 30.88700
H  44.29800 40.61400 32.37500
H  39.84900 41.34100 31.17700
H  39.67700 42.92800 30.70200
H  39.33400 43.41000 32.97000
H  41.03500 43.15600 33.37100
H  45.34300 36.01400 27.85900
H  44.04100 36.40500 28.84200
H  45.55300 37.51100 28.72600
H  44.06300 34.33500 24.93200
H  43.98800 34.92900 26.58300
H  45.59700 34.95000 25.74000
H  41.68100 40.03400 21.78300
H  42.67700 42.84200 21.54400
H  43.58400 39.74000 20.59500
H  44.55900 39.98900 22.01800
H  44.17800 41.36800 20.91100
H  40.44000 43.52000 21.27200
H  39.98100 41.79200 21.35400
H  42.21400 42.36900 19.54700
H  40.75900 43.35200 19.11400
H  40.71400 41.59500 19.04600
H  39.37700 46.92500 25.09600
H  40.22300 46.36600 23.63400
H  41.04900 47.55000 24.65800
H  39.86000 45.03400 29.89800
H  42.03300 47.45100 32.50700
H  41.64400 46.10300 33.43400
H  40.43000 47.48400 33.11800

