158

Mg 48.36500 34.51300 27.67000
C  46.38200 33.19200 30.19000
C  48.62000 37.46400 29.56100
C  49.55300 36.11700 24.97100
C  47.27300 31.84500 25.63300
N  47.71000 35.14200 29.66400
C  46.94300 34.43900 30.50300
C  47.04100 35.10300 31.95100
C  47.27300 36.58500 31.53300
C  47.94000 36.40000 30.17600
C  46.07900 37.59100 31.48700
C  48.26400 34.45800 32.67400
C  48.52900 34.98000 34.10700
H  47.64600 36.01100 34.78500
N  49.26200 36.50400 27.33000
C  49.24200 37.52600 28.24500
C  49.82600 38.64000 27.63300
C  50.16900 38.39100 26.25000
C  49.68800 36.94300 26.11400
C  49.95100 39.93700 28.40900
C  50.63000 39.25600 25.16500
O  50.72400 38.86400 24.02600
C  50.76300 40.72500 25.46300
N  48.35200 34.05100 25.61700
C  48.91300 34.88500 24.72800
C  48.95300 34.30500 23.30500
C  48.24800 32.94400 23.55200
C  47.84800 32.92800 25.03600
C  48.27300 35.17700 22.09400
C  49.08500 31.67700 23.04800
C  50.22700 31.06500 24.00500
N  47.19300 32.76000 27.87300
C  46.94300 31.70500 26.99700
C  46.16400 30.71200 27.72900
C  45.87600 31.30800 28.95700
C  46.52900 32.50600 28.99100
C  45.75600 29.28200 27.24700
C  45.17600 31.09000 30.18100
O  44.54000 30.10800 30.54200
C  45.42300 32.39100 31.05700
C  45.77600 31.95600 32.45800
O  46.75800 31.24000 32.79200
O  44.79700 32.47200 33.28800
C  44.96400 32.21900 34.71100
H  48.45900 38.41500 30.07200
H  49.74800 36.59000 24.00600
H  47.10000 30.97800 24.99200
H  46.23700 34.90300 32.65900
H  48.09800 37.02200 32.09600
H  45.15800 37.06700 31.23200
H  46.22100 38.26900 30.64500
H  46.02100 38.21200 32.38100
H  49.06200 34.59200 31.94500
H  48.21200 33.37000 32.66400
H  49.56800 35.31000 34.14900
H  48.47600 34.08400 34.72500
H  50.86700 40.44300 28.10200
H  50.12700 39.69900 29.45900
H  49.08800 40.58900 28.28200
H  50.03200 41.06800 26.19500
H  50.69800 41.37600 24.59100
H  51.74000 40.86600 25.92500
H  50.04200 34.29400 23.27100
H  47.30600 32.93200 23.00300
H  48.99300 35.38400 21.30300
H  47.98600 36.12400 22.55200
H  47.42800 34.61500 21.69700
H  49.40400 32.05400 22.07600
H  48.28000 30.94800 22.96300
H  49.65700 30.27800 24.49800
H  50.49900 31.86200 24.69700
H  51.10600 30.61300 23.54400
H  45.31200 28.84300 28.14000
H  46.64400 28.75900 26.89400
H  44.96100 29.48700 26.53000
H  44.47300 32.91500 31.16100
H  45.94400 31.87000 35.03600
H  44.29600 31.44100 35.08100
H  44.64100 33.05900 35.32600
Mg 6.57800 54.28300 42.18700
C  6.00300 50.81000 41.58700
C  9.57000 53.86200 40.57500
C  6.52800 57.55300 41.71500
C  3.25200 54.42000 43.24500
N  7.51000 52.54600 41.07300
C  7.18000 51.22200 40.99600
C  8.29100 50.37100 40.45200
C  9.56500 51.32000 40.64800
C  8.85000 52.69800 40.86500
C  10.60400 50.97400 41.62800
C  8.04700 49.86100 39.04700
C  7.30400 50.70900 38.06600
H  6.82200 50.19800 36.79500
N  7.95900 55.58100 41.38600
C  9.17900 55.21300 40.87900
C  9.95500 56.42600 40.76000
C  9.08100 57.52400 40.95100
C  7.74700 56.95100 41.30600
C  11.45600 56.46800 40.57800
C  9.38900 58.96200 40.73500
O  10.54700 59.30400 40.36100
C  8.43700 60.02600 40.81300
N  5.09000 55.73900 42.47500
C  5.30500 57.00500 42.19000
C  4.05900 57.91900 42.55500
C  2.98300 56.91300 42.77700
C  3.79600 55.58100 42.89100
C  4.38500 58.94600 43.69400
C  1.81200 56.76700 41.73800
C  0.49400 57.06000 42.34000
N  5.02600 52.92500 42.52500
C  3.80500 53.11300 43.16400
C  3.17400 51.90100 43.58700
C  3.99500 50.95400 42.87700
C  5.02400 51.61300 42.21400
C  2.02400 51.69000 44.53400
C  4.20500 49.57500 42.70500
O  3.56700 48.65800 43.13500
C  5.47400 49.37800 41.76700
C  5.11500 48.63200 40.48600
O  4.30800 48.99500 39.67700
O  5.79700 47.48800 40.32200
C  5.27300 46.53100 39.35700
H  10.61400 53.69500 40.30300
H  6.46200 58.64300 41.74600
H  2.24600 54.36700 43.66700
H  8.35300 49.51000 41.11700
H  10.06200 51.49700 39.69500
H  10.40400 49.99900 42.07300
H  10.56800 51.73800 42.40500
H  11.60600 50.92600 41.20100
H  7.78500 48.80300 39.07700
H  9.05600 49.77800 38.64300
H  7.95000 51.57800 37.93600
H  6.41200 51.10600 38.55000
H  11.65000 57.05500 39.68100
H  11.95200 55.51600 40.38700
H  11.97100 57.00000 41.37700
H  7.55600 59.83500 40.20200
H  8.87600 60.98200 40.52900
H  8.08800 60.04300 41.84600
H  3.71100 58.53200 41.72400
H  2.63200 57.14600 43.78200
H  5.44100 59.02600 43.95200
H  3.83100 58.59300 44.56400
H  3.99400 59.94200 43.48500
H  1.82100 55.80300 41.22900
H  2.10100 57.48800 40.97200
H  0.27500 56.41600 43.19200
H  -0.22600 56.79000 41.56700
H  0.49300 58.08900 42.70000
H  1.87600 52.53900 45.20100
H  2.17200 50.77100 45.10200
H  1.13300 51.67700 43.90600
H  6.19500 48.78000 42.32500
H  5.76000 45.57200 39.53200
H  5.38900 46.90000 38.33800
H  4.23500 46.31500 39.61000

