158

Mg -1.94000 16.82200 27.40600
C  -2.55100 14.76800 30.26200
C  -2.15500 19.41300 29.34100
C  -1.78800 18.53700 24.52400
C  -1.75500 13.76200 25.52400
N  -2.15000 16.92900 29.56700
C  -2.24800 16.01700 30.58600
C  -2.11700 16.73300 31.98500
C  -1.97000 18.27300 31.57600
C  -2.07000 18.19500 30.04600
C  -2.83200 19.26800 32.33200
C  -0.92200 16.33800 32.94100
C  -0.41300 17.29700 34.06600
H  -0.37700 16.84200 35.57700
N  -2.03600 18.77700 26.99900
C  -2.14900 19.77100 27.94500
C  -2.12400 21.07200 27.29600
C  -2.10500 20.75200 25.91800
C  -1.97000 19.26200 25.74300
C  -2.17500 22.40300 27.95300
C  -2.13200 21.78600 24.80600
O  -2.19200 21.52100 23.63700
C  -2.20900 23.27200 25.05200
N  -1.72900 16.19300 25.30600
C  -1.69800 17.15700 24.34900
C  -1.71700 16.52000 22.94800
C  -1.36300 15.02700 23.27300
C  -1.49800 14.96100 24.81700
C  -3.12400 16.70300 22.23500
C  0.13600 14.81500 22.79500
C  1.18300 15.84100 23.26000
N  -2.22500 14.68800 27.72000
C  -2.09500 13.59000 26.88000
C  -2.53500 12.44600 27.60600
C  -2.65800 12.83100 28.96200
C  -2.41800 14.21700 28.95100
C  -2.71300 11.07200 26.99500
C  -2.91100 12.33800 30.27600
O  -3.17300 11.26800 30.78100
C  -2.69900 13.59900 31.23800
C  -1.37000 13.33100 31.84800
O  -0.35700 13.27700 31.15400
O  -1.39700 12.93800 33.22100
C  -0.16300 12.58400 33.92200
H  -2.17000 20.32600 29.93900
H  -1.79900 19.14800 23.61900
H  -1.44800 12.85900 24.99200
H  -3.03400 16.56600 32.54900
H  -0.90800 18.51400 31.62000
H  -3.71900 19.69100 31.86000
H  -2.20300 20.07500 32.70900
H  -3.21900 18.85500 33.26300
H  -0.02500 16.14900 32.35200
H  -1.21900 15.42200 33.45100
H  -1.07200 18.15800 33.94900
H  0.60900 17.49800 33.74200
H  -1.38500 23.06400 27.59500
H  -2.16100 22.28800 29.03700
H  -3.09900 22.90100 27.66000
H  -2.08100 23.77600 24.09400
H  -1.49900 23.78800 25.69800
H  -3.25300 23.51900 25.24400
H  -0.95900 16.93200 22.28100
H  -1.96700 14.25700 22.79200
H  -3.82000 17.23400 22.88400
H  -3.54100 15.75800 21.88800
H  -3.02100 17.36500 21.37600
H  0.06400 14.87000 21.70900
H  0.51600 13.80400 22.94400
H  1.55300 16.24800 22.31900
H  1.95500 15.31700 23.82300
H  0.91500 16.67100 23.91300
H  -3.70100 10.96100 26.54800
H  -2.60700 10.36800 27.82100
H  -1.97200 10.90800 26.21200
H  -3.48200 13.66700 31.99300
H  0.73800 12.75700 33.33300
H  -0.16600 11.50900 34.10200
H  -0.09400 13.02700 34.91500
Mg 49.41800 36.16500 28.41600
C  46.91900 34.57500 30.35600
C  49.18600 38.79100 30.59200
C  51.28200 37.80200 26.29600
C  48.79400 33.69500 25.92800
N  48.34400 36.54200 30.39600
C  47.40300 35.71000 31.00300
C  46.93100 36.41900 32.34200
C  47.70400 37.79800 32.31100
C  48.54000 37.68800 31.05200
C  46.73800 39.03700 32.38500
C  47.02300 35.61700 33.75000
C  48.31000 34.76900 33.90300
H  49.37000 35.42500 34.82300
N  50.16400 38.07300 28.48200
C  49.93500 39.04700 29.41900
C  50.55500 40.29400 29.02800
C  51.15400 40.01600 27.81900
C  50.96400 38.59300 27.49900
C  50.42700 41.62100 29.71500
C  52.03400 40.95400 26.93200
O  52.56900 40.59100 25.85900
C  52.26800 42.37300 27.31600
N  49.99500 35.71200 26.46100
C  50.79200 36.56300 25.78200
C  51.04600 36.06000 24.37000
C  50.20500 34.85000 24.25500
C  49.68800 34.65400 25.65600
C  50.81100 37.05900 23.19800
C  50.91800 33.55800 23.61100
C  50.17300 33.08500 22.43500
N  48.19500 34.46600 28.17200
C  48.07800 33.54400 27.08600
C  47.11100 32.56300 27.41400
C  46.55300 32.90900 28.65200
C  47.29500 34.05900 29.07200
C  46.62100 31.45100 26.55500
C  45.53000 32.60500 29.70500
O  44.68100 31.76500 29.79800
C  45.76900 33.64600 30.85800
C  46.13300 32.90500 31.99900
O  47.20400 32.29200 32.20700
O  45.10200 32.87300 32.88200
C  45.46400 32.32400 34.21100
H  49.31800 39.69100 31.19800
H  51.87900 38.38900 25.59600
H  48.63600 32.90400 25.19100
H  45.86800 36.59000 32.17400
H  48.31300 37.91800 33.20600
H  46.41700 39.28100 31.37200
H  47.14300 39.92700 32.86800
H  45.85600 38.75000 32.95600
H  46.16200 34.95100 33.79900
H  46.96800 36.30600 34.59200
H  48.75000 34.67300 32.91100
H  48.03800 33.85300 34.42700
H  50.25100 42.42200 28.99700
H  51.35000 41.90100 30.22300
H  49.53600 41.58300 30.34200
H  51.35200 42.96200 27.35500
H  52.66700 42.87500 26.43400
H  52.94900 42.39600 28.16600
H  52.10500 35.80500 24.33800
H  49.33200 35.14100 23.67100
H  50.84600 38.07200 23.60100
H  49.91900 36.88600 22.59600
H  51.63700 36.91100 22.50400
H  50.98700 32.78400 24.37600
H  51.94200 33.85800 23.38800
H  50.75700 32.77100 21.56900
H  49.42900 33.77300 22.03500
H  49.60100 32.23100 22.79700
H  45.94400 31.93800 25.85300
H  46.17000 30.65200 27.14400
H  47.48500 31.10500 25.98900
H  44.88600 34.26400 31.01800
H  45.45500 31.23600 34.26900
H  44.77300 32.74400 34.94100
H  46.42900 32.66500 34.58600

