158

Mg 36.15500 2.57900 30.34600
C  33.87200 3.34600 32.95700
C  38.76900 3.03900 32.66000
C  38.42600 2.39000 27.94000
C  33.59900 2.71500 28.02900
N  36.22600 3.10200 32.60900
C  35.20800 3.36600 33.42300
C  35.67200 3.52400 34.89300
C  37.24700 3.50800 34.70000
C  37.43000 3.26900 33.19700
C  37.84900 4.96300 35.11800
C  35.27700 2.31800 35.80800
C  34.78200 2.68300 37.25600
H  35.59400 3.78000 37.99100
N  38.30100 2.37700 30.34100
C  39.13000 2.51500 31.37700
C  40.38300 1.97300 31.01500
C  40.34000 1.81500 29.62400
C  39.00500 2.24200 29.21200
C  41.43500 1.61700 31.99300
C  41.39600 1.32200 28.72000
O  41.23300 1.25900 27.51300
C  42.81900 0.86700 29.13800
N  35.97100 2.69200 28.22800
C  37.10200 2.50600 27.46200
C  36.66900 2.31800 25.96000
C  35.09900 2.27600 25.99900
C  34.87500 2.48800 27.50900
C  37.27500 3.22200 24.87100
C  34.46600 0.97000 25.59300
C  33.04600 1.09300 24.96200
N  34.12300 2.88100 30.43800
C  33.20300 2.92200 29.43300
C  31.87000 3.33800 29.97700
C  32.06700 3.43600 31.37100
C  33.45300 3.15800 31.58200
C  30.62700 3.80000 29.25500
C  31.52200 3.85500 32.61300
O  30.38800 4.19400 32.88300
C  32.56700 3.65300 33.77300
C  32.60500 4.91600 34.54000
O  33.13900 5.94900 34.10600
O  32.13000 4.76100 35.83600
C  32.16300 5.87500 36.71400
H  39.58000 3.10000 33.38900
H  39.10100 2.27600 27.09000
H  32.88000 2.72700 27.20700
H  35.31700 4.45800 35.32700
H  37.71800 2.68500 35.23700
H  38.44300 5.31400 34.27500
H  38.55600 4.73600 35.91600
H  37.07300 5.68600 35.36800
H  36.11700 1.64200 35.96500
H  34.39000 1.79200 35.45400
H  34.73400 1.73200 37.78700
H  33.74200 2.97700 37.11800
H  41.83200 0.61100 31.85600
H  41.10500 1.71800 33.02700
H  42.29200 2.27800 31.86200
H  43.40400 0.43700 28.32600
H  42.76700 0.03200 29.83700
H  43.36300 1.67600 29.62700
H  36.91800 1.30300 25.65000
H  34.71800 3.15400 25.47700
H  37.65300 2.66900 24.01200
H  38.07500 3.78300 25.35400
H  36.50800 3.89400 24.48700
H  34.52100 0.28100 26.43600
H  35.13800 0.53800 24.85100
H  32.86900 0.29700 24.23900
H  32.87000 2.14000 24.71200
H  32.35300 0.72900 25.72000
H  30.01600 3.72800 30.15500
H  30.43600 3.06400 28.47400
H  30.73900 4.76700 28.76500
H  32.23800 2.85000 34.43300
H  32.09800 5.63500 37.77600
H  31.47300 6.65900 36.40200
H  33.15000 6.32800 36.61900
Mg 16.71200 53.11600 26.26800
C  18.68800 51.55200 28.78500
C  14.42900 53.84200 28.86800
C  14.42800 54.07400 24.01600
C  18.86300 51.92200 23.88200
N  16.54500 52.60300 28.49900
C  17.51200 52.02300 29.31800
C  17.10100 52.17200 30.81300
C  15.52400 52.40800 30.71700
C  15.43900 52.90300 29.27300
C  14.52600 51.26100 30.91600
C  17.87900 53.35200 31.55700
C  18.10200 53.24000 32.95400
H  17.21300 52.36800 33.80100
N  14.82700 54.02200 26.40800
C  14.10100 54.33600 27.58400
C  12.97500 55.11100 27.20300
C  13.03700 55.35700 25.81400
C  14.10400 54.47600 25.33400
C  12.10000 55.72900 28.26400
C  12.21900 56.31600 24.92700
O  12.49200 56.46900 23.80500
C  11.05900 57.25100 25.57000
N  16.64600 52.94400 24.29300
C  15.53000 53.32700 23.57300
C  15.73700 53.02000 22.16400
C  17.27300 52.73100 22.07600
C  17.69600 52.57000 23.49700
C  14.82800 51.90400 21.63400
C  18.08100 53.88900 21.38800
C  18.91300 54.89200 22.20300
N  18.42800 51.93200 26.32100
C  19.27500 51.61600 25.24000
C  20.41400 50.86600 25.74100
C  20.19100 50.84900 27.13500
C  19.06400 51.51800 27.40300
C  21.51000 50.20400 25.01200
C  20.82600 50.36300 28.36500
O  21.89800 49.75700 28.61200
C  19.87600 50.91400 29.51900
C  19.49200 49.73000 30.36500
O  18.76400 48.78400 30.17300
O  20.28000 49.80100 31.47800
C  20.17600 48.77300 32.48100
H  13.75000 54.19900 29.64400
H  13.65000 54.49400 23.37500
H  19.54900 51.55300 23.11700
H  17.17600 51.23600 31.36600
H  15.11600 53.21100 31.33000
H  13.67900 51.73300 31.41500
H  14.89200 50.42700 31.51500
H  14.18600 50.78400 29.99700
H  17.34900 54.28600 31.37000
H  18.87000 53.49200 31.12400
H  17.85700 54.21200 33.38200
H  19.13700 53.07000 33.25000
H  12.47200 56.67500 28.65800
H  11.97500 55.00000 29.06400
H  11.09000 55.89700 27.89000
H  10.10000 56.74300 25.67900
H  10.95300 58.13500 24.94100
H  11.32500 57.63400 26.55500
H  15.44200 53.81200 21.47500
H  17.58600 51.86400 21.49500
H  14.58300 52.16600 20.60500
H  13.89500 51.72700 22.16900
H  15.30500 50.92400 21.60400
H  17.43700 54.46200 20.72000
H  18.69600 53.46600 20.59400
H  18.50600 55.86000 21.91000
H  19.95600 54.73500 21.92700
H  18.87600 54.84500 23.29200
H  22.32500 49.93700 25.68500
H  21.87200 50.94500 24.29800
H  21.11500 49.38800 24.40700
H  20.33400 51.59300 30.23700
H  20.80500 49.20000 33.26100
H  20.59900 47.87700 32.02700
H  19.13000 48.70800 32.78100

