158

Mg 47.29800 25.02400 29.01000
C  48.23100 27.49600 31.52400
C  46.30800 23.10600 31.59400
C  46.83900 22.65800 26.82400
C  48.61400 27.14400 26.63800
N  47.23400 25.35000 31.37100
C  47.49100 26.45800 32.15200
C  47.19200 26.17300 33.63500
C  46.87800 24.64600 33.58700
C  46.82600 24.30300 32.12200
C  47.76900 23.59400 34.34800
C  46.08600 27.15500 34.13400
C  46.57900 28.09300 35.23600
H  47.07700 27.43100 36.60600
N  46.50400 23.21100 29.18800
C  46.14700 22.53700 30.34400
C  45.69300 21.23500 29.95400
C  45.65000 21.14900 28.53100
C  46.34400 22.41900 28.09000
C  45.25000 20.29800 30.98500
C  45.17500 20.05700 27.64300
O  45.25600 20.14400 26.41300
C  44.64200 18.73300 28.17300
N  47.99500 24.84100 27.14800
C  47.57100 23.77200 26.38500
C  47.93000 23.96500 24.91300
C  48.40100 25.42300 24.81100
C  48.32100 25.85800 26.29900
C  48.94900 22.96700 24.25500
C  47.58400 26.42000 23.88700
C  48.43800 27.33400 23.03200
N  48.31000 26.87400 29.08300
C  48.73400 27.66900 28.02100
C  49.20300 28.87800 28.44400
C  49.04400 28.85000 29.84100
C  48.54500 27.60100 30.17900
C  49.74600 30.04700 27.55600
C  49.14100 29.68800 31.06600
O  49.67800 30.84700 31.10600
C  48.66500 28.74600 32.21800
C  49.80100 28.50600 33.16400
O  50.65600 27.66000 33.06200
O  49.81000 29.47000 34.14000
C  50.80100 29.15500 35.19600
H  45.85600 22.50000 32.38200
H  46.67500 22.01600 25.95700
H  48.83600 27.79000 25.78600
H  48.13400 26.48500 34.08600
H  45.88200 24.47600 33.99500
H  48.19100 22.93800 33.58700
H  47.15500 23.09700 35.09900
H  48.57000 24.15000 34.83500
H  45.24800 26.55000 34.48000
H  45.74400 27.74800 33.28600
H  45.74300 28.76200 35.43900
H  47.50500 28.60400 34.97100
H  44.23300 20.04600 30.68300
H  45.23000 20.67900 32.00600
H  45.76500 19.33800 31.03200
H  45.19200 18.39000 29.04900
H  44.55900 18.02500 27.34900
H  43.66800 19.01300 28.57400
H  46.96300 23.96600 24.41100
H  49.47200 25.36800 24.61600
H  49.95200 23.39500 24.23500
H  48.76600 22.48800 23.29400
H  48.99700 22.16200 24.98800
H  47.05800 27.13100 24.52300
H  46.91900 25.79400 23.29200
H  48.47800 26.98200 22.00100
H  49.42100 27.50200 23.47200
H  48.00300 28.33200 23.09100
H  49.43500 31.05600 27.82800
H  49.53600 29.92800 26.49300
H  50.82800 30.08000 27.68900
H  47.87800 29.28500 32.74600
H  50.50200 28.24900 35.72300
H  50.90500 29.97300 35.90800
H  51.81400 29.03900 34.81200
Mg 42.66600 41.76500 25.89000
C  41.72400 44.09400 28.15300
C  43.45800 39.52100 28.41100
C  43.43900 39.34600 23.57000
C  42.17700 44.02400 23.15100
N  42.52100 41.81100 28.01600
C  42.03000 42.84200 28.77400
C  42.19500 42.53200 30.31800
C  43.11800 41.19300 30.22700
C  43.00300 40.83500 28.75700
C  44.57400 41.47400 30.72700
C  40.82800 42.34700 30.93600
C  40.81900 41.82600 32.41700
H  40.18000 42.75600 33.44900
N  43.52800 39.69300 25.93100
C  43.58500 38.94400 27.07800
C  44.01200 37.61000 26.73800
C  43.94900 37.53200 25.29700
C  43.65900 38.89800 24.86600
C  44.54100 36.58100 27.80600
C  44.05100 36.35600 24.34000
O  43.98400 36.32500 23.10600
C  44.21300 35.01600 25.01300
N  42.87500 41.69900 23.70600
C  43.13800 40.58900 22.95700
C  43.16200 40.93300 21.44100
C  42.43000 42.26200 21.34200
C  42.51200 42.70200 22.83600
C  44.46300 40.66200 20.65300
C  41.00600 42.08300 20.88100
C  39.83100 41.77200 21.81300
N  42.02500 43.70200 25.61900
C  41.89300 44.53700 24.49100
C  41.39000 45.75500 24.98700
C  41.32500 45.70600 26.38100
C  41.68300 44.41100 26.73800
C  40.98400 46.90300 24.16500
C  41.04000 46.37500 27.65000
O  40.73800 47.49600 27.90400
C  41.31000 45.35900 28.77500
C  42.17200 45.88300 29.81300
O  43.16000 46.59200 29.65000
O  41.59700 45.78800 31.05800
C  42.59300 46.01000 32.16700
H  43.65000 38.84000 29.24300
H  43.57100 38.58800 22.79500
H  42.04900 44.86400 22.46500
H  42.77100 43.39100 30.65900
H  42.68200 40.40100 30.83600
H  44.78200 40.61400 31.36400
H  44.66300 42.39900 31.29600
H  45.28700 41.41400 29.90500
H  40.32200 41.49200 30.48900
H  40.16800 43.16100 30.63500
H  41.84500 41.61300 32.72100
H  40.28000 40.87900 32.44500
H  44.99300 37.18800 28.59100
H  45.22900 35.82100 27.43900
H  43.63000 36.09500 28.15600
H  45.21600 34.69700 25.29600
H  43.83400 34.17200 24.43800
H  43.66800 35.05100 25.95600
H  42.44800 40.17800 21.11100
H  42.95100 42.95100 20.67600
H  45.16600 40.22200 21.36000
H  44.94400 41.58100 20.31800
H  44.27500 39.94500 19.85400
H  40.94500 41.40500 20.03000
H  40.68900 42.98200 20.35400
H  39.49900 40.73600 21.75100
H  38.95900 42.39800 21.62500
H  40.08600 41.87400 22.86800
H  41.88600 47.49500 24.01500
H  40.27600 47.46100 24.77900
H  40.45200 46.60200 23.26200
H  40.33400 45.07700 29.17100
H  42.23000 45.81300 33.17600
H  42.95200 47.03600 32.09300
H  43.50200 45.41100 32.11400

