158

Mg 48.16000 34.69400 27.04000
C  46.46000 33.22500 29.71100
C  48.25500 37.72800 28.93400
C  48.95000 36.38500 24.29000
C  47.44400 31.82300 25.15200
N  47.64100 35.32000 29.16800
C  47.16600 34.39700 30.09100
C  47.29500 35.03300 31.41400
C  47.38800 36.60500 31.18900
C  47.81800 36.61000 29.70900
C  46.15100 37.37200 31.35600
C  48.56700 34.38400 32.05500
C  48.77800 34.63600 33.61300
H  47.79400 35.51400 34.38300
N  48.56100 36.73400 26.65400
C  48.53300 37.79900 27.51000
C  48.95000 38.98400 26.83800
C  49.15600 38.68900 25.48700
C  48.89200 37.23500 25.43100
C  49.16500 40.26100 27.54400
C  49.68200 39.58300 24.33500
O  49.62000 39.15700 23.14500
C  50.11000 41.05300 24.60800
N  48.16200 34.16500 24.96400
C  48.61900 35.02300 24.10700
C  48.91100 34.31800 22.73000
C  48.62400 32.76100 23.04100
C  48.01700 32.88500 24.45900
C  48.05500 35.01500 21.62000
C  49.79100 31.77800 22.73600
C  49.44900 30.34100 22.54000
N  47.21900 32.83000 27.28700
C  47.05500 31.72700 26.48700
C  46.40700 30.65600 27.20600
C  46.01500 31.26200 28.41000
C  46.58400 32.61800 28.44200
C  46.18700 29.29000 26.65000
C  45.31700 31.03700 29.67600
O  44.69800 30.01700 30.00600
C  45.46300 32.31100 30.47500
C  45.76200 31.97300 31.89800
O  46.75600 31.36600 32.33600
O  44.72500 32.43700 32.61300
C  44.60300 32.28800 34.03000
H  48.18200 38.68000 29.46500
H  49.28200 36.92400 23.40100
H  47.40400 30.90000 24.56900
H  46.48700 34.71500 32.07200
H  48.18500 37.04100 31.79100
H  45.28900 36.71000 31.27400
H  45.95700 38.21300 30.69000
H  46.19800 37.60700 32.41900
H  49.48200 34.76600 31.60400
H  48.59500 33.31200 31.85800
H  49.75800 35.09400 33.74400
H  48.80200 33.61200 33.98600
H  49.28200 41.08100 26.83600
H  49.94300 40.28700 28.30800
H  48.20300 40.44600 28.02200
H  50.64500 41.27500 23.68500
H  50.84500 40.99800 25.41100
H  49.19900 41.61700 24.81200
H  49.99300 34.36300 22.60900
H  47.88200 32.51700 22.28000
H  48.36900 36.04600 21.45700
H  46.97800 35.01500 21.78500
H  48.23800 34.50500 20.67400
H  50.44200 31.86700 23.60600
H  50.46700 32.23600 22.01500
H  50.17700 30.00500 21.80300
H  48.46200 30.17500 22.10800
H  49.45900 29.81300 23.49300
H  46.01100 28.70000 27.54900
H  47.03100 28.81200 26.15100
H  45.33300 29.18000 25.98200
H  44.55500 32.91000 30.40400
H  43.56700 32.03500 34.25500
H  44.82700 33.25000 34.49100
H  45.24900 31.55100 34.50600
Mg 42.98500 41.64900 25.81300
C  42.24900 43.84900 28.32600
C  44.20300 39.51700 28.01800
C  43.89000 39.82700 23.10800
C  41.87500 44.17300 23.39300
N  43.28600 41.75100 27.92000
C  42.86500 42.70400 28.79400
C  42.92600 42.24800 30.25600
C  43.71700 40.85700 30.13600
C  43.75600 40.72000 28.59200
C  45.07600 40.79400 30.92800
C  41.52300 42.15800 30.90000
C  41.51700 41.54700 32.29600
H  41.00500 42.28100 33.55700
N  43.91400 39.91800 25.63200
C  44.27100 39.15900 26.67200
C  44.70400 37.83000 26.15800
C  44.56300 37.92100 24.75200
C  44.10500 39.29600 24.41000
C  45.10400 36.78400 27.10200
C  44.76900 36.77600 23.76700
O  44.58600 36.96600 22.56100
C  45.20800 35.43100 24.25800
N  42.81800 42.01700 23.54200
C  43.39200 41.04600 22.70200
C  43.33100 41.53000 21.21400
C  42.47100 42.85700 21.36200
C  42.37300 43.03300 22.87600
C  44.77500 41.81000 20.57300
C  41.02000 42.72500 20.72600
C  40.08200 41.69900 21.48200
N  42.29600 43.65500 25.80600
C  41.79200 44.49600 24.78900
C  41.32100 45.73700 25.38900
C  41.44900 45.56100 26.80400
C  42.03300 44.26600 26.97000
C  40.80900 46.90500 24.60600
C  41.25900 46.10700 28.09200
O  40.84600 47.21500 28.40700
C  41.85200 45.04800 29.15300
C  42.88600 45.64900 29.94200
O  43.89400 46.23100 29.57300
O  42.52100 45.37600 31.26700
C  43.50500 45.82200 32.35000
H  44.47700 38.77200 28.76700
H  44.13700 39.18600 22.25900
H  41.52200 44.98100 22.74800
H  43.52600 42.94700 30.83800
H  43.10700 40.03400 30.50800
H  45.28300 41.72600 31.45400
H  45.83600 40.52800 30.19400
H  44.97200 40.01800 31.68600
H  40.83600 41.60200 30.26200
H  41.08600 43.11700 31.18100
H  42.50500 41.14300 32.51700
H  40.88900 40.65700 32.28200
H  45.30000 37.12400 28.11900
H  46.05700 36.37700 26.76400
H  44.48100 35.89000 27.06600
H  44.44500 34.95000 24.87000
H  46.14400 35.60200 24.78800
H  45.33100 34.78100 23.39100
H  42.90600 40.78800 20.53800
H  42.97100 43.76400 21.02000
H  44.98000 42.88100 20.55600
H  44.81700 41.32900 19.59600
H  45.51700 41.32700 21.20900
H  41.14100 42.51600 19.66300
H  40.51500 43.69100 20.71000
H  39.31300 42.24000 22.03200
H  40.59600 41.07700 22.21600
H  39.60400 41.06800 20.73300
H  40.25700 46.62400 23.70900
H  41.64200 47.52500 24.27400
H  40.11900 47.47200 25.23200
H  40.91800 44.81400 29.66300
H  44.42000 46.32900 32.04100
H  43.89300 44.87400 32.72200
H  42.97600 46.39400 33.11200

