158

Mg 8.52500 3.63700 27.37600
C  10.00100 2.09100 30.21200
C  6.48100 5.44600 29.48000
C  6.98800 4.97200 24.64400
C  10.30300 1.53800 25.22100
N  8.30500 3.72600 29.61100
C  8.98700 2.96700 30.55200
C  8.53500 3.47500 31.98000
C  7.46300 4.53900 31.70800
C  7.37700 4.56400 30.13500
C  6.09000 4.25500 32.37700
C  9.79800 3.94500 32.80600
C  9.66500 5.07400 33.81700
H  10.26200 4.86900 35.25700
N  6.99700 5.01000 27.14300
C  6.28200 5.62500 28.10000
C  5.39200 6.58900 27.46500
C  5.77600 6.64900 26.10800
C  6.58500 5.44800 25.90400
C  4.36800 7.34900 28.29200
C  5.24300 7.55700 25.05200
O  5.38700 7.33300 23.86400
C  4.65100 8.84800 25.41200
N  8.39600 3.09700 25.14700
C  7.83700 3.87500 24.25600
C  8.31800 3.57000 22.83900
C  9.35800 2.41600 23.06000
C  9.36300 2.32200 24.54100
C  7.06800 3.10700 21.85700
C  10.75600 2.73100 22.47900
C  11.51400 1.61300 21.80200
N  9.78900 2.16400 27.58000
C  10.50700 1.45400 26.65100
C  11.39100 0.41400 27.27400
C  11.24900 0.76400 28.65500
C  10.25400 1.76100 28.80300
C  12.22600 -0.56900 26.51100
C  11.66400 0.29800 30.00800
O  12.43200 -0.55000 30.38200
C  11.00000 1.28500 31.01900
C  10.21500 0.47700 32.03600
O  9.18800 -0.18200 31.79000
O  10.84000 0.59100 33.30000
C  10.03100 0.08900 34.39200
H  5.75200 6.03800 30.03800
H  6.61300 5.49600 23.76200
H  10.84100 0.82300 24.59600
H  8.00300 2.62600 32.41000
H  7.82700 5.55400 31.87200
H  5.71800 5.23100 32.68700
H  6.28000 3.56000 33.19500
H  5.41100 3.79900 31.65600
H  10.52100 4.35500 32.10100
H  10.20600 3.09300 33.35100
H  8.60300 5.19300 34.03000
H  10.18300 5.93300 33.39000
H  3.50000 7.26300 27.63800
H  4.59500 8.40800 28.41900
H  4.05800 6.89700 29.23400
H  4.59200 9.45400 24.50800
H  5.26700 9.42600 26.10100
H  3.65100 8.68900 25.81700
H  8.73100 4.50700 22.46500
H  8.89700 1.55500 22.57700
H  6.13700 3.10800 22.42300
H  7.13900 2.08900 21.47400
H  6.93400 3.71200 20.96000
H  11.27600 3.13800 23.34600
H  10.70300 3.56100 21.77400
H  11.90800 1.69600 20.78900
H  10.82700 0.77700 21.93200
H  12.43200 1.49200 22.37800
H  12.92300 -0.19000 25.76300
H  11.57000 -1.33600 26.10200
H  12.68600 -1.07700 27.35900
H  11.67400 1.87900 31.63600
H  9.72100 -0.93400 34.18000
H  9.17100 0.70900 34.64500
H  10.60500 0.10500 35.31900
Mg 55.23700 24.64900 45.06200
C  52.25800 26.51000 43.97900
C  53.71500 21.84500 44.12400
C  58.15800 23.23500 45.66900
C  56.70300 27.92800 45.54400
N  53.33300 24.31400 43.94600
C  52.29500 25.10600 43.59100
C  51.25800 24.36200 42.89400
C  51.54100 22.89800 43.48900
C  52.98900 23.01800 43.85300
C  50.66700 22.48900 44.74900
C  51.47500 24.49200 41.37900
C  50.30700 25.04300 40.59100
H  50.10200 24.42900 39.22500
N  55.91300 22.77800 44.89100
C  55.12500 21.69700 44.47800
C  55.88900 20.46100 44.65600
C  57.19200 20.87600 45.11700
C  57.13200 22.35500 45.32300
C  55.30900 19.12800 44.36600
C  58.36400 19.79400 45.29900
O  58.15400 18.63300 44.98000
C  59.72500 20.23900 45.65900
N  57.23600 25.51200 45.44300
C  58.29200 24.62600 45.69900
C  59.52000 25.44500 46.08900
C  58.97300 26.94600 46.15000
C  57.57600 26.80100 45.70900
C  60.24900 24.95400 47.43600
C  59.71800 27.87400 45.18900
C  60.64300 28.87900 45.77400
N  54.63100 26.74600 45.02400
C  55.33500 27.91900 45.31800
C  54.43500 28.99800 45.37100
C  53.26400 28.53500 44.76300
C  53.39500 27.14000 44.57700
C  54.68500 30.37900 45.81300
C  51.87700 28.92800 44.46100
O  51.25000 30.00200 44.55800
C  51.23100 27.60900 43.84900
C  50.73400 28.01600 42.49800
O  51.46900 28.35200 41.49600
O  49.38200 28.08600 42.53400
C  48.82400 28.58200 41.32100
H  53.17900 20.90200 43.99300
H  59.00200 22.65700 46.05200
H  57.16900 28.86900 45.84200
H  50.29500 24.82200 43.11500
H  51.41400 22.12500 42.73000
H  50.03700 23.33600 45.02400
H  51.29400 22.23600 45.60400
H  50.03900 21.66800 44.40600
H  51.51400 23.46100 41.02600
H  52.38500 25.03800 41.12700
H  50.54600 26.08500 40.37800
H  49.38600 24.95700 41.16700
H  54.31900 19.12400 44.82200
H  55.91300 18.24200 44.56000
H  55.19400 19.09200 43.28200
H  60.20700 19.30400 45.94600
H  59.68600 20.79200 46.59800
H  60.09800 20.84000 44.83000
H  60.34400 25.23200 45.40700
H  59.00000 27.40800 47.13700
H  60.40100 25.77500 48.13600
H  61.25200 24.58500 47.22100
H  59.63300 24.26200 48.01000
H  59.00700 28.29000 44.47600
H  60.37300 27.27000 44.56100
H  61.17700 29.34800 44.94700
H  61.34300 28.40400 46.46100
H  60.04700 29.61800 46.31000
H  53.80700 30.97700 45.56700
H  55.53000 30.77000 45.24700
H  54.75600 30.47000 46.89600
H  50.34800 27.30800 44.41200
H  49.24400 29.57300 41.14800
H  47.75000 28.46100 41.46100
H  49.10800 28.06800 40.40300

