158

Mg 1.18200 -1.23400 44.15200
C  4.44800 -0.65600 43.59000
C  0.32500 1.48300 42.21400
C  -2.10100 -2.20100 44.20200
C  2.08500 -4.41300 45.48200
N  2.26500 0.25300 42.99200
C  3.62900 0.30000 42.92900
C  4.05800 1.55600 42.13000
C  2.67700 2.30500 41.93700
C  1.67200 1.30100 42.36000
C  2.51100 3.67100 42.75600
C  4.81600 1.12400 40.79600
C  6.06500 1.92300 40.35500
H  5.86100 2.98500 39.28300
N  -0.61700 -0.37600 43.45500
C  -0.74700 0.73700 42.71300
C  -2.15700 1.08700 42.62700
C  -2.99200 0.08400 43.30800
C  -1.90000 -0.87600 43.74200
C  -2.61700 2.40600 41.92600
C  -4.49100 0.02300 43.38900
O  -5.19100 0.91400 42.97400
C  -5.14400 -1.02000 44.18300
N  0.10600 -3.08300 44.64200
C  -1.21500 -3.22900 44.63600
C  -1.68500 -4.66500 44.90300
C  -0.42800 -5.17100 45.70800
C  0.68100 -4.22500 45.21500
C  -3.04000 -4.95300 45.67400
C  -0.27800 -6.73000 45.65800
C  -0.41400 -7.50200 47.01700
N  2.89400 -2.33600 44.54400
C  3.14800 -3.56000 45.14700
C  4.55400 -3.75900 45.26000
C  5.11200 -2.61000 44.69600
C  4.00800 -1.82600 44.24100
C  5.27500 -4.91100 45.94800
C  6.37800 -1.91900 44.32800
O  7.54700 -2.14600 44.43000
C  5.96700 -0.57900 43.65200
C  6.37100 0.46800 44.52100
O  6.00400 0.42400 45.67000
O  7.36700 1.35300 44.03300
C  7.88300 2.33100 44.99800
H  0.15800 2.43800 41.71200
H  -3.13700 -2.47300 43.98700
H  2.38100 -5.40600 45.82800
H  4.69300 2.21300 42.72400
H  2.59100 2.60500 40.89200
H  2.23000 4.44300 42.03900
H  3.45400 3.83600 43.27500
H  1.69800 3.61700 43.47900
H  4.03700 1.28900 40.05100
H  5.04100 0.05900 40.83800
H  6.80900 1.19700 40.02800
H  6.39800 2.41000 41.27200
H  -2.67600 2.28200 40.84500
H  -1.95000 3.25200 42.09200
H  -3.57700 2.70600 42.34800
H  -5.99700 -0.66000 44.75900
H  -4.51500 -1.17500 45.06000
H  -5.39800 -1.89800 43.59000
H  -1.71200 -5.12100 43.91300
H  -0.70100 -4.97200 46.74400
H  -3.57400 -5.66800 45.04900
H  -3.77800 -4.15100 45.63900
H  -2.78800 -5.33000 46.66500
H  0.75400 -6.91500 45.35900
H  -1.02200 -7.12500 44.96600
H  -1.04000 -8.34900 46.73600
H  -1.01000 -6.95800 47.75000
H  0.58500 -7.71200 47.39800
H  6.34200 -4.83100 46.15900
H  5.17200 -5.82400 45.36200
H  4.73600 -5.07500 46.88100
H  6.40500 -0.37100 42.67600
H  8.33900 1.76500 45.81000
H  6.98200 2.86600 45.30000
H  8.60200 2.98300 44.50300
Mg 25.70700 -0.15400 29.52700
C  27.50400 -0.32100 32.48400
C  22.78500 0.05100 31.50500
C  23.86400 0.07400 26.76400
C  28.61100 -0.60800 27.75000
N  25.18900 -0.24700 31.75700
C  26.16200 -0.19500 32.71200
C  25.46800 -0.14400 34.13300
C  23.96900 -0.20500 33.84100
C  23.97400 -0.11300 32.29600
C  23.15500 -1.38900 34.43200
C  25.91800 0.85900 35.18000
C  24.90400 1.61300 36.02300
H  25.37500 2.23700 37.34200
N  23.65300 0.03000 29.17400
C  22.61600 0.14900 30.13200
C  21.37200 0.17000 29.39600
C  21.67200 0.12600 28.00400
C  23.09600 0.13700 27.92000
C  20.04600 0.19100 30.06100
C  20.65000 0.22700 26.85900
O  20.97200 0.15500 25.66300
C  19.22500 0.38400 27.23100
N  26.13300 -0.35000 27.58700
C  25.24000 -0.11200 26.63900
C  25.89200 -0.19600 25.24000
C  27.39400 -0.13100 25.57300
C  27.38600 -0.32900 27.10800
C  25.39300 -1.37100 24.34800
C  28.17100 1.22600 25.24700
C  29.45500 0.95000 24.57000
N  27.67600 -0.55000 29.91800
C  28.83900 -0.69500 29.11200
C  30.01100 -0.86300 29.84600
C  29.57700 -0.63200 31.21700
C  28.15500 -0.55000 31.21900
C  31.34900 -0.97600 29.37400
C  29.96900 -0.48300 32.60400
O  31.10500 -0.43400 33.04400
C  28.63700 -0.28200 33.50300
C  28.50800 -1.31200 34.46800
O  28.21100 -2.46200 34.20500
O  28.87200 -0.83700 35.68800
C  28.91200 -1.78300 36.78500
H  21.90300 -0.03900 32.14300
H  23.25000 0.42800 25.93300
H  29.40900 -0.62300 27.00500
H  25.69500 -1.07800 34.64700
H  23.41400 0.71200 34.03800
H  22.49100 -1.03600 35.22100
H  23.91000 -2.05700 34.84500
H  22.58600 -1.94000 33.68300
H  26.48400 1.57600 34.58500
H  26.64200 0.46200 35.89200
H  24.14300 0.88300 36.30100
H  24.35200 2.36000 35.45300
H  19.53500 -0.75200 29.86700
H  19.46400 1.07000 29.78500
H  20.14600 0.28300 31.14200
H  19.03900 -0.51300 27.82200
H  18.49300 0.35800 26.42300
H  19.18800 1.31400 27.79700
H  25.60400 0.75900 24.80100
H  27.90800 -0.97000 25.10400
H  25.17500 -1.09000 23.31800
H  24.50400 -1.87200 24.73200
H  26.15100 -2.14100 24.49000
H  28.35400 1.75000 26.18500
H  27.53400 1.97000 24.76800
H  30.28300 1.08600 25.26600
H  29.51300 1.59600 23.69400
H  29.59100 -0.06700 24.19900
H  31.83200 -1.72100 30.00700
H  31.87800 -0.03800 29.54500
H  31.43700 -1.23400 28.31900
H  28.56900 0.71200 33.94600
H  29.29700 -2.74000 36.43200
H  27.93000 -1.79600 37.25800
H  29.49200 -1.43100 37.63800

