158

Mg 30.29000 57.79300 40.48400
C  27.57400 55.96400 39.29400
C  32.42600 55.30400 39.30400
C  32.77900 59.99800 40.58100
C  28.07800 60.49100 41.18400
N  30.00300 55.88400 39.31100
C  28.79200 55.28600 38.99000
C  29.11200 53.98800 38.33400
C  30.52300 53.60100 38.80700
C  31.03700 55.01000 39.19700
C  30.55100 52.61600 40.08100
C  29.01500 53.83400 36.83600
C  28.05100 52.64500 36.35000
H  27.15400 53.04900 35.18300
N  32.33100 57.68700 39.95200
C  33.00900 56.57900 39.53200
C  34.38900 56.83200 39.52500
C  34.50100 58.21200 39.94700
C  33.15400 58.72200 40.16800
C  35.45300 55.82200 39.11600
C  35.86400 58.96400 40.10300
O  36.87900 58.41100 39.78500
C  36.13100 60.29800 40.72600
N  30.40000 59.98400 40.82400
C  31.56600 60.58400 40.87900
C  31.42300 62.07300 41.16800
C  29.84400 62.13500 41.55300
C  29.38500 60.82700 41.09400
C  32.39300 62.52700 42.35800
C  28.96500 63.33000 41.05300
C  29.63000 64.65100 40.84500
N  28.29300 58.09000 40.53900
C  27.52800 59.22000 40.83200
C  26.11100 58.98800 40.67000
C  26.15600 57.68700 40.06700
C  27.44000 57.24800 39.95100
C  25.06500 59.85600 41.17100
C  25.19400 56.63700 39.51100
O  23.96900 56.57300 39.34200
C  26.12700 55.45800 39.00800
C  25.80300 54.27400 39.78300
O  25.62400 54.25100 40.96000
O  25.58400 53.20700 38.94400
C  25.17800 51.96800 39.59200
H  32.99000 54.40000 39.06500
H  33.61700 60.69800 40.60900
H  27.45600 61.27900 41.61400
H  28.39600 53.29900 38.78200
H  31.11800 53.15100 38.01200
H  30.81100 51.70500 39.54200
H  29.66800 52.29000 40.63200
H  31.27000 52.95700 40.82600
H  29.97400 53.80100 36.31900
H  28.61800 54.76200 36.42400
H  27.42300 52.48500 37.22700
H  28.57300 51.74500 36.02600
H  35.36800 55.60400 38.05100
H  35.33400 54.86900 39.63200
H  36.39100 56.20700 39.51500
H  37.21400 60.39500 40.80600
H  35.60300 60.39000 41.67500
H  35.68700 61.05700 40.08300
H  31.56800 62.57800 40.21300
H  29.76600 62.21700 42.63700
H  33.09000 63.32200 42.09000
H  32.89700 61.71300 42.87800
H  31.81400 62.98800 43.15800
H  28.28000 63.39000 41.89800
H  28.49900 63.05100 40.10800
H  30.49300 64.55500 41.50400
H  28.88000 65.41700 41.04100
H  29.80000 64.69300 39.76900
H  25.47400 60.29500 42.08100
H  24.26300 59.17700 41.46100
H  24.70700 60.59300 40.45300
H  26.00400 55.27600 37.94000
H  24.52300 51.36100 38.96800
H  24.77600 52.06700 40.60000
H  26.10700 51.40900 39.70600
Mg 6.03500 54.34400 41.23900
C  3.54700 51.80100 41.01500
C  8.15300 52.26000 39.79300
C  8.15000 56.87900 41.26700
C  3.54900 56.55500 42.40500
N  5.76300 52.37800 40.18500
C  4.70100 51.45700 40.36500
C  5.04600 50.12400 39.74700
C  6.64700 50.17700 39.83700
C  6.86100 51.70700 39.85700
C  7.37300 49.44200 40.98700
C  4.51900 49.84000 38.29700
C  3.89000 48.43700 38.10000
H  4.30300 47.76900 36.77900
N  7.92300 54.47100 40.65900
C  8.66000 53.54500 40.10500
C  10.04700 54.03100 39.84800
C  10.06600 55.46900 40.13200
C  8.71800 55.70300 40.71700
C  11.13700 53.19900 39.16600
C  11.28700 56.45100 40.07900
O  12.34700 56.06800 39.73400
C  11.07900 57.96200 40.36000
N  5.79000 56.52400 41.54800
C  6.81400 57.36100 41.54200
C  6.54200 58.67500 42.15100
C  5.09600 58.66200 42.41600
C  4.75000 57.16800 42.11500
C  7.35400 59.05600 43.39800
C  4.24400 59.77900 41.79000
C  3.69900 59.57800 40.37600
N  4.04200 54.23200 41.67300
C  3.16400 55.18900 42.15000
C  1.85900 54.61500 42.32300
C  2.01100 53.29700 41.96400
C  3.35000 53.08200 41.57200
C  0.63500 55.28900 42.79400
C  1.24200 52.04900 41.87600
O  0.03900 51.76900 42.03800
C  2.45400 51.02300 41.52300
C  1.85400 50.09100 40.60500
O  1.33500 50.30000 39.52400
O  1.87200 48.76600 41.22100
C  1.07400 47.73800 40.62000
H  8.93100 51.53500 39.54400
H  8.90900 57.65700 41.36700
H  2.81900 57.20900 42.88700
H  4.70000 49.32000 40.39700
H  7.09000 49.88500 38.88500
H  8.42500 49.20700 40.82700
H  6.81700 48.52900 41.20100
H  7.43500 50.08100 41.86800
H  5.25600 49.96900 37.50400
H  3.73500 50.55700 38.05400
H  2.80500 48.54200 38.10900
H  4.07900 47.78100 38.94900
H  11.10000 53.44300 38.10500
H  10.98100 52.12900 39.29700
H  12.01700 53.60500 39.66500
H  11.91300 58.49900 39.90900
H  11.00700 58.29600 41.39500
H  10.15700 58.19700 39.82700
H  6.81200 59.37500 41.36000
H  4.83900 58.88800 43.45100
H  7.89600 59.95500 43.10400
H  7.92000 58.33300 43.98600
H  6.71500 59.45100 44.18800
H  4.83900 60.68500 41.67300
H  3.38900 60.06600 42.40200
H  4.04900 60.41500 39.77200
H  2.61200 59.57100 40.29800
H  4.14200 58.66000 39.98900
H  0.81500 56.09600 43.50500
H  0.08000 54.51000 43.31800
H  0.06200 55.74500 41.98700
H  2.71200 50.43900 42.40600
H  0.05100 48.08300 40.46600
H  1.05600 46.96200 41.38500
H  1.52300 47.30000 39.72900

