158

Mg -0.96800 17.80700 27.37000
C  -1.85900 15.56600 29.85100
C  -1.84000 20.37000 29.37900
C  -0.85500 19.67800 24.60900
C  -0.62900 14.90900 25.15200
N  -1.72800 17.92200 29.44600
C  -1.79400 16.88100 30.32700
C  -2.22000 17.41100 31.75700
C  -2.14000 19.00800 31.53500
C  -1.87700 19.16500 30.00600
C  -3.44400 19.72900 32.02000
C  -1.63200 16.96000 33.07900
C  -2.56200 16.85600 34.31500
H  -1.96100 16.29200 35.58300
N  -1.23000 19.75800 27.00200
C  -1.45900 20.67100 28.00000
C  -1.40700 21.98800 27.45600
C  -1.31500 21.81500 25.99400
C  -1.13300 20.33700 25.79800
C  -1.37700 23.23100 28.31000
C  -1.17200 22.85400 24.84700
O  -1.01500 22.58200 23.65500
C  -1.08000 24.30000 25.29700
N  -0.80000 17.27900 25.18400
C  -0.67000 18.28500 24.26200
C  -0.64000 17.76200 22.84000
C  -0.21300 16.30800 23.05700
C  -0.57500 16.15500 24.54400
C  -1.92300 18.05400 21.99000
C  1.27500 15.97900 22.72200
C  2.42600 16.24600 23.71300
N  -1.15900 15.73700 27.39300
C  -0.97100 14.69200 26.46000
C  -1.25000 13.46100 27.09700
C  -1.66700 13.71300 28.38500
C  -1.55100 15.14300 28.54600
C  -1.27900 12.13100 26.44700
C  -2.06400 13.14100 29.66500
O  -2.05400 11.95700 30.04800
C  -2.30000 14.36100 30.63200
C  -1.44000 14.01600 31.91200
O  -0.21700 14.18200 32.05200
O  -2.26500 13.37400 32.87200
C  -1.45200 12.79600 33.96400
H  -1.84400 21.14500 30.14800
H  -0.88200 20.27500 23.69500
H  -0.30300 14.12700 24.46300
H  -3.23800 17.02200 31.80100
H  -1.29300 19.46300 32.04700
H  -3.15800 20.59800 32.61400
H  -4.08400 19.09600 32.63500
H  -4.11200 20.08500 31.23600
H  -0.95300 17.77600 33.32400
H  -1.01100 16.06400 33.10900
H  -3.21000 16.03000 34.02200
H  -3.12300 17.78100 34.44900
H  -0.54100 23.90700 28.13200
H  -1.37300 23.10700 29.39300
H  -2.32200 23.74800 28.14800
H  -1.00300 24.96700 24.43900
H  -0.11500 24.57500 25.72300
H  -1.91000 24.68600 25.88900
H  0.21700 18.19400 22.32400
H  -0.76500 15.57900 22.46400
H  -2.32100 17.07400 21.72800
H  -1.68600 18.64800 21.10700
H  -2.70200 18.59100 22.53200
H  1.61900 16.60100 21.89600
H  1.42800 14.93100 22.46300
H  2.06400 16.71600 24.62700
H  3.24600 16.87700 23.37000
H  2.93300 15.29500 23.87700
H  -0.71400 11.43700 27.06900
H  -0.83300 12.04800 25.45500
H  -2.31500 11.79300 26.46500
H  -3.37900 14.37400 30.78700
H  -0.53100 13.29500 34.26700
H  -1.21300 11.77000 33.68600
H  -2.08800 12.62400 34.83200
Mg 34.89600 2.32000 29.59900
C  32.97500 3.51700 32.22500
C  37.60700 2.12100 31.81300
C  36.80700 1.21000 27.15000
C  32.22500 2.70900 27.44300
N  35.23400 2.71500 31.74300
C  34.24400 3.10300 32.60700
C  34.72500 2.91300 34.03800
C  36.25300 2.65700 33.90100
C  36.40900 2.44200 32.44500
C  37.13800 3.88800 34.51900
C  33.85700 1.78600 34.72000
C  33.44700 2.00500 36.20900
H  34.17400 3.13700 36.95800
N  36.93600 1.83500 29.52900
C  37.87800 1.89000 30.43600
C  39.22500 1.73700 29.92400
C  39.00300 1.17900 28.59200
C  37.51800 1.38900 28.39600
C  40.50000 1.77600 30.74000
C  39.97900 0.62300 27.54600
O  39.59800 0.02500 26.53900
C  41.40000 0.54200 27.91600
N  34.57200 1.99000 27.63800
C  35.51600 1.53300 26.84100
C  35.01100 1.29500 25.40400
C  33.52200 1.64200 25.53100
C  33.42200 2.21200 26.91900
C  35.72300 2.10800 24.32300
C  32.55400 0.51500 25.24100
C  32.53500 0.10100 23.71100
N  33.09900 3.12000 29.69100
C  32.00600 3.13600 28.76800
C  30.82300 3.64400 29.41900
C  31.17900 3.78200 30.80300
C  32.51300 3.52300 30.90800
C  29.43400 3.86300 28.82500
C  30.57500 4.13100 32.12200
O  29.43700 4.36600 32.42700
C  31.77900 3.88700 33.13600
C  31.87300 5.13400 33.99900
O  32.53900 6.14800 33.67300
O  31.09500 5.02000 35.13000
C  31.07400 6.17800 35.99300
H  38.45200 2.27500 32.48800
H  37.42500 1.03300 26.26800
H  31.34700 2.74000 26.79400
H  34.54100 3.90100 34.46100
H  36.54900 1.71900 34.37000
H  37.44700 4.58100 33.73600
H  37.98500 3.36500 34.96300
H  36.64900 4.37700 35.36100
H  34.45200 0.88100 34.84000
H  32.94700 1.45500 34.22100
H  33.61100 1.05600 36.72000
H  32.38000 2.15700 36.04400
H  41.29000 2.46200 30.43400
H  40.89800 0.77200 30.88500
H  40.13100 2.11700 31.70800
H  41.75400 -0.36200 28.41000
H  41.77300 1.36800 28.52200
H  41.99400 0.59600 27.00300
H  35.14100 0.22100 25.27400
H  33.23800 2.44100 24.84700
H  36.62800 1.56400 24.05400
H  35.87100 3.10000 24.75000
H  35.09100 2.34300 23.46600
H  31.52900 0.82600 25.44600
H  32.93000 -0.31300 25.84200
H  32.80200 -0.95500 23.68200
H  33.29600 0.61400 23.12300
H  31.60800 0.33900 23.18900
H  29.45300 4.22300 27.79600
H  28.87100 4.59200 29.40700
H  28.82000 2.96800 28.92700
H  31.50000 3.00300 33.70800
H  32.07800 6.51500 36.25100
H  30.44700 5.84900 36.82200
H  30.65300 7.04100 35.47800

