158

Mg 48.16200 34.84500 26.71700
C  46.52100 33.28500 29.37400
C  48.71000 37.52100 28.84800
C  49.71400 36.20300 24.17200
C  47.54100 31.94700 24.70900
N  47.87700 35.21300 28.93900
C  47.21700 34.44600 29.80400
C  47.38300 35.07800 31.16400
C  47.62200 36.58500 30.88500
C  48.12200 36.42000 29.49100
C  46.44100 37.52500 31.10400
C  48.62800 34.40600 31.86000
C  48.69000 34.47800 33.42000
H  47.65300 35.30200 34.18000
N  48.90600 36.64900 26.47200
C  49.04500 37.62600 27.45800
C  49.80200 38.75700 26.94700
C  50.25100 38.35800 25.59000
C  49.54300 37.07100 25.31300
C  50.25400 40.02200 27.85000
C  51.25100 39.07300 24.60400
O  51.62000 38.53800 23.56500
C  51.76200 40.39300 25.01000
N  48.47100 34.26500 24.57000
C  49.35100 34.93800 23.86900
C  49.81300 34.10900 22.65900
C  49.09800 32.72400 22.86100
C  48.30200 32.97800 24.09600
C  49.32100 34.78300 21.37000
C  50.09600 31.51000 23.09300
C  50.44900 30.70500 21.77000
N  47.12700 33.08500 26.92500
C  47.04200 31.98700 26.00900
C  46.28700 30.90300 26.74600
C  46.05100 31.47000 27.97800
C  46.64100 32.74200 28.08200
C  45.84500 29.64800 26.16200
C  45.34000 31.17600 29.23400
O  44.66100 30.19200 29.52500
C  45.50400 32.43400 30.11300
C  45.63400 32.13200 31.56800
O  46.64800 31.84300 32.16500
O  44.42800 32.35500 32.11900
C  44.38500 32.31800 33.63200
H  48.83200 38.36900 29.52500
H  50.33800 36.63100 23.38500
H  47.34000 31.04500 24.12600
H  46.52400 34.84900 31.79500
H  48.40300 36.93700 31.55900
H  46.60500 38.22600 31.92200
H  45.54100 36.93900 31.29200
H  46.26400 38.17800 30.24900
H  49.48800 34.94400 31.46200
H  48.71400 33.37100 31.52800
H  49.62500 34.94200 33.73600
H  48.67200 33.51400 33.92800
H  49.86100 40.98700 27.52800
H  51.34200 39.99900 27.91700
H  49.92800 39.92100 28.88500
H  52.36800 40.82400 24.21300
H  52.46000 40.39300 25.84700
H  50.91500 41.07500 25.08500
H  50.90200 34.09100 22.61900
H  48.42200 32.61000 22.01400
H  48.67900 35.66300 21.41500
H  48.92300 34.06200 20.65600
H  50.24800 35.04400 20.86100
H  49.74400 30.76500 23.80600
H  51.05000 31.87400 23.47400
H  49.83700 31.01300 20.92200
H  50.22900 29.65700 21.97200
H  51.51100 30.78300 21.53600
H  45.39400 29.85300 25.19100
H  45.13600 29.26800 26.89700
H  46.70300 28.99200 26.01700
H  44.51400 32.82800 29.88100
H  43.71600 33.10600 33.97900
H  45.35500 32.48600 34.10000
H  44.06700 31.32800 33.96000
Mg 27.26700 50.57000 25.93800
C  25.40900 51.49800 28.56600
C  29.70200 49.40800 27.86100
C  28.94300 49.74300 23.06900
C  24.59700 51.66100 23.80600
N  27.59400 50.57000 28.02800
C  26.62300 50.80400 28.92200
C  27.04200 50.40300 30.35700
C  28.54800 49.98900 30.08200
C  28.69600 50.07800 28.60200
C  29.56400 50.98000 30.63400
C  26.02400 49.29500 30.83000
C  25.51800 49.34900 32.31400
H  26.46000 49.91300 33.39600
N  29.09300 49.65400 25.49600
C  29.88800 49.16700 26.50000
C  31.05400 48.44600 25.88300
C  30.88200 48.64300 24.40500
C  29.60300 49.40500 24.27600
C  32.14900 47.60600 26.64500
C  31.75000 48.15200 23.27800
O  31.44200 48.26000 22.11100
C  33.04400 47.64000 23.65500
N  26.79100 50.63700 23.74400
C  27.71000 50.31800 22.81100
C  27.18100 50.56300 21.32300
C  25.68300 50.82100 21.66400
C  25.67500 51.02000 23.13500
C  27.82700 51.69200 20.50500
C  24.58200 49.78400 21.27000
C  23.45900 50.11600 20.32200
N  25.45200 51.57100 26.15000
C  24.49200 51.90800 25.20600
C  23.36400 52.56600 25.86900
C  23.68500 52.42600 27.21200
C  24.95900 51.80500 27.31600
C  22.18600 53.02400 25.13500
C  23.25100 52.64000 28.58000
O  22.28100 53.19100 29.03800
C  24.32900 52.00000 29.49000
C  24.82500 53.06900 30.41500
O  25.59800 54.06100 30.12600
O  24.10100 52.90400 31.61900
C  24.51300 53.97400 32.53600
H  30.37200 48.89800 28.55700
H  29.44200 49.35500 22.17900
H  23.63500 51.90000 23.34600
H  27.00500 51.30300 30.97100
H  28.80500 49.00300 30.47000
H  29.11000 51.56300 31.43600
H  29.85100 51.63400 29.81100
H  30.37000 50.44800 31.14000
H  26.45800 48.30700 30.66900
H  25.25000 49.29000 30.06300
H  25.28000 48.32800 32.61400
H  24.64500 49.99400 32.41300
H  31.86400 47.55000 27.69500
H  33.03100 48.23100 26.50500
H  32.13500 46.66600 26.09300
H  32.96700 46.59800 23.96400
H  33.35500 48.42500 24.34500
H  33.67300 47.62300 22.76400
H  27.30800 49.69700 20.67500
H  25.38300 51.79100 21.26800
H  28.06000 51.34900 19.49700
H  28.71200 52.07700 21.01200
H  27.28300 52.63200 20.41600
H  24.05300 49.47100 22.17000
H  25.06600 48.86900 20.92900
H  23.64600 51.16000 20.07200
H  22.54200 49.95000 20.88700
H  23.52400 49.43100 19.47700
H  21.65300 52.36600 24.44900
H  22.50500 53.84600 24.49400
H  21.49600 53.25300 25.94700
H  23.87500 51.18800 30.05900
H  24.20200 54.97000 32.22300
H  25.58400 54.01400 32.73300
H  24.00800 53.73100 33.47100

