158

Mg 1.66300 -1.76900 44.87900
C  4.88700 -0.97100 44.12200
C  0.51900 0.83600 42.90500
C  -1.44600 -3.09400 44.92000
C  2.95300 -4.79900 46.48100
N  2.62500 -0.43000 43.48500
C  3.93000 -0.10800 43.56000
C  4.23700 1.22200 42.81200
C  2.85300 1.90400 42.78300
C  1.92800 0.69400 43.06200
C  2.61900 3.03700 43.70200
C  4.80200 0.95200 41.38700
C  5.94600 1.83800 40.85200
H  5.65700 2.72800 39.63500
N  -0.19300 -1.12600 44.15800
C  -0.47800 0.00000 43.41500
C  -1.88300 0.09100 43.23700
C  -2.52600 -0.98000 43.91000
C  -1.39800 -1.79800 44.36100
C  -2.52500 1.33200 42.58000
C  -4.06800 -1.22200 44.14300
O  -4.87000 -0.47200 43.67800
C  -4.66100 -2.26000 45.17900
N  0.87600 -3.69900 45.52500
C  -0.46400 -3.95500 45.47400
C  -0.78700 -5.30600 46.05200
C  0.55000 -5.69600 46.69700
C  1.53600 -4.69700 46.20800
C  -2.05300 -5.32400 46.98900
C  0.92700 -7.14400 46.22700
C  1.48600 -7.95300 47.37000
N  3.60200 -2.72300 45.30300
C  3.95300 -3.88000 45.96600
C  5.41200 -3.99600 46.02900
C  5.88700 -2.80200 45.31900
C  4.71100 -2.15700 44.84000
C  6.14200 -5.16000 46.69200
C  7.03700 -2.03100 44.87400
O  8.26100 -2.20200 44.91200
C  6.39600 -0.74000 44.11200
C  6.78400 0.33200 45.06700
O  6.19200 0.73800 46.05600
O  7.70900 1.03600 44.38900
C  8.17200 2.35900 44.96900
H  0.24400 1.75000 42.37500
H  -2.45600 -3.50100 44.82800
H  3.17800 -5.70300 47.05000
H  4.99200 1.80600 43.33700
H  2.53000 2.12400 41.76600
H  3.49100 3.68000 43.82200
H  2.12800 2.67200 44.60400
H  1.83700 3.68900 43.31300
H  3.95600 0.91000 40.70100
H  5.18300 -0.06900 41.40400
H  6.77700 1.18300 40.58900
H  6.22300 2.44000 41.71800
H  -2.90200 1.24500 41.56100
H  -1.86600 2.19200 42.45800
H  -3.38900 1.63800 43.16900
H  -5.06300 -3.12200 44.64600
H  -5.54800 -1.80700 45.62100
H  -3.99900 -2.49000 46.01400
H  -1.06700 -6.03900 45.29600
H  0.36300 -5.49100 47.75100
H  -2.82900 -5.84300 46.42600
H  -2.42500 -4.35300 47.31400
H  -1.78500 -6.01900 47.78500
H  1.76100 -6.95400 45.55100
H  0.08600 -7.67400 45.78100
H  0.86300 -8.83000 47.54100
H  1.57400 -7.35200 48.27600
H  2.46600 -8.33300 47.07900
H  5.48600 -5.64400 47.41500
H  7.09700 -4.83900 47.10900
H  6.32900 -5.94000 45.95500
H  6.83800 -0.59300 43.12700
H  8.94500 2.81900 44.35400
H  8.73000 2.13500 45.87800
H  7.33600 3.04300 45.11900
Mg -0.71800 33.79000 25.87300
C  -2.67200 32.42000 28.31000
C  0.46000 36.19200 28.29900
C  0.78900 35.50600 23.41300
C  -2.34700 31.79600 23.50400
N  -1.07200 34.24000 28.08600
C  -1.91100 33.41900 28.85300
C  -1.72800 33.92900 30.33100
C  -0.93700 35.29300 30.27100
C  -0.48300 35.25900 28.79200
C  -1.77300 36.58800 30.56800
C  -1.23700 32.92600 31.32700
C  -1.86000 33.05300 32.74700
H  -0.87500 32.93800 33.92800
N  0.39100 35.50000 25.88200
C  0.81100 36.30900 26.90000
C  1.66300 37.37100 26.41700
C  1.76300 37.20000 25.02200
C  0.94700 36.02800 24.67400
C  2.24600 38.35700 27.35700
C  2.59900 38.01100 24.01300
O  2.43900 37.95200 22.79700
C  3.69100 38.91600 24.51300
N  -0.73000 33.60300 23.71200
C  -0.04800 34.41600 22.92300
C  -0.18500 34.06600 21.43000
C  -1.03100 32.81800 21.50400
C  -1.36500 32.66600 22.96900
C  -0.65100 35.27300 20.53100
C  -0.26400 31.56900 20.96900
C  0.49100 30.55300 21.86800
N  -2.16000 32.34700 25.84700
C  -2.75300 31.62900 24.80700
C  -3.81200 30.75200 25.43200
C  -3.71200 31.03800 26.78300
C  -2.74700 32.02000 26.96100
C  -4.58400 29.64500 24.79500
C  -4.37000 30.66300 27.99300
O  -5.27000 29.87700 28.19400
C  -3.67500 31.47600 29.06000
C  -4.60400 32.14800 29.90700
O  -5.18500 33.13400 29.55100
O  -4.96000 31.43500 31.05600
C  -5.85600 32.02600 32.05000
H  0.89100 36.88000 29.02900
H  1.29900 36.10700 22.65900
H  -2.91400 31.19100 22.79400
H  -2.74300 34.29100 30.49700
H  -0.03500 35.26200 30.88200
H  -2.60500 36.28900 31.20500
H  -2.16000 36.95300 29.61700
H  -1.19400 37.42400 30.96200
H  -0.16100 33.07300 31.42300
H  -1.28700 31.90300 30.95400
H  -2.55200 32.21300 32.80100
H  -2.46700 33.95700 32.78500
H  2.96200 37.85100 28.00500
H  1.45900 38.59800 28.07100
H  2.69500 39.22500 26.87400
H  4.19500 38.39300 25.32600
H  3.43500 39.89300 24.92200
H  4.40200 39.07700 23.70200
H  0.86400 33.89800 21.18500
H  -1.93000 32.87800 20.89100
H  -1.57300 35.01400 20.00900
H  0.17700 35.55400 19.88000
H  -0.95800 36.08200 21.19300
H  0.41000 31.82500 20.15100
H  -0.94800 30.84200 20.53200
H  1.46900 30.27500 21.47400
H  -0.04100 29.60200 21.90900
H  0.70500 30.92900 22.86900
H  -4.61000 29.93000 23.74400
H  -5.61200 29.60000 25.15700
H  -4.12000 28.66200 24.88300
H  -3.10700 30.88300 29.77600
H  -5.22700 32.61100 32.72100
H  -6.24300 31.18400 32.62300
H  -6.76500 32.51900 31.70500

