158

Mg 1.98900 -1.30700 43.58600
C  5.43700 -1.40300 42.88200
C  1.78700 1.55100 41.76700
C  -1.30300 -1.85300 43.25700
C  2.31900 -4.71900 44.60600
N  3.41000 -0.11800 42.36500
C  4.77000 -0.28500 42.29700
C  5.42000 0.73600 41.26700
C  4.30500 1.84800 41.29700
C  3.10100 1.13000 41.91900
C  4.70200 3.13100 42.09600
C  5.75500 0.12700 39.81600
C  7.03800 0.67500 39.11800
H  6.93500 1.22000 37.71200
N  0.40500 -0.15400 42.82300
C  0.55900 1.01100 42.16000
C  -0.75000 1.64400 41.96900
C  -1.68700 0.54500 42.07500
C  -0.89300 -0.56100 42.66800
C  -0.95700 3.01100 41.37800
C  -3.13600 0.58600 41.70000
O  -3.61900 1.58400 41.18700
C  -3.96700 -0.68200 41.85300
N  0.68800 -3.14200 43.75600
C  -0.65700 -2.88600 43.83700
C  -1.33500 -4.09600 44.43600
C  -0.20000 -5.00900 44.98300
C  1.00500 -4.27200 44.46600
C  -2.45700 -3.82600 45.47500
C  -0.23400 -6.52700 44.41100
C  0.24000 -7.70700 45.31800
N  3.52100 -2.71300 43.93000
C  3.49200 -4.07700 44.19000
C  4.85900 -4.46000 44.52400
C  5.66200 -3.47300 43.96100
C  4.79800 -2.41800 43.64600
C  5.24900 -5.78400 45.11200
C  7.04900 -3.15700 43.55800
O  8.11700 -3.73000 43.74600
C  6.88400 -1.85100 42.70900
C  7.87200 -0.75100 43.27200
O  8.93000 -0.46800 42.78500
O  7.41400 -0.30000 44.40900
C  8.08200 0.80300 45.08800
H  1.77100 2.57600 41.39000
H  -2.37200 -1.98600 43.43000
H  2.34900 -5.70400 45.07700
H  6.41300 0.95600 41.66000
H  4.09800 2.11700 40.26100
H  4.03600 3.35700 42.92900
H  4.57500 3.97900 41.42200
H  5.71700 3.20700 42.48300
H  5.00200 0.42200 39.08500
H  6.03800 -0.92400 39.88000
H  7.80800 -0.09700 39.13800
H  7.51600 1.45500 39.71100
H  -0.17100 3.68500 41.71900
H  -1.87200 3.56000 41.60300
H  -0.80700 2.93100 40.30200
H  -4.94700 -0.36900 41.49300
H  -4.11100 -0.85600 42.91900
H  -3.50800 -1.55600 41.39000
H  -1.75200 -4.65300 43.59700
H  -0.18100 -5.09300 46.06900
H  -2.30800 -2.84700 45.92900
H  -2.48900 -4.56900 46.27200
H  -3.33900 -3.89300 44.83800
H  0.30700 -6.53900 43.46500
H  -1.29100 -6.69700 44.20600
H  -0.58900 -8.38500 45.11600
H  0.11600 -7.47400 46.37600
H  1.20300 -8.04200 44.93400
H  5.13600 -6.51300 44.31000
H  4.74200 -6.07100 46.03300
H  6.30300 -5.90300 45.36500
H  7.29700 -2.03700 41.71700
H  7.85300 1.78000 44.66300
H  9.11800 0.51800 45.27100
H  7.69200 0.90800 46.10100
Mg 26.63700 0.67800 29.39600
C  28.56100 0.33800 32.17400
C  23.78300 1.17800 31.38800
C  24.66600 0.63300 26.59100
C  29.48100 -0.09500 27.31000
N  26.25700 0.68100 31.55000
C  27.22200 0.69300 32.52900
C  26.61500 0.89400 33.92000
C  25.08800 1.01000 33.60200
C  25.00900 1.02300 32.09300
C  24.25100 -0.02700 34.27600
C  27.19600 2.25200 34.53500
C  28.08700 2.01400 35.74900
H  27.81600 2.87900 37.03000
N  24.58000 0.88900 28.99400
C  23.61900 1.10900 29.96800
C  22.30600 1.30900 29.28300
C  22.53600 1.04100 27.88200
C  23.96200 0.86800 27.79900
C  20.99100 1.54500 30.00200
C  21.52900 1.07800 26.70100
O  21.89300 0.93900 25.52200
C  20.07400 1.29200 26.94500
N  27.03700 0.23700 27.31900
C  25.99800 0.33900 26.40700
C  26.55200 0.35900 24.92800
C  28.17000 0.23100 25.13400
C  28.23100 0.10400 26.70600
C  25.99700 -0.68500 24.10500
C  28.97800 1.56500 24.72500
C  30.03600 1.28600 23.68600
N  28.54800 0.13500 29.64500
C  29.59100 -0.09100 28.70400
C  30.79200 -0.33800 29.50900
C  30.43200 -0.18200 30.85400
C  29.07300 0.10800 30.87000
C  32.14800 -0.69000 28.93900
C  30.91400 -0.34700 32.19500
O  31.91600 -0.86000 32.70800
C  29.71000 0.10400 33.11200
C  29.40000 -0.99600 34.11400
O  28.63500 -1.97600 33.91800
O  30.07400 -0.74700 35.27800
C  30.09000 -1.81700 36.25800
H  22.81700 1.32800 31.87600
H  24.23100 0.69500 25.59200
H  30.42000 -0.34200 26.81100
H  26.82600 0.06100 34.59000
H  24.74000 1.94400 34.04300
H  23.55900 0.42600 34.98500
H  24.94200 -0.73500 34.73400
H  23.64500 -0.53900 33.52800
H  26.47500 2.97100 34.92500
H  27.81400 2.78100 33.80900
H  29.10600 2.31200 35.49900
H  28.05400 0.96400 36.03800
H  20.39900 0.65300 29.79800
H  20.50800 2.39200 29.51600
H  21.02000 1.68600 31.08200
H  19.48700 1.11600 26.04300
H  20.02100 2.36700 27.12200
H  19.73900 0.62200 27.73700
H  26.34400 1.25800 24.34900
H  28.49400 -0.64700 24.57600
H  26.66800 -1.14900 23.38300
H  25.37400 -0.19900 23.35300
H  25.39600 -1.45200 24.59300
H  29.56200 2.03700 25.51600
H  28.32200 2.34800 24.34500
H  31.05000 1.32600 24.08200
H  30.05800 2.05900 22.91700
H  29.86700 0.32100 23.20700
H  32.93700 -0.46700 29.65900
H  32.36400 -0.15900 28.01200
H  32.12400 -1.77200 28.80900
H  29.91200 1.06200 33.58900
H  30.12500 -2.85200 35.91700
H  29.25100 -1.63800 36.93000
H  31.02000 -1.76100 36.82300

