158

Mg -2.60900 16.91900 25.53100
C  -2.89000 14.45000 28.18400
C  -3.46400 19.23900 27.80600
C  -2.70800 19.05600 23.09200
C  -2.55000 14.23100 23.34400
N  -3.07600 16.84300 27.72300
C  -3.05700 15.79200 28.64300
C  -3.36700 16.32700 30.08100
C  -3.54500 17.86800 29.78300
C  -3.37000 17.98500 28.34300
C  -4.76200 18.63000 30.35600
C  -2.30300 16.00200 31.20500
C  -2.48100 16.69200 32.55700
H  -1.98600 16.04900 33.88100
N  -2.76900 18.94200 25.47500
C  -3.28500 19.76900 26.41700
C  -3.30900 21.18500 25.93500
C  -2.81400 21.13100 24.66900
C  -2.72200 19.65700 24.33500
C  -3.63300 22.37800 26.82300
C  -2.43200 22.27100 23.73500
O  -1.86400 22.05000 22.69700
C  -2.72000 23.70400 24.11600
N  -2.40700 16.66900 23.45600
C  -2.59000 17.68900 22.60000
C  -2.62900 17.26200 21.10500
C  -2.88400 15.78200 21.25200
C  -2.42900 15.53100 22.74600
C  -3.50800 18.07600 20.14500
C  -2.17700 14.92400 20.21600
C  -3.17800 14.26200 19.25200
N  -2.53200 14.72200 25.66700
C  -2.56900 13.79100 24.66500
C  -2.82000 12.43400 25.22700
C  -2.65700 12.64000 26.62200
C  -2.62200 14.05100 26.83600
C  -3.06400 11.20300 24.47200
C  -2.61100 11.96100 27.95800
O  -2.73000 10.81200 28.31400
C  -2.69900 13.22900 29.04500
C  -1.54000 13.18300 29.94500
O  -0.47200 13.80300 29.78700
O  -1.84200 12.47100 31.07700
C  -0.88300 12.32800 32.14200
H  -3.62700 20.07500 28.49000
H  -3.07800 19.77000 22.35400
H  -2.69700 13.44700 22.59900
H  -4.31600 15.93200 30.44500
H  -2.60900 18.30800 30.12900
H  -5.48500 19.01200 29.63500
H  -4.46900 19.50300 30.94000
H  -5.31200 17.89500 30.94400
H  -1.26000 15.95000 30.89400
H  -2.60500 14.97500 31.41100
H  -3.47200 17.14000 32.62900
H  -1.84700 17.57800 32.53800
H  -4.20300 22.11200 27.71300
H  -4.25800 23.09500 26.29100
H  -2.72600 22.84000 27.21200
H  -2.32000 24.41600 23.39400
H  -2.25000 23.80700 25.09400
H  -3.78700 23.75800 24.33200
H  -1.64000 17.42700 20.67600
H  -3.95700 15.59000 21.22100
H  -4.14500 17.37200 19.60900
H  -2.92800 18.65800 19.42900
H  -4.01900 18.77000 20.81200
H  -1.63600 14.12600 20.72400
H  -1.34600 15.47700 19.77700
H  -4.22400 14.44800 19.49400
H  -3.04700 13.18500 19.35600
H  -2.99300 14.61500 18.23800
H  -3.24900 10.52700 25.30700
H  -2.17700 10.90100 23.91500
H  -3.96400 11.32600 23.87000
H  -3.59900 13.22900 29.65900
H  -1.00800 11.33300 32.57000
H  -1.11500 12.85900 33.06400
H  0.11600 12.50000 31.74300
Mg -6.15500 25.28600 26.04800
C  -4.46600 27.01300 28.69100
C  -7.55800 23.36500 28.28000
C  -7.45800 23.75900 23.46600
C  -4.24400 27.35900 23.72500
N  -5.86900 25.13200 28.21800
C  -5.21000 25.92800 29.12600
C  -5.65600 25.61000 30.57800
C  -6.28100 24.15700 30.36100
C  -6.68000 24.25900 28.88500
C  -5.27100 22.90600 30.58900
C  -6.67400 26.67800 31.12700
C  -7.23500 26.47700 32.58900
H  -6.71600 25.49200 33.61500
N  -7.37300 23.72400 25.92700
C  -7.94400 23.06700 26.94800
C  -8.87300 22.07900 26.48400
C  -8.95200 22.19900 25.02000
C  -7.88500 23.26900 24.74600
C  -9.77500 21.28900 27.40200
C  -9.85900 21.41600 24.08700
O  -9.67700 21.47800 22.87700
C  -10.91800 20.45600 24.62000
N  -5.96600 25.59300 24.00900
C  -6.61100 24.80500 23.15800
C  -6.64500 25.35100 21.69600
C  -5.50300 26.46000 21.79700
C  -5.21400 26.51900 23.22700
C  -6.46500 24.32500 20.62900
C  -6.03800 27.81000 21.01300
C  -5.51700 28.10400 19.62200
N  -4.67800 26.78900 26.14000
C  -4.01100 27.54200 25.16100
C  -3.07700 28.54000 25.76600
C  -3.27200 28.33200 27.11200
C  -4.30700 27.36200 27.30500
C  -2.22100 29.57100 24.97500
C  -2.88700 28.81900 28.43300
O  -2.17300 29.75400 28.66700
C  -3.72300 28.10200 29.46300
C  -2.83200 27.53400 30.44700
O  -1.89900 26.78400 30.22700
O  -3.34500 27.84600 31.64900
C  -2.73600 27.18800 32.79500
H  -8.10400 22.70200 28.95400
H  -8.04300 23.45200 22.59700
H  -3.73300 28.01800 23.02000
H  -4.79600 25.46900 31.23200
H  -7.25400 24.01400 30.83000
H  -5.65800 22.10700 31.22100
H  -4.26000 23.07000 30.96200
H  -5.16800 22.44300 29.60800
H  -7.54200 26.84800 30.48900
H  -6.09700 27.60000 31.06400
H  -8.30900 26.35400 32.45200
H  -7.11400 27.43200 33.09900
H  -9.43500 20.26400 27.54500
H  -10.81200 21.33700 27.06800
H  -9.86200 21.80300 28.35900
H  -10.64100 19.61900 25.26000
H  -11.38600 19.96500 23.76600
H  -11.67300 21.13400 25.02000
H  -7.60300 25.83100 21.49500
H  -4.68800 25.98500 21.25000
H  -5.89600 23.53100 21.11300
H  -5.79900 24.79800 19.90800
H  -7.44500 23.97800 20.30100
H  -5.94100 28.66500 21.68100
H  -7.12100 27.83000 20.88500
H  -4.91200 29.00300 19.50200
H  -6.30800 28.25500 18.88700
H  -4.98400 27.22000 19.27200
H  -1.46000 29.98700 25.63500
H  -2.78200 30.28600 24.37300
H  -1.72600 28.88700 24.28600
H  -4.43900 28.80500 29.89000
H  -1.65700 27.24900 32.65300
H  -3.04200 26.14200 32.78500
H  -2.95600 27.71100 33.72600

