158

Mg 1.86100 8.22000 25.95700
C  2.50400 10.18000 28.92200
C  2.40300 5.51300 27.96000
C  1.36100 6.54300 23.38700
C  2.04900 11.28000 24.23900
N  2.48400 7.93600 28.25200
C  2.54500 8.83700 29.28200
C  2.39500 8.14200 30.65200
C  2.66200 6.66800 30.26400
C  2.47700 6.68100 28.72600
C  4.02800 6.08300 30.54500
C  0.97900 8.39400 31.19100
C  0.91300 8.71600 32.64400
H  2.13900 8.35300 33.51200
N  2.01700 6.25200 25.67100
C  2.22100 5.28800 26.56000
C  2.14400 4.01200 25.96100
C  1.75700 4.26600 24.69300
C  1.71900 5.77100 24.51800
C  2.41800 2.74100 26.64200
C  1.39900 3.33200 23.57600
O  1.02500 3.80600 22.55500
C  1.39900 1.86300 23.59900
N  1.87700 8.83000 24.03000
C  1.55400 7.88500 23.11600
C  1.27600 8.50400 21.74500
C  1.26700 9.99000 22.07200
C  1.80500 10.10100 23.51000
C  2.43300 8.16400 20.73700
C  -0.16800 10.61900 21.95300
C  -0.39000 11.66100 20.81900
N  2.04200 10.36800 26.46900
C  2.13500 11.44200 25.65400
C  2.24200 12.69400 26.42800
C  2.33400 12.22600 27.73700
C  2.31900 10.80200 27.67400
C  2.33100 14.14100 25.94700
C  2.55800 12.68300 29.13200
O  2.78600 13.79000 29.53700
C  2.48200 11.31400 30.00300
C  3.71500 11.30500 30.87400
O  4.74100 10.66600 30.75500
O  3.34100 12.15900 31.97600
C  4.19300 12.00000 33.12400
H  2.42700 4.63600 28.61000
H  0.92200 6.12600 22.47800
H  1.63300 12.18200 23.78600
H  3.16300 8.56500 31.29900
H  1.86400 6.01500 30.61700
H  4.28200 5.26700 29.86800
H  4.17200 5.72200 31.56300
H  4.83400 6.81500 30.50600
H  0.33500 7.56800 30.88900
H  0.48300 9.25900 30.75000
H  0.01900 8.26700 33.07900
H  0.88500 9.80000 32.75700
H  2.84800 2.89400 27.63200
H  3.08000 2.01500 26.16800
H  1.44700 2.26700 26.78300
H  1.60100 1.43400 22.61700
H  0.45000 1.58400 24.05600
H  2.17500 1.42600 24.22800
H  0.27400 8.26000 21.39200
H  1.99400 10.47000 21.41600
H  3.37100 7.76600 21.12400
H  2.67700 9.02000 20.10800
H  2.15200 7.37900 20.03600
H  -0.39200 11.18300 22.85900
H  -0.94800 9.86900 21.82000
H  0.42700 11.44400 20.13100
H  -0.50400 12.63300 21.29800
H  -1.28400 11.44700 20.23200
H  3.20500 14.19900 25.29900
H  2.37400 14.62900 26.92100
H  1.41100 14.47400 25.46500
H  1.68900 11.33700 30.75000
H  4.77100 11.08000 33.21500
H  3.59000 12.12900 34.02200
H  4.76100 12.93000 33.10600
Mg 8.08200 47.76400 24.69400
C  5.76900 48.20800 27.19600
C  10.55000 48.90400 26.70300
C  10.22000 47.54100 21.95100
C  5.42200 47.29900 22.39600
N  8.14200 48.33200 26.72700
C  7.11000 48.45600 27.57600
C  7.61300 48.79800 29.02000
C  9.05400 49.32600 28.82700
C  9.27800 48.84500 27.34600
C  9.34300 50.79800 29.23700
C  7.41600 47.73500 30.11400
C  8.29800 47.83400 31.41400
H  7.73400 47.12100 32.65900
N  10.02700 48.14400 24.42900
C  10.90500 48.59100 25.37400
C  12.29300 48.55700 24.90100
C  12.23100 48.17800 23.46800
C  10.82000 47.92700 23.22100
C  13.48500 48.88900 25.71800
C  13.34700 47.94100 22.56300
O  13.19100 47.69400 21.36600
C  14.75700 48.07600 23.00200
N  7.86900 47.38900 22.48400
C  8.85400 47.28700 21.62200
C  8.36600 47.29200 20.13500
C  6.85400 47.14700 20.28200
C  6.70000 47.29600 21.81200
C  8.87500 48.61800 19.46200
C  6.18800 45.95500 19.60300
C  6.39700 45.73600 18.06200
N  6.00000 47.91100 24.69600
C  5.07900 47.54800 23.73600
C  3.78700 47.46500 24.38200
C  4.00100 47.80400 25.74700
C  5.37400 48.00600 25.86100
C  2.47500 47.26500 23.67900
C  3.36500 47.98800 27.04500
O  2.15000 47.87500 27.34600
C  4.48500 48.16600 28.01300
C  4.41400 46.88900 28.81200
O  5.00100 45.84100 28.57600
O  3.91800 47.21900 30.04900
C  3.93600 46.20000 31.08800
H  11.32300 49.28400 27.37400
H  10.86400 47.37600 21.08400
H  4.63600 47.17000 21.64900
H  7.05500 49.69500 29.29000
H  9.75800 48.72500 29.40100
H  9.36600 51.57800 28.47600
H  10.32100 50.84700 29.71500
H  8.56000 51.09800 29.93400
H  7.59200 46.78000 29.61800
H  6.38500 47.71000 30.46700
H  8.42900 48.89800 31.61100
H  9.26400 47.41900 31.12600
H  13.16300 49.19400 26.71400
H  14.05800 49.71400 25.29400
H  14.16200 48.05800 25.91800
H  14.97800 47.28000 23.71300
H  15.04300 49.10000 23.24100
H  15.34000 47.81800 22.11800
H  8.78800 46.41000 19.65400
H  6.30700 48.03000 19.95200
H  9.29700 49.26300 20.23300
H  8.02300 49.13300 19.01900
H  9.63500 48.33900 18.73200
H  5.10500 45.88300 19.71200
H  6.64100 45.11700 20.13300
H  6.47400 46.67900 17.52100
H  5.59100 45.11100 17.67900
H  7.31900 45.18200 17.88300
H  1.99300 48.23000 23.52000
H  1.93200 46.71400 24.44800
H  2.65700 46.67200 22.78400
H  4.25500 49.05200 28.60600
H  3.97100 46.71600 32.04700
H  4.86900 45.63500 31.06200
H  3.11100 45.50400 30.93800

