158

Mg 8.94900 47.01500 25.42600
C  6.80900 46.86000 28.07300
C  11.49800 48.21400 27.43100
C  10.90100 47.32600 22.71400
C  6.25200 46.36700 23.25100
N  9.10100 47.54400 27.43100
C  8.15000 47.17000 28.41200
C  8.65500 47.52200 29.82400
C  10.00200 48.27000 29.61600
C  10.21300 48.02600 28.09300
C  9.96200 49.76400 29.93900
C  8.69700 46.34900 30.85600
C  9.70300 46.41500 32.04400
H  9.38900 45.63200 33.35700
N  10.91300 47.64100 25.13500
C  11.82200 48.00200 26.12800
C  13.19800 48.02700 25.52000
C  13.04800 47.66500 24.19500
C  11.59300 47.56100 23.93300
C  14.41900 48.29200 26.42200
C  14.10900 47.19600 23.15300
O  13.75500 47.01100 21.97000
C  15.51800 46.97300 23.54800
N  8.55300 47.06200 23.23900
C  9.57100 47.21100 22.36800
C  9.09700 47.04700 20.91500
C  7.54200 46.82400 21.06200
C  7.42900 46.75300 22.59300
C  9.38100 48.16500 19.87200
C  6.97100 45.59100 20.27700
C  5.61500 45.88100 19.52700
N  6.92500 46.80700 25.60800
C  5.93400 46.48400 24.65900
C  4.64000 46.39700 25.35700
C  4.97200 46.50800 26.74700
C  6.34700 46.74700 26.81600
C  3.30100 46.05900 24.71500
C  4.37000 46.50800 28.09600
O  3.26300 46.36600 28.51800
C  5.60300 46.58200 28.98400
C  5.76500 45.23300 29.73900
O  6.34900 44.26500 29.33200
O  5.25700 45.31200 30.96000
C  5.35500 44.19800 31.88500
H  12.26000 48.47300 28.16900
H  11.44000 47.35400 21.76500
H  5.33700 46.41900 22.65700
H  7.86400 48.11800 30.27800
H  10.87900 47.84200 30.10300
H  9.52500 50.37200 29.14700
H  10.96200 50.16500 30.10300
H  9.42600 49.95000 30.87000
H  8.99700 45.56600 30.15900
H  7.70600 46.30000 31.30700
H  9.87500 47.44500 32.35600
H  10.67100 46.06000 31.69000
H  14.09900 48.62600 27.40900
H  15.05800 49.04800 25.96700
H  14.98700 47.38500 26.62900
H  15.39700 46.42000 24.48000
H  16.13200 47.82800 23.83100
H  16.05300 46.42100 22.77600
H  9.56800 46.12000 20.58600
H  6.99100 47.68100 20.67500
H  9.60100 49.09400 20.39800
H  8.57400 48.20000 19.14000
H  10.28300 47.96600 19.29300
H  6.68200 44.77600 20.94000
H  7.66900 45.20800 19.53200
H  5.54300 46.94800 19.31800
H  4.77600 45.63200 20.17700
H  5.52900 45.39400 18.55600
H  3.35700 46.23900 23.64200
H  2.52400 46.61400 25.24000
H  3.18200 44.98900 24.88500
H  5.51200 47.38500 29.71600
H  6.33900 43.74500 32.00400
H  4.62700 43.42600 31.63500
H  5.39800 44.59600 32.89800
Mg -9.26200 40.76100 42.80100
C  -8.30000 37.57300 41.90000
C  -6.51200 42.05800 41.15000
C  -10.46200 43.96200 43.07100
C  -12.35800 39.62700 43.84100
N  -7.72300 39.85700 41.41500
C  -7.48800 38.52300 41.33500
C  -6.07600 38.24300 40.66700
C  -5.43400 39.72400 40.68600
C  -6.65300 40.64900 41.09200
C  -4.06600 39.83900 41.37800
C  -6.33200 37.65000 39.24300
C  -5.32800 36.58300 38.76700
H  -4.67200 36.65600 37.29900
N  -8.52700 42.74100 42.24400
C  -7.36500 43.06100 41.66500
C  -7.19900 44.44700 41.54600
C  -8.31300 45.11200 42.18000
C  -9.19800 43.95700 42.48500
C  -5.97500 45.06400 40.89900
C  -8.49200 46.56100 42.42100
O  -7.65800 47.33000 41.92100
C  -9.61500 47.02500 43.27200
N  -11.16500 41.69200 43.28800
C  -11.31700 43.02900 43.54800
C  -12.74100 43.39000 44.13900
C  -13.23900 41.95400 44.51900
C  -12.25500 41.06600 43.86300
C  -12.75300 44.42000 45.30600
C  -14.71500 41.67600 44.01000
C  -15.63800 41.02800 45.07000
N  -10.16700 38.96700 42.95700
C  -11.43000 38.60200 43.38800
C  -11.63200 37.20100 43.32400
C  -10.47000 36.73100 42.79200
C  -9.59100 37.86700 42.52300
C  -12.82700 36.38800 43.76000
C  -9.68200 35.51900 42.39100
O  -10.00700 34.36900 42.48400
C  -8.27900 36.06100 41.70800
C  -7.10100 35.42900 42.38700
O  -6.78600 35.62000 43.51700
O  -6.42600 34.57800 41.43500
C  -5.17900 33.94200 41.91200
H  -5.56100 42.45000 40.78300
H  -10.95100 44.87000 43.43100
H  -13.33100 39.16700 44.02800
H  -5.55100 37.63000 41.40000
H  -5.18400 39.99600 39.66100
H  -3.34000 39.54900 40.61900
H  -4.07600 39.02900 42.10700
H  -3.83200 40.81100 41.81300
H  -6.13300 38.38300 38.46200
H  -7.33500 37.25700 39.07700
H  -5.80900 35.60900 38.86000
H  -4.52800 36.61300 39.50700
H  -6.16400 46.02600 40.42300
H  -5.52800 44.41700 40.14400
H  -5.26900 45.20700 41.71700
H  -9.43000 48.01200 43.69700
H  -9.56200 46.29800 44.08200
H  -10.51700 47.07100 42.66300
H  -13.17900 43.77100 43.21600
H  -13.14100 41.69200 45.57200
H  -13.44700 45.23500 45.10400
H  -11.71000 44.71800 45.41300
H  -13.09500 43.98900 46.24800
H  -14.55000 41.07200 43.11700
H  -15.28500 42.52600 43.63500
H  -16.49800 41.68300 45.20600
H  -15.11100 40.75100 45.98400
H  -15.93900 40.09200 44.59900
H  -12.59700 35.32300 43.78400
H  -13.70300 36.48600 43.11900
H  -13.05500 36.64100 44.79500
H  -8.25300 35.76900 40.65800
H  -5.44600 33.33000 42.77300
H  -4.53400 34.77300 42.19700
H  -4.82800 33.27400 41.12500

