158

Mg 47.18700 25.90800 29.16800
C  48.12700 27.95400 31.83400
C  45.87100 23.62600 31.52800
C  46.64000 23.60400 26.80800
C  48.71400 28.02100 26.99300
N  46.90500 25.85800 31.51100
C  47.34000 26.90600 32.34000
C  46.79400 26.62200 33.75000
C  46.28700 25.09100 33.73100
C  46.30700 24.84400 32.20400
C  47.07000 24.03300 34.64700
C  45.60800 27.62700 34.14300
C  45.75100 28.44800 35.49600
H  46.33200 27.65100 36.70500
N  46.36000 23.85800 29.18900
C  45.91400 23.14800 30.23300
C  45.33600 21.91800 29.74200
C  45.43000 21.85900 28.33900
C  46.15500 23.12900 28.03800
C  44.63600 20.89500 30.59300
C  44.96500 20.84000 27.26400
O  45.12200 21.02400 26.06100
C  44.24900 19.49700 27.65200
N  47.74400 25.80500 27.18800
C  47.35700 24.74500 26.37400
C  47.55900 25.11800 24.90900
C  48.16800 26.57400 24.89300
C  48.19900 26.89400 26.40400
C  48.41800 24.16700 24.07300
C  47.32000 27.57100 24.05300
C  48.08800 28.21000 22.87500
N  48.26200 27.54400 29.35700
C  48.78900 28.36600 28.38100
C  49.35200 29.53300 28.98500
C  49.13500 29.41200 30.34500
C  48.42900 28.18300 30.52200
C  50.20000 30.50600 28.14200
C  49.36600 30.08000 31.62000
O  50.02900 31.07100 31.85400
C  48.69200 29.12100 32.67500
C  49.74300 28.75600 33.67200
O  50.30500 27.66500 33.85200
O  49.70900 29.81800 34.60500
C  50.42300 29.53600 35.91800
H  45.34400 22.94100 32.19600
H  46.43100 23.02100 25.90900
H  48.99900 28.86300 26.35900
H  47.68600 26.67200 34.37500
H  45.25100 25.01400 34.05800
H  46.45300 23.51000 35.37900
H  47.93900 24.41500 35.18200
H  47.61400 23.33100 34.01400
H  44.62500 27.17300 34.01800
H  45.66400 28.34000 33.32100
H  44.77300 28.74400 35.87700
H  46.29500 29.37000 35.29300
H  43.58300 20.89200 30.31100
H  44.74600 21.18400 31.63800
H  45.04500 19.89100 30.48000
H  43.31600 19.83500 28.10400
H  44.91100 19.07200 28.40600
H  44.01100 18.85600 26.80300
H  46.54500 25.12800 24.50900
H  49.18200 26.50600 24.50000
H  48.08100 23.13300 24.14200
H  49.45700 24.27100 24.38800
H  48.31200 24.46400 23.03000
H  46.94200 28.33800 24.72900
H  46.44300 27.11900 23.58800
H  47.41100 28.40100 22.04200
H  48.79100 27.47900 22.47400
H  48.65900 29.11600 23.07900
H  49.64900 31.21500 27.52500
H  50.96800 29.92200 27.63500
H  50.71100 31.25100 28.75100
H  47.91300 29.71400 33.15500
H  50.66400 30.44700 36.46500
H  51.38200 29.02800 35.81400
H  49.75900 28.87900 36.47900
Mg 37.00100 50.16300 25.51300
C  37.09800 48.19900 28.45900
C  35.88400 52.77900 27.24900
C  36.59400 51.73300 22.56400
C  37.97500 47.25200 23.80100
N  36.34600 50.35700 27.60100
C  36.64600 49.58000 28.66600
C  36.32700 50.20100 30.00400
C  35.82800 51.53200 29.52300
C  35.96200 51.59100 28.04700
C  34.36400 51.86100 29.95600
C  37.59500 50.14000 30.91900
C  37.37300 50.00800 32.43600
H  35.99800 49.69800 32.98500
N  36.25700 51.96500 25.01900
C  35.93100 52.93600 25.86000
C  35.66100 54.16700 25.16200
C  35.93300 53.93300 23.77400
C  36.25600 52.45300 23.68100
C  35.51900 55.47300 25.91900
C  35.92200 54.86500 22.60800
O  35.75900 54.42900 21.45800
C  35.90400 56.36600 22.71500
N  37.08800 49.50600 23.53700
C  36.96700 50.37700 22.45200
C  37.43700 49.77900 21.07700
C  38.01800 48.40300 21.55600
C  37.62500 48.34700 23.06400
C  36.28300 49.58400 20.02300
C  39.50600 48.29700 21.22900
C  40.48200 49.28400 21.94900
N  37.47000 48.09800 25.97400
C  37.79100 47.05700 25.15200
C  38.12400 45.84100 25.88900
C  37.82700 46.24300 27.20400
C  37.48700 47.64500 27.18500
C  38.63300 44.50400 25.31200
C  37.76200 45.87000 28.59700
O  38.00500 44.75900 29.02100
C  37.31900 47.09500 29.46500
C  36.11800 46.69300 30.15600
O  35.04000 46.71500 29.63300
O  36.43400 46.26500 31.43700
C  35.35500 45.71000 32.24500
H  35.59400 53.64900 27.84200
H  36.60900 52.29900 21.63000
H  38.33800 46.40000 23.22300
H  35.46100 49.64300 30.36200
H  36.51700 52.30500 29.86400
H  33.91700 51.25100 30.74100
H  33.76300 51.99000 29.05500
H  34.45000 52.82300 30.46100
H  38.13600 51.08400 30.86800
H  38.20200 49.30300 30.57300
H  37.66000 50.92600 32.95000
H  38.06600 49.25500 32.81000
H  36.50400 55.74900 26.29400
H  34.81300 55.36500 26.74300
H  35.35200 56.24600 25.16900
H  34.91900 56.59900 23.12100
H  35.96300 56.89000 21.76000
H  36.71000 56.67300 23.38100
H  38.19400 50.43900 20.65200
H  37.36100 47.67000 21.08800
H  35.94300 48.54900 19.99600
H  36.60100 49.87600 19.02200
H  35.34500 50.06000 20.30800
H  39.57900 48.52600 20.16600
H  39.70200 47.22500 21.26800
H  41.19400 49.84800 21.34700
H  41.02400 48.68300 22.68000
H  39.86500 49.94900 22.55200
H  39.40600 44.09400 25.96200
H  38.99600 44.65200 24.29500
H  37.79800 43.82800 25.13100
H  38.13700 47.19000 30.17900
H  35.72800 45.60100 33.26300
H  34.86100 44.82200 31.84900
H  34.48500 46.36700 32.26900

