158

Mg 47.00100 25.47300 27.99200
C  47.76200 27.66800 30.46900
C  46.42700 23.01600 30.31400
C  46.10600 23.41800 25.51600
C  47.74600 27.87400 25.66500
N  47.03400 25.39200 30.17900
C  47.27900 26.40800 31.02800
C  47.24000 25.95600 32.47800
C  46.73800 24.50600 32.46300
C  46.73400 24.26000 30.86600
C  47.58300 23.53700 33.32500
C  46.53300 27.04500 33.40500
C  45.72700 26.57700 34.60000
H  45.51600 27.53800 35.83800
N  46.45100 23.48200 27.92800
C  46.27900 22.60800 29.00200
C  45.80400 21.32900 28.54000
C  45.54800 21.48400 27.17200
C  46.12500 22.82200 26.78300
C  45.49400 20.19300 29.57300
C  44.85500 20.61600 26.21200
O  44.46700 20.99100 25.10900
C  44.43300 19.33200 26.64700
N  47.03300 25.61900 25.85000
C  46.51500 24.65500 25.06600
C  46.53400 25.01500 23.58700
C  47.02300 26.49200 23.64500
C  47.24400 26.74100 25.14800
C  47.47200 24.18500 22.67800
C  45.95300 27.52800 23.05300
C  46.38800 28.43300 21.91200
N  47.75200 27.30900 28.00700
C  48.07600 28.18700 26.97900
C  48.45500 29.43800 27.50200
C  48.45100 29.21000 28.88300
C  48.00600 27.96100 29.13600
C  48.76700 30.66800 26.76200
C  48.75800 29.88500 30.15200
O  49.20900 31.00700 30.27500
C  48.19500 28.91900 31.24100
C  49.26300 28.64100 32.15100
O  50.24700 27.90500 31.93000
O  49.12400 29.35100 33.29200
C  50.34500 29.39800 34.16400
H  46.23800 22.30900 31.12500
H  45.88200 22.77300 24.66400
H  47.95800 28.59500 24.87300
H  48.28300 26.04000 32.78400
H  45.69600 24.45400 32.77800
H  48.13900 24.04100 34.11500
H  48.28400 23.07400 32.63100
H  47.01600 22.74700 33.81900
H  45.78100 27.49500 32.75800
H  47.33400 27.71300 33.72300
H  46.16000 25.63100 34.92400
H  44.75900 26.20700 34.26200
H  44.89200 19.35000 29.23500
H  45.13600 20.68500 30.47700
H  46.39800 19.66300 29.87500
H  44.03400 18.75800 25.81100
H  43.69500 19.38400 27.44600
H  45.38200 18.82600 26.82000
H  45.53700 25.02000 23.14700
H  47.94700 26.62000 23.08100
H  48.18300 23.60700 23.26900
H  47.95700 24.79600 21.91700
H  46.92900 23.48400 22.04300
H  45.42700 28.19600 23.73500
H  45.14700 26.95000 22.60000
H  45.70000 28.23800 21.08900
H  47.43100 28.26600 21.64400
H  46.25700 29.48300 22.17400
H  49.16200 31.42200 27.44300
H  47.86900 31.13800 26.36200
H  49.52300 30.40200 26.02300
H  47.27800 29.37700 31.61200
H  49.99700 29.05800 35.13900
H  50.66000 30.43500 34.27900
H  51.21800 28.79200 33.92100
Mg 35.44300 49.75600 25.65400
C  36.03300 47.87100 28.51600
C  34.27500 52.25800 27.82600
C  34.46700 51.52300 23.16900
C  36.24200 46.87000 23.64200
N  35.16800 49.99100 27.95200
C  35.54300 49.13200 28.92400
C  35.41300 49.68400 30.37300
C  34.61300 51.08700 30.11100
C  34.65700 51.08500 28.52800
C  33.16800 51.04000 30.64800
C  36.73200 49.91500 31.08700
C  36.90100 49.11500 32.43800
H  36.72800 49.92700 33.68500
N  34.71200 51.71300 25.50000
C  34.35100 52.59400 26.44900
C  34.03400 53.87800 25.83600
C  33.94500 53.67700 24.46300
C  34.33000 52.21100 24.33600
C  33.79700 55.12300 26.66800
C  33.59700 54.65300 23.33200
O  33.42000 54.24300 22.19900
C  33.55600 56.16600 23.57000
N  35.41000 49.26500 23.74300
C  34.88000 50.21500 22.89500
C  34.77400 49.62800 21.41800
C  35.47600 48.20600 21.59000
C  35.67700 48.04200 23.10800
C  33.35600 49.54900 20.82900
C  36.88100 48.03400 20.84000
C  37.48600 46.56700 20.54500
N  36.05100 47.79300 25.94600
C  36.40100 46.75700 25.05500
C  36.83900 45.56600 25.86100
C  36.74500 45.97700 27.17800
C  36.35100 47.34100 27.20900
C  37.38100 44.33800 25.19000
C  37.01500 45.58900 28.54600
O  37.44100 44.46900 28.93100
C  36.58000 46.81200 29.45500
C  35.54700 46.34700 30.45000
O  34.31800 46.44100 30.32100
O  36.10000 45.85500 31.54300
C  35.22500 45.55200 32.68500
H  33.94700 53.06300 28.48700
H  34.20100 52.06300 22.25800
H  36.60800 46.06700 23.00000
H  34.77100 49.03900 30.97300
H  35.12000 51.98800 30.45700
H  32.82400 51.78500 31.36600
H  32.79100 50.12500 31.10500
H  32.61000 51.17600 29.72200
H  36.63900 50.94000 31.44600
H  37.64600 49.70800 30.53100
H  37.89300 48.66400 32.41900
H  36.16000 48.31500 32.43400
H  34.42500 55.93000 26.29100
H  34.10100 55.06500 27.71300
H  32.75400 55.33500 26.43200
H  34.37900 56.43100 24.23300
H  32.57500 56.31400 24.02200
H  33.51400 56.65000 22.59400
H  35.37900 50.21900 20.73100
H  34.75300 47.42000 21.37000
H  33.45500 49.95800 19.82300
H  32.72300 50.26200 21.35700
H  32.88600 48.56600 20.86900
H  37.56900 48.40400 21.60100
H  36.92700 48.70600 19.98400
H  37.98700 46.48000 19.58100
H  36.58500 45.95300 20.55000
H  38.29200 46.34100 21.24200
H  38.47100 44.32100 25.18800
H  36.86400 44.27600 24.23300
H  37.19000 43.51800 25.88300
H  37.43800 47.19100 30.01000
H  35.66700 45.96300 33.59300
H  35.06300 44.53500 33.04000
H  34.23400 46.00100 32.75300

