158

Mg 53.68100 24.74800 43.82600
C  51.12100 26.96200 43.30700
C  51.56200 22.29000 42.47100
C  56.30700 22.65300 43.26300
C  55.78000 27.36900 44.50500
N  51.67300 24.69600 42.68200
C  50.85100 25.74400 42.65100
C  49.51700 25.43500 41.97100
C  49.53200 23.80800 42.00600
C  50.99300 23.53100 42.44600
C  48.45600 23.11700 42.87700
C  49.28700 25.92100 40.47400
C  50.42900 25.84400 39.48400
H  50.03300 25.30400 38.14100
N  53.92600 22.66000 43.17100
C  52.90400 21.87500 42.72400
C  53.44300 20.54100 42.52700
C  54.84000 20.62200 42.77100
C  55.07600 22.02200 43.07500
C  52.57400 19.38700 42.25100
C  55.82200 19.47800 42.70200
O  55.52100 18.32200 42.41700
C  57.17200 19.51900 43.31500
N  55.77600 24.94400 43.78100
C  56.62100 23.99400 43.59400
C  58.02800 24.51700 43.70900
C  57.85500 26.06400 43.91000
C  56.35200 26.15800 44.16100
C  58.89300 23.82800 44.76300
C  58.31400 26.92800 42.69400
C  58.83800 28.28400 43.00300
N  53.51600 26.69300 44.11800
C  54.43900 27.68400 44.45300
C  53.70800 28.87700 44.81700
C  52.37300 28.60800 44.40600
C  52.35400 27.26400 43.92000
C  54.33100 30.10600 45.36000
C  51.13800 29.30100 44.22500
O  50.74900 30.48300 44.35300
C  50.25100 28.16100 43.45200
C  49.72100 28.76100 42.24400
O  50.27600 28.93800 41.17200
O  48.41500 29.10300 42.50400
C  47.68100 29.90700 41.54700
H  50.93500 21.47500 42.10200
H  57.17200 22.02600 43.04100
H  56.51900 28.07400 44.88900
H  48.74600 25.92200 42.56800
H  49.42900 23.41000 40.99700
H  48.71500 22.38200 43.64000
H  47.80100 22.57700 42.19300
H  47.81600 23.88300 43.31600
H  48.95400 26.95700 40.54900
H  48.31300 25.53100 40.17800
H  51.24300 25.27700 39.93500
H  50.79200 26.86700 39.38600
H  52.03100 19.62700 41.33700
H  51.77700 19.28900 42.98800
H  53.00700 18.42600 41.97400
H  57.67300 18.55900 43.43700
H  57.10400 19.97400 44.30300
H  57.72000 20.16400 42.62800
H  58.55600 24.24700 42.79500
H  58.54600 26.40400 44.68200
H  59.84400 23.56300 44.30000
H  58.45800 22.86500 45.03300
H  59.04500 24.41900 45.66600
H  57.48200 27.03700 41.99800
H  59.04400 26.33200 42.14700
H  59.36200 28.64400 42.11800
H  59.61000 28.21500 43.76900
H  58.08800 29.02600 43.27900
H  53.56800 30.82800 45.65400
H  54.94800 30.55200 44.58000
H  54.94700 29.87700 46.22900
H  49.43900 27.84300 44.10600
H  47.15200 29.23900 40.86700
H  48.31800 30.59800 40.99600
H  46.97000 30.52400 42.09800
Mg -12.75600 16.97500 41.58100
C  -9.92100 15.08900 40.86500
C  -11.44600 19.63600 39.71600
C  -15.86700 18.35200 41.47600
C  -14.34800 13.92500 42.77000
N  -10.88200 17.32800 40.39100
C  -9.90400 16.36400 40.24800
C  -8.68800 17.02000 39.54200
C  -9.05400 18.48200 39.41300
C  -10.52300 18.52800 39.89100
C  -8.12300 19.43600 40.13700
C  -8.38800 16.29000 38.25000
C  -6.90100 15.83600 38.16600
H  -6.18300 16.52600 37.07900
N  -13.45900 18.69200 40.84800
C  -12.72500 19.72400 40.16700
C  -13.70100 20.79600 39.85700
C  -14.90400 20.52400 40.50000
C  -14.76800 19.11800 40.93300
C  -13.30500 22.02100 39.11700
C  -16.06700 21.51000 40.66700
O  -16.12600 22.56300 40.01600
C  -17.14300 21.30900 41.66000
N  -14.84100 16.17900 41.93300
C  -15.90600 17.02600 41.98100
C  -17.20600 16.36900 42.45300
C  -16.67300 14.94200 42.95100
C  -15.22400 14.97600 42.55100
C  -18.04000 17.10300 43.53800
C  -17.36900 13.69200 42.43700
C  -18.23400 12.83400 43.38600
N  -12.25300 15.00400 41.98300
C  -12.98000 13.92700 42.42800
C  -12.04900 12.79400 42.47400
C  -10.84000 13.19500 41.81800
C  -11.03500 14.55200 41.51900
C  -12.35200 11.42900 43.13500
C  -9.54800 12.69000 41.47100
O  -8.95900 11.61600 41.57900
C  -8.92100 13.90600 40.80400
C  -7.65900 14.11500 41.57400
O  -7.52900 14.64100 42.65600
O  -6.65400 13.69000 40.81100
C  -5.34900 13.94700 41.50700
H  -10.96200 20.39600 39.09900
H  -16.86600 18.79000 41.52500
H  -14.82400 13.03200 43.18200
H  -7.96800 16.94700 40.35700
H  -9.11600 18.76900 38.36300
H  -7.07600 19.35600 39.84300
H  -8.30700 19.30100 41.20300
H  -8.41700 20.44200 39.83900
H  -8.56600 16.87800 37.35000
H  -9.09500 15.47100 38.12300
H  -6.93700 14.75900 38.00500
H  -6.37800 16.07900 39.09200
H  -14.10600 22.26000 38.41800
H  -12.50200 21.96500 38.38200
H  -13.10300 22.80200 39.85000
H  -17.62300 22.20100 42.06300
H  -16.81100 20.86200 42.59700
H  -17.87300 20.77200 41.05500
H  -17.82500 16.17200 41.57700
H  -16.75000 14.88800 44.03700
H  -17.96500 16.65700 44.53000
H  -19.12100 17.13000 43.40300
H  -17.56000 18.08100 43.58300
H  -16.68200 13.00500 41.94200
H  -18.01100 13.96300 41.59800
H  -19.27500 12.70200 43.09100
H  -18.29900 13.20800 44.40800
H  -17.71100 11.88400 43.48800
H  -11.37300 11.00200 43.35300
H  -12.96700 10.87200 42.42900
H  -12.90400 11.43600 44.07500
H  -8.61600 13.62200 39.79700
H  -5.12600 13.24000 42.30600
H  -5.36800 14.89400 42.04700
H  -4.55200 13.92300 40.76300

