158

Mg 43.09600 42.28900 26.48200
C  42.50300 44.73100 28.98100
C  44.51100 40.16900 28.76400
C  43.71100 40.16100 24.02000
C  42.56100 44.89400 24.07200
N  43.64200 42.56100 28.59300
C  43.05100 43.51500 29.47100
C  43.12300 42.99000 30.87800
C  44.18200 41.79200 30.77900
C  44.03600 41.43400 29.27700
C  45.62000 42.18500 31.01100
C  41.69300 42.66300 31.39400
C  41.27800 43.22200 32.73400
H  42.13500 42.96000 33.95900
N  43.96000 40.44000 26.43700
C  44.43600 39.70000 27.46200
C  44.74000 38.38300 27.06100
C  44.41400 38.31500 25.67200
C  43.98900 39.61800 25.31300
C  45.42000 37.30000 27.96500
C  44.55100 37.09800 24.69300
O  44.57500 37.16900 23.49300
C  44.98700 35.79800 25.31600
N  43.17400 42.57300 24.37500
C  43.33800 41.46200 23.59500
C  43.11700 41.82900 22.04000
C  42.55400 43.26200 22.20800
C  42.69200 43.60700 23.65500
C  44.47600 41.78800 21.34800
C  41.17000 43.42600 21.60300
C  40.04000 42.61800 22.34500
N  42.56100 44.30900 26.47500
C  42.49800 45.23100 25.41500
C  42.14600 46.54000 25.88400
C  41.99900 46.32400 27.26100
C  42.40900 44.98900 27.57800
C  41.97500 47.83300 25.02600
C  41.64900 46.99500 28.49000
O  41.19800 48.09800 28.72800
C  41.86200 45.90300 29.71300
C  42.73000 46.57900 30.67400
O  43.88100 46.90400 30.40900
O  42.09000 46.70500 31.86100
C  42.71200 47.78300 32.78400
H  44.83800 39.44700 29.51600
H  43.90200 39.54500 23.14000
H  42.31200 45.70700 23.38700
H  43.56100 43.80600 31.45200
H  43.92400 40.87900 31.31400
H  46.39600 41.77700 30.36300
H  45.86400 42.00700 32.05800
H  45.64400 43.27000 30.91400
H  41.60300 41.58500 31.53000
H  41.01300 43.09400 30.65900
H  40.20400 43.04700 32.80200
H  41.35200 44.28900 32.52400
H  45.49400 37.70400 28.97400
H  46.45200 37.30300 27.61600
H  44.93400 36.33400 28.11000
H  45.08900 35.06400 24.51600
H  44.50000 35.29900 26.15400
H  46.03700 35.98400 25.54000
H  42.44400 41.07900 21.62600
H  43.26300 43.96500 21.77200
H  45.30500 41.68400 22.04800
H  44.65700 42.73500 20.84000
H  44.46400 41.02000 20.57500
H  41.09400 42.98900 20.60800
H  40.82300 44.45100 21.47200
H  39.15100 43.12000 22.72900
H  40.51300 41.93300 23.04800
H  39.62100 41.88200 21.65900
H  42.84900 47.99100 24.39300
H  41.78200 48.65600 25.71300
H  41.10000 47.67800 24.39600
H  40.88000 45.68700 30.13400
H  43.09300 48.58900 32.15700
H  43.55200 47.36200 33.33600
H  41.97700 48.24500 33.44400
Mg 27.27200 50.55200 26.62500
C  25.01500 51.80200 29.13500
C  29.49200 50.02100 29.42200
C  29.46000 49.77900 24.51300
C  24.90100 51.50700 24.30200
N  27.35400 51.12800 28.98800
C  26.20400 51.27500 29.72200
C  26.42600 51.17300 31.24500
C  27.98300 50.84400 31.32800
C  28.32200 50.72800 29.82800
C  28.86600 51.81200 32.22500
C  25.57200 50.05400 31.92400
C  24.62100 50.61800 32.98000
H  24.47300 49.75400 34.30200
N  29.21400 49.96200 26.93000
C  29.94000 49.71500 28.10800
C  31.22200 49.23500 27.71100
C  31.32500 49.20700 26.26300
C  29.95600 49.67000 25.84200
C  32.43800 49.00200 28.70600
C  32.58800 48.75400 25.34700
O  32.53500 48.88700 24.12100
C  33.89500 48.30200 25.92600
N  27.20000 50.70300 24.68100
C  28.26400 50.33500 23.99000
C  27.85000 50.01800 22.53000
C  26.41600 50.57700 22.35500
C  26.14200 51.06500 23.84100
C  28.76600 50.59400 21.49900
C  25.30400 49.63200 21.82900
C  24.44000 50.08700 20.66600
N  25.40000 51.44400 26.64600
C  24.55700 51.74800 25.60200
C  23.22700 52.13100 26.12800
C  23.41700 52.19700 27.48800
C  24.71800 51.78800 27.78100
C  22.08400 52.61200 25.23900
C  22.71700 52.55100 28.68900
O  21.58800 52.86800 28.90800
C  23.72800 52.24300 29.89800
C  23.91600 53.41600 30.83800
O  24.59800 54.41000 30.59300
O  23.15300 53.19200 31.93600
C  23.24100 54.24900 32.89700
H  30.07700 49.66000 30.27100
H  30.16600 49.35000 23.79900
H  24.21700 51.72300 23.47800
H  26.12700 52.19000 31.49800
H  28.10700 49.86000 31.78000
H  28.30200 52.70000 32.51100
H  29.84100 52.03600 31.79200
H  29.05800 51.31300 33.17500
H  26.20200 49.26200 32.32900
H  25.11800 49.52700 31.08500
H  23.62100 50.55400 32.55000
H  24.86800 51.64200 33.26100
H  32.37800 49.56100 29.64000
H  33.35800 49.31100 28.21000
H  32.32600 47.96100 29.00900
H  34.43000 47.56600 25.32700
H  33.64800 47.69100 26.79400
H  34.57400 49.12300 26.15400
H  27.85000 48.93500 22.40700
H  26.48800 51.46400 21.72500
H  29.63500 50.87000 22.09600
H  28.43700 51.53600 21.05900
H  29.08100 49.84100 20.77700
H  24.67100 49.37500 22.67800
H  25.70600 48.66300 21.53200
H  23.40000 50.12200 20.99200
H  24.50100 49.37000 19.84800
H  24.86100 51.00600 20.25900
H  22.12300 52.40300 24.17000
H  22.09800 53.69600 25.34400
H  21.11800 52.29800 25.63600
H  23.35200 51.42100 30.50600
H  23.24600 55.27700 32.53600
H  23.90000 54.06000 33.74400
H  22.32400 54.18000 33.48300

