158

Mg 41.16600 40.86600 26.62200
C  40.46400 43.59100 28.90700
C  42.29400 39.08700 29.23500
C  42.30000 38.74400 24.42800
C  40.53400 43.19500 24.01900
N  41.47200 41.44400 28.81900
C  40.87600 42.45300 29.57900
C  40.97200 42.20400 31.00700
C  41.69600 40.77600 31.09600
C  41.87200 40.36100 29.63900
C  43.06300 40.72800 31.81800
C  39.60700 42.38700 31.76700
C  39.67500 43.20000 33.13300
H  38.90200 42.66600 34.42500
N  42.17900 39.12300 26.79900
C  42.50200 38.49200 27.93100
C  43.11200 37.18400 27.68500
C  43.14700 37.10700 26.28600
C  42.54700 38.35100 25.75000
C  43.59200 36.29100 28.76000
C  43.70200 36.00500 25.39800
O  43.99900 36.12100 24.24400
C  43.98500 34.65300 26.07900
N  41.53400 41.02400 24.46500
C  41.86300 39.88400 23.82500
C  41.66300 40.02300 22.32800
C  40.80700 41.33600 22.27600
C  40.97900 41.89300 23.65300
C  43.02900 40.12900 21.48900
C  39.26400 41.12000 22.08000
C  38.46800 40.25700 23.00900
N  40.58700 42.91200 26.45400
C  40.40700 43.69600 25.34600
C  39.95700 44.99500 25.68000
C  40.01500 45.01600 27.08700
C  40.35300 43.71300 27.48600
C  39.78100 46.09600 24.62600
C  39.93100 45.95200 28.23300
O  39.72100 47.16600 28.21400
C  39.91900 44.94200 29.40600
C  40.72600 45.59100 30.50800
O  41.97000 45.65100 30.61400
O  39.89000 46.08300 31.47900
C  40.44900 46.63300 32.64800
H  42.58100 38.51600 30.12000
H  42.59100 37.96500 23.72100
H  40.30300 43.84900 23.17500
H  41.65000 42.88000 31.53000
H  41.02300 40.06700 31.57800
H  43.34700 41.60600 32.39800
H  43.94800 40.57300 31.20100
H  43.13900 39.83700 32.44100
H  39.11700 41.41600 31.83900
H  38.94200 42.99900 31.15700
H  39.09400 44.12100 33.09700
H  40.63600 43.38800 33.61200
H  43.84500 36.69800 29.73900
H  44.50800 35.72500 28.59000
H  42.86000 35.50100 28.92900
H  43.20800 34.43300 26.81000
H  44.97500 34.66600 26.53500
H  43.97900 33.86200 25.32900
H  40.95100 39.29000 21.94800
H  41.30800 41.95100 21.52800
H  43.63100 40.64400 22.23800
H  42.73700 40.68700 20.60000
H  43.34700 39.11100 21.26500
H  39.26500 40.73700 21.06000
H  38.86300 42.12600 21.95500
H  37.86600 40.79600 23.74100
H  39.18700 39.61700 23.52100
H  37.84300 39.57700 22.43000
H  39.60800 47.07800 25.06600
H  39.06800 45.92800 23.81800
H  40.72000 46.19100 24.08000
H  38.89200 44.83200 29.75400
H  39.90800 47.50800 33.01000
H  41.47800 46.96900 32.52600
H  40.42800 45.95700 33.50200
Mg 30.73100 59.43000 38.86200
C  27.74600 57.94500 37.64700
C  32.52500 56.69600 37.84700
C  33.52100 61.25600 39.14700
C  28.77500 62.34400 39.40700
N  30.23100 57.66200 37.75600
C  28.96700 57.10700 37.48200
C  28.98000 55.69500 36.83100
C  30.46500 55.27200 37.19900
C  31.12100 56.61000 37.65400
C  30.62200 54.31000 38.43900
C  28.56300 55.64800 35.31500
C  27.72900 54.50500 34.74000
H  26.53200 54.97800 33.83100
N  32.79000 58.96400 38.58700
C  33.26700 57.80200 38.26000
C  34.68100 57.93600 38.21300
C  35.06500 59.20700 38.75900
C  33.78200 59.85100 38.85800
C  35.54800 56.71400 37.86500
C  36.48500 59.64100 38.94600
O  37.34300 58.84400 38.70000
C  36.92000 61.00300 39.43800
N  31.09800 61.51000 39.21300
C  32.35300 62.02900 39.32500
C  32.41700 63.51600 39.63000
C  30.91000 63.82700 39.69200
C  30.15400 62.49600 39.41800
C  33.33300 63.88500 40.77600
C  30.39300 65.01600 38.90500
C  29.71600 66.10200 39.73700
N  28.68200 60.04100 38.75000
C  28.09500 61.18000 39.04900
C  26.66200 61.14800 38.81600
C  26.46000 59.84700 38.29900
C  27.75200 59.23100 38.22200
C  25.56700 62.24300 38.78700
C  25.48200 58.84800 37.77400
O  24.31500 58.91600 37.45800
C  26.26700 57.60800 37.47900
C  25.81300 56.63400 38.52900
O  25.60400 56.98600 39.67300
O  25.60100 55.32300 38.04200
C  25.21100 54.30100 39.03900
H  32.99600 55.76400 37.52900
H  34.44800 61.73300 39.47200
H  28.10400 63.15500 39.69600
H  28.23700 55.20800 37.46200
H  31.04800 54.84800 36.38100
H  29.66500 53.78700 38.45800
H  30.72800 54.88100 39.36200
H  31.37400 53.52500 38.36800
H  29.45200 55.52200 34.69800
H  28.06800 56.58500 35.06000
H  27.27000 53.86400 35.49300
H  28.43100 53.83800 34.24000
H  34.97700 55.94800 37.33900
H  35.98500 56.33900 38.79000
H  36.28800 56.95400 37.10200
H  37.98200 61.24100 39.36500
H  36.45000 61.17000 40.40700
H  36.50400 61.65300 38.66900
H  32.65700 63.98600 38.67700
H  30.74700 64.04000 40.74800
H  34.15000 64.57300 40.55900
H  33.92000 63.04100 41.13800
H  32.79100 64.28800 41.63100
H  29.64200 64.51400 38.29500
H  31.14500 65.41100 38.22200
H  29.44900 65.66800 40.70100
H  28.79100 66.41700 39.25500
H  30.33400 66.98000 39.92300
H  24.70000 61.70900 39.17600
H  25.32000 62.38400 37.73500
H  25.83200 63.12700 39.36700
H  25.96800 57.13200 36.54500
H  25.98700 54.31700 39.80400
H  25.21100 53.29200 38.62800
H  24.22600 54.45400 39.48000

