158

Mg 1.68500 8.10300 27.91200
C  2.35500 10.57100 30.46400
C  1.58500 5.76700 30.27000
C  1.15900 5.99600 25.42200
C  2.21100 10.74400 25.60300
N  2.01500 8.17400 30.12600
C  2.04400 9.26800 30.94200
C  1.64600 8.87500 32.43100
C  1.83200 7.30300 32.31500
C  1.72900 7.03900 30.83200
C  3.07000 6.79200 32.90700
C  0.15400 9.28000 32.87600
C  -0.14500 9.50000 34.28000
H  0.97800 9.11100 35.29500
N  1.54500 6.15900 27.85400
C  1.60700 5.32100 28.92600
C  1.58100 3.96100 28.51700
C  1.29300 3.98500 27.09900
C  1.34400 5.40600 26.72800
C  1.84700 2.78100 29.38900
C  1.06100 2.83200 26.11800
O  1.10300 3.05300 24.92700
C  1.05800 1.41200 26.62200
N  1.57500 8.37800 25.85300
C  1.38300 7.32900 25.00800
C  1.22900 7.79100 23.55500
C  1.67800 9.35000 23.60200
C  1.87900 9.49300 25.13400
C  2.03100 7.00600 22.51700
C  0.73900 10.23600 22.80700
C  -0.77900 10.24800 23.36900
N  2.19600 10.29000 27.94500
C  2.38500 11.16400 26.98200
C  2.72200 12.49700 27.56800
C  2.64100 12.30800 28.93500
C  2.39000 10.94500 29.10800
C  2.87900 13.69400 26.83100
C  2.75800 12.96000 30.25600
O  3.08600 14.08800 30.57000
C  2.48100 11.79500 31.28900
C  3.39900 11.67400 32.39300
O  4.61200 11.38400 32.35100
O  2.64700 12.02900 33.50000
C  3.41800 12.11800 34.70900
H  1.50000 5.03000 31.07100
H  0.87900 5.33200 24.60100
H  2.48700 11.45600 24.82200
H  2.43200 9.31600 33.04300
H  0.96900 6.79100 32.74000
H  3.72600 7.55900 33.32000
H  3.64800 6.17600 32.21800
H  2.74800 6.08200 33.66900
H  -0.40300 8.42500 32.49500
H  -0.15400 10.17200 32.33100
H  -0.99800 8.86700 34.52400
H  -0.42200 10.54200 34.44200
H  2.56600 2.20700 28.80500
H  0.97400 2.13300 29.46300
H  2.32100 3.00700 30.34400
H  0.48600 0.85200 25.88200
H  0.45600 1.45500 27.52900
H  2.11700 1.20300 26.77900
H  0.18300 7.59300 23.32000
H  2.69800 9.50700 23.25300
H  2.43800 6.10100 22.96700
H  2.77300 7.61100 21.99500
H  1.39500 6.65400 21.70500
H  0.74000 9.88300 21.77600
H  1.06000 11.27500 22.73000
H  -1.45100 9.89200 22.58800
H  -0.99900 11.25600 23.72000
H  -0.86600 9.59100 24.23500
H  2.10700 13.70800 26.06200
H  3.90100 13.66800 26.45400
H  2.62700 14.58500 27.40700
H  1.47600 11.90100 31.69700
H  2.86000 12.38100 35.60800
H  4.20100 12.86300 34.56900
H  3.89300 11.14700 34.84900
Mg 9.22100 3.75900 28.00400
C  10.68000 2.21300 30.76100
C  7.25500 5.54700 29.98800
C  7.85000 5.02800 25.14900
C  11.08900 1.39500 25.93500
N  8.99100 3.73000 30.16600
C  9.78800 3.23900 31.11500
C  9.34600 3.72700 32.50000
C  8.04100 4.59200 32.20800
C  8.05800 4.65100 30.65500
C  6.67000 4.07000 32.74900
C  10.49600 4.37800 33.33400
C  10.19000 5.43400 34.39900
H  10.82600 5.23000 35.77800
N  7.98300 5.21200 27.64900
C  7.15600 5.88500 28.58000
C  6.30200 6.84700 27.96300
C  6.58200 6.79600 26.56300
C  7.53700 5.57900 26.39900
C  5.52900 7.87700 28.72800
C  6.10600 7.80400 25.52300
O  6.51700 7.71500 24.36400
C  5.15300 8.86200 25.94500
N  9.54200 3.25500 25.86500
C  8.81400 3.93300 24.92000
C  9.11100 3.42700 23.50000
C  9.96700 2.11600 23.84300
C  10.32800 2.34700 25.27400
C  7.95800 3.01000 22.51700
C  11.15000 1.98400 22.79200
C  12.40000 2.89900 22.98900
N  10.42000 2.01200 28.21400
C  11.16000 1.27800 27.34200
C  11.96300 0.31900 28.06400
C  11.85300 0.67700 29.44200
C  10.90900 1.68900 29.46400
C  12.79700 -0.83900 27.57600
C  12.27400 0.34600 30.77500
O  13.00500 -0.52400 31.15300
C  11.58100 1.38100 31.69700
C  10.77100 0.69400 32.61500
O  9.72400 0.12400 32.31700
O  11.34000 0.72300 33.87000
C  10.61300 -0.18400 34.87800
H  6.58600 6.19300 30.56000
H  7.30000 5.40100 24.28300
H  11.78300 0.85300 25.28900
H  9.10900 2.78500 32.99600
H  8.09800 5.61600 32.58000
H  6.36000 4.72600 33.56300
H  6.70200 3.09900 33.24300
H  5.95800 3.96100 31.93100
H  11.08700 4.92800 32.60200
H  11.06200 3.54200 33.74600
H  9.13200 5.64600 34.54900
H  10.54900 6.43700 34.16600
H  5.95900 8.87500 28.81100
H  5.47000 7.70800 29.80300
H  4.49800 7.91900 28.37800
H  4.30400 8.28400 26.31000
H  4.83900 9.40700 25.05400
H  5.54500 9.59400 26.65100
H  9.73500 4.16700 22.99700
H  9.40900 1.18000 23.87900
H  8.10800 2.00900 22.11300
H  7.78100 3.82500 21.81500
H  7.04200 3.00500 23.10800
H  10.71800 2.01000 21.79200
H  11.57200 0.98500 22.90600
H  13.03600 2.23500 23.57300
H  12.08000 3.79200 23.52600
H  12.68100 3.15300 21.96600
H  13.76900 -0.62200 27.13200
H  12.17300 -1.35100 26.84400
H  12.93600 -1.44300 28.47300
H  12.41900 1.94800 32.10300
H  9.86200 -0.83800 34.43500
H  10.23900 0.43100 35.69600
H  11.35200 -0.86100 35.30800

