158

Mg 2.20800 -1.00300 44.72800
C  5.64400 -0.20000 43.96800
C  1.36600 1.57600 42.76500
C  -0.80200 -2.33800 44.56100
C  3.56500 -4.07200 46.09900
N  3.43500 0.49500 43.47600
C  4.76700 0.69000 43.39700
C  5.12400 2.00800 42.76900
C  3.70300 2.70400 42.71900
C  2.76400 1.54200 43.04700
C  3.41900 3.85700 43.70300
C  5.79500 1.78700 41.35000
C  6.93900 2.68400 40.91800
H  6.79600 3.34600 39.51100
N  0.48200 -0.36800 43.97900
C  0.32500 0.69100 43.13500
C  -1.04500 0.85400 42.69500
C  -1.72500 -0.27800 43.17400
C  -0.66500 -1.04300 43.92000
C  -1.63300 1.96600 41.80400
C  -3.11500 -0.55000 43.05500
O  -3.87300 0.12300 42.40300
C  -3.80600 -1.57300 43.82800
N  1.53500 -3.01500 45.08100
C  0.16300 -3.16600 45.27500
C  -0.24800 -4.44800 45.98600
C  1.19600 -5.08300 46.16600
C  2.20700 -3.96400 45.86400
C  -1.12700 -4.27700 47.29900
C  1.59900 -6.27800 45.25900
C  1.81500 -7.61200 46.04800
N  4.20700 -1.92200 45.14400
C  4.56800 -3.06800 45.87400
C  5.98500 -3.14900 46.00200
C  6.42900 -1.99900 45.28000
C  5.31500 -1.34400 44.77000
C  6.75400 -4.27800 46.70200
C  7.61900 -1.34100 44.85900
O  8.81500 -1.68500 44.84800
C  7.18500 -0.01300 44.10200
C  7.47100 1.10100 45.04400
O  6.69200 1.61100 45.77800
O  8.76200 1.54700 44.93100
C  9.36400 2.79600 45.53700
H  1.13200 2.48100 42.20100
H  -1.73200 -2.90900 44.58400
H  3.81200 -5.00500 46.60800
H  5.78000 2.62300 43.38500
H  3.63700 3.03100 41.68200
H  3.23700 3.43700 44.69300
H  2.63700 4.52800 43.34800
H  4.22600 4.54200 43.96400
H  5.03900 1.84400 40.56800
H  6.27500 0.80900 41.33100
H  7.82100 2.06000 40.77400
H  7.12500 3.52800 41.58200
H  -2.07000 1.72000 40.83600
H  -0.86900 2.73700 41.70400
H  -2.42900 2.34300 42.44600
H  -4.88500 -1.42100 43.80800
H  -3.36400 -1.52800 44.82400
H  -3.64500 -2.56100 43.39500
H  -0.83200 -5.02400 45.26800
H  1.37700 -5.30300 47.21800
H  -2.00500 -3.63200 47.31500
H  -0.55000 -3.96700 48.17100
H  -1.66400 -5.21800 47.41500
H  2.58100 -6.16800 44.80000
H  0.96500 -6.40600 44.38200
H  2.79600 -8.02200 45.80600
H  0.91600 -8.18000 45.80700
H  1.80300 -7.51300 47.13300
H  6.11500 -5.13900 46.50800
H  6.92900 -4.15300 47.77000
H  7.73400 -4.46800 46.26300
H  7.62800 0.13200 43.11700
H  8.57100 3.49000 45.81500
H  10.21000 3.31500 45.08500
H  9.85500 2.51600 46.46900
Mg 25.93500 0.77300 29.03200
C  27.99200 0.43600 31.89700
C  23.29100 1.15900 31.10300
C  24.01200 0.94800 26.20400
C  28.62600 -0.23000 27.03800
N  25.69100 0.61700 31.24200
C  26.66200 0.60900 32.24600
C  26.08000 0.88100 33.61800
C  24.53500 0.88300 33.37100
C  24.46800 0.89300 31.82900
C  23.70600 -0.19400 34.21100
C  26.70100 2.17500 34.26900
C  26.16200 2.73200 35.65800
H  27.05700 2.74300 36.90300
N  23.91300 1.10200 28.70500
C  23.00600 1.30000 29.70800
C  21.70900 1.56000 29.06900
C  21.89000 1.44500 27.65800
C  23.32400 1.13500 27.43500
C  20.39900 1.73500 29.82500
C  20.87200 1.64400 26.51900
O  21.23400 1.52800 25.35000
C  19.43800 1.87800 26.84700
N  26.26700 0.37500 26.93200
C  25.35600 0.58300 25.98500
C  25.91200 0.39600 24.61100
C  27.41000 0.09900 24.85900
C  27.45200 0.00600 26.37400
C  25.22100 -0.66800 23.81200
C  28.29500 1.19400 24.24100
C  29.67300 0.73800 23.74900
N  27.90800 0.22200 29.35000
C  28.89600 -0.19100 28.49400
C  30.21300 -0.32500 29.16500
C  29.81800 -0.13000 30.51200
C  28.44200 0.20300 30.59600
C  31.51700 -0.69300 28.49700
C  30.32900 -0.24600 31.85900
O  31.48400 -0.41900 32.27300
C  29.20100 0.20600 32.79900
C  28.98300 -0.86100 33.85300
O  28.35900 -1.89300 33.62500
O  29.57200 -0.60700 35.04700
C  29.29700 -1.61200 36.17400
H  22.46700 1.35500 31.79100
H  23.61000 1.18900 25.21800
H  29.47500 -0.56900 26.44000
H  26.31700 0.06300 34.29800
H  24.24600 1.91100 33.58900
H  22.85400 -0.51900 33.61300
H  23.32500 0.08600 35.19400
H  24.23900 -1.10500 34.48400
H  26.73400 2.94600 33.50000
H  27.75200 1.96100 34.46000
H  25.18700 2.29000 35.86200
H  25.81900 3.75900 35.53500
H  20.09000 2.76100 29.62600
H  20.47600 1.74900 30.91300
H  19.72600 0.89200 29.67300
H  19.50900 2.62900 27.63300
H  18.96800 1.09000 27.43700
H  18.89100 2.20700 25.96400
H  25.74200 1.32600 24.06900
H  27.72500 -0.87500 24.48400
H  24.65500 -0.22800 22.99200
H  24.57500 -1.11700 24.56700
H  25.92600 -1.46800 23.58700
H  28.33100 2.04700 24.91800
H  27.82300 1.47200 23.29900
H  30.36300 1.35000 24.33000
H  29.76800 0.94900 22.68300
H  29.93600 -0.30500 23.92500
H  31.61600 -0.19500 27.53300
H  31.63700 -1.77200 28.39100
H  32.33400 -0.33200 29.12300
H  29.63000 1.06700 33.31200
H  29.93100 -1.56900 37.05900
H  29.34500 -2.67800 35.95100
H  28.30800 -1.45800 36.60700

