158

Mg 28.16600 56.05300 40.60500
C  25.77900 53.60400 39.83700
C  30.69300 54.04900 39.38400
C  30.19300 58.78200 40.30000
C  25.41800 58.28900 41.18600
N  28.20000 54.14200 39.53500
C  27.12800 53.29000 39.50700
C  27.55100 51.91900 38.97800
C  29.10100 51.93300 39.15700
C  29.38400 53.42200 39.37200
C  29.62600 51.05700 40.27700
C  26.99200 51.59600 37.57500
C  26.66300 52.76300 36.67000
H  27.37000 52.85400 35.28000
N  30.20000 56.30000 40.06500
C  31.06400 55.36400 39.65900
C  32.44300 56.00700 39.59500
C  32.26300 57.31800 39.97300
C  30.82400 57.50400 40.16300
C  33.69600 55.29600 39.08300
C  33.42100 58.34400 40.10100
O  34.56000 57.93500 39.89000
C  33.27100 59.82600 40.42500
N  27.79100 58.17600 40.62800
C  28.83700 59.06300 40.48200
C  28.30100 60.49600 40.43400
C  26.80500 60.35100 40.72200
C  26.65500 58.83500 40.87000
C  29.07300 61.43000 41.40800
C  25.85300 61.06700 39.75300
C  24.61100 61.82100 40.33600
N  26.02200 55.94200 40.72600
C  25.00500 56.93300 40.98500
C  23.67700 56.32100 41.06700
C  23.95200 54.99800 40.61300
C  25.35800 54.79800 40.40500
C  22.34400 56.97100 41.33200
C  23.38700 53.63300 40.28500
O  22.28000 53.16600 40.37800
C  24.52800 52.69200 39.78400
C  24.49500 51.41200 40.49500
O  24.28600 50.27100 40.02600
O  25.02500 51.60000 41.75100
C  25.19000 50.38100 42.50800
H  31.55500 53.47700 39.03500
H  30.86200 59.64600 40.30500
H  24.60200 58.98900 41.37600
H  27.21100 51.21600 39.73900
H  29.61300 51.57700 38.26200
H  28.92600 51.05000 41.11200
H  30.57500 51.49500 40.58400
H  29.84500 50.02200 40.01500
H  26.13100 50.93300 37.65800
H  27.84300 50.99500 37.25500
H  27.00700 53.74400 36.99800
H  25.63200 52.85400 36.32900
H  33.89500 55.59400 38.05300
H  33.43500 54.24200 39.17000
H  34.61600 55.44800 39.64900
H  32.74500 60.00200 41.36300
H  32.82700 60.32000 39.56100
H  34.29200 60.17600 40.57300
H  28.41900 60.75400 39.38100
H  26.52900 60.71500 41.71100
H  29.74300 62.04300 40.80600
H  29.65900 60.87100 42.13800
H  28.36700 62.09300 41.90900
H  25.41400 60.37700 39.03200
H  26.47600 61.77900 39.21200
H  24.82400 62.89000 40.36100
H  24.48900 61.35500 41.31400
H  23.66100 61.61900 39.84100
H  21.89900 57.05700 40.34000
H  22.33100 57.91800 41.87100
H  21.79900 56.27100 41.96600
H  24.28500 52.49900 38.73900
H  25.77200 50.66700 43.38400
H  25.78400 49.63100 41.98400
H  24.27900 49.98400 42.95500
Mg -12.14700 16.38500 42.80800
C  -9.03800 14.83300 42.03300
C  -10.96900 19.18900 41.16000
C  -15.28400 17.52400 42.56100
C  -13.37800 13.13900 43.68200
N  -10.24100 16.86100 41.63900
C  -9.12300 16.15700 41.54800
C  -8.00600 16.97200 40.88800
C  -8.67400 18.36900 40.73800
C  -10.06600 18.10900 41.24700
C  -7.90900 19.47100 41.32300
C  -7.54200 16.24400 39.54600
C  -6.00300 16.12800 39.32700
H  -5.42600 16.62800 37.98500
N  -12.96400 18.15300 42.12100
C  -12.30300 19.19100 41.57900
C  -13.23900 20.31300 41.45200
C  -14.49200 19.88200 41.98000
C  -14.30400 18.46400 42.22400
C  -12.83600 21.64400 40.85400
C  -15.70900 20.73500 42.29200
O  -15.74500 21.90600 42.03200
C  -17.00100 20.26500 42.88800
N  -14.10000 15.42800 43.09300
C  -15.25000 16.16800 42.96100
C  -16.50300 15.30700 43.32400
C  -15.79300 13.90600 43.71500
C  -14.26300 14.17400 43.48200
C  -17.69500 15.80900 44.17800
C  -16.29700 12.71300 42.84000
C  -16.35600 11.32200 43.52300
N  -11.38400 14.38700 42.96200
C  -11.94200 13.25300 43.50800
C  -10.97000 12.15900 43.52100
C  -9.81700 12.83000 42.99800
C  -10.12500 14.14900 42.62000
C  -11.16000 10.79900 44.04400
C  -8.36600 12.63200 42.78200
O  -7.65500 11.67600 43.02900
C  -7.81900 13.90300 42.09800
C  -6.65900 14.49600 42.85500
O  -6.77700 15.19200 43.88000
O  -5.52000 14.20400 42.20700
C  -4.20500 14.42000 42.84100
H  -10.72900 20.11600 40.63700
H  -16.32100 17.85700 42.48100
H  -13.71700 12.20000 44.12500
H  -7.17400 16.99300 41.59200
H  -8.72200 18.68400 39.69500
H  -8.00100 20.48300 40.92900
H  -6.87700 19.14300 41.20200
H  -8.16600 19.52900 42.38100
H  -7.84000 16.76800 38.63700
H  -7.99700 15.25500 39.61300
H  -5.86300 15.05800 39.47900
H  -5.36300 16.54300 40.10600
H  -13.32500 21.81600 39.89500
H  -11.77100 21.73100 40.64000
H  -13.03200 22.46100 41.54800
H  -17.53100 19.87800 42.01700
H  -17.53200 21.14800 43.24300
H  -16.85500 19.63200 43.76300
H  -17.00400 15.00800 42.40300
H  -15.83000 13.66100 44.77600
H  -18.67500 15.76700 43.70200
H  -17.45800 16.86000 44.33800
H  -17.79900 15.29800 45.13500
H  -15.70300 12.54600 41.94100
H  -17.22600 12.80400 42.27700
H  -15.88500 10.61400 42.84200
H  -17.33500 10.95600 43.83200
H  -15.80300 11.28900 44.46200
H  -10.88000 10.75200 45.09700
H  -10.52600 10.08000 43.52400
H  -12.19400 10.49400 43.88500
H  -7.44900 13.49200 41.15900
H  -4.00200 14.03900 43.84200
H  -3.99200 15.48500 42.93000
H  -3.53000 13.97300 42.11100

