158

Mg 26.20600 -0.60900 29.57000
C  28.16000 -0.52600 32.53700
C  23.49700 -0.08400 31.49000
C  24.43300 -0.99200 26.79200
C  29.19200 -1.14900 27.84200
N  25.93300 -0.42700 31.82700
C  26.87800 -0.27900 32.79600
C  26.14400 0.02400 34.18700
C  24.60300 -0.00200 33.82800
C  24.61900 -0.15900 32.28800
C  23.70900 -0.94100 34.72800
C  26.65600 1.34400 34.89000
C  27.03000 1.10300 36.37100
H  26.53200 2.13000 37.33300
N  24.21400 -0.56600 29.15800
C  23.23600 -0.27900 30.10900
C  21.93800 -0.40800 29.45500
C  22.23700 -0.47800 28.03900
C  23.66800 -0.74600 27.99300
C  20.71900 -0.32100 30.22800
C  21.27600 -0.54700 26.94500
O  21.68700 -0.60100 25.79100
C  19.87700 -0.37700 27.15700
N  26.69200 -1.16400 27.59300
C  25.80200 -1.20400 26.63700
C  26.40500 -1.25800 25.17300
C  27.92900 -1.17700 25.53100
C  27.99500 -1.11100 27.05700
C  25.90700 -2.43100 24.26100
C  28.67200 0.08400 24.87400
C  28.65400 1.44700 25.60400
N  28.22000 -0.86900 30.03300
C  29.29800 -1.18700 29.24100
C  30.55700 -1.20100 30.01700
C  30.10900 -1.03600 31.31700
C  28.68000 -0.81500 31.28000
C  31.98700 -1.33700 29.49600
C  30.59600 -0.85800 32.70300
O  31.71800 -0.91500 33.13100
C  29.29600 -0.41100 33.51800
C  29.28100 -1.46700 34.66000
O  29.08300 -2.64600 34.52500
O  29.57900 -0.82200 35.82600
C  29.52200 -1.64000 37.07700
H  22.59500 0.11100 32.07500
H  23.97400 -1.17900 25.81900
H  30.10400 -1.22600 27.24700
H  26.45700 -0.81900 34.80200
H  24.14700 0.94700 34.10900
H  23.13700 -1.68000 34.16700
H  22.91600 -0.45700 35.29700
H  24.28100 -1.35600 35.55800
H  25.86700 2.08900 34.78900
H  27.60300 1.69900 34.48300
H  28.05900 1.23300 36.70800
H  26.73100 0.10700 36.69900
H  20.17100 0.57200 29.92800
H  20.89500 -0.19100 31.29600
H  20.10600 -1.21400 30.10500
H  19.36200 -0.24600 26.20500
H  19.61100 0.48000 27.77600
H  19.49100 -1.34000 27.49000
H  26.06100 -0.36400 24.65100
H  28.52600 -2.05200 25.27300
H  25.17100 -3.02300 24.80500
H  26.67700 -3.14300 23.96300
H  25.49300 -2.02600 23.33800
H  28.29500 0.17400 23.85500
H  29.67800 -0.21000 24.57400
H  29.55900 2.04300 25.48800
H  28.52200 1.45000 26.68600
H  27.89900 2.09700 25.16200
H  32.13300 -2.40500 29.66000
H  32.63600 -0.62500 30.00500
H  31.96600 -1.09100 28.43400
H  29.54600 0.60700 33.81500
H  30.40800 -1.34000 37.63700
H  29.46000 -2.72000 36.94000
H  28.61500 -1.31100 37.58300
Mg 47.65600 15.14100 28.33400
C  45.34000 15.14700 31.07000
C  49.67400 17.02200 30.33600
C  49.47200 15.34900 25.77000
C  45.07300 13.58700 26.36300
N  47.46100 15.96100 30.51200
C  46.53000 15.77200 31.42100
C  46.84400 16.45200 32.78500
C  48.12700 17.20300 32.36200
C  48.44300 16.70800 30.99800
C  48.13400 18.74400 32.53200
C  47.05900 15.40200 34.01100
C  46.31500 15.59200 35.27100
H  46.24200 17.08200 35.68000
N  49.31800 16.11500 28.13300
C  50.07700 16.72000 29.02000
C  51.40000 16.97500 28.44400
C  51.32400 16.50000 27.08300
C  49.97900 15.93900 26.94700
C  52.54600 17.69800 29.15000
C  52.40800 16.54900 25.99800
O  52.24900 16.18700 24.86600
C  53.87500 17.10600 26.33400
N  47.21600 14.71000 26.29400
C  48.29200 14.77600 25.44900
C  47.97100 14.20400 24.05300
C  46.66300 13.46700 24.35500
C  46.20900 13.99500 25.67500
C  47.89600 15.45600 23.02300
C  46.76500 11.90600 24.42600
C  47.73500 11.20600 25.41700
N  45.64300 14.54300 28.62900
C  44.76400 13.86600 27.76000
C  43.59600 13.45300 28.47600
C  43.73100 14.03800 29.74500
C  45.00900 14.65300 29.82600
C  42.44400 12.63800 27.94400
C  43.13800 14.02500 31.06600
O  42.09000 13.59500 31.58600
C  44.14600 14.84300 31.95200
C  43.55800 16.00500 32.53700
O  43.76800 17.18200 32.24800
O  42.85000 15.69300 33.67900
C  42.23200 16.70200 34.53300
H  50.49200 17.44200 30.92500
H  50.12200 15.20500 24.90400
H  44.40100 12.99800 25.73500
H  46.08200 17.18900 33.03900
H  49.02700 16.85700 32.87000
H  47.12000 19.09100 32.73100
H  48.40900 19.26500 31.61400
H  48.79500 18.94500 33.37500
H  48.12800 15.32900 34.21300
H  46.58100 14.50100 33.62700
H  46.83100 14.98600 36.01600
H  45.26500 15.30300 35.32400
H  52.34500 18.07100 30.15400
H  52.84300 18.55500 28.54500
H  53.44600 17.08800 29.22500
H  53.77200 18.19100 26.35100
H  54.37000 16.81900 25.40600
H  54.28500 16.62600 27.22200
H  48.77300 13.51600 23.78500
H  45.95700 13.64200 23.54200
H  48.36700 15.23900 22.06500
H  48.27100 16.41200 23.38900
H  46.82400 15.48500 22.82800
H  47.14800 11.74000 23.41900
H  45.79900 11.40100 24.43000
H  47.02600 10.85700 26.16800
H  48.47000 11.92800 25.77400
H  48.25300 10.39500 24.90500
H  41.87200 12.28700 28.80300
H  42.80900 11.75100 27.42400
H  41.84600 13.23500 27.25600
H  44.47700 14.11500 32.69200
H  41.35600 17.08600 34.01000
H  42.96600 17.38900 34.95700
H  41.86900 16.22900 35.44500

