158

Mg 8.67500 3.46400 27.79800
C  9.86000 1.85100 30.71700
C  6.74700 5.49200 29.89600
C  7.33300 4.88900 25.09000
C  10.02500 0.90700 25.86300
N  8.14800 3.46000 30.08400
C  8.99900 2.92400 31.00300
C  8.59700 3.41900 32.43700
C  7.34800 4.31800 32.14600
C  7.46800 4.47000 30.63800
C  5.91500 3.73700 32.51200
C  9.83200 4.00500 33.16700
C  10.15300 3.46700 34.53700
H  10.71400 4.23700 35.64500
N  7.31700 5.07500 27.53500
C  6.70000 5.81500 28.52800
C  5.89400 6.86300 27.90900
C  6.11100 6.65500 26.49300
C  6.98000 5.54300 26.32600
C  4.97500 7.94300 28.62600
C  5.30000 7.24100 25.32300
O  5.37000 6.82100 24.18800
C  4.29100 8.39300 25.56100
N  8.52800 2.90800 25.80700
C  7.95600 3.70800 24.82400
C  8.30400 3.27800 23.41300
C  9.32800 2.12700 23.67200
C  9.30400 1.97300 25.22800
C  7.07600 2.81800 22.65300
C  10.72500 2.31000 23.12000
C  11.85100 2.85200 24.10800
N  9.71100 1.62500 28.14200
C  10.24000 0.69000 27.26900
C  11.13500 -0.18000 28.04400
C  11.06600 0.27700 29.35800
C  10.12600 1.29200 29.37000
C  11.83500 -1.32100 27.36900
C  11.56700 0.07200 30.70100
O  12.41000 -0.72100 31.13700
C  10.76700 1.05300 31.65300
C  10.02500 0.22500 32.66500
O  8.91500 -0.23100 32.49100
O  10.70700 0.11200 33.80200
C  9.98300 -0.42300 34.97600
H  6.21900 6.14000 30.59900
H  7.12200 5.39000 24.14300
H  10.62900 0.32000 25.16800
H  8.20700 2.62000 33.06700
H  7.34600 5.20900 32.77400
H  5.92200 2.66900 32.73100
H  5.13200 3.83800 31.76100
H  5.59500 4.28600 33.39800
H  9.70400 5.08300 33.25900
H  10.73100 4.09800 32.55600
H  10.92100 2.72600 34.31500
H  9.27100 3.00400 34.98100
H  5.08600 8.89000 28.09700
H  5.28000 8.00400 29.67100
H  3.95200 7.61800 28.43900
H  3.51200 8.07600 26.25400
H  3.77400 8.52400 24.61000
H  4.82700 9.30900 25.81100
H  8.88900 4.00800 22.85300
H  9.02700 1.18500 23.21300
H  6.25700 2.65000 23.35200
H  7.17100 1.87800 22.11000
H  6.88100 3.56700 21.88500
H  10.79600 3.03700 22.31100
H  11.11900 1.40500 22.65600
H  11.68300 2.75000 25.18000
H  11.89600 3.91100 23.85300
H  12.79300 2.38300 23.82400
H  11.32300 -1.53400 26.43100
H  11.76500 -2.21200 27.99400
H  12.87300 -1.04800 27.18200
H  11.44000 1.75900 32.13900
H  10.73600 -0.86400 35.62900
H  9.25300 -1.21000 34.78100
H  9.46400 0.37700 35.50500
Mg 42.35700 41.20000 25.73500
C  41.70700 43.62600 28.08600
C  43.21400 39.09000 28.27900
C  43.10800 38.95800 23.33100
C  41.37500 43.48300 23.18400
N  42.59400 41.43000 27.93000
C  42.07600 42.42300 28.66400
C  42.11900 42.01900 30.17300
C  42.80700 40.68800 30.18400
C  42.88700 40.39700 28.73500
C  44.11900 40.67300 31.00900
C  40.73500 42.06300 31.00600
C  40.61800 41.37200 32.37100
H  41.10700 42.30900 33.50300
N  43.15600 39.31400 25.81100
C  43.42400 38.58800 26.94900
C  43.78900 37.28900 26.58000
C  43.79000 37.23300 25.14200
C  43.39800 38.54300 24.65700
C  43.98100 36.20400 27.65200
C  44.12900 36.07800 24.23900
O  44.07300 36.19700 22.97100
C  44.49400 34.75900 24.87100
N  42.25300 41.23600 23.56400
C  42.50400 40.14400 22.81900
C  42.30900 40.41000 21.31300
C  41.55500 41.77800 21.35100
C  41.66900 42.19200 22.78100
C  43.69300 40.48400 20.55100
C  40.13300 41.69200 20.74200
C  39.20200 40.81900 21.68900
N  41.92300 43.18600 25.63900
C  41.51300 43.99300 24.49600
C  41.11300 45.27900 24.96100
C  41.17900 45.25500 26.35600
C  41.64800 43.91600 26.72600
C  40.55200 46.27100 24.08100
C  40.91500 45.93400 27.62500
O  40.55800 47.10600 27.89900
C  41.18400 44.85500 28.83500
C  42.17400 45.51600 29.66000
O  43.36900 45.40700 29.53400
O  41.56700 46.08600 30.76400
C  42.48300 46.21600 31.94900
H  43.34700 38.34200 29.06300
H  43.39700 38.20700 22.59300
H  40.98300 44.09700 22.37100
H  42.86900 42.70400 30.57000
H  42.12200 39.97800 30.64600
H  44.81600 41.38600 30.56800
H  44.48800 39.65000 30.93200
H  43.95400 40.95200 32.04900
H  40.04100 41.54700 30.34200
H  40.41300 43.09800 31.11800
H  41.19600 40.45100 32.44800
H  39.61300 41.04700 32.63700
H  43.44000 35.33200 27.28500
H  43.54700 36.32600 28.64500
H  45.03900 35.97900 27.78600
H  44.83700 34.14200 24.04000
H  43.57700 34.39300 25.33200
H  45.35500 34.81100 25.53800
H  41.67000 39.66600 20.83800
H  42.10500 42.46400 20.70600
H  44.44300 40.64800 21.32400
H  43.82900 41.39400 19.96700
H  43.87800 39.64300 19.88200
H  40.08700 41.28000 19.73400
H  39.76100 42.71500 20.68300
H  38.51100 40.23300 21.08300
H  38.58500 41.46500 22.31500
H  39.71700 40.08800 22.31200
H  41.36800 46.77600 23.56600
H  39.97500 47.04200 24.59100
H  39.98400 45.69900 23.34700
H  40.23800 44.84000 29.37600
H  43.07000 45.30000 32.02200
H  41.87000 46.20000 32.85000
H  43.12100 47.08900 31.81100

