158

Mg 45.06700 5.35500 48.19900
C  43.06000 8.39000 47.32400
C  42.42100 3.63900 47.58600
C  47.25500 2.85400 47.90700
C  47.81200 7.58400 48.35500
N  43.03200 5.98800 47.22300
C  42.37900 7.21500 47.12100
C  40.96300 7.07100 46.60500
C  40.73000 5.53000 46.95900
C  42.09000 5.04700 47.32900
C  39.61300 5.28000 48.04500
C  40.89200 7.36000 45.06400
C  39.64400 8.18600 44.59100
H  38.97600 7.62000 43.34300
N  44.86100 3.52800 47.87100
C  43.62600 2.99800 47.73000
C  43.81100 1.59700 47.60100
C  45.18900 1.30400 47.63000
C  45.87400 2.59100 47.83800
C  42.67300 0.58600 47.18500
C  45.82100 -0.06600 47.52400
O  45.08200 -1.00600 47.16500
C  47.26000 -0.48100 47.79100
N  47.20600 5.23900 48.29200
C  47.86300 4.08500 48.11300
C  49.34100 4.27800 48.11100
C  49.52700 5.74800 48.17800
C  48.08800 6.23900 48.24500
C  50.14100 3.39900 49.17100
C  50.30400 6.44400 46.93400
C  51.76100 6.13000 46.73900
N  45.37700 7.56200 48.00600
C  46.59200 8.27600 48.18000
C  46.34900 9.69000 48.01200
C  44.97900 9.75100 47.76900
C  44.42700 8.46500 47.71700
C  47.39400 10.75400 48.20800
C  43.83900 10.69600 47.60000
O  43.85200 11.94200 47.58300
C  42.56500 9.81400 47.29800
C  41.54100 10.08000 48.33900
O  41.30900 9.39800 49.31700
O  40.83100 11.17400 47.95200
C  39.71900 11.65800 48.79800
H  41.49600 3.06100 47.55000
H  47.92100 2.00500 47.73900
H  48.72400 8.14700 48.56500
H  40.26100 7.71500 47.13300
H  40.40000 5.04600 46.04000
H  39.06700 6.16500 48.37100
H  40.10100 4.91700 48.95000
H  38.85200 4.54500 47.78600
H  40.98600 6.36900 44.62000
H  41.82300 7.83800 44.75900
H  39.97200 9.19400 44.33800
H  38.85900 8.28500 45.34200
H  42.88800 0.12800 46.21900
H  41.63600 0.91900 47.13300
H  42.63800 -0.20400 47.93500
H  47.23400 -1.54400 48.02900
H  47.75800 0.11000 48.56000
H  47.80700 -0.37700 46.85400
H  49.77800 3.89600 47.18800
H  50.03300 6.10600 49.07500
H  49.52900 2.60600 49.60000
H  50.69400 3.93100 49.94500
H  50.80800 2.83200 48.52300
H  50.21300 7.52600 47.03300
H  49.78900 6.14100 46.02300
H  51.71200 5.50500 45.84700
H  52.13200 5.52000 47.56300
H  52.36600 7.03600 46.73700
H  46.81900 11.67900 48.25300
H  48.10800 10.87700 47.39400
H  47.95700 10.56500 49.12100
H  42.11900 9.94600 46.31200
H  39.61100 11.08800 49.72000
H  38.83700 11.63100 48.15700
H  39.90100 12.68600 49.11300
Mg 9.48500 47.59800 26.40100
C  7.70400 47.74100 29.37400
C  12.19600 48.79300 27.91000
C  11.17600 47.86300 23.35800
C  6.45500 47.12300 24.66200
N  9.81800 48.37100 28.40900
C  9.03700 48.14900 29.51200
C  9.90800 48.33100 30.76900
C  11.17800 49.14500 30.21200
C  11.08300 48.79100 28.70400
C  11.33300 50.64400 30.58400
C  10.35100 46.98300 31.41500
C  10.99500 47.11000 32.86400
H  10.29900 46.36300 34.01100
N  11.51200 48.05100 25.76300
C  12.45400 48.48400 26.57900
C  13.69100 48.63500 25.82400
C  13.41400 48.29100 24.49500
C  11.97200 47.99300 24.52100
C  15.03100 48.92600 26.50500
C  14.36500 48.29400 23.24200
O  13.97700 48.11500 22.04800
C  15.78400 48.31800 23.46800
N  8.87400 47.66500 24.37100
C  9.74800 47.65600 23.35100
C  9.04000 47.30900 22.01400
C  7.63100 46.91600 22.34800
C  7.66200 47.25800 23.90800
C  9.04700 48.60600 21.14500
C  7.38800 45.38100 22.09200
C  7.88800 44.34900 23.12700
N  7.45600 47.41900 26.89200
C  6.37200 47.17900 26.08700
C  5.17800 47.18800 26.86700
C  5.61200 47.35400 28.19200
C  7.01700 47.49100 28.16100
C  3.75400 47.04400 26.41000
C  5.22100 47.49100 29.58200
O  4.13800 47.56400 30.21900
C  6.58900 47.60200 30.35800
C  6.63400 46.43600 31.21400
O  7.02600 45.31800 30.98700
O  6.13200 46.79000 32.45100
C  6.17600 45.75300 33.47100
H  13.03700 49.21800 28.46300
H  11.60700 47.70100 22.36800
H  5.56400 46.61400 24.28900
H  9.47600 48.93500 31.56700
H  12.06500 48.65200 30.60900
H  12.19200 50.77500 31.24100
H  10.41000 50.92000 31.09500
H  11.39100 51.16000 29.62600
H  11.05200 46.41200 30.80600
H  9.44400 46.38200 31.49100
H  11.09600 48.17200 33.09000
H  12.01800 46.73500 32.89900
H  15.39100 49.95000 26.40300
H  15.82900 48.34800 26.03900
H  14.92700 48.71300 27.56900
H  16.27300 48.14100 22.51000
H  15.94400 47.35100 23.94400
H  16.09700 49.19100 24.04100
H  9.56900 46.54100 21.44900
H  6.90800 47.51100 21.78900
H  9.42400 49.41600 21.77000
H  8.10600 48.84500 20.64800
H  9.67600 48.52700 20.25800
H  7.81900 45.06900 21.14000
H  6.30300 45.36200 21.98900
H  8.48800 44.71700 23.96000
H  8.39900 43.60900 22.51200
H  7.04800 43.79600 23.54700
H  3.16500 47.01900 27.32700
H  3.72400 46.14300 25.79700
H  3.45300 47.91000 25.82100
H  6.49600 48.56000 30.87000
H  5.51500 45.93000 34.32000
H  7.22000 45.65700 33.77100
H  5.87600 44.75600 33.14900

