158

Mg -1.82200 16.92200 25.85600
C  -2.31600 14.59600 28.54700
C  -2.43600 19.41100 28.19300
C  -1.57400 19.02100 23.40300
C  -1.67200 14.09700 23.72800
N  -2.54400 17.01000 28.10100
C  -2.41100 15.95800 28.94500
C  -2.55800 16.40700 30.43300
C  -2.69000 17.98500 30.20500
C  -2.64900 18.14200 28.76300
C  -3.87900 18.66000 30.89300
C  -1.56200 16.06600 31.51700
C  -1.34300 16.91000 32.77700
H  -1.89800 16.36100 34.15900
N  -1.94300 18.95300 25.83100
C  -2.18000 19.81400 26.88700
C  -2.00000 21.14200 26.39000
C  -1.71000 21.01800 24.99300
C  -1.62300 19.59900 24.68600
C  -2.19800 22.39500 27.23600
C  -1.55700 22.16900 23.98100
O  -1.35400 21.90400 22.83600
C  -1.60200 23.57200 24.35300
N  -1.74000 16.59700 23.87800
C  -1.55500 17.68100 23.00500
C  -1.51200 17.23900 21.59000
C  -1.14300 15.73200 21.78800
C  -1.58900 15.42900 23.20700
C  -2.81900 17.63700 20.82400
C  0.30800 15.26300 21.41700
C  1.50200 15.43800 22.49000
N  -2.13800 14.79200 26.00700
C  -1.94900 13.77100 25.09600
C  -2.10300 12.49500 25.69000
C  -2.27900 12.76500 27.09400
C  -2.27200 14.17700 27.16100
C  -2.11900 11.16400 25.06700
C  -2.30900 12.13900 28.35000
O  -2.30200 10.97200 28.72100
C  -2.37700 13.29900 29.36500
C  -1.20300 13.09600 30.26400
O  -0.05900 13.52200 30.04500
O  -1.68800 12.46300 31.43400
C  -0.79800 12.31800 32.50600
H  -2.58000 20.21600 28.91600
H  -1.47200 19.73800 22.58600
H  -1.60500 13.30500 22.97800
H  -3.54600 16.04500 30.71900
H  -1.77800 18.49100 30.52200
H  -4.50100 19.13900 30.13800
H  -3.61200 19.43400 31.61300
H  -4.53300 17.90800 31.33400
H  -0.61000 15.89100 31.01500
H  -1.88200 15.13100 31.97800
H  -1.89500 17.83000 32.58500
H  -0.28500 17.12200 32.93300
H  -2.50600 22.38200 28.28100
H  -2.91200 23.07000 26.76100
H  -1.21400 22.85600 27.15200
H  -2.60100 23.82200 24.71000
H  -1.34000 24.18300 23.49000
H  -0.80100 23.65900 25.08700
H  -0.66400 17.75800 21.14500
H  -1.79000 15.14200 21.13800
H  -3.43000 16.74300 20.69500
H  -2.72700 17.97400 19.79100
H  -3.41900 18.32300 21.42300
H  0.66400 15.65700 20.46500
H  0.11700 14.20900 21.21900
H  2.33700 15.96300 22.02500
H  1.84400 14.46500 22.84300
H  1.20000 16.03100 23.35300
H  -2.80200 10.57400 25.67800
H  -1.11300 10.74400 25.06900
H  -2.54200 11.31200 24.07400
H  -3.32100 13.26500 29.90900
H  0.01500 13.03300 32.63300
H  -0.25000 11.37600 32.53800
H  -1.45300 12.37700 33.37500
Mg 47.42100 24.16100 28.31400
C  48.20100 26.34700 30.83600
C  46.50400 21.72700 30.65300
C  46.99600 22.11100 25.74300
C  48.66300 26.52900 25.94500
N  47.53300 23.95900 30.45400
C  47.63000 25.12400 31.25800
C  47.37200 24.70800 32.71700
C  47.20200 23.19200 32.74400
C  47.04900 22.89700 31.23100
C  48.41300 22.34000 33.23600
C  46.27500 25.59200 33.52200
C  46.78100 26.47700 34.64300
H  45.71900 26.96800 35.64900
N  46.82400 22.23100 28.14900
C  46.47000 21.36000 29.23200
C  45.99700 20.06700 28.66200
C  46.12700 20.14500 27.27000
C  46.67500 21.52800 26.99300
C  45.54300 18.92200 29.55600
C  45.88200 18.99000 26.26000
O  46.07400 19.12000 25.00500
C  45.55800 17.60600 26.76200
N  47.77500 24.30400 26.17400
C  47.45300 23.31900 25.32400
C  47.54000 23.64100 23.80400
C  47.95700 25.12400 23.91900
C  48.10300 25.34500 25.44400
C  48.65100 22.82300 23.03400
C  47.07000 26.14500 23.09200
C  45.77000 26.64900 23.72100
N  48.31500 26.06000 28.35600
C  48.72000 26.88800 27.35100
C  49.17200 28.12700 27.93600
C  49.02500 27.99200 29.29200
C  48.37100 26.72400 29.51700
C  49.86700 29.34900 27.26400
C  49.21800 28.71700 30.60400
O  49.66400 29.80000 30.99500
C  48.77400 27.59400 31.57700
C  50.01900 27.26500 32.31900
O  50.89100 26.52400 31.94700
O  49.96900 27.70000 33.61500
C  51.08800 27.31000 34.51800
H  46.20000 20.99900 31.40700
H  46.76500 21.47400 24.88700
H  49.17500 27.17000 25.22300
H  48.31200 24.91900 33.22800
H  46.40100 22.88700 33.41700
H  48.70300 21.54300 32.55100
H  48.17600 21.91800 34.21200
H  49.30300 22.96800 33.19900
H  45.44600 25.04800 33.97700
H  45.83300 26.27100 32.79300
H  47.10500 27.40700 34.17600
H  47.65900 26.06700 35.14400
H  45.28700 19.17200 30.58500
H  46.22900 18.07500 29.54900
H  44.59400 18.60900 29.11900
H  45.81900 16.85200 26.02000
H  44.52500 17.49300 27.09300
H  46.22100 17.38500 27.59800
H  46.71500 23.51300 23.10300
H  48.97600 25.19100 23.53700
H  49.45200 22.61300 23.74200
H  49.04000 23.38200 22.18300
H  48.15800 21.90800 22.70400
H  46.91100 25.70800 22.10600
H  47.69500 27.01600 22.89700
H  45.49800 26.14000 24.64600
H  44.91400 26.71700 23.05000
H  46.00700 27.67300 24.00800
H  50.95000 29.26700 27.35300
H  49.54500 30.19600 27.86900
H  49.61700 29.46600 26.20900
H  47.96200 27.85700 32.25500
H  52.05100 27.69100 34.17900
H  51.15000 26.22800 34.40700
H  51.02000 27.58600 35.57000

