158

Mg 35.97700 49.01200 25.67100
C  36.16000 47.06000 28.66800
C  34.77600 51.67800 27.53500
C  35.05700 50.49600 22.84800
C  36.67800 46.10600 23.89900
N  35.36700 49.26300 27.85000
C  35.70900 48.43000 28.91500
C  35.37100 49.14600 30.20400
C  34.79500 50.50700 29.79500
C  35.03500 50.49500 28.28600
C  33.24800 50.66200 30.07000
C  36.57200 49.31700 31.12800
C  36.38500 48.69800 32.55700
H  36.36100 49.71600 33.66900
N  35.19800 50.83900 25.26200
C  34.85500 51.85500 26.14700
C  34.34400 53.03700 25.38100
C  34.53200 52.71800 23.99500
C  34.91500 51.29300 24.02300
C  33.78800 54.31700 26.01400
C  34.35700 53.59900 22.71600
O  34.63300 53.27000 21.54100
C  33.77300 54.90300 22.87800
N  35.98300 48.44100 23.60500
C  35.47600 49.15700 22.60500
C  35.64900 48.54400 21.27600
C  36.48100 47.25800 21.63200
C  36.40200 47.19700 23.09600
C  34.34000 48.23800 20.54300
C  37.91600 47.14100 21.12700
C  38.26000 45.96600 20.24900
N  36.30800 46.99300 26.12900
C  36.62900 45.94100 25.31200
C  36.91500 44.78000 26.11400
C  36.66800 45.12800 27.44400
C  36.30400 46.53800 27.39700
C  37.34300 43.48100 25.65200
C  36.63100 44.65300 28.81200
O  36.78900 43.51600 29.27600
C  36.37900 46.00400 29.72600
C  35.17700 45.81800 30.71300
O  33.94300 45.87200 30.41100
O  35.68300 45.61400 31.92000
C  34.78800 45.24700 33.01100
H  34.62700 52.63400 28.04100
H  34.83700 50.98300 21.89500
H  37.12700 45.23600 23.41500
H  34.53100 48.58500 30.61200
H  35.21700 51.42500 30.20500
H  32.69200 50.48500 29.14900
H  33.03400 51.61500 30.55400
H  32.92800 49.85900 30.73400
H  36.73900 50.38600 31.26100
H  37.48000 48.92300 30.67200
H  37.12800 47.92000 32.73300
H  35.52100 48.03300 32.55900
H  32.91100 54.61800 25.44000
H  34.43400 55.19100 25.92800
H  33.55500 54.16600 27.06800
H  33.75600 55.52000 21.98000
H  34.49700 55.42200 23.50600
H  32.74600 54.81000 23.23200
H  36.17300 49.32200 20.72100
H  36.01800 46.34000 21.26900
H  33.49700 48.84500 20.87100
H  34.03600 47.21700 20.77400
H  34.51100 48.26400 19.46700
H  38.53500 47.18900 22.02200
H  38.15500 48.00600 20.50900
H  38.80500 46.29300 19.36300
H  37.37200 45.49000 19.83200
H  38.89000 45.29200 20.83000
H  37.65000 43.50100 24.60700
H  36.55700 42.72700 25.69900
H  38.26700 43.15000 26.12500
H  37.23700 46.18900 30.37200
H  34.46600 46.14100 33.54500
H  35.28000 44.50700 33.64200
H  33.89500 44.73500 32.65200
Mg 9.61700 49.04200 24.11400
C  7.25100 49.70700 26.46900
C  12.13500 50.20500 26.39400
C  12.06500 48.48200 21.80900
C  7.20300 47.97400 21.89500
N  9.65600 50.05100 26.17700
C  8.51400 50.03400 26.97900
C  8.90600 50.46800 28.43800
C  10.38400 51.04900 28.21000
C  10.78000 50.35300 26.85800
C  10.51800 52.57400 28.24800
C  8.69500 49.31300 29.47500
C  9.38500 49.46200 30.88200
H  8.49000 49.55800 32.05200
N  11.76200 49.24500 24.16900
C  12.55300 49.63200 25.22000
C  13.92600 49.69400 24.81000
C  14.01000 49.27600 23.40500
C  12.55800 48.97300 23.07600
C  15.09900 50.04700 25.65700
C  15.20600 49.04300 22.53300
O  15.05500 48.91200 21.31600
C  16.57300 48.90100 23.05600
N  9.59600 48.37400 22.09900
C  10.73600 48.17100 21.40500
C  10.55000 47.56200 20.05000
C  8.94600 47.42100 20.00500
C  8.49600 47.97000 21.40800
C  11.15200 48.35200 18.94000
C  8.60000 45.90800 19.72300
C  8.44300 44.95100 20.92800
N  7.60300 48.87000 24.07900
C  6.72200 48.45100 23.14500
C  5.36900 48.55600 23.68800
C  5.54400 49.06800 24.98700
C  6.91100 49.21600 25.18600
C  4.11300 48.14800 22.96800
C  4.80000 49.47500 26.17300
O  3.60700 49.46100 26.43800
C  5.86100 49.75300 27.19200
C  5.72500 48.64600 28.20500
O  6.20100 47.50300 28.07500
O  5.12900 49.16700 29.34700
C  4.82600 48.15000 30.28200
H  12.80000 50.66200 27.12900
H  12.81400 48.23200 21.05500
H  6.55900 47.49600 21.15300
H  8.31000 51.29600 28.82200
H  11.02400 50.69500 29.01800
H  9.56200 53.09400 28.18700
H  11.25900 52.91100 27.52300
H  10.94800 52.90200 29.19400
H  9.11600 48.46000 28.94300
H  7.62000 49.26000 29.64200
H  10.02600 50.34400 30.86700
H  10.14100 48.67800 30.93000
H  14.82200 50.14400 26.70600
H  15.47200 51.02800 25.36000
H  15.90200 49.31900 25.53900
H  16.54800 48.01000 23.68300
H  16.84900 49.81900 23.57600
H  17.29100 48.74800 22.25000
H  11.11900 46.63900 20.15800
H  8.42400 47.96200 19.21600
H  11.29000 49.34500 19.36600
H  10.31300 48.34200 18.24400
H  12.09300 48.00900 18.51100
H  9.42500 45.50400 19.13500
H  7.67000 45.77900 19.16900
H  8.50200 45.42500 21.90700
H  9.13000 44.10500 20.92900
H  7.40500 44.62100 20.96900
H  3.47800 47.61200 23.67300
H  4.38300 47.38800 22.23500
H  3.54600 48.97200 22.53500
H  5.70900 50.76400 27.57000
H  4.17800 47.42100 29.79600
H  4.23100 48.56200 31.09700
H  5.74600 47.67800 30.62700

