158

Mg 40.25800 41.40000 27.37900
C  39.38300 43.64400 29.96500
C  41.53000 39.28800 29.76400
C  41.32500 39.33900 24.90800
C  39.63700 43.94400 25.03300
N  40.37900 41.41100 29.72600
C  39.75100 42.34100 30.46500
C  39.83400 41.90600 31.98400
C  40.79000 40.70300 31.89800
C  40.98900 40.42900 30.40400
C  42.20100 41.01100 32.59400
C  38.34700 41.83300 32.48000
C  37.95500 42.63200 33.76200
H  38.99600 42.58600 34.91500
N  41.22400 39.49200 27.33800
C  41.75500 38.83500 28.44000
C  42.25800 37.58200 27.97800
C  42.10200 37.46500 26.53200
C  41.51500 38.76300 26.21900
C  42.97000 36.58100 28.87000
C  42.55900 36.39900 25.62100
O  42.60100 36.64400 24.43700
C  43.02700 35.00300 26.09900
N  40.58900 41.66300 25.37400
C  40.90500 40.63700 24.54500
C  40.83600 41.07200 23.10800
C  39.95200 42.32900 23.15300
C  40.11800 42.69900 24.62300
C  42.13700 41.38300 22.32100
C  38.43100 42.07400 22.78400
C  37.69000 40.78400 23.12100
N  39.75700 43.41200 27.40700
C  39.58000 44.33200 26.37500
C  39.07600 45.57000 26.90400
C  38.99500 45.37600 28.30200
C  39.36000 43.94600 28.53300
C  38.75500 46.74400 26.08800
C  38.65600 45.87600 29.60200
O  38.21300 47.04200 29.76500
C  38.94600 44.92900 30.72000
C  39.99300 45.52800 31.68000
O  41.20000 45.37300 31.58900
O  39.33600 46.17000 32.73300
C  40.09400 46.89000 33.75400
H  41.79000 38.49600 30.46900
H  41.71300 38.83300 24.02100
H  39.60100 44.64900 24.20000
H  40.25700 42.75100 32.52700
H  40.22100 39.88400 32.33900
H  42.82700 41.61300 31.93600
H  42.64700 40.01600 32.57300
H  42.08700 41.45700 33.58200
H  38.02300 40.82400 32.73700
H  37.67100 42.12000 31.67400
H  36.99400 42.21400 34.06200
H  37.72100 43.60500 33.33000
H  43.10700 36.86200 29.91400
H  43.99800 36.38100 28.56800
H  42.53200 35.58400 28.82200
H  43.44500 34.48900 25.23300
H  42.19800 34.43500 26.52100
H  43.82100 35.12200 26.83600
H  40.30300 40.24400 22.64100
H  40.26900 43.09900 22.44900
H  42.25500 42.43800 22.07400
H  42.19300 40.93100 21.33000
H  42.94800 40.99300 22.93600
H  38.32000 42.40200 21.75000
H  38.00100 42.91100 23.33400
H  37.21300 40.47400 22.19200
H  36.96500 40.96900 23.91400
H  38.37900 39.99900 23.43400
H  38.98200 47.59200 26.73500
H  37.68800 46.87800 25.90700
H  39.42500 46.71500 25.23000
H  37.97700 44.76000 31.18900
H  40.79400 47.64100 33.38800
H  40.74000 46.18100 34.27200
H  39.49600 47.35100 34.54000
Mg 6.38000 57.25500 42.16800
C  5.22900 53.94200 42.25100
C  9.23600 56.17800 40.97300
C  7.16500 60.47900 41.78000
C  3.09300 58.34100 43.12900
N  6.94100 55.27600 41.39700
C  6.44600 54.08400 41.55000
C  7.36400 52.98400 40.86800
C  8.71600 53.69000 40.94300
C  8.26100 55.18200 41.13000
C  9.65100 53.24400 42.15100
C  6.89900 52.66000 39.45100
C  7.53700 51.41800 38.92600
H  6.63700 50.56100 38.02800
N  7.96900 58.18800 41.33400
C  9.15500 57.59500 40.94100
C  10.05000 58.60700 40.38800
C  9.43000 59.87100 40.59500
C  8.10100 59.53200 41.30700
C  11.35200 58.16800 39.76700
C  10.09800 61.17200 40.17200
O  11.18500 61.20300 39.61000
C  9.56500 62.57300 40.66400
N  5.26100 59.15600 42.33900
C  5.87500 60.31600 42.24500
C  4.94600 61.47200 42.61700
C  3.53600 60.82000 42.64900
C  3.97200 59.35100 42.71200
C  5.37700 62.33000 43.79000
C  2.64500 61.11100 41.40500
C  1.09900 61.05200 41.61300
N  4.47300 56.32600 42.62600
C  3.29800 56.86600 43.14200
C  2.39200 55.74300 43.41300
C  3.21900 54.59200 43.26100
C  4.37800 54.98000 42.62600
C  0.96300 55.83900 43.87700
C  3.14900 53.14100 43.31000
O  2.37100 52.30600 43.78900
C  4.55100 52.68900 42.70200
C  4.37600 51.58200 41.71100
O  3.87300 51.62500 40.61500
O  4.92900 50.49400 42.31000
C  4.91800 49.20800 41.60100
H  10.25900 55.86400 40.75600
H  7.35500 61.55400 41.80100
H  2.08600 58.56000 43.48900
H  7.19000 52.22500 41.63000
H  9.30200 53.57900 40.03000
H  9.30600 52.26000 42.46900
H  9.67900 53.90800 43.01500
H  10.64200 53.09600 41.72400
H  7.21600 53.54700 38.90300
H  5.81400 52.57300 39.51000
H  8.03200 50.86300 39.72200
H  8.49100 51.73900 38.50800
H  11.19800 57.81100 38.74900
H  11.80600 57.30300 40.25000
H  12.12200 58.94000 39.74100
H  8.58800 62.61700 40.18300
H  10.09200 63.45500 40.30000
H  9.43200 62.55900 41.74500
H  4.90100 62.08600 41.71800
H  3.03100 61.12400 43.56600
H  6.33700 61.98100 44.17000
H  4.67100 62.31600 44.62000
H  5.43200 63.36900 43.46300
H  2.98300 60.49300 40.57300
H  2.85800 62.13600 41.10300
H  0.57500 60.51000 40.82500
H  0.56200 61.99200 41.48400
H  0.83200 60.64400 42.58800
H  0.33400 56.16300 43.04800
H  0.92100 56.66100 44.59100
H  0.67200 54.93900 44.41900
H  5.24400 52.36000 43.47600
H  5.81000 49.18000 40.97500
H  4.10900 48.88400 40.94500
H  4.92000 48.41600 42.34900

