158

Mg -0.47800 6.94400 26.60400
C  0.27400 8.82700 29.46000
C  -0.67100 4.15600 28.65500
C  -0.88800 4.89000 23.85600
C  -0.13700 9.73700 24.62700
N  -0.18400 6.52700 28.88100
C  -0.04200 7.46600 29.80300
C  0.07300 6.88000 31.20900
C  -0.23000 5.38800 30.95900
C  -0.32600 5.28800 29.40300
C  0.74500 4.40500 31.61200
C  -0.80200 7.57300 32.31200
C  -0.14800 7.82000 33.77600
H  1.11500 7.01600 34.14100
N  -0.73900 4.81500 26.27700
C  -0.83800 3.92400 27.29300
C  -1.15700 2.65500 26.77400
C  -1.25000 2.77300 25.38900
C  -0.87800 4.18400 25.09400
C  -1.29000 1.37300 27.67100
C  -1.70000 1.79400 24.37100
O  -1.68400 2.07500 23.20100
C  -2.21100 0.43200 24.79000
N  -0.43300 7.20100 24.51800
C  -0.70400 6.29200 23.55700
C  -0.80900 6.94600 22.16100
C  -0.74500 8.51100 22.49400
C  -0.47800 8.48900 24.01500
C  0.36600 6.52400 21.23100
C  -2.05500 9.25500 22.07200
C  -1.88200 10.27900 20.98400
N  0.03300 8.85700 26.88700
C  0.10600 9.94000 26.03400
C  0.60400 11.11600 26.72100
C  0.66000 10.69500 28.05900
C  0.31200 9.34200 28.14400
C  0.83300 12.44800 26.18200
C  1.00200 11.17100 29.35600
O  1.45800 12.21800 29.78100
C  0.56000 10.02900 30.36700
C  1.70300 9.96500 31.35300
O  2.77000 9.50600 31.16000
O  1.28200 10.61900 32.43000
C  2.27900 10.99100 33.38300
H  -0.85600 3.42500 29.44500
H  -1.12000 4.26000 22.99500
H  0.10200 10.66100 24.09800
H  1.12800 6.97900 31.46700
H  -1.24000 5.08000 31.23000
H  1.28900 3.93800 30.79000
H  0.21400 3.70600 32.25700
H  1.46200 4.90200 32.26600
H  -1.80900 7.15700 32.33900
H  -0.98900 8.60800 32.02700
H  -0.90300 7.53400 34.50800
H  0.05300 8.88000 33.93300
H  -2.33000 1.04800 27.65200
H  -0.84500 1.48300 28.66000
H  -0.64200 0.70700 27.10000
H  -1.46000 -0.25500 25.18100
H  -2.73700 -0.03700 23.95900
H  -3.11900 0.60900 25.36500
H  -1.81000 6.62500 21.87300
H  0.07300 8.92000 21.90100
H  0.15800 5.49300 20.94500
H  1.29700 6.71400 21.76500
H  0.44000 7.20100 20.37900
H  -2.50500 9.64900 22.98300
H  -2.88200 8.62400 21.74600
H  -1.04600 9.98400 20.34900
H  -1.66300 11.28700 21.33800
H  -2.72300 10.26200 20.29200
H  1.90600 12.58400 26.04200
H  0.57100 13.21100 26.91400
H  0.18800 12.68000 25.33400
H  -0.30900 10.38600 30.92100
H  3.24800 11.23300 32.94900
H  2.33400 10.16300 34.09000
H  1.87400 11.82400 33.95800
Mg -0.82200 33.35500 27.35300
C  -2.93600 31.99200 29.75700
C  0.66300 35.44800 29.69800
C  0.70400 34.98200 24.86600
C  -2.73800 31.57600 24.94200
N  -1.07800 33.66200 29.44600
C  -1.90600 32.87700 30.25700
C  -1.73300 33.22200 31.75500
C  -0.62000 34.30300 31.67800
C  -0.33400 34.51200 30.15700
C  -1.05200 35.61900 32.36900
C  -1.52500 32.02000 32.64200
C  -0.66100 32.13000 33.88600
H  -1.18200 31.50600 35.16500
N  0.45600 35.01100 27.29500
C  1.02100 35.65000 28.38900
C  2.01600 36.61000 27.96100
C  1.98300 36.57500 26.48500
C  1.00100 35.50800 26.16000
C  2.84400 37.42800 28.98900
C  2.76700 37.39400 25.44500
O  2.66800 37.20600 24.25400
C  3.64600 38.39100 25.97500
N  -0.97100 33.29400 25.20000
C  -0.12300 33.89900 24.44900
C  -0.21900 33.45500 22.99600
C  -1.10900 32.20900 23.01400
C  -1.66000 32.34400 24.48900
C  -0.78300 34.50700 21.99100
C  -0.41600 30.88900 22.68300
C  -0.89000 30.00600 21.55200
N  -2.45300 31.93100 27.29800
C  -3.12100 31.38800 26.28600
C  -4.21000 30.51900 26.72300
C  -4.20300 30.75000 28.15600
C  -3.10400 31.59100 28.42200
C  -5.09500 29.57000 25.87700
C  -4.88800 30.37300 29.41300
O  -5.92800 29.75800 29.62900
C  -3.99800 31.11200 30.53000
C  -4.84200 32.07100 31.25300
O  -5.02600 33.22400 30.95900
O  -5.42400 31.36100 32.28300
C  -6.40400 32.11400 33.10100
H  1.19900 35.93000 30.51800
H  1.24200 35.41600 24.02100
H  -3.27900 30.91800 24.26000
H  -2.66600 33.73000 32.00300
H  0.29900 33.85300 32.05200
H  -0.89100 35.60000 33.44700
H  -2.10700 35.76600 32.13600
H  -0.39100 36.34300 31.89300
H  -1.13900 31.12700 32.15200
H  -2.50200 31.70100 33.00500
H  -0.59000 33.19600 34.10200
H  0.34600 31.77900 33.66200
H  2.19500 37.83300 29.76600
H  3.34800 38.29300 28.55700
H  3.50700 36.74600 29.52100
H  4.48400 37.91200 26.48200
H  3.08600 38.99500 26.68800
H  4.15300 38.97800 25.20800
H  0.82500 33.19300 22.82500
H  -2.01400 32.34200 22.42200
H  0.04900 34.81300 21.35600
H  -1.02400 35.44900 22.48300
H  -1.54800 34.19100 21.28200
H  -0.61200 30.26900 23.55900
H  0.64600 31.07400 22.52200
H  -1.90000 30.32800 21.30100
H  -1.05600 28.95400 21.78300
H  -0.32200 30.18400 20.63800
H  -4.61100 29.14800 24.99600
H  -5.93900 30.12900 25.47400
H  -5.61400 28.90100 26.56300
H  -3.44300 30.55100 31.28200
H  -5.87700 32.88900 33.65800
H  -6.77500 31.41500 33.85000
H  -7.24000 32.47500 32.50200

