158

Mg 17.42700 -1.41000 27.74100
C  16.36500 0.46200 30.41300
C  19.46600 -3.29100 29.96700
C  18.68300 -3.15800 25.15900
C  15.76000 0.57900 25.60000
N  17.78200 -1.46700 29.92700
C  17.15300 -0.61600 30.84200
C  17.61200 -0.91200 32.23800
C  18.69000 -2.03600 32.07500
C  18.67800 -2.25600 30.52000
C  20.16300 -1.65600 32.51000
C  16.42400 -1.17300 33.31800
C  16.56500 -0.43300 34.69700
H  17.75000 -0.82700 35.55900
N  18.73000 -3.06000 27.60100
C  19.45000 -3.71200 28.62100
C  20.00100 -4.98800 28.12200
C  19.81600 -4.91800 26.73500
C  19.03800 -3.68900 26.45900
C  20.64000 -6.12100 28.95600
C  20.37100 -5.79600 25.69700
O  20.28700 -5.61700 24.49800
C  21.10300 -7.09500 26.08600
N  17.32300 -1.18600 25.66900
C  17.92400 -2.04500 24.78500
C  17.73500 -1.63300 23.29600
C  16.60100 -0.55100 23.54300
C  16.56000 -0.37900 25.02500
C  19.07500 -1.07000 22.64500
C  15.25100 -0.78000 22.95400
C  14.62100 0.36500 22.12700
N  16.28100 0.23200 27.89900
C  15.63600 0.93800 26.93600
C  14.86100 2.03300 27.59200
C  15.13900 1.87200 29.02000
C  16.02100 0.81700 29.11700
C  13.98300 3.01100 26.97800
C  14.85600 2.40400 30.28200
O  14.18100 3.40200 30.60700
C  15.67500 1.51200 31.25000
C  16.69400 2.36300 31.82600
O  17.80700 2.54300 31.41900
O  16.23000 2.96500 32.94200
C  17.26500 3.60500 33.84400
H  20.05100 -3.94700 30.61500
H  19.00700 -3.80400 24.34100
H  15.31400 1.21000 24.82900
H  18.20600 -0.06900 32.59100
H  18.31200 -2.97700 32.47400
H  20.07800 -0.66600 32.95800
H  20.89900 -1.63500 31.70600
H  20.57200 -2.39800 33.19500
H  16.36200 -2.23400 33.56300
H  15.48100 -0.96400 32.81300
H  15.61100 -0.57500 35.20700
H  16.50100 0.62700 34.45300
H  20.08200 -7.03500 28.75200
H  20.69000 -5.90400 30.02300
H  21.65500 -6.19700 28.56600
H  22.04600 -6.83900 26.56900
H  21.44700 -7.70800 25.25300
H  20.49500 -7.66700 26.78700
H  17.22100 -2.36000 22.66800
H  16.99500 0.37900 23.13300
H  19.90200 -0.99700 23.35100
H  18.97200 -0.04000 22.30200
H  19.40300 -1.71800 21.83200
H  14.56200 -1.13400 23.72100
H  15.29600 -1.60100 22.23900
H  13.74400 0.82100 22.58500
H  14.32500 0.04500 21.12800
H  15.29900 1.20800 21.99200
H  14.54900 3.92200 26.78200
H  13.22500 3.21400 27.73500
H  13.49100 2.62400 26.08600
H  15.12700 1.13700 32.11400
H  16.94300 4.52300 34.33600
H  18.20600 3.90100 33.38100
H  17.41100 2.82200 34.58800
Mg 48.28100 44.83100 43.49000
C  44.82600 45.30200 42.36000
C  48.10600 41.69900 41.90300
C  51.64800 44.66800 43.60000
C  48.28700 48.24800 44.36400
N  46.54900 43.63000 42.19600
C  45.25700 44.02400 41.94300
C  44.60200 42.89400 41.13600
C  45.53300 41.65300 41.45200
C  46.80200 42.32500 41.94700
C  45.00500 40.46400 42.37900
C  44.31900 43.31300 39.63500
C  43.58400 42.34300 38.74400
H  44.28700 41.66300 37.57600
N  49.76800 43.35700 42.89600
C  49.44600 42.17700 42.22600
C  50.67200 41.46800 42.08200
C  51.70800 42.27000 42.56700
C  51.07700 43.47000 43.04500
C  50.70100 39.96400 41.44400
C  53.19300 41.97400 42.63100
O  53.57500 40.98200 42.14000
C  54.13500 42.89900 43.17800
N  49.80400 46.32600 43.81300
C  51.10800 45.97000 43.91400
C  51.93400 47.16000 44.41600
C  50.84900 48.24100 44.90300
C  49.53300 47.61900 44.25200
C  52.91300 46.79400 45.53800
C  51.19600 49.65100 44.50700
C  51.48200 50.71900 45.54500
N  46.85000 46.41000 43.49400
C  46.99400 47.67300 43.97800
C  45.73000 48.45900 43.82500
C  44.85300 47.57400 43.22600
C  45.59500 46.33200 43.02200
C  45.47700 49.91500 44.32400
C  43.49900 47.34700 42.74400
O  42.47900 48.07800 42.69700
C  43.44300 45.90300 42.06500
C  42.17900 45.13300 42.43200
O  41.20200 44.91100 41.70100
O  42.24900 44.93400 43.78600
C  41.06300 44.48200 44.51100
H  48.06900 40.63600 41.65400
H  52.72300 44.62600 43.78500
H  48.28400 49.27000 44.74800
H  43.66000 42.62600 41.61500
H  45.87000 41.28200 40.48400
H  43.95400 40.52000 42.66400
H  45.66600 40.38700 43.24200
H  45.25700 39.49700 41.94300
H  45.29500 43.58500 39.23600
H  43.76600 44.25100 39.68100
H  42.70600 42.80900 38.29500
H  43.12000 41.60300 39.39500
H  49.86400 39.65400 40.81900
H  50.91600 39.19200 42.18300
H  51.51900 39.75900 40.75300
H  55.13600 42.48100 43.06400
H  53.89300 42.95900 44.23900
H  54.19200 43.83000 42.61400
H  52.42800 47.59700 43.54800
H  50.68100 48.09600 45.97000
H  53.90500 46.48400 45.20900
H  52.51100 45.95600 46.10700
H  53.10300 47.56500 46.28500
H  50.35300 50.01000 43.91500
H  52.12300 49.64200 43.93400
H  51.45400 50.27500 46.54000
H  50.67900 51.45200 45.46900
H  52.44500 51.14600 45.26200
H  46.21500 50.27400 45.04200
H  44.47300 49.84600 44.74300
H  45.30800 50.57900 43.47600
H  43.30300 46.21200 41.03000
H  40.37100 45.28400 44.76800
H  41.36300 43.91600 45.39300
H  40.48700 43.77700 43.91200

