158

Mg 16.22500 -2.89400 28.32500
C  15.15700 -0.76100 30.86600
C  18.64800 -4.17500 30.33400
C  17.65000 -4.56600 25.72400
C  14.32700 -0.99200 26.02400
N  16.83600 -2.48000 30.33700
C  16.20700 -1.64500 31.26500
C  16.87400 -1.75300 32.64400
C  18.04200 -2.81700 32.38100
C  17.87500 -3.14100 30.89100
C  19.53600 -2.35800 32.77600
C  15.79700 -2.13600 33.73100
C  15.68000 -1.29000 35.04100
H  16.89200 -0.51400 35.60500
N  17.73100 -4.44900 28.11100
C  18.58100 -4.81300 29.06500
C  19.50200 -5.82500 28.58000
C  19.29900 -5.96600 27.17000
C  18.13600 -4.98400 26.92200
C  20.58100 -6.39200 29.42000
C  19.84800 -6.94200 26.15800
O  19.50400 -6.93800 24.93800
C  20.94000 -7.86600 26.59800
N  16.08300 -2.74400 26.14400
C  16.83800 -3.45200 25.37600
C  16.65900 -2.94000 23.91000
C  15.48300 -1.97200 23.99200
C  15.20900 -1.92900 25.45200
C  17.89700 -2.27500 23.26200
C  14.22700 -2.37900 23.09500
C  13.98300 -1.44800 21.89100
N  15.11100 -1.20300 28.32300
C  14.25900 -0.64000 27.34200
C  13.41600 0.31000 27.97500
C  13.76600 0.33400 29.28100
C  14.77500 -0.63100 29.51100
C  12.30200 1.06500 27.28500
C  13.45300 0.94400 30.55200
O  12.69300 1.89200 30.87100
C  14.39000 0.33400 31.61900
C  15.33100 1.39300 32.14500
O  16.48800 1.51400 31.79900
O  14.76300 2.17100 33.16300
C  15.60000 3.20900 33.82200
H  19.52300 -4.46500 30.91900
H  18.13900 -4.97100 24.83500
H  13.69000 -0.42900 25.33800
H  17.35200 -0.84800 33.01800
H  17.91900 -3.71500 32.98700
H  20.15700 -3.24800 32.87500
H  19.46700 -1.73300 33.66600
H  20.06200 -1.88700 31.94500
H  16.07700 -3.13000 34.07800
H  14.81000 -2.17600 33.27200
H  15.55600 -2.00100 35.85800
H  14.71000 -0.79500 34.99900
H  20.92400 -7.35300 29.03700
H  20.31300 -6.52000 30.46900
H  21.34500 -5.62000 29.51200
H  21.77800 -7.22600 26.87700
H  21.24700 -8.54500 25.80300
H  20.70000 -8.42500 27.50200
H  16.35000 -3.74100 23.23800
H  15.76400 -0.96400 23.68700
H  18.12300 -2.61500 22.25100
H  18.73000 -2.54800 23.90900
H  17.78500 -1.19200 23.31900
H  13.30900 -2.43900 23.68100
H  14.29100 -3.36400 22.63200
H  12.91700 -1.57900 21.70800
H  14.57200 -1.82200 21.05300
H  14.23300 -0.40600 22.09000
H  11.91800 0.74300 26.31700
H  12.47000 2.13800 27.19800
H  11.42800 0.95400 27.92700
H  13.80700 -0.03500 32.46200
H  15.87000 3.85500 32.98600
H  16.53500 2.77200 34.17300
H  15.02900 3.59800 34.66500
Mg -5.74300 24.91200 25.75900
C  -4.12300 26.06700 28.68600
C  -7.66700 22.72000 27.71700
C  -6.62500 23.29600 23.00100
C  -3.25000 26.73200 23.95200
N  -5.80500 24.34500 27.90100
C  -5.12000 25.06300 28.92500
C  -5.66100 24.61000 30.31700
C  -6.58500 23.37400 29.99000
C  -6.75700 23.48000 28.46100
C  -5.98000 21.97300 30.32200
C  -6.51000 25.83000 30.92800
C  -6.30000 26.02500 32.52200
H  -5.49200 24.95200 33.28600
N  -7.14600 23.37000 25.36300
C  -7.82000 22.59500 26.28300
C  -8.67400 21.67600 25.60400
C  -8.44200 21.87400 24.21000
C  -7.37900 22.87200 24.13700
C  -9.58700 20.72500 26.28400
C  -9.02500 21.14700 22.95800
O  -8.68400 21.40500 21.81500
C  -10.12200 20.12400 23.07500
N  -4.98300 25.03300 23.71400
C  -5.57100 24.22200 22.77500
C  -4.93200 24.46400 21.40100
C  -4.05000 25.70500 21.64400
C  -4.02200 25.85400 23.19400
C  -4.11800 23.27200 20.88600
C  -4.57100 26.97400 20.88200
C  -3.65600 27.62200 19.74200
N  -4.11600 26.20800 26.19400
C  -3.26900 26.96800 25.33000
C  -2.46700 27.93700 26.14400
C  -2.80600 27.54600 27.47900
C  -3.76200 26.51700 27.46300
C  -1.40300 28.96700 25.69000
C  -2.37900 27.81200 28.87400
O  -1.54300 28.51900 29.35400
C  -3.36000 26.86400 29.68500
C  -2.57100 26.13000 30.66600
O  -1.99900 25.06900 30.46000
O  -2.65100 26.77400 31.88700
C  -1.73800 26.11100 32.82800
H  -8.17800 21.97100 28.32500
H  -6.81300 22.87000 22.01300
H  -2.67300 27.42800 23.33900
H  -4.79000 24.40000 30.93700
H  -7.60800 23.40600 30.36600
H  -4.96400 21.93100 30.71300
H  -5.99600 21.38900 29.40300
H  -6.77600 21.60000 30.96700
H  -7.57400 25.66700 30.76200
H  -6.26600 26.74900 30.39500
H  -7.31400 26.21900 32.87300
H  -5.75000 26.96300 32.59700
H  -10.58100 20.78100 25.84000
H  -9.81300 20.98200 27.31800
H  -9.27100 19.68200 26.25100
H  -10.25600 19.73900 22.06500
H  -11.02200 20.61500 23.44600
H  -9.73800 19.30700 23.68600
H  -5.74200 24.67300 20.70200
H  -3.05000 25.46000 21.28500
H  -3.62100 22.65200 21.63300
H  -3.30900 23.63200 20.25000
H  -4.69400 22.56500 20.28800
H  -4.60200 27.73500 21.66200
H  -5.59700 26.84000 20.54200
H  -2.74000 27.04100 19.63500
H  -3.32600 28.62300 20.02100
H  -4.16700 27.74700 18.78700
H  -0.64500 29.15100 26.45100
H  -1.82600 29.95000 25.48300
H  -1.06000 28.61500 24.71700
H  -4.09200 27.39300 30.29600
H  -1.86500 26.65000 33.76700
H  -0.73900 26.07900 32.39300
H  -2.00000 25.05500 32.88000

