158

Mg 41.57600 41.37000 26.53100
C  40.80800 43.81800 28.93000
C  42.98900 39.38700 28.98500
C  42.37600 39.00100 24.23900
C  40.47600 43.48600 24.13400
N  41.84400 41.54100 28.83800
C  41.42300 42.70300 29.59100
C  41.76700 42.38400 31.01600
C  42.65300 41.07100 30.94700
C  42.51600 40.58400 29.48700
C  44.10700 41.40700 31.36500
C  40.45100 42.11600 31.89100
C  40.74300 41.66700 33.38100
H  39.75400 42.22300 34.51100
N  42.48600 39.39400 26.62500
C  42.99200 38.82300 27.69000
C  43.72300 37.65700 27.28100
C  43.26200 37.34000 25.97200
C  42.71700 38.61400 25.55300
C  44.51400 36.76600 28.35800
C  43.20000 36.02200 25.13300
O  42.68200 35.90800 24.06300
C  43.72600 34.75400 25.70300
N  41.46100 41.26800 24.49900
C  41.85400 40.21700 23.71100
C  41.52200 40.37700 22.20000
C  40.83800 41.80800 22.14500
C  40.88000 42.17600 23.72400
C  42.83800 40.06100 21.36900
C  39.40800 41.77800 21.54000
C  38.40800 40.97400 22.44800
N  40.85100 43.23400 26.47400
C  40.51100 44.04600 25.44000
C  40.00300 45.35700 25.88500
C  40.08900 45.25000 27.28000
C  40.60300 43.98500 27.59100
C  39.45500 46.52500 25.02600
C  39.88800 45.99400 28.54900
O  39.43400 47.13100 28.72200
C  40.29200 45.03600 29.64800
C  41.21900 45.73100 30.58500
O  42.37400 46.01400 30.38500
O  40.52400 45.99000 31.78000
C  41.30000 46.70500 32.79300
H  43.63900 38.94300 29.74200
H  42.53400 38.31700 23.40200
H  40.26700 44.13100 23.27900
H  42.34700 43.23500 31.37400
H  42.29600 40.33400 31.66700
H  44.60300 40.44300 31.25100
H  44.15500 41.66900 32.42200
H  44.66900 42.04700 30.68500
H  39.98000 41.33400 31.29500
H  39.83100 43.01200 31.87700
H  41.77800 41.87200 33.65100
H  40.70300 40.58300 33.48000
H  44.75900 37.31800 29.26600
H  45.37000 36.16200 28.05600
H  43.72200 36.08300 28.66400
H  44.78700 34.77700 25.45500
H  43.17100 33.88600 25.34700
H  43.61100 34.69400 26.78500
H  40.81400 39.62100 21.85900
H  41.54100 42.37200 21.53300
H  43.76600 39.87500 21.91000
H  43.07300 40.82900 20.63200
H  42.56500 39.14400 20.84800
H  39.48300 41.15900 20.64600
H  39.02200 42.76300 21.27600
H  37.47300 41.49800 22.64600
H  38.76200 40.58700 23.40300
H  38.08300 40.05300 21.96500
H  38.95600 46.06600 24.17300
H  40.18500 47.20000 24.58000
H  38.77900 46.92400 25.78200
H  39.35100 44.83500 30.15900
H  42.16500 47.28900 32.48000
H  41.67100 45.99600 33.53300
H  40.69100 47.35500 33.42200
Mg 5.76200 53.86400 41.26800
C  5.49800 50.44700 40.60200
C  8.99400 53.76700 40.24500
C  5.74900 57.14600 41.45600
C  2.32800 53.86800 42.05700
N  6.99400 52.32000 40.30500
C  6.72700 50.98900 40.18900
C  7.92300 50.31400 39.55300
C  9.11800 51.25700 39.89900
C  8.35000 52.52600 40.11000
C  10.11100 50.79300 40.98700
C  7.96500 49.94000 38.04200
C  7.18000 50.83800 37.05400
H  6.26400 50.12300 36.03200
N  7.13700 55.27000 40.63800
C  8.42400 55.00700 40.41100
C  9.15800 56.28200 40.21800
C  8.25500 57.27800 40.61500
C  6.96700 56.57900 40.91400
C  10.64700 56.36900 39.91200
C  8.55500 58.73400 40.73500
O  9.70200 59.11100 40.57600
C  7.52900 59.86100 41.21500
N  4.22700 55.25500 41.56000
C  4.55900 56.55200 41.79600
C  3.39200 57.29600 42.44200
C  2.24100 56.34700 42.03000
C  3.00300 55.05100 41.95600
C  3.54200 57.65700 43.93900
C  1.56200 56.62300 40.68300
C  -0.02100 56.84100 40.70000
N  4.22300 52.43600 41.44000
C  2.90400 52.60200 41.91500
C  2.29200 51.32100 41.93700
C  3.25500 50.44700 41.45100
C  4.38100 51.18000 41.11200
C  0.89400 50.92000 42.54600
C  3.52400 49.02200 41.22400
O  2.82600 48.04800 41.43700
C  4.98300 48.95800 40.75100
C  5.14700 47.96700 39.70400
O  4.67000 48.01700 38.61400
O  5.66600 46.80700 40.27000
C  5.60100 45.61200 39.38400
H  10.04700 53.59000 40.01700
H  5.75100 58.20200 41.73300
H  1.25300 53.90400 42.24000
H  7.93800 49.42600 40.18500
H  9.82900 51.46300 39.09900
H  9.70800 49.84100 41.33300
H  10.19300 51.38700 41.89700
H  11.07400 50.78100 40.47600
H  7.55600 48.92900 38.03000
H  8.96800 49.95500 37.61700
H  7.96800 51.22900 36.41000
H  6.76500 51.75700 37.46800
H  10.78100 57.21300 39.23500
H  11.02600 55.45400 39.45700
H  11.18600 56.53700 40.84400
H  6.87000 60.05800 40.36900
H  8.09800 60.75100 41.48400
H  7.01000 59.59700 42.13600
H  3.23100 58.26500 41.96800
H  1.46500 56.28500 42.79300
H  3.62500 58.73600 44.06900
H  4.51200 57.38100 44.35200
H  2.71200 57.19000 44.47000
H  1.58900 55.69400 40.11400
H  1.95200 57.49100 40.15200
H  -0.48900 55.87600 40.50700
H  -0.25300 57.46200 39.83500
H  -0.33300 57.37700 41.59700
H  0.51300 51.90300 42.82300
H  0.93800 50.14000 43.30600
H  0.21900 50.61800 41.74500
H  5.52000 48.54800 41.60600
H  6.10400 45.84200 38.44500
H  4.54400 45.40800 39.21200
H  6.15100 44.78900 39.84000

