158

Mg 34.83100 2.47100 29.36600
C  32.38100 3.80500 31.63400
C  37.28500 2.92300 31.83800
C  37.15600 1.95800 27.03700
C  32.32000 2.50100 26.92700
N  34.82600 3.34000 31.43900
C  33.66100 3.55400 32.17100
C  33.98400 3.66500 33.70700
C  35.53500 3.55700 33.67400
C  35.91100 3.22500 32.25900
C  36.22400 4.84800 34.21200
C  33.28800 2.53900 34.54800
C  32.92600 2.80100 36.05900
H  33.97100 3.44000 36.93500
N  36.85200 2.31900 29.40200
C  37.67300 2.53500 30.52500
C  39.02400 2.14600 30.06100
C  39.00800 1.99900 28.65200
C  37.61500 2.13400 28.29500
C  40.18100 1.87900 31.00900
C  40.16900 1.62800 27.70300
O  39.98700 1.57100 26.48100
C  41.63600 1.33400 28.08000
N  34.78200 2.37800 27.22800
C  35.87900 2.06300 26.48000
C  35.47400 1.68100 25.04300
C  33.92200 1.54500 25.11900
C  33.62300 2.09500 26.52800
C  35.77500 2.71400 23.96500
C  33.41400 0.08900 24.94400
C  33.17800 -0.72900 26.21100
N  32.78500 3.01900 29.25700
C  31.92600 2.97700 28.16800
C  30.65200 3.53600 28.57400
C  30.76600 3.91300 29.96200
C  32.07200 3.53500 30.29300
C  29.38000 3.73800 27.67800
C  30.12000 4.40000 31.22000
O  28.99700 4.71500 31.43400
C  31.18700 4.32000 32.31900
C  31.50000 5.67200 32.94000
O  31.65700 6.70000 32.29000
O  31.31800 5.69400 34.32300
C  31.65700 6.88700 35.07800
H  38.08000 2.81300 32.57800
H  37.81300 1.53700 26.27300
H  31.51700 2.33000 26.20800
H  33.62200 4.58700 34.16100
H  35.84700 2.70600 34.28000
H  36.81600 4.47100 35.04600
H  35.61200 5.64000 34.64300
H  36.94700 5.30500 33.53700
H  33.90100 1.64200 34.46300
H  32.42900 2.16000 33.99600
H  32.66500 1.82500 36.46700
H  32.03200 3.42000 35.99100
H  39.83400 2.00800 32.03400
H  41.04400 2.51000 30.79700
H  40.55000 0.85400 31.01600
H  42.06300 1.88800 28.91600
H  42.16100 1.69800 27.19700
H  41.88100 0.29400 28.29500
H  35.91500 0.74100 24.71300
H  33.42800 2.23900 24.43900
H  36.77000 2.36800 23.68300
H  35.90500 3.76200 24.23400
H  35.07800 2.69400 23.12700
H  34.07900 -0.47700 24.29200
H  32.46300 0.21800 24.42700
H  33.78800 -0.29700 27.00500
H  33.48300 -1.77100 26.11400
H  32.11800 -0.65100 26.45300
H  28.50700 3.23300 28.09100
H  29.58800 3.60500 26.61600
H  29.13400 4.79400 27.56500
H  30.94600 3.68800 33.17400
H  31.46800 7.83900 34.58000
H  32.65400 6.86100 35.51700
H  30.94600 6.93400 35.90300
Mg 7.24100 53.39800 41.70400
C  6.55900 49.93800 40.86800
C  10.44000 52.88500 40.27200
C  7.73000 56.61000 41.71000
C  3.86100 53.69500 42.63500
N  8.27300 51.63500 40.45000
C  7.82300 50.34200 40.38500
C  8.88600 49.53600 39.69400
C  10.18800 50.32000 39.90300
C  9.61600 51.71300 40.16200
C  11.11900 49.89000 41.08700
C  8.46000 49.46800 38.14100
C  8.76100 48.13100 37.35800
H  7.78200 47.78200 36.27300
N  8.90800 54.59800 41.15400
C  10.09400 54.20800 40.67700
C  10.98400 55.31700 40.61500
C  10.25700 56.38300 41.18100
C  8.93200 55.88100 41.41000
C  12.38100 55.25000 40.08200
C  10.67700 57.86700 41.43400
O  11.76200 58.23500 40.92000
C  9.93500 58.67700 42.32400
N  5.97300 54.88500 42.02600
C  6.39400 56.20000 41.91500
C  5.24900 57.17300 42.20200
C  4.14100 56.23300 42.78000
C  4.63000 54.83300 42.38300
C  5.52700 58.48700 43.06000
C  2.69800 56.54300 42.38300
C  2.11000 56.14500 41.06900
N  5.59600 52.08800 41.88400
C  4.26600 52.36400 42.27100
C  3.53500 51.07500 42.36900
C  4.46200 50.14500 41.84800
C  5.60400 50.75300 41.54000
C  2.11600 50.78900 42.82600
C  4.60000 48.77400 41.36300
O  3.79600 47.83200 41.39400
C  6.02100 48.54000 40.91700
C  5.99200 47.75600 39.64200
O  5.59100 48.08800 38.54100
O  6.28800 46.46500 40.01000
C  6.18700 45.38100 39.05500
H  11.49300 52.66000 40.08900
H  7.84700 57.69300 41.78500
H  2.84900 53.86100 43.01100
H  8.90300 48.49500 40.01600
H  10.74300 50.39600 38.96900
H  10.97800 50.63700 41.86700
H  12.17300 49.80800 40.82100
H  10.79200 48.94000 41.50900
H  8.92700 50.26600 37.56300
H  7.39200 49.68100 38.17700
H  8.86600 47.41400 38.17200
H  9.66800 48.29400 36.77600
H  12.96600 55.42300 40.98500
H  12.65600 55.98700 39.32700
H  12.71500 54.24100 39.84000
H  9.49100 58.12800 43.15500
H  9.15400 59.21700 41.78800
H  10.56700 59.43700 42.78200
H  4.90700 57.46800 41.21000
H  4.08300 56.21900 43.86800
H  5.30100 59.41800 42.54100
H  6.56300 58.52100 43.39600
H  4.85500 58.51300 43.91900
H  2.80400 57.62500 42.45600
H  2.02400 56.28800 43.20200
H  2.06400 56.90600 40.29000
H  1.07700 55.80300 41.14100
H  2.57500 55.28400 40.59000
H  2.04900 50.81700 43.91400
H  1.88000 49.77600 42.49800
H  1.40900 51.52300 42.43900
H  6.42700 47.89200 41.69400
H  5.61700 44.56800 39.50300
H  7.09800 45.09400 38.52900
H  5.59000 45.53000 38.15500

