158

Mg 48.57200 45.08200 43.69000
C  45.18600 45.25700 42.48400
C  48.55100 41.82000 43.06400
C  51.82600 45.24700 44.26000
C  48.33200 48.65400 43.93500
N  46.97800 43.69900 42.77800
C  45.67200 43.94100 42.46000
C  44.90100 42.63200 42.18200
C  45.93600 41.60600 42.78900
C  47.29500 42.39200 42.85300
C  45.51700 41.04300 44.12400
C  44.67600 42.55000 40.68100
C  43.22300 42.25100 40.28300
H  42.80100 42.86800 38.90600
N  50.06300 43.74300 43.44600
C  49.86300 42.41700 43.28400
C  51.08700 41.68700 43.38600
C  52.06700 42.61000 43.81000
C  51.35400 43.95900 43.81500
C  51.21500 40.14400 43.07300
C  53.48200 42.29900 44.00000
O  53.91200 41.18800 43.75100
C  54.49000 43.38800 44.41800
N  49.99200 46.80000 43.74900
C  51.23100 46.53000 44.24000
C  51.97700 47.81900 44.67900
C  50.79700 48.90900 44.67400
C  49.63100 48.13200 44.06600
C  52.63000 47.56800 46.09000
C  50.87500 50.18500 43.77100
C  50.45700 51.51700 44.44100
N  47.09400 46.68500 43.48200
C  47.17100 48.04600 43.56300
C  45.85200 48.67000 43.27600
C  45.03800 47.59000 42.90000
C  45.85900 46.40300 42.98300
C  45.50500 50.13400 43.29300
C  43.70800 47.28900 42.45200
O  42.71800 48.01400 42.43500
C  43.73400 45.76600 42.13500
C  42.69600 45.05000 42.88800
O  41.76400 44.44000 42.36400
O  42.89100 45.15400 44.24900
C  41.85000 44.65000 45.15500
H  48.64300 40.74600 42.89100
H  52.86200 45.28100 44.60300
H  48.30800 49.71500 44.19200
H  43.97800 42.63700 42.76000
H  46.00400 40.81500 42.04100
H  44.70000 41.55000 44.63700
H  46.37300 41.13300 44.79300
H  45.22400 39.99300 44.09300
H  45.29200 41.71800 40.34100
H  45.00300 43.48400 40.22400
H  42.50500 42.62800 41.01200
H  43.08600 41.17300 40.19500
H  50.32900 39.74500 42.58000
H  51.36300 39.70000 44.05800
H  52.03600 39.95700 42.38100
H  54.42800 44.23600 43.73500
H  55.51100 43.01000 44.37500
H  54.17600 43.66200 45.42500
H  52.64700 47.94900 43.82900
H  50.54700 49.26600 45.67300
H  52.25900 46.62800 46.49800
H  52.35400 48.36600 46.77900
H  53.71900 47.57600 46.03600
H  50.19600 49.98400 42.94300
H  51.94800 50.26400 43.59800
H  51.24600 52.22400 44.18500
H  50.23800 51.48400 45.50900
H  49.49600 51.82300 44.02700
H  45.01800 50.40900 42.35700
H  46.46400 50.62800 43.44800
H  44.83500 50.33300 44.12900
H  43.46400 45.65400 41.08400
H  42.15000 44.99200 46.14600
H  41.76100 43.56400 45.14000
H  40.85700 45.07100 45.00000
Mg 41.73900 41.11300 26.74600
C  40.91200 43.61200 29.09200
C  42.67800 39.05400 29.27700
C  42.78700 38.83400 24.33900
C  41.22500 43.43500 24.21700
N  41.89000 41.41700 28.90700
C  41.28100 42.44100 29.69100
C  41.34200 42.09900 31.18100
C  41.95100 40.66600 31.15200
C  42.25000 40.38700 29.71500
C  43.13700 40.45200 32.11300
C  39.84000 42.16000 31.79900
C  39.91200 41.65300 33.27200
H  39.21300 42.49800 34.34900
N  42.60100 39.20100 26.77500
C  42.87200 38.55400 27.94000
C  43.37200 37.25800 27.62100
C  43.53800 37.20800 26.15300
C  42.93600 38.44300 25.66700
C  43.78400 36.18600 28.63400
C  44.15200 36.14000 25.23800
O  44.27800 36.29800 24.03000
C  44.75800 34.95100 25.83100
N  41.93200 41.17100 24.68600
C  42.37000 40.08900 23.86600
C  42.44900 40.46700 22.31800
C  41.53700 41.79300 22.33400
C  41.56100 42.17700 23.85900
C  43.91100 40.55100 21.70100
C  40.24300 41.65300 21.57400
C  39.25000 40.63600 22.19500
N  41.12400 43.14200 26.59400
C  41.08700 43.97400 25.55500
C  40.73600 45.33600 25.96500
C  40.57100 45.20400 27.31800
C  40.89000 43.85900 27.72700
C  40.60400 46.60500 25.13700
C  40.22900 45.86300 28.60900
O  40.00200 47.09500 28.68000
C  40.22400 44.81000 29.69800
C  40.83400 45.46800 30.86600
O  41.92700 46.06100 30.87600
O  39.97000 45.58800 31.93900
C  40.23300 46.41800 33.11200
H  42.91700 38.35500 30.08200
H  43.17800 38.21100 23.53200
H  40.93400 44.19000 23.48300
H  41.97300 42.76200 31.77300
H  41.19900 39.97200 31.52800
H  43.30800 41.40300 32.61700
H  43.96300 40.05200 31.52500
H  42.71000 39.69500 32.77100
H  39.14200 41.53000 31.24900
H  39.48600 43.18900 31.74300
H  40.92800 41.35000 33.52400
H  39.32000 40.73800 33.24500
H  44.83900 36.12000 28.90000
H  43.41700 35.22300 28.28100
H  43.23700 36.46000 29.53700
H  45.35600 34.32400 25.17000
H  43.99900 34.30000 26.26300
H  45.44100 35.27900 26.61400
H  41.84200 39.69100 21.85200
H  42.04400 42.61100 21.82200
H  44.20200 41.57300 21.45900
H  43.93200 39.87000 20.85000
H  44.59200 40.25700 22.50000
H  40.46500 41.40900 20.53500
H  39.71300 42.60500 21.53100
H  38.97400 39.90000 21.43900
H  38.32500 41.10100 22.53700
H  39.73800 40.10400 23.01100
H  40.58300 46.27000 24.10000
H  41.46800 47.23200 25.35800
H  39.70000 47.16800 25.36700
H  39.15900 44.64900 29.86300
H  40.56800 45.90000 34.01100
H  39.23800 46.83500 33.26400
H  40.98800 47.18400 32.93500

