158

Mg 8.60500 4.16500 28.03400
C  10.00200 2.46900 30.76500
C  6.87600 6.10400 30.20500
C  7.37800 5.67800 25.45100
C  10.16400 1.66900 26.01300
N  8.40900 4.17400 30.29100
C  9.15700 3.47300 31.24100
C  8.81800 3.94500 32.63300
C  7.76600 5.06000 32.38300
C  7.68700 5.14200 30.89600
C  6.35500 4.87600 33.09900
C  10.14400 4.43500 33.30700
C  9.87700 5.17700 34.61900
H  10.60200 4.82800 35.91400
N  7.32200 5.73100 27.80600
C  6.72600 6.40700 28.84500
C  5.81200 7.40800 28.24700
C  5.95800 7.32300 26.83600
C  6.91300 6.18500 26.64500
C  4.85600 8.34500 28.99800
C  5.38800 8.26700 25.75200
O  5.71200 8.15300 24.59100
C  4.44400 9.45800 26.08700
N  8.65300 3.63000 26.02900
C  8.20500 4.57300 25.15300
C  8.46400 4.11000 23.70300
C  9.29100 2.80900 23.83800
C  9.40800 2.67200 25.37800
C  7.09000 3.90300 22.85900
C  10.64700 2.66200 22.99900
C  11.05700 1.19800 22.61300
N  9.76200 2.48000 28.27500
C  10.33300 1.53500 27.35700
C  11.20800 0.63700 27.98800
C  11.10200 0.97700 29.35700
C  10.19100 2.02200 29.44700
C  12.02500 -0.50900 27.25400
C  11.63200 0.61100 30.59000
O  12.35400 -0.36600 30.82600
C  10.96600 1.58500 31.60200
C  10.24300 0.73600 32.62200
O  9.11600 0.26800 32.41400
O  10.93800 0.71200 33.84500
C  10.23900 0.07200 34.99400
H  6.24100 6.75700 30.80700
H  6.94200 6.17000 24.58000
H  10.63800 0.93400 25.35900
H  8.44000 3.09800 33.20600
H  8.18900 6.03700 32.61900
H  5.53900 4.81000 32.37900
H  6.32200 5.77900 33.71000
H  6.43500 3.97800 33.71100
H  10.58900 5.03700 32.51400
H  10.80800 3.64500 33.65900
H  8.80200 5.16700 34.79600
H  10.02100 6.24800 34.47700
H  5.10000 9.40500 28.91800
H  4.81500 7.86800 29.97700
H  3.90400 8.21400 28.48300
H  4.04600 10.03000 25.24900
H  5.02400 10.05400 26.79100
H  3.61600 9.11700 26.71000
H  9.11000 4.87700 23.27700
H  8.48300 2.12300 23.58400
H  6.17100 3.72000 23.41500
H  7.28100 3.19200 22.05500
H  6.91800 4.83000 22.31200
H  11.40300 3.18700 23.58300
H  10.44100 3.12400 22.03400
H  11.92900 0.92300 23.20500
H  11.37100 1.13100 21.57100
H  10.31600 0.41100 22.75200
H  12.29500 -1.18100 28.06900
H  12.85400 -0.15300 26.64300
H  11.36400 -0.91100 26.48600
H  11.72800 2.16400 32.12300
H  9.57900 -0.75800 34.74100
H  9.79000 0.82700 35.63900
H  11.01800 -0.43500 35.56500
Mg 35.37400 2.49400 29.51800
C  33.13100 3.80500 31.85500
C  37.78900 2.36200 32.00800
C  37.66900 1.60400 27.14100
C  32.90700 2.76400 27.00400
N  35.50400 3.10000 31.66000
C  34.44000 3.47500 32.42500
C  34.83300 3.38800 33.93300
C  36.33200 3.10500 33.89200
C  36.57400 2.87000 32.43700
C  37.41200 4.12000 34.54200
C  34.02300 2.35200 34.65900
C  33.51400 2.70300 36.08900
H  34.28900 3.80100 36.88700
N  37.47200 2.14900 29.55200
C  38.22200 1.98300 30.72500
C  39.50200 1.41900 30.33000
C  39.47600 1.28700 28.90400
C  38.19100 1.74600 28.50900
C  40.59100 1.18700 31.33100
C  40.63400 0.90200 27.91100
O  40.48800 0.99500 26.68900
C  41.97400 0.36500 28.41800
N  35.30700 2.26400 27.40000
C  36.35600 1.91800 26.67500
C  35.94800 1.72600 25.20300
C  34.40800 1.69800 25.21400
C  34.13700 2.36700 26.64100
C  36.52500 2.90400 24.40500
C  33.69500 0.26800 24.96200
C  32.59900 0.15900 23.81700
N  33.45800 3.23800 29.41100
C  32.53500 3.21700 28.31500
C  31.24700 3.76000 28.79200
C  31.49400 3.98200 30.20200
C  32.79100 3.71100 30.48100
C  29.98700 3.93500 28.02200
C  30.79300 4.39600 31.39800
O  29.65900 4.88300 31.52000
C  31.82400 4.22700 32.51100
C  31.86700 5.54400 33.20600
O  32.55600 6.48700 32.85200
O  31.08000 5.54300 34.34000
C  31.50800 6.43000 35.36100
H  38.54400 2.23400 32.78600
H  38.29500 1.32100 26.29200
H  32.27600 2.78900 26.11300
H  34.66700 4.37800 34.35700
H  36.62300 2.13000 34.28500
H  36.76600 4.88700 34.96900
H  38.15200 4.62600 33.92200
H  37.94700 3.63900 35.36000
H  34.57000 1.43100 34.85800
H  33.23200 2.06600 33.96600
H  33.45900 1.81600 36.72000
H  32.53100 3.16300 35.98600
H  40.42000 1.54000 32.34800
H  41.53300 1.66700 31.06900
H  40.94400 0.15600 31.32300
H  42.52700 1.23600 28.77200
H  42.53000 -0.14900 27.63400
H  41.69700 -0.35900 29.18400
H  36.40900 0.83400 24.77800
H  34.07500 2.34600 24.40300
H  35.79000 3.40300 23.77400
H  37.37500 2.62200 23.78400
H  36.90400 3.65300 25.10100
H  33.23900 -0.09100 25.88500
H  34.52300 -0.37600 24.66700
H  32.27300 1.10200 23.37700
H  31.75100 -0.34100 24.28600
H  32.93400 -0.48600 23.00500
H  29.85000 4.87200 27.48200
H  29.18300 3.94100 28.75800
H  29.81800 3.01300 27.46700
H  31.33100 3.56300 33.22200
H  30.80600 7.25900 35.26600
H  32.52900 6.79300 35.24300
H  31.41500 6.00300 36.35900

