158

Mg 24.08200 -4.63500 45.96200
C  26.38600 -2.48000 44.35200
C  21.72500 -3.53200 43.83200
C  22.13400 -7.33000 46.86800
C  26.81400 -6.11100 47.68900
N  24.10600 -3.17800 44.25700
C  25.08400 -2.38000 43.82700
C  24.74300 -1.67200 42.63100
C  23.13600 -1.77000 42.59800
C  22.89200 -2.86000 43.64700
C  22.19000 -0.54800 42.97400
C  25.42500 -2.27600 41.34900
C  26.22600 -1.33300 40.50100
H  25.84700 -1.27400 39.02500
N  22.13600 -5.28700 45.51200
C  21.34200 -4.66300 44.64400
C  20.05800 -5.30900 44.64400
C  20.08500 -6.41000 45.56600
C  21.45300 -6.36500 46.10000
C  19.00300 -5.04800 43.59700
C  19.03000 -7.43000 45.78800
O  18.02500 -7.46100 45.05700
C  19.01900 -8.43200 46.89700
N  24.45800 -6.60000 47.06600
C  23.47600 -7.51400 47.24300
C  24.03000 -8.65600 48.11400
C  25.33200 -8.08900 48.66400
C  25.58600 -6.85000 47.76600
C  23.22000 -9.33200 49.23900
C  26.50300 -9.09300 48.57800
C  27.20600 -9.31400 49.93800
N  26.16800 -4.27400 46.12800
C  27.10200 -4.95800 46.88500
C  28.43000 -4.32500 46.71500
C  28.16300 -3.36400 45.73800
C  26.76000 -3.32200 45.48500
C  29.77900 -4.71500 47.25500
C  28.80700 -2.36200 44.91000
O  29.95100 -2.11600 44.76200
C  27.66000 -1.81700 43.95000
C  27.59200 -0.33000 44.02600
O  27.41400 0.30400 45.07700
O  27.70900 0.26300 42.85000
C  27.73000 1.74300 42.91600
H  20.96600 -3.16000 43.14000
H  21.49900 -8.10600 47.30100
H  27.67600 -6.34000 48.31800
H  24.97000 -0.61600 42.77000
H  22.82000 -2.06200 41.59600
H  22.49200 0.34200 42.42100
H  22.18000 -0.33900 44.04400
H  21.23500 -0.99500 42.69900
H  24.64000 -2.70500 40.72500
H  26.02100 -3.12700 41.68000
H  27.28700 -1.52900 40.65800
H  25.97000 -0.32000 40.80900
H  18.63800 -5.96300 43.13100
H  19.28800 -4.44100 42.73800
H  18.09000 -4.61000 43.99900
H  19.27900 -8.01100 47.86900
H  19.77800 -9.15500 46.59700
H  18.02200 -8.84700 47.04700
H  24.29100 -9.47500 47.44300
H  25.20300 -7.64500 49.65200
H  23.03000 -10.38200 49.01300
H  22.21400 -8.91600 49.18000
H  23.66800 -9.24300 50.22900
H  27.19400 -8.80800 47.78600
H  26.10500 -10.08600 48.36700
H  27.53600 -8.37700 50.38700
H  28.09700 -9.85200 49.61500
H  26.63500 -9.99700 50.56700
H  30.56200 -4.32300 46.60600
H  29.89100 -5.79300 47.13700
H  29.97000 -4.32600 48.25500
H  27.91500 -2.04700 42.91600
H  28.76000 2.06100 43.07900
H  27.06000 2.15200 43.67200
H  27.34800 1.99000 41.92600
Mg -3.13500 35.31600 27.27100
C  -4.95700 33.50800 29.69700
C  -2.16400 37.38900 29.84400
C  -1.56300 37.07300 24.98300
C  -4.24400 33.11400 24.88400
N  -3.46100 35.40800 29.51000
C  -4.20900 34.53100 30.24500
C  -3.93600 34.72200 31.73700
C  -3.22700 36.12100 31.72600
C  -2.99700 36.38300 30.27100
C  -4.18400 37.21300 32.24800
C  -3.27100 33.54400 32.53600
C  -4.17600 32.98600 33.67800
H  -3.83100 33.58700 35.07000
N  -2.05700 36.98700 27.39700
C  -1.65400 37.63000 28.54500
C  -0.58700 38.60600 28.15400
C  -0.44300 38.52400 26.77200
C  -1.34600 37.45700 26.34300
C  0.06300 39.47600 29.16200
C  0.44200 39.35000 25.81700
O  0.55300 39.12500 24.63100
C  1.14800 40.55200 26.25800
N  -3.11500 35.19800 25.17400
C  -2.31800 36.04200 24.46100
C  -2.31000 35.62100 22.97400
C  -2.96200 34.25900 22.97600
C  -3.44400 34.15500 24.43200
C  -3.06200 36.70000 22.08500
C  -2.16600 33.02100 22.44900
C  -2.94000 31.87300 21.96000
N  -4.41300 33.66900 27.27000
C  -4.76300 32.85000 26.19500
C  -5.73000 31.91700 26.57800
C  -5.82800 32.11300 28.02000
C  -4.99400 33.20300 28.33000
C  -6.44000 30.85500 25.74500
C  -6.48500 31.61100 29.17000
O  -7.20500 30.64100 29.26200
C  -5.90900 32.47200 30.35400
C  -7.00700 33.08400 31.09700
O  -7.50300 34.15900 30.80600
O  -7.54400 32.10700 31.95000
C  -8.72200 32.58400 32.69100
H  -1.80900 38.11500 30.57900
H  -1.01500 37.42000 24.10400
H  -4.50700 32.31900 24.18200
H  -4.89700 34.95600 32.19600
H  -2.25700 36.07800 32.22100
H  -5.13400 37.13700 31.71800
H  -3.81100 38.19200 31.94600
H  -4.30700 37.18400 33.33100
H  -2.41000 33.95100 33.06500
H  -2.90000 32.74700 31.89200
H  -4.21200 31.89800 33.74300
H  -5.24700 33.04900 33.48700
H  1.14400 39.59600 29.22700
H  -0.31000 39.49400 30.18600
H  -0.39800 40.38100 28.76600
H  0.49300 41.27000 26.75100
H  1.69700 40.93500 25.39700
H  1.88900 40.34400 27.02900
H  -1.30000 35.46600 22.59400
H  -3.84100 34.39900 22.34600
H  -2.93200 37.67800 22.54700
H  -4.12300 36.55600 21.87600
H  -2.58500 36.63700 21.10700
H  -1.66800 32.73300 23.37500
H  -1.35000 33.36900 21.81500
H  -2.82700 30.96900 22.55900
H  -2.62400 31.55600 20.96600
H  -3.99500 32.13800 22.02700
H  -6.69400 29.94700 26.29100
H  -5.73300 30.70800 24.92800
H  -7.32900 31.25800 25.25900
H  -5.45000 31.78300 31.06300
H  -9.28000 31.70100 33.00300
H  -9.43200 33.17600 32.11500
H  -8.47100 33.20100 33.55400

