158

Mg 1.36900 -1.69200 43.27400
C  4.72200 -0.83400 42.73500
C  0.36800 1.12900 41.62800
C  -1.78100 -2.90200 43.34600
C  2.37400 -4.79800 44.57600
N  2.43200 -0.13400 42.21500
C  3.82000 0.05800 42.07400
C  4.13900 1.35200 41.40600
C  2.68300 1.96400 41.24100
C  1.77100 0.89900 41.82000
C  2.36400 3.39100 41.77100
C  4.94800 1.31200 40.12900
C  4.21000 0.75600 38.88200
H  4.91000 0.04400 37.80500
N  -0.47300 -0.93600 42.64100
C  -0.71900 0.29600 42.07400
C  -2.08400 0.49500 41.83800
C  -2.67600 -0.78500 42.21600
C  -1.66000 -1.61500 42.81200
C  -2.62000 1.71100 41.14500
C  -4.08100 -1.04700 41.95200
O  -4.86300 -0.17400 41.55500
C  -4.76700 -2.31100 42.32700
N  0.39800 -3.67600 43.81000
C  -0.92100 -3.77000 43.96700
C  -1.34400 -5.17600 44.45700
C  -0.02500 -5.67700 45.02900
C  1.03200 -4.69200 44.39400
C  -2.56600 -5.38800 45.37400
C  0.20100 -7.21800 44.83100
C  0.79200 -8.00900 45.97700
N  3.07100 -2.65200 43.59900
C  3.37800 -3.87500 44.26600
C  4.81100 -4.02900 44.52500
C  5.29100 -2.87000 43.88200
C  4.24500 -2.04800 43.42300
C  5.55400 -5.06400 45.22900
C  6.56200 -2.24500 43.60600
O  7.67600 -2.64300 43.98600
C  6.27300 -0.91800 42.75800
C  7.12800 0.24400 43.34400
O  7.78900 1.03900 42.71000
O  6.94000 0.30900 44.75700
C  7.80500 1.34200 45.38200
H  0.10800 2.08100 41.15900
H  -2.82100 -3.17800 43.53400
H  2.58300 -5.77000 45.03000
H  4.56200 2.02000 42.15700
H  2.46400 1.92500 40.17400
H  1.60800 3.42600 42.55500
H  2.07600 4.00500 40.91700
H  3.28200 3.85300 42.13500
H  5.82600 0.70800 40.35700
H  5.28000 2.34400 40.01400
H  3.78200 1.66800 38.46700
H  3.42300 0.03300 39.09800
H  -3.61900 2.11400 41.31500
H  -2.57200 1.55300 40.06700
H  -1.95700 2.57200 41.23500
H  -5.84300 -2.36100 42.16100
H  -4.70500 -2.42900 43.40900
H  -4.28400 -3.16600 41.85400
H  -1.63900 -5.78400 43.60200
H  0.06800 -5.48600 46.09800
H  -2.91200 -6.39000 45.12000
H  -3.31600 -4.60200 45.28400
H  -2.31600 -5.42100 46.43400
H  0.72100 -7.45100 43.90200
H  -0.76900 -7.63500 44.55800
H  1.65700 -8.53300 45.56900
H  0.06600 -8.72200 46.36800
H  1.07200 -7.38100 46.82300
H  6.24500 -4.66200 45.97000
H  6.05300 -5.73000 44.52500
H  4.75200 -5.61400 45.72000
H  6.71600 -1.08300 41.77600
H  7.91100 1.11000 46.44200
H  7.22900 2.25600 45.23300
H  8.82900 1.37300 45.01000
Mg -11.89900 17.33100 39.63400
C  -8.57000 15.89200 39.60700
C  -10.42100 20.44400 39.13700
C  -14.85500 18.56400 38.74900
C  -13.04300 14.06800 39.45900
N  -9.69600 18.04100 39.41100
C  -8.54400 17.33900 39.49700
C  -7.35100 18.26200 39.49200
C  -8.00600 19.65700 39.67600
C  -9.52700 19.39100 39.46800
C  -7.76300 20.38700 41.03700
C  -6.60700 18.08700 38.08900
C  -5.17400 17.57200 38.18400
H  -4.92000 16.28900 37.50500
N  -12.68800 19.23200 39.19000
C  -11.85800 20.39300 39.00400
C  -12.68000 21.55100 38.80600
C  -14.01600 21.03100 38.53000
C  -13.90800 19.57800 38.78700
C  -12.14700 22.94600 38.87000
C  -15.28200 21.73900 38.07100
O  -15.25000 22.98900 37.98700
C  -16.58600 21.07200 37.86100
N  -13.70900 16.41100 39.10300
C  -14.80100 17.16400 38.92800
C  -16.06400 16.33500 39.20000
C  -15.47900 14.83700 39.10700
C  -13.99600 15.08400 39.24900
C  -16.72000 16.64100 40.56700
C  -15.70300 14.03400 37.79400
C  -17.12000 13.46700 37.63300
N  -11.07000 15.38600 39.59500
C  -11.67100 14.15300 39.61400
C  -10.77400 13.12300 39.90900
C  -9.52200 13.71700 39.89200
C  -9.78600 15.12600 39.66300
C  -11.16600 11.63100 40.10300
C  -8.10000 13.50400 39.95000
O  -7.37500 12.52000 40.20300
C  -7.47300 14.87200 39.73100
C  -6.68000 15.20100 40.91100
O  -7.15400 15.82200 41.87100
O  -5.38600 14.81400 40.75000
C  -4.45000 15.16900 41.83600
H  -9.90500 21.40500 39.06800
H  -15.88800 18.91900 38.76000
H  -13.45800 13.06300 39.55800
H  -6.66600 17.99200 40.29600
H  -7.62400 20.27500 38.86300
H  -7.74500 19.60200 41.79200
H  -8.54100 21.11700 41.26100
H  -6.81400 20.92300 41.01500
H  -6.45400 19.05200 37.60600
H  -7.27000 17.52500 37.43200
H  -4.98400 17.43300 39.24800
H  -4.49000 18.38300 37.93400
H  -11.93100 23.25500 37.84700
H  -11.31700 22.93600 39.57700
H  -12.97800 23.50500 39.30100
H  -16.38800 20.29600 37.12200
H  -17.36000 21.70400 37.42600
H  -16.96600 20.67500 38.80200
H  -16.75700 16.55800 38.38800
H  -15.93200 14.27100 39.92100
H  -15.91300 16.70500 41.29800
H  -17.39600 15.80400 40.74200
H  -17.18100 17.62200 40.68300
H  -14.81900 13.43200 37.58500
H  -15.71700 14.72700 36.95200
H  -17.60000 13.35300 38.60500
H  -16.82900 12.48800 37.25300
H  -17.75000 14.05400 36.96400
H  -10.61600 11.12600 39.30800
H  -12.23100 11.57500 39.87700
H  -11.02700 11.16000 41.07600
H  -6.77200 15.03700 38.91200
H  -3.44300 14.92000 41.49900
H  -4.73600 14.72800 42.79100
H  -4.43200 16.25700 41.89600

