158

Mg 17.28500 -1.18000 28.61100
C  15.78400 0.87200 31.06300
C  19.06900 -2.78300 31.07500
C  18.78300 -2.88100 26.22700
C  15.83300 0.90800 26.17300
N  17.28700 -1.05400 30.88000
C  16.61800 -0.10300 31.67800
C  16.92100 -0.29800 33.15700
C  18.29300 -1.18100 33.01900
C  18.27100 -1.75900 31.54800
C  19.55800 -0.27600 33.36900
C  15.80000 -0.98300 33.97500
C  15.81500 -0.70500 35.49500
H  16.99700 -0.09600 36.24300
N  18.66400 -2.70500 28.63900
C  19.23600 -3.26000 29.73900
C  20.08700 -4.28500 29.32900
C  19.98100 -4.38300 27.92500
C  19.10700 -3.24300 27.50300
C  20.89200 -5.07300 30.40000
C  20.75100 -5.28600 26.96000
O  20.70500 -5.17300 25.76100
C  21.54500 -6.51600 27.45700
N  17.46800 -0.83400 26.52100
C  17.98100 -1.85100 25.78500
C  17.83900 -1.54200 24.29800
C  16.95000 -0.30400 24.22600
C  16.68400 -0.03400 25.71000
C  19.21500 -1.57100 23.49400
C  15.68000 -0.38200 23.25800
C  14.27000 -0.91900 23.64600
N  16.01300 0.48000 28.60800
C  15.52300 1.22200 27.49700
C  14.67400 2.27700 27.98200
C  14.81700 2.21000 29.37100
C  15.56300 1.09100 29.70300
C  13.97700 3.34500 27.14700
C  14.51000 2.89300 30.59000
O  13.96500 3.98400 30.81300
C  15.10800 2.05800 31.80200
C  16.01400 2.75600 32.67500
O  17.12500 3.07800 32.38100
O  15.33100 3.15400 33.88000
C  16.12900 3.87200 34.85600
H  19.63200 -3.31600 31.84400
H  19.18000 -3.57500 25.48400
H  15.30000 1.52400 25.44600
H  17.19500 0.62600 33.66400
H  18.38800 -2.02600 33.70100
H  20.36000 -0.82900 32.87900
H  19.69700 -0.24200 34.44900
H  19.47200 0.77500 33.09100
H  15.88600 -2.06000 33.82600
H  14.89000 -0.76500 33.41700
H  15.64300 -1.72500 35.83900
H  14.96000 -0.15400 35.88500
H  20.29000 -5.82600 30.90900
H  21.27400 -4.38900 31.15800
H  21.77300 -5.50100 29.92100
H  21.91200 -7.14000 26.64200
H  20.94700 -7.14200 28.11900
H  22.34000 -6.09000 28.07000
H  17.23400 -2.35000 23.88700
H  17.59300 0.51700 23.91100
H  20.08900 -1.50100 24.14200
H  19.37100 -0.66700 22.90500
H  19.19500 -2.47400 22.88300
H  15.97800 -0.91800 22.35700
H  15.48800 0.61400 22.85700
H  13.59000 -0.10100 23.88500
H  14.47700 -1.64500 24.43100
H  14.00300 -1.45600 22.73600
H  14.64400 3.42600 26.28900
H  13.79000 4.35800 27.50300
H  13.00800 2.92400 26.87900
H  14.24600 1.64800 32.32700
H  17.14100 4.08200 34.50900
H  16.12000 3.25500 35.75400
H  15.64500 4.80400 35.14800
Mg 45.32100 4.60200 48.69000
C  43.31400 7.35500 48.18400
C  42.53500 2.69900 48.34900
C  47.27700 1.81800 48.73800
C  48.18500 6.61100 48.46800
N  43.17100 4.97600 48.28400
C  42.58800 6.19600 48.17200
C  41.10200 6.06000 47.72800
C  40.78900 4.60500 48.21000
C  42.23200 4.05800 48.47300
C  39.82800 4.49800 49.35200
C  40.91600 6.36600 46.25500
C  39.81100 7.41000 45.91800
H  39.06900 7.28800 44.62600
N  44.95800 2.57800 48.45500
C  43.75700 2.00700 48.22000
C  43.97000 0.64100 47.90700
C  45.36400 0.28200 47.99700
C  45.92300 1.53700 48.50500
C  42.86800 -0.32700 47.52400
C  45.94600 -1.04000 47.78000
O  45.29000 -1.99700 47.43900
C  47.43500 -1.28400 47.93800
N  47.47300 4.27900 48.46200
C  47.98500 3.00200 48.65100
C  49.50300 3.16500 48.90500
C  49.72300 4.68800 48.86800
C  48.40600 5.25500 48.54500
C  50.17600 2.38300 50.12100
C  50.76100 5.23300 47.72900
C  51.77500 6.19000 48.40100
N  45.69000 6.52300 48.50800
C  46.89200 7.22300 48.51600
C  46.63900 8.67700 48.41800
C  45.22500 8.69500 48.19700
C  44.70800 7.41500 48.33600
C  47.67400 9.83300 48.35700
C  44.16500 9.61900 47.85700
O  44.32100 10.80800 47.62800
C  42.84900 8.80700 47.96100
C  42.18900 9.41700 49.09400
O  42.24600 8.98400 50.18500
O  41.28800 10.44900 48.80500
C  40.18500 10.58400 49.74600
H  41.69000 2.02900 48.17900
H  48.00800 1.03000 48.93000
H  49.10700 7.13300 48.73200
H  40.47200 6.64200 48.40000
H  40.45100 3.88600 47.46300
H  39.49000 5.49200 49.64500
H  40.11600 4.02600 50.29100
H  38.95200 3.91400 49.07100
H  40.64600 5.46900 45.69800
H  41.86700 6.79200 45.93700
H  40.38100 8.33700 45.85600
H  39.14100 7.54400 46.76700
H  43.22300 -0.85900 46.64100
H  41.94500 0.14700 47.19200
H  42.59000 -0.92300 48.39300
H  47.71800 -1.27000 48.99000
H  47.95800 -0.50600 47.38000
H  47.67700 -2.25500 47.50600
H  49.83300 2.57200 48.05200
H  49.97500 4.98500 49.88700
H  50.72600 1.49300 49.81800
H  49.42500 1.98800 50.80500
H  50.67600 3.21300 50.62000
H  50.29400 5.71000 46.86700
H  51.24800 4.35200 47.31200
H  52.79200 5.80700 48.48500
H  51.54300 6.41000 49.44300
H  51.81800 7.12900 47.84900
H  47.23900 10.72100 47.90000
H  48.43100 9.54800 47.62600
H  48.08300 10.03700 49.34700
H  42.32100 8.85600 47.00900
H  39.62600 11.51900 49.70700
H  40.57800 10.43700 50.75200
H  39.55000 9.72300 49.53900

