158

Mg 45.34800 4.62500 47.57000
C  43.70100 7.69600 47.00100
C  42.54600 2.90600 46.65600
C  47.37400 1.93300 46.93600
C  48.29300 6.59500 48.03600
N  43.46700 5.19100 46.80800
C  43.00400 6.54800 46.72600
C  41.47600 6.46600 46.29000
C  41.10700 5.00900 46.62400
C  42.46400 4.33900 46.67000
C  40.28000 4.61200 47.84300
C  41.48100 6.84200 44.83500
C  40.63200 8.03600 44.41100
H  39.76800 7.89300 43.12600
N  44.98400 2.72900 47.07200
C  43.76400 2.18300 46.83500
C  43.91100 0.75500 46.60500
C  45.31100 0.54000 46.57300
C  45.98100 1.73600 46.97700
C  42.77100 -0.14500 46.21700
C  45.93100 -0.81600 46.25500
O  45.20000 -1.77500 46.14400
C  47.44700 -1.17000 46.17200
N  47.52000 4.24000 47.34900
C  48.11000 3.01800 47.19300
C  49.62100 3.06300 47.66900
C  49.86400 4.60000 47.76800
C  48.44700 5.21000 47.71800
C  50.03100 2.28300 48.93000
C  50.87900 5.18300 46.75600
C  52.34900 4.82800 47.18600
N  45.96400 6.70500 47.51100
C  47.13400 7.32900 47.85900
C  46.97100 8.80500 47.91600
C  45.56700 8.95800 47.68100
C  45.04600 7.72500 47.41200
C  48.16200 9.70200 48.26500
C  44.50000 9.94600 47.60300
O  44.56500 11.17000 47.77100
C  43.21300 9.18400 47.15600
C  42.22200 9.48800 48.28900
O  42.04300 8.81100 49.25800
O  41.38700 10.59300 47.93700
C  40.41400 10.92000 48.88500
H  41.63900 2.34600 46.41900
H  48.11200 1.13800 47.06400
H  49.24200 7.05900 48.31200
H  40.92500 7.17600 46.90700
H  40.53500 4.53900 45.82400
H  39.67800 5.45100 48.19200
H  40.94700 4.40700 48.68000
H  39.58200 3.83900 47.51800
H  41.09600 5.90000 44.44500
H  42.49100 6.95100 44.44200
H  41.28000 8.91200 44.43800
H  39.87600 8.07900 45.19500
H  41.80600 0.36200 46.19000
H  42.67900 -1.00900 46.87400
H  43.12600 -0.42000 45.22300
H  47.93900 -1.10900 47.14300
H  47.94500 -0.52700 45.44700
H  47.60000 -2.19600 45.83700
H  50.18100 2.63100 46.84000
H  50.16100 4.80400 48.79700
H  50.55500 1.40400 48.55500
H  49.18900 1.77800 49.40400
H  50.77200 2.73900 49.58600
H  50.75300 6.26400 46.82400
H  50.70300 4.78600 45.75600
H  52.45800 3.95200 47.82500
H  52.77800 5.62500 47.79300
H  52.92300 4.86300 46.26000
H  48.51100 9.59300 49.29200
H  47.75900 10.70800 48.38200
H  48.86600 9.61700 47.43700
H  42.93300 9.63000 46.20200
H  39.71200 11.64900 48.48100
H  41.02000 11.46200 49.61200
H  39.86800 10.09100 49.33500
Mg 16.56700 51.82000 26.40800
C  18.47500 50.83000 29.20200
C  14.08400 52.75000 28.46900
C  14.85900 52.82100 23.65900
C  19.21300 50.86600 24.34800
N  16.33900 51.85000 28.55100
C  17.22000 51.40000 29.53700
C  16.65500 51.58100 30.93500
C  15.15000 51.89000 30.61000
C  15.19400 52.17800 29.10800
C  14.05500 50.82300 30.99500
C  17.40600 52.65500 31.78600
C  17.80800 52.21000 33.15600
H  16.80700 52.70100 34.20100
N  14.78000 52.75700 26.15200
C  13.84300 53.01400 27.12800
C  12.72300 53.73100 26.54200
C  12.91000 53.74600 25.14100
C  14.19800 53.02900 24.95400
C  11.54600 54.30300 27.39400
C  12.07200 54.36700 24.02600
O  12.39100 54.37300 22.87900
C  10.68200 54.95200 24.31800
N  16.89000 51.68500 24.29100
C  16.05700 52.24700 23.36900
C  16.68800 52.29300 21.95500
C  18.08200 51.65900 22.20900
C  18.12600 51.47800 23.69500
C  15.84400 51.67300 20.85400
C  19.33100 52.50600 21.75200
C  20.29300 51.90500 20.72900
N  18.39000 50.82500 26.65600
C  19.38200 50.54700 25.72500
C  20.55100 49.92000 26.39100
C  20.24300 50.07800 27.76400
C  18.90900 50.58900 27.86200
C  21.85100 49.44200 25.81900
C  20.72000 49.88000 29.11300
O  21.84000 49.52300 29.49400
C  19.56400 50.20000 30.13000
C  19.14100 48.94000 30.83800
O  18.65400 47.95600 30.31100
O  19.21700 49.14900 32.16700
C  18.73800 48.05500 33.08600
H  13.32800 53.08200 29.18400
H  14.37300 53.07200 22.71400
H  20.10900 50.60100 23.78400
H  16.74000 50.60500 31.41200
H  14.85300 52.79700 31.13800
H  13.47000 51.12400 31.86500
H  14.59200 49.87700 31.05500
H  13.36600 50.67900 30.16200
H  16.90200 53.62100 31.79600
H  18.37200 52.83200 31.31300
H  18.77900 52.63500 33.41100
H  17.90800 51.12700 33.22800
H  10.62500 53.87600 26.99700
H  11.55200 55.38700 27.28600
H  11.57900 53.99300 28.43800
H  10.20500 55.09100 23.34800
H  10.89200 55.76800 25.00900
H  10.07600 54.11300 24.66100
H  16.83600 53.35300 21.75300
H  18.15300 50.67400 21.74700
H  16.19200 50.73600 20.41800
H  15.73400 52.50800 20.16200
H  14.92000 51.35200 21.33600
H  19.86100 52.92900 22.60500
H  18.96400 53.40500 21.25600
H  21.18100 52.53600 20.75900
H  19.81500 51.99900 19.75400
H  20.44400 50.83400 20.86900
H  21.72600 48.51600 25.25800
H  22.59800 49.36900 26.61000
H  22.07100 50.15300 25.02200
H  20.07200 50.83300 30.85600
H  17.68700 48.29900 33.24000
H  19.23300 48.06600 34.05700
H  18.88300 47.06200 32.66200

