158

Mg 16.48300 -2.57000 28.15900
C  15.89500 -0.44200 30.90300
C  17.83400 -4.81300 30.41900
C  17.66000 -4.42200 25.50700
C  15.29600 -0.35000 26.07500
N  16.91400 -2.61200 30.48300
C  16.52200 -1.63900 31.27900
C  16.86000 -2.04600 32.75000
C  17.77900 -3.32500 32.55000
C  17.46300 -3.65900 31.09200
C  19.29900 -2.96700 32.77600
C  15.61900 -2.45400 33.56900
C  15.36800 -1.65500 34.87600
H  16.66800 -1.19400 35.64700
N  17.51000 -4.44500 27.97300
C  17.84500 -5.22300 29.01700
C  18.38200 -6.47800 28.48500
C  18.24400 -6.42200 27.04400
C  17.77200 -5.03900 26.77300
C  18.88300 -7.57600 29.36200
C  18.58600 -7.47600 25.97500
O  18.38000 -7.27800 24.74700
C  19.24500 -8.77700 26.51900
N  16.55400 -2.33400 26.08700
C  17.07600 -3.22800 25.19000
C  16.95300 -2.72600 23.77400
C  15.88000 -1.62600 23.97800
C  15.80700 -1.46500 25.48400
C  18.27100 -2.18000 23.21400
C  14.40000 -1.77800 23.38300
C  13.11300 -1.97100 24.22000
N  15.71900 -0.76700 28.34100
C  15.26600 0.03800 27.38400
C  14.67600 1.17300 27.93800
C  14.87900 1.08200 29.34900
C  15.57500 -0.13900 29.48000
C  13.99300 2.29800 27.22800
C  14.68600 1.59300 30.67700
O  14.16800 2.63700 31.04500
C  15.37800 0.63600 31.72800
C  16.41700 1.48600 32.33200
O  17.58900 1.41800 32.03300
O  15.85300 2.42600 33.13500
C  16.70400 3.48900 33.67500
H  18.26400 -5.46800 31.17900
H  18.05000 -5.05300 24.70600
H  14.90400 0.44700 25.44000
H  17.39300 -1.20400 33.19200
H  17.74700 -4.13100 33.28400
H  19.51500 -1.96500 33.14600
H  19.86200 -3.15900 31.86200
H  19.66000 -3.54700 33.62400
H  15.46200 -3.53200 33.58700
H  14.88900 -2.05900 32.86200
H  14.91600 -2.25500 35.66500
H  14.69300 -0.88400 34.50600
H  18.50500 -8.58400 29.19600
H  18.42000 -7.44000 30.33900
H  19.95700 -7.51800 29.54300
H  20.04200 -8.52600 27.21900
H  19.72400 -9.31900 25.70400
H  18.50000 -9.43100 26.97300
H  16.51100 -3.54600 23.20800
H  16.16400 -0.67400 23.52700
H  18.95800 -1.83000 23.98500
H  18.10800 -1.30600 22.58300
H  19.01400 -2.77100 22.67800
H  14.38400 -2.57100 22.63400
H  14.19300 -0.84500 22.85900
H  12.74200 -1.02900 24.62500
H  13.31900 -2.51800 25.14000
H  12.44400 -2.55000 23.58400
H  12.98600 1.93900 27.01300
H  14.56400 2.51300 26.32500
H  13.95700 3.25100 27.75500
H  14.69800 0.28000 32.50200
H  16.09500 4.05200 34.38200
H  17.01800 4.17400 32.88700
H  17.59000 3.02200 34.10500
Mg 16.09100 51.47300 25.38900
C  17.80600 50.64900 28.32700
C  13.61500 52.80100 27.34700
C  14.32300 52.06200 22.64900
C  18.64800 49.74700 23.55900
N  15.85100 51.78100 27.53500
C  16.60400 51.26500 28.56800
C  16.04500 51.61500 29.97600
C  14.64500 52.29800 29.68000
C  14.69700 52.35400 28.10200
C  13.40800 51.54300 30.22800
C  17.05600 52.53200 30.86600
C  17.02400 52.53500 32.37800
H  15.96200 51.70700 33.09400
N  14.28500 52.37300 24.98300
C  13.37900 52.78700 25.93500
C  12.26500 53.39300 25.30900
C  12.45600 53.26100 23.90100
C  13.70700 52.55300 23.78400
C  11.11800 54.13600 25.97400
C  11.63900 53.87700 22.77100
O  11.92700 53.61800 21.60200
C  10.32800 54.54900 22.97000
N  16.43000 50.93300 23.47700
C  15.51700 51.30300 22.45700
C  16.04000 51.02100 20.94500
C  17.38500 50.20700 21.32600
C  17.54400 50.36200 22.89400
C  14.98600 50.34500 20.03200
C  18.67600 50.68300 20.65400
C  19.31700 51.93000 21.14200
N  17.87200 50.39000 25.80700
C  18.79800 49.79300 24.97800
C  19.95200 49.43200 25.73100
C  19.64100 49.61600 27.08000
C  18.34800 50.29800 27.06000
C  21.08700 48.71600 25.13800
C  20.06200 49.44100 28.46200
O  20.98200 48.89400 29.00600
C  18.87500 50.05600 29.30800
C  18.35000 49.03100 30.26700
O  17.27400 48.43600 30.25000
O  19.20300 48.84700 31.26300
C  18.85000 47.92700 32.39100
H  12.76200 53.09200 27.96400
H  13.87000 52.11900 21.65700
H  19.51600 49.24100 23.13200
H  15.92700 50.67300 30.51200
H  14.73300 53.31600 30.05900
H  12.69200 51.14100 29.51100
H  12.85900 52.27800 30.81600
H  13.87000 50.86400 30.94400
H  16.81000 53.56000 30.59900
H  18.07400 52.36400 30.51400
H  16.93700 53.59900 32.60100
H  18.01800 52.22500 32.70000
H  10.15600 53.73200 25.66100
H  11.31600 55.18000 25.73400
H  11.07200 53.98800 27.05300
H  9.90100 54.59600 21.96800
H  10.39000 55.58100 23.31500
H  9.66500 53.95300 23.59700
H  16.33600 52.01100 20.59800
H  17.26000 49.13900 21.14800
H  14.50800 51.03100 19.33300
H  14.27700 49.69400 20.54300
H  15.57200 49.67000 19.40900
H  18.20700 50.86400 19.68600
H  19.39800 49.92700 20.34300
H  20.30100 51.63900 21.50800
H  18.77400 52.49300 21.90200
H  19.38800 52.63500 20.31400
H  20.75000 48.01900 24.37000
H  21.48700 48.02900 25.88400
H  21.81200 49.42600 24.74000
H  19.53400 50.70400 29.88600
H  17.94300 48.21100 32.92600
H  19.70900 47.84800 33.05800
H  18.69300 46.97300 31.88800

