158

Mg -1.46100 17.77700 26.97600
C  -2.00300 15.83300 29.78400
C  -2.18500 20.53000 29.03800
C  -1.71700 19.82400 24.26500
C  -2.09500 14.99900 24.91900
N  -2.02500 18.16600 29.17200
C  -1.98300 17.18800 30.14900
C  -2.14400 17.78500 31.57300
C  -2.63500 19.25300 31.24900
C  -2.28700 19.35800 29.71100
C  -4.19300 19.60400 31.49700
C  -0.93800 17.75800 32.51500
C  -1.45500 17.56800 34.04100
H  -0.49200 16.78400 34.86900
N  -1.66800 19.86400 26.68700
C  -1.96300 20.81600 27.66500
C  -1.93100 22.13700 27.02600
C  -1.66000 21.86500 25.72500
C  -1.67300 20.46500 25.46900
C  -2.15300 23.41200 27.66100
C  -1.20700 22.83400 24.58800
O  -0.88000 22.60900 23.45200
C  -1.31300 24.32300 24.95800
N  -1.91100 17.39800 24.91900
C  -1.73700 18.40700 24.02500
C  -1.75300 17.86800 22.52200
C  -1.83200 16.30400 22.76700
C  -1.99900 16.17000 24.29000
C  -2.89800 18.51500 21.72300
C  -0.65800 15.53000 22.18800
C  0.74700 15.77600 22.82400
N  -1.82800 15.76900 27.24500
C  -2.03500 14.72600 26.33200
C  -2.22300 13.52100 27.05600
C  -2.19600 13.90300 28.46300
C  -1.92700 15.25900 28.49400
C  -2.34100 12.13600 26.47700
C  -2.35000 13.36200 29.80100
O  -2.62900 12.24100 30.20600
C  -2.37800 14.67900 30.73600
C  -1.35000 14.35200 31.77200
O  -0.15500 14.61000 31.66700
O  -1.89800 13.76500 32.94700
C  -0.91700 13.30500 33.94400
H  -2.45000 21.37500 29.67800
H  -1.73300 20.43800 23.36200
H  -2.33300 14.14200 24.28600
H  -3.05300 17.33000 31.96600
H  -2.07400 19.95000 31.87200
H  -4.27300 20.22700 32.38800
H  -4.68300 18.65300 31.70600
H  -4.67900 20.15700 30.69300
H  -0.39200 18.68400 32.33800
H  -0.20100 16.97700 32.32600
H  -2.51500 17.32200 34.09400
H  -1.40500 18.56300 34.48200
H  -1.23600 23.98300 27.80300
H  -2.38800 23.17600 28.69900
H  -2.97500 24.01000 27.26600
H  -2.37700 24.55300 25.02200
H  -0.85700 24.84000 24.11400
H  -0.67200 24.63300 25.78300
H  -0.79500 18.18800 22.11200
H  -2.79600 15.97800 22.37800
H  -3.80700 17.93100 21.86600
H  -2.66000 18.53700 20.66000
H  -3.14000 19.49200 22.14100
H  -0.86800 15.72000 21.13500
H  -0.90800 14.48000 22.33800
H  0.67800 16.25300 23.80100
H  1.35100 16.28300 22.07100
H  1.25200 14.82500 22.99300
H  -1.40100 11.58900 26.55800
H  -2.61600 12.14100 25.42200
H  -3.09800 11.63300 27.07800
H  -3.31100 14.77800 31.29100
H  -0.38000 12.49000 33.45800
H  -1.42200 12.86600 34.80500
H  -0.19600 14.04800 34.28500
Mg -4.77900 25.81600 26.10700
C  -3.56900 27.62800 28.84900
C  -6.41400 23.67100 28.24000
C  -5.84100 24.02100 23.35100
C  -2.57500 27.61600 24.00400
N  -4.80500 25.58800 28.22800
C  -4.36700 26.48100 29.19600
C  -4.79100 25.90300 30.64200
C  -5.27200 24.50900 30.34600
C  -5.52700 24.57800 28.85800
C  -4.43200 23.34300 30.89800
C  -5.91600 26.88000 31.10700
C  -6.60400 26.64400 32.48500
H  -5.97100 25.66200 33.53300
N  -6.08600 24.11600 25.80100
C  -6.69700 23.45100 26.82600
C  -7.63700 22.52200 26.24500
C  -7.48900 22.53300 24.79000
C  -6.47300 23.60300 24.51400
C  -8.54300 21.71200 27.12700
C  -8.10800 21.61400 23.76000
O  -7.79400 21.61800 22.54800
C  -9.03500 20.47900 24.13800
N  -4.25500 25.81500 23.94700
C  -4.73600 24.87500 23.09900
C  -4.15200 25.10200 21.71500
C  -2.97000 26.16500 21.94100
C  -3.30400 26.58200 23.39100
C  -3.63300 23.75200 20.98700
C  -3.04800 27.42700 20.98500
C  -2.43000 27.24300 19.58100
N  -3.40500 27.35900 26.30000
C  -2.62600 28.06500 25.40200
C  -1.88000 29.11000 26.11300
C  -2.20500 28.99700 27.47500
C  -3.09900 27.91000 27.50700
C  -1.07000 30.10700 25.48700
C  -2.01700 29.52900 28.80600
O  -1.28600 30.46200 29.18400
C  -2.91300 28.66300 29.72400
C  -2.02200 28.07400 30.77500
O  -1.00500 27.49700 30.61600
O  -2.73900 28.25500 31.98600
C  -2.09500 27.62800 33.22400
H  -6.82500 22.94200 28.94100
H  -6.22500 23.55700 22.43900
H  -1.73800 28.10800 23.50500
H  -3.98100 25.80000 31.36500
H  -6.30200 24.42700 30.69300
H  -4.94200 22.91300 31.76100
H  -3.49100 23.73800 31.28100
H  -4.30000 22.57900 30.13200
H  -6.67900 26.78300 30.33500
H  -5.55300 27.90600 31.05600
H  -7.65400 26.42600 32.29100
H  -6.59100 27.65100 32.90300
H  -9.54400 21.80500 26.70400
H  -8.62300 22.14200 28.12500
H  -8.25600 20.66000 27.11200
H  -10.05600 20.82800 24.29000
H  -8.61600 19.89600 24.95900
H  -9.12900 19.86200 23.24500
H  -4.91800 25.47900 21.03800
H  -2.00700 25.65400 21.95000
H  -2.55200 23.65300 20.88500
H  -4.05300 23.65000 19.98700
H  -3.96500 22.94400 21.63900
H  -2.45700 28.24200 21.40100
H  -4.05200 27.80700 20.79000
H  -1.38500 27.55300 19.61000
H  -3.00000 27.85600 18.88300
H  -2.42700 26.18000 19.34100
H  -1.62500 31.03600 25.36300
H  -0.76800 29.71400 24.51600
H  -0.14100 30.23400 26.04300
H  -3.65300 29.32300 30.17800
H  -2.02600 26.57100 32.96500
H  -2.82600 27.66900 34.03100
H  -1.06600 27.91300 33.44500

