158

Mg 8.63700 2.87400 27.70600
C  9.98900 1.26300 30.52000
C  6.56400 4.73300 29.64800
C  7.35200 4.31700 24.93700
C  10.50900 0.67800 25.76900
N  8.33000 2.97200 29.79300
C  8.99100 2.20400 30.73200
C  8.64600 2.75300 32.16000
C  7.53300 3.77300 31.85800
C  7.36700 3.75300 30.31500
C  6.30200 3.67900 32.70800
C  9.85700 3.40700 32.88600
C  9.48100 4.27500 34.08300
H  10.28800 4.03700 35.39700
N  7.12500 4.40200 27.31900
C  6.47000 5.11400 28.30300
C  5.80100 6.20100 27.62100
C  6.07600 6.13400 26.21500
C  6.96400 4.93100 26.13400
C  5.03500 7.28300 28.43500
C  5.48500 6.90900 25.03400
O  5.64100 6.55300 23.91000
C  4.50100 7.98700 25.33700
N  8.74500 2.49100 25.65400
C  8.18000 3.20600 24.69100
C  8.56900 2.79000 23.25700
C  9.59500 1.68200 23.54300
C  9.69800 1.62600 25.10700
C  7.34000 2.51000 22.38500
C  11.01800 1.80300 22.93600
C  11.61400 0.48700 22.28000
N  9.92700 1.20900 28.00300
C  10.65200 0.43600 27.15700
C  11.49700 -0.50200 27.81900
C  11.16600 -0.26900 29.21400
C  10.31300 0.79400 29.23200
C  12.43700 -1.53100 27.15700
C  11.46700 -0.61500 30.55400
O  12.13400 -1.53000 31.02200
C  10.73200 0.41000 31.46500
C  9.91800 -0.29600 32.56400
O  9.02400 -1.09800 32.27300
O  10.22500 0.17600 33.79900
C  9.44400 -0.45200 34.90400
H  5.88800 5.38200 30.20900
H  7.22500 4.71200 23.92700
H  11.13200 0.18200 25.02200
H  8.40700 1.92300 32.82600
H  7.81800 4.81000 32.03400
H  5.99000 4.67100 33.03700
H  6.52500 3.03300 33.55700
H  5.47500 3.30300 32.10500
H  10.42500 3.99800 32.16800
H  10.56800 2.62100 33.14300
H  8.41000 4.34500 34.27200
H  9.78900 5.27900 33.79100
H  5.41900 8.29600 28.31400
H  5.16200 7.12700 29.50600
H  3.97200 7.28800 28.19500
H  5.00500 8.70300 25.98700
H  3.70900 7.50000 25.90500
H  4.10800 8.56700 24.50200
H  9.00300 3.65400 22.75300
H  9.20800 0.76500 23.09700
H  6.40900 2.72000 22.91200
H  7.44700 1.49500 22.00200
H  7.50800 3.16300 21.52900
H  11.63800 2.10100 23.78200
H  11.01800 2.62000 22.21300
H  12.18900 0.67900 21.37400
H  10.78700 -0.17300 22.01900
H  12.25700 0.04900 23.04300
H  12.00600 -2.52900 27.24200
H  13.48000 -1.59800 27.46500
H  12.46700 -1.31600 26.08900
H  11.51300 0.90900 32.03900
H  10.24800 -0.58000 35.62900
H  9.03500 -1.45500 34.77400
H  8.65400 0.05600 35.45700
Mg 30.56600 58.21000 39.52000
C  27.64700 56.44100 38.54000
C  32.30000 55.52600 38.68200
C  33.10900 60.25900 39.56000
C  28.39700 61.09200 39.99600
N  29.96900 56.20800 38.77000
C  28.77900 55.71100 38.35800
C  28.88500 54.35800 37.61500
C  30.29900 53.89900 38.14600
C  30.93600 55.27200 38.64900
C  30.36700 52.77700 39.16700
C  28.76600 54.63000 36.12500
C  27.49900 54.08500 35.45400
H  26.68000 54.99200 34.52900
N  32.46500 57.94000 39.10000
C  33.03500 56.72400 38.86100
C  34.44500 56.91100 38.74700
C  34.71000 58.27100 39.00700
C  33.44100 58.90300 39.21100
C  35.43600 55.76200 38.37800
C  36.11600 59.04000 39.11100
O  37.16400 58.39600 38.89900
C  36.27700 60.49200 39.30600
N  30.70700 60.33900 39.85200
C  31.90500 60.91900 39.81400
C  31.90900 62.39000 40.42000
C  30.34400 62.70400 40.38800
C  29.77500 61.30200 40.16100
C  32.54000 62.56500 41.80700
C  29.88400 63.79000 39.35600
C  29.70500 65.26400 39.89300
N  28.43400 58.66900 39.41000
C  27.74400 59.89500 39.68000
C  26.31600 59.66200 39.58700
C  26.22600 58.31000 39.10800
C  27.55700 57.77300 39.08400
C  25.24700 60.69400 39.71400
C  25.27400 57.24400 38.74200
O  24.05000 57.26400 38.60600
C  26.16800 56.03600 38.43600
C  25.84600 54.89600 39.33100
O  26.44800 54.59300 40.30900
O  24.71100 54.29300 38.79000
C  24.04900 53.32300 39.69400
H  32.96800 54.69200 38.45500
H  33.91600 60.99300 39.58500
H  27.76800 61.97900 40.08800
H  28.13800 53.66500 38.00200
H  30.77500 53.52900 37.23800
H  29.37500 52.38800 39.39300
H  30.64500 53.14900 40.15400
H  31.07100 52.03300 38.79400
H  29.55700 54.22000 35.49700
H  28.85200 55.70500 35.96300
H  26.88000 53.60800 36.21300
H  27.80800 53.27100 34.79800
H  36.47000 56.10700 38.39100
H  35.08600 55.49200 37.38200
H  35.24800 54.87600 38.98500
H  35.90200 60.93500 40.22900
H  35.87500 61.06400 38.47000
H  37.35200 60.66200 39.23700
H  32.50100 63.01900 39.75600
H  30.04900 63.00600 41.39300
H  32.75300 61.51300 41.99600
H  31.95400 63.12600 42.53400
H  33.40700 63.22500 41.81100
H  29.02300 63.47100 38.76700
H  30.76300 63.93000 38.72700
H  30.59800 65.86600 39.72500
H  29.46300 65.18300 40.95300
H  28.90800 65.71100 39.29900
H  25.01800 60.80900 40.77400
H  24.34500 60.56800 39.11400
H  25.70200 61.62300 39.37200
H  25.88600 55.83200 37.40300
H  22.98700 53.55900 39.76600
H  24.38400 53.33700 40.73100
H  24.06200 52.30100 39.31400

