158

Mg 9.36300 3.30000 27.70200
C  10.38000 1.67100 30.50100
C  7.73500 5.59600 29.78000
C  8.45100 5.01700 24.89400
C  10.71100 0.70600 25.67300
N  9.00200 3.54600 29.88000
C  9.74400 2.89200 30.75800
C  9.56700 3.48000 32.23500
C  8.43600 4.59400 31.95400
C  8.28600 4.54900 30.42000
C  7.14100 4.22700 32.72000
C  10.84500 4.04100 32.91800
C  10.68500 4.19200 34.44200
H  11.41500 3.19200 35.37500
N  8.19600 5.08200 27.37000
C  7.65900 5.92500 28.36400
C  6.95400 7.02000 27.67000
C  7.08900 6.89400 26.27300
C  7.98300 5.65400 26.12400
C  6.16500 8.08200 28.43100
C  6.55800 7.73100 25.14800
O  6.81700 7.54600 23.94500
C  5.75300 8.92000 25.44400
N  9.43200 2.79400 25.59100
C  9.13200 3.75700 24.69200
C  9.43500 3.24800 23.27000
C  10.27900 1.99600 23.51100
C  10.14100 1.77500 25.01300
C  8.25700 3.05600 22.27700
C  11.75500 2.20900 23.09300
C  11.97000 2.37300 21.61400
N  10.20800 1.37300 28.02600
C  10.86200 0.57700 27.10300
C  11.51500 -0.46900 27.90100
C  11.43900 -0.08300 29.23400
C  10.56500 1.05500 29.24100
C  12.22000 -1.65400 27.22800
C  11.88000 -0.36200 30.61600
O  12.53600 -1.31700 31.05200
C  11.26300 0.77400 31.45600
C  10.50300 0.14700 32.55600
O  9.50300 -0.50800 32.30700
O  11.06100 0.46300 33.78700
C  10.43000 -0.13400 34.99000
H  7.27700 6.37700 30.39200
H  8.22700 5.38000 23.88900
H  11.22800 -0.08500 25.12500
H  9.16700 2.63400 32.79300
H  8.83900 5.56700 32.23800
H  6.38400 3.83900 32.03800
H  6.75900 5.10300 33.24500
H  7.25000 3.50700 33.53100
H  11.03100 5.02200 32.48000
H  11.65100 3.38900 32.58100
H  9.62900 4.05700 34.67800
H  10.97100 5.20800 34.71400
H  6.68200 8.99600 28.72400
H  5.83700 7.58800 29.34600
H  5.30400 8.30100 27.79900
H  4.71300 8.61200 25.55400
H  5.62100 9.52800 24.54900
H  6.04600 9.61100 26.23500
H  10.08700 4.04000 22.89900
H  9.93600 1.06300 23.06600
H  7.32900 3.39800 22.73600
H  8.22100 2.01500 21.95500
H  8.61200 3.73100 21.49900
H  12.24400 1.28300 23.39500
H  12.11200 3.00700 23.74300
H  12.11100 3.39200 21.25200
H  11.04200 1.97300 21.20600
H  12.78900 1.79900 21.18100
H  11.52700 -2.43000 26.90500
H  12.83100 -2.17300 27.96700
H  12.74000 -1.42600 26.29800
H  12.10500 1.41300 31.72100
H  9.39500 -0.35700 34.73400
H  10.46800 0.43500 35.91900
H  10.92700 -1.06800 35.25100
Mg 0.16500 43.17500 25.81200
C  2.65300 43.01300 28.23600
C  -2.02300 42.12900 27.99500
C  -2.05500 42.97900 23.25100
C  2.68900 43.38200 23.41100
N  0.34600 42.72500 27.88500
C  1.37400 42.90400 28.72200
C  1.00900 42.88200 30.14400
C  -0.41100 42.19300 30.08400
C  -0.74600 42.31300 28.60100
C  -0.46200 40.67700 30.46900
C  0.96500 44.28500 30.84500
C  0.91900 44.26900 32.42200
H  0.83400 42.91500 33.06200
N  -1.78000 42.69400 25.67500
C  -2.50600 42.28900 26.68400
C  -3.89300 41.98600 26.24300
C  -3.99400 42.36400 24.88200
C  -2.54900 42.67800 24.53200
C  -4.98600 41.48700 27.13200
C  -5.14000 42.25600 23.91000
O  -5.01600 42.48500 22.67500
C  -6.60200 41.86000 24.35800
N  0.35000 43.32100 23.60900
C  -0.74600 43.14900 22.79900
C  -0.44300 43.61400 21.37000
C  1.08300 43.67200 21.37900
C  1.44500 43.54500 22.87100
C  -1.06700 42.69400 20.25500
C  1.56500 45.02000 20.75000
C  1.60200 46.20100 21.72100
N  2.29400 43.14600 25.81900
C  3.14600 43.26600 24.77400
C  4.50400 43.21300 25.24900
C  4.41200 43.03900 26.64900
C  3.04400 43.06600 26.89500
C  5.76300 43.22200 24.38200
C  5.16600 42.87200 27.90700
O  6.36400 42.75900 28.17200
C  3.99300 42.88700 28.97400
C  4.08300 41.60400 29.74700
O  3.48800 40.55700 29.64000
O  5.05900 41.97900 30.67000
C  5.00300 41.12100 31.78600
H  -2.80500 41.73800 28.64900
H  -2.76700 43.06000 22.42700
H  3.46800 43.52400 22.65900
H  1.77000 42.20300 30.52900
H  -1.08900 42.80100 30.68200
H  0.38300 40.33800 31.06700
H  -0.53300 40.02000 29.60300
H  -1.40200 40.50000 30.99200
H  0.10600 44.79000 30.40300
H  1.83400 44.84400 30.49600
H  0.12900 44.88800 32.84900
H  1.87600 44.73700 32.65100
H  -5.76100 42.22600 27.33700
H  -4.65000 40.94800 28.01800
H  -5.56500 40.79000 26.52600
H  -6.94400 42.48900 25.18000
H  -6.47700 40.80700 24.61300
H  -7.28700 41.91500 23.51300
H  -0.86300 44.60900 21.22600
H  1.40500 42.71800 20.96100
H  -1.46000 41.73500 20.59400
H  -0.17200 42.40000 19.70500
H  -1.80400 43.13800 19.58600
H  0.93200 45.38000 19.93900
H  2.60700 44.96700 20.43300
H  2.65600 46.32200 21.97100
H  1.03000 45.94000 22.61100
H  1.15800 47.06200 21.22000
H  5.48300 43.30000 23.33100
H  6.31900 42.30800 24.59000
H  6.40200 44.05300 24.67900
H  4.27800 43.75600 29.56700
H  5.15900 40.08800 31.47500
H  3.97400 41.15300 32.14300
H  5.47800 41.48900 32.69600

