158

Mg 31.58600 58.64300 40.81700
C  28.92400 56.82100 39.55800
C  33.72500 56.09800 39.64100
C  34.14300 60.69700 41.18900
C  29.27000 61.48000 40.86000
N  31.33200 56.68200 39.72100
C  30.17700 56.15500 39.30300
C  30.35900 54.89400 38.52300
C  31.84800 54.55200 38.74900
C  32.35900 55.82200 39.42600
C  32.21800 53.21300 39.50300
C  29.93200 54.96600 37.01500
C  28.71700 54.08000 36.56500
H  27.60500 54.79900 35.63600
N  33.68200 58.30800 40.74000
C  34.41800 57.22900 40.21500
C  35.82100 57.44500 40.30200
C  35.98600 58.72700 40.84000
C  34.59400 59.31500 40.98900
C  36.85400 56.44100 39.90800
C  37.31800 59.36200 41.09900
O  38.39900 58.82400 40.85400
C  37.34100 60.67400 41.64700
N  31.66200 60.78100 41.20200
C  32.89600 61.37400 41.31200
C  32.74300 62.91500 41.31800
C  31.20800 63.18300 41.02300
C  30.67800 61.72400 40.99000
C  33.23600 63.73100 42.50500
C  30.90300 64.06300 39.81400
C  29.93000 65.17200 40.08100
N  29.48700 59.10000 40.45800
C  28.68000 60.21500 40.80100
C  27.27500 59.81000 40.65800
C  27.39900 58.47300 40.28800
C  28.70000 58.12100 40.06800
C  26.10700 60.72600 40.74800
C  26.59100 57.32100 39.86100
O  25.39400 57.13000 39.66000
C  27.54300 56.26600 39.46400
C  27.31400 55.06700 40.35500
O  27.61500 55.08800 41.53700
O  26.58200 53.99800 39.78600
C  26.03800 53.09900 40.76500
H  34.37800 55.32000 39.23800
H  34.95400 61.35500 41.50800
H  28.78900 62.44900 40.70900
H  29.82600 54.10000 39.04600
H  32.42300 54.65100 37.82900
H  32.97200 52.80500 38.82900
H  31.43500 52.48400 39.29300
H  32.57900 53.14300 40.53000
H  30.73400 54.75400 36.30700
H  29.52800 55.96000 36.82500
H  28.29700 53.59400 37.44600
H  29.01400 53.21300 35.97400
H  37.52900 56.74200 39.10800
H  36.40300 55.50600 39.57400
H  37.52800 56.28800 40.75100
H  36.81300 60.61400 42.59900
H  36.99700 61.42100 40.93200
H  38.35200 60.80000 42.03400
H  33.24500 63.28600 40.42400
H  30.70200 63.61000 41.88900
H  32.71900 63.38400 43.40000
H  33.00600 64.79500 42.44100
H  34.30300 63.52700 42.59900
H  30.33100 63.60100 39.01000
H  31.74600 64.55800 39.33100
H  30.30600 66.05700 39.56800
H  29.84300 65.23500 41.16600
H  28.99100 64.78200 39.69000
H  26.10100 61.36400 39.86400
H  26.17700 61.47200 41.53900
H  25.16800 60.18600 40.86700
H  27.38400 56.03000 38.41200
H  26.57700 52.18400 41.01100
H  25.20900 52.70400 40.17800
H  25.55700 53.55700 41.63000
Mg 0.26500 43.39100 25.81200
C  2.31100 43.10200 28.84700
C  -2.36400 42.62100 27.81800
C  -1.47200 43.33200 23.12000
C  3.31700 43.88500 24.00500
N  0.05200 42.80100 28.13000
C  0.97800 42.87300 29.12000
C  0.27500 42.65600 30.42000
C  -1.16900 42.15400 30.02300
C  -1.17500 42.65900 28.58000
C  -1.50000 40.70300 30.22500
C  0.35300 43.99400 31.32200
C  0.68400 43.91900 32.84700
H  0.71500 42.50100 33.48200
N  -1.65200 42.99900 25.51100
C  -2.62800 42.64400 26.47500
C  -3.87900 42.52100 25.80900
C  -3.66200 42.83700 24.42700
C  -2.21500 43.03100 24.31500
C  -5.15900 42.30300 26.43700
C  -4.71000 42.91500 23.30700
O  -4.33100 42.97600 22.13200
C  -6.24800 42.70400 23.61900
N  0.84100 43.66900 23.87200
C  -0.11300 43.55700 22.91900
C  0.46000 43.75700 21.51700
C  2.01600 43.97600 21.77400
C  2.08000 43.90200 23.25700
C  0.26200 42.49000 20.53900
C  2.52600 45.33500 21.22700
C  2.01500 46.59500 21.87300
N  2.35600 43.41500 26.21400
C  3.42300 43.72700 25.36900
C  4.67200 43.73200 26.20200
C  4.26600 43.45200 27.50700
C  2.85400 43.35700 27.50400
C  6.04400 44.08800 25.64900
C  4.73800 43.50900 28.87700
O  5.85300 43.73000 29.27600
C  3.53600 43.12600 29.85400
C  3.67100 41.72500 30.33800
O  3.48500 40.69300 29.73200
O  4.01300 41.76500 31.68400
C  4.25300 40.44300 32.27200
H  -3.32500 42.45300 28.30800
H  -2.06700 43.29600 22.20400
H  4.28700 43.96300 23.51100
H  0.83300 41.89800 30.97000
H  -1.85100 42.79600 30.58000
H  -0.64000 40.11200 30.54000
H  -1.81700 40.12700 29.35500
H  -2.26000 40.52000 30.98500
H  -0.58000 44.53000 31.15000
H  1.15800 44.60200 30.91000
H  0.00700 44.56100 33.41100
H  1.59500 44.42800 33.16100
H  -5.21500 41.94200 27.46400
H  -5.56900 41.48600 25.84400
H  -5.86200 43.13600 26.41600
H  -6.63500 43.40300 24.36100
H  -6.34600 41.68400 23.98900
H  -6.72800 42.81400 22.64600
H  -0.00600 44.59600 21.00200
H  2.59100 43.12200 21.41700
H  -0.78900 42.54100 20.25500
H  0.41700 41.52800 21.02800
H  0.90500 42.57300 19.66300
H  2.36600 45.36800 20.14900
H  3.61200 45.42400 21.26900
H  1.87900 47.26800 21.02700
H  2.73800 47.00900 22.57600
H  1.06300 46.46200 22.38600
H  6.21300 43.66100 24.66000
H  6.80300 43.80900 26.38000
H  6.12100 45.16200 25.47400
H  3.53400 43.90700 30.61400
H  4.46400 39.65000 31.55500
H  3.36700 40.17900 32.85000
H  5.13300 40.57600 32.90200

