158

Mg 39.89400 8.99800 29.16100
C  41.88900 10.30000 31.84000
C  37.88800 7.57900 31.52100
C  38.47800 7.44100 26.62800
C  42.56700 9.96700 26.96800
N  39.93400 9.00900 31.41800
C  40.73900 9.64500 32.30000
C  40.24400 9.47400 33.74100
C  39.02800 8.52400 33.62700
C  38.97400 8.27000 32.08700
C  38.87800 7.21000 34.42900
C  39.87800 10.86000 34.34600
C  38.74200 11.01200 35.39800
H  39.14300 11.79600 36.60700
N  38.34000 7.79900 29.02400
C  37.57100 7.43800 30.11100
C  36.48300 6.62000 29.61100
C  36.53400 6.69000 28.17200
C  37.86900 7.22500 27.87200
C  35.49100 5.85700 30.47300
C  35.56500 6.11000 27.15300
O  35.93200 5.98700 26.01900
C  34.17000 5.63100 27.46400
N  40.44200 8.67900 27.17700
C  39.63900 8.06000 26.26900
C  40.05300 8.27900 24.80500
C  41.39400 9.10500 24.89600
C  41.54200 9.25300 26.42900
C  40.20900 6.96100 24.03200
C  41.27000 10.50100 24.13000
C  40.09300 11.42500 24.50200
N  41.84800 9.97800 29.31900
C  42.82700 10.22500 28.36300
C  43.95500 10.97700 28.94900
C  43.61300 11.00600 30.31500
C  42.36300 10.41100 30.47100
C  45.22000 11.43400 28.31200
C  44.00000 11.47500 31.66400
O  44.93300 12.14800 32.07400
C  42.95700 11.04400 32.59600
C  43.50400 10.25800 33.70100
O  43.55600 9.03300 33.79500
O  43.64800 11.07400 34.81100
C  43.99100 10.56400 36.17100
H  37.10300 7.21900 32.19000
H  37.83800 7.13500 25.79800
H  43.33500 10.39000 26.31700
H  41.05600 9.01000 34.30100
H  38.13800 9.12100 33.82200
H  39.39900 6.42300 33.88300
H  37.82200 7.00300 34.60000
H  39.39000 7.29900 35.38700
H  39.96000 11.58700 33.53700
H  40.77400 11.00100 34.95000
H  38.39800 10.07100 35.82800
H  37.91000 11.50400 34.89300
H  35.58500 4.90100 29.95800
H  34.47700 6.24900 30.39000
H  35.68000 5.68200 31.53200
H  33.80900 6.45700 28.07700
H  34.26800 4.62800 27.87900
H  33.59800 5.57800 26.53700
H  39.23500 8.84000 24.35300
H  42.31600 8.70300 24.47500
H  39.61300 7.02100 23.12200
H  39.84500 6.17000 24.68800
H  41.22000 6.66600 23.75100
H  41.15000 10.35200 23.05700
H  42.15000 11.08700 24.39600
H  40.37700 12.44400 24.76600
H  39.69100 11.20500 25.49100
H  39.33100 11.34600 23.72700
H  45.25400 11.32000 27.22800
H  46.09200 11.02900 28.82600
H  45.23900 12.49400 28.56400
H  42.43000 11.91600 32.98200
H  43.06600 10.60000 36.74500
H  44.73000 11.16200 36.70500
H  44.23600 9.50300 36.12100
Mg 46.61200 16.00600 28.35500
C  44.30100 15.53900 31.00700
C  48.70900 17.47700 30.62900
C  48.49900 16.53200 25.79600
C  43.88400 14.87700 26.15900
N  46.49000 16.54000 30.52400
C  45.49300 16.06800 31.38100
C  45.85500 16.50300 32.85500
C  47.23500 17.22900 32.73900
C  47.48800 17.09000 31.21900
C  47.20300 18.76900 33.12100
C  46.06600 15.23800 33.73000
C  45.38400 15.40200 35.13500
H  45.23000 16.79500 35.71700
N  48.35800 16.88000 28.15900
C  49.14600 17.37500 29.24000
C  50.42800 17.86400 28.79100
C  50.41800 17.61700 27.38900
C  49.07900 16.95700 27.05300
C  51.39700 18.43200 29.79500
C  51.54700 17.66700 26.39600
O  51.31100 17.47000 25.23200
C  52.90400 18.17000 26.74200
N  46.30700 15.70500 26.30400
C  47.27200 16.00000 25.40500
C  46.70300 15.86400 24.00600
C  45.31100 15.14600 24.16200
C  45.14100 15.31500 25.60500
C  46.52600 17.28600 23.34000
C  45.36000 13.68200 23.61900
C  44.22600 13.31300 22.71100
N  44.58800 15.14600 28.50400
C  43.69000 14.68700 27.52700
C  42.58700 14.02300 28.19200
C  42.76900 14.39600 29.56500
C  43.97400 15.09300 29.64500
C  41.35500 13.48300 27.58700
C  42.14100 14.44700 30.88700
O  41.05800 14.08700 31.27500
C  43.14900 15.12600 31.85800
C  42.48300 16.22500 32.57400
O  42.47000 17.39900 32.24600
O  41.85300 15.76800 33.72400
C  41.23200 16.66000 34.76400
H  49.42000 17.81100 31.38700
H  49.07100 16.51500 24.86600
H  43.12000 14.51100 25.46900
H  45.04100 17.18400 33.10400
H  48.04400 16.76700 33.30500
H  46.21700 18.97000 33.53900
H  47.31100 19.39100 32.23200
H  47.95000 19.15500 33.81500
H  47.12500 14.99300 33.81000
H  45.67200 14.43200 33.11000
H  46.04900 14.76700 35.72000
H  44.43100 14.87400 35.16800
H  52.45200 18.39100 29.52300
H  51.44500 17.86300 30.72300
H  51.13800 19.43900 30.12300
H  53.20600 17.39300 27.44500
H  52.82900 19.07700 27.34200
H  53.57200 18.40000 25.91200
H  47.45200 15.28400 23.46700
H  44.53000 15.69300 23.63400
H  46.36400 17.21400 22.26500
H  47.33200 17.99000 23.55100
H  45.65400 17.63100 23.89600
H  45.54000 12.96900 24.42400
H  46.24600 13.65400 22.98400
H  44.44500 12.53900 21.97600
H  44.00600 14.24300 22.18700
H  43.38100 13.03600 23.34300
H  41.63200 12.65300 26.93700
H  40.84500 14.24200 26.99300
H  40.56700 13.12400 28.24900
H  43.60400 14.40800 32.53900
H  40.26300 16.18200 34.90400
H  41.13400 17.70500 34.46800
H  41.88100 16.70600 35.63900

