158

Mg 26.40400 49.56500 25.61600
C  24.57400 50.94100 28.33100
C  28.65900 48.40300 28.02100
C  28.15600 48.31200 23.17800
C  24.03100 50.90300 23.42600
N  26.56600 49.76600 27.99500
C  25.67100 50.27300 28.83500
C  25.97500 49.93000 30.27400
C  27.40100 49.28900 30.15900
C  27.52400 49.06300 28.63000
C  28.67100 50.07300 30.65000
C  24.85100 49.09600 30.98900
C  25.33200 48.32600 32.29700
H  24.70400 48.52300 33.64000
N  28.25600 48.43400 25.59200
C  29.02000 48.09200 26.65700
C  30.24600 47.36200 26.09100
C  30.10000 47.34200 24.63400
C  28.81900 48.06800 24.41400
C  31.36000 46.88200 26.98100
C  31.11700 46.86700 23.53900
O  30.88100 47.13000 22.35000
C  32.44600 46.24100 23.85400
N  26.14500 49.65700 23.51600
C  26.97000 48.86700 22.78800
C  26.47000 48.89900 21.26900
C  25.07400 49.58900 21.42900
C  25.10000 50.17800 22.83300
C  27.41100 49.50200 20.18000
C  23.82500 48.73300 21.07500
C  23.60700 47.50000 21.96300
N  24.72300 50.79800 25.78200
C  23.85400 51.32600 24.80300
C  22.88000 52.13000 25.49100
C  23.09400 51.94100 26.86700
C  24.24800 51.17600 26.97300
C  21.74600 52.85500 24.82600
C  22.55600 52.24800 28.15500
O  21.51000 52.74700 28.51500
C  23.53500 51.57700 29.16800
C  24.04200 52.58400 30.10900
O  24.84600 53.41400 29.78900
O  23.51500 52.37600 31.35600
C  23.96500 53.33200 32.36400
H  29.38000 47.98800 28.72900
H  28.63100 47.76700 22.35900
H  23.28700 51.28700 22.72600
H  25.98600 50.88500 30.79800
H  27.48200 48.34200 30.69300
H  29.17700 50.38300 29.73600
H  29.21800 49.27000 31.14400
H  28.37700 50.90000 31.29600
H  24.33000 48.47300 30.26100
H  24.08900 49.81700 31.28500
H  26.35400 48.66300 32.46500
H  25.39100 47.26700 32.04500
H  32.33900 46.70900 26.53300
H  30.89800 46.09000 27.57100
H  31.48700 47.73100 27.65300
H  32.83200 45.71300 22.98200
H  32.15600 45.46500 24.56200
H  33.19700 46.89700 24.29300
H  26.21800 47.88500 20.95900
H  25.04000 50.44300 20.75300
H  26.98000 50.36200 19.66700
H  27.45000 48.77300 19.37000
H  28.38900 49.59500 20.65100
H  23.74800 48.45500 20.02400
H  22.93700 49.33600 21.26400
H  24.07800 47.73600 22.91700
H  24.21600 46.66000 21.62900
H  22.52900 47.36600 22.05100
H  22.12800 53.47700 24.01700
H  21.17000 53.42300 25.55700
H  21.08400 52.08600 24.42800
H  22.94300 50.82500 29.69000
H  23.60500 52.89300 33.29400
H  23.59900 54.35800 32.32900
H  25.04700 53.30500 32.49400
Mg 8.91700 48.81600 26.12900
C  7.11600 49.13100 28.93800
C  11.70000 49.98900 27.56600
C  10.58300 48.46200 23.08200
C  5.83100 48.63400 24.18900
N  9.32400 49.49500 28.05600
C  8.50800 49.40800 29.13700
C  9.26900 49.96200 30.42400
C  10.58500 50.57800 29.84700
C  10.51800 50.05700 28.33800
C  10.77900 52.06200 30.01400
C  9.62700 48.81500 31.39300
C  9.01300 48.90700 32.73700
H  8.99000 47.64400 33.49300
N  10.88400 48.99600 25.45200
C  11.92000 49.48800 26.27200
C  13.17200 49.31600 25.50500
C  12.89500 48.78600 24.17000
C  11.37500 48.67800 24.19600
C  14.54000 49.43300 26.16400
C  13.82100 48.23800 23.09800
O  13.36000 47.76200 22.03500
C  15.29700 48.32500 23.26000
N  8.25700 48.62300 23.85000
C  9.16800 48.48200 22.83500
C  8.45100 48.15200 21.46000
C  7.00300 48.60800 21.79800
C  6.94600 48.59600 23.36300
C  8.96400 48.71800 20.10400
C  5.98800 47.52800 21.22400
C  5.27100 47.94800 19.97600
N  6.90300 48.84700 26.44800
C  5.78300 48.62700 25.61100
C  4.55000 48.71000 26.45800
C  5.05400 48.91100 27.77900
C  6.45300 48.96500 27.69700
C  3.21100 48.46600 25.96500
C  4.69100 48.98800 29.12400
O  3.56100 48.89700 29.65000
C  6.00400 49.13100 29.94900
C  6.05200 47.99000 30.92900
O  6.78200 47.00300 30.82100
O  5.13100 48.24300 31.92700
C  4.83900 47.05100 32.72700
H  12.60600 50.37600 28.03700
H  11.08900 48.43300 22.11400
H  4.87700 48.46700 23.68400
H  8.69600 50.63000 31.06500
H  11.48100 50.10400 30.24900
H  10.11800 52.46200 30.78200
H  10.63800 52.62800 29.09300
H  11.78400 52.19100 30.41600
H  10.68500 48.77800 31.65100
H  9.30800 47.86400 30.96600
H  8.05700 49.43000 32.76300
H  9.54400 49.66400 33.31400
H  14.97100 48.43100 26.15500
H  14.33100 49.74000 27.18800
H  15.12200 50.23800 25.71500
H  15.64300 49.35800 23.23000
H  15.79900 47.90900 22.38600
H  15.71200 47.72700 24.07000
H  8.52500 47.06600 21.39700
H  6.80400 49.62300 21.45700
H  9.83100 49.31900 20.37900
H  8.24100 49.44000 19.72400
H  9.21800 47.96900 19.35400
H  5.19500 47.17500 21.88400
H  6.50500 46.59200 21.01100
H  5.39600 49.02200 19.83500
H  4.20800 47.72600 20.06600
H  5.83600 47.48500 19.16800
H  2.49100 48.99500 26.59000
H  2.93600 47.41200 26.00900
H  3.06700 48.76700 24.92700
H  5.95900 50.06100 30.51700
H  3.76600 46.85800 32.74000
H  5.09900 47.35500 33.74000
H  5.40300 46.16000 32.45000

