158

Mg 2.05100 -2.05900 44.81300
C  5.23100 -1.04700 43.99300
C  0.75600 0.46300 42.72200
C  -1.08900 -3.24900 45.18900
C  3.39100 -4.84000 46.36500
N  2.86700 -0.54100 43.45200
C  4.25500 -0.28600 43.27900
C  4.57700 0.90200 42.32600
C  3.10000 1.37000 41.98700
C  2.17100 0.33800 42.71700
C  2.84100 2.82500 42.41600
C  5.47200 0.32500 41.19100
C  6.75100 1.14700 40.93100
H  7.31500 1.09100 39.50400
N  0.11200 -1.41600 44.06300
C  -0.21000 -0.38300 43.28000
C  -1.68600 -0.26400 43.17400
C  -2.24500 -1.23300 43.99700
C  -1.03900 -2.04800 44.43900
C  -2.46200 0.82600 42.39900
C  -3.81000 -1.34200 44.42600
O  -4.68700 -0.60100 43.99400
C  -4.30000 -2.33600 45.36200
N  1.32800 -3.81900 45.50500
C  -0.07500 -4.03100 45.68500
C  -0.34400 -5.39200 46.28000
C  1.07600 -5.69900 46.87900
C  2.01200 -4.77000 46.14600
C  -1.54900 -5.66100 47.11400
C  1.25800 -7.25100 46.79300
C  0.97100 -8.07900 48.09000
N  3.94800 -2.86400 45.17700
C  4.39200 -3.94300 45.86800
C  5.90300 -3.88700 46.00600
C  6.16100 -2.74600 45.30500
C  5.03800 -2.20500 44.75300
C  6.79400 -4.76400 46.82500
C  7.29200 -1.90500 44.96200
O  8.46900 -1.99300 45.20600
C  6.74000 -0.70300 44.19100
C  6.92000 0.60200 44.94600
O  6.29400 0.95300 45.93300
O  7.89500 1.39700 44.42200
C  8.19500 2.69100 45.05900
H  0.43500 1.31100 42.11400
H  -2.14700 -3.51600 45.22500
H  3.86600 -5.72600 46.79200
H  5.00000 1.77600 42.82200
H  2.88100 1.22700 40.92900
H  3.52800 3.40100 41.79700
H  3.15200 3.00800 43.44400
H  1.81500 3.18600 42.34700
H  4.86500 0.49500 40.30200
H  5.67900 -0.74000 41.30000
H  7.49600 0.66600 41.56400
H  6.63000 2.17300 41.27800
H  -1.90500 1.50000 41.74800
H  -3.01200 1.57400 42.97100
H  -3.20000 0.31100 41.78400
H  -4.27900 -3.31700 44.88700
H  -5.30200 -2.06900 45.69900
H  -3.76500 -2.48500 46.30000
H  -0.57300 -6.06900 45.45600
H  1.06800 -5.48600 47.94800
H  -2.12600 -6.43200 46.60300
H  -2.14900 -4.77500 47.31900
H  -1.33700 -6.06200 48.10500
H  2.29400 -7.41200 46.49500
H  0.59900 -7.74900 46.08200
H  0.13800 -8.75000 47.87700
H  0.76600 -7.45400 48.95900
H  1.87000 -8.61500 48.39300
H  7.15200 -5.67100 46.33600
H  6.20200 -5.08800 47.68100
H  7.62600 -4.15800 47.18200
H  7.20900 -0.72400 43.20800
H  7.42900 3.34700 44.64700
H  9.18500 2.96900 44.69900
H  8.20100 2.72200 46.14900
Mg -12.07400 37.67800 41.71300
C  -9.71300 35.24900 40.93100
C  -10.12700 40.08000 40.19600
C  -14.83900 39.76400 41.76200
C  -14.13400 35.11700 43.10200
N  -10.26800 37.59900 40.49400
C  -9.38900 36.52000 40.36400
C  -8.06300 36.95100 39.70500
C  -8.19400 38.52500 39.61300
C  -9.62100 38.71500 40.08300
C  -7.13700 39.16000 40.72500
C  -7.90800 36.36900 38.25400
C  -6.50200 35.82300 37.94100
H  -5.77100 36.39100 36.73800
N  -12.44400 39.66300 41.03600
C  -11.46300 40.51000 40.46500
C  -12.07700 41.78600 40.24600
C  -13.41800 41.77900 40.79100
C  -13.63700 40.39600 41.22100
C  -11.19900 42.88400 39.64400
C  -14.37900 42.92900 40.85900
O  -13.99400 44.05700 40.42400
C  -15.81300 42.85500 41.17600
N  -14.23900 37.39700 42.20000
C  -15.08900 38.45100 42.19500
C  -16.41800 38.01000 42.69300
C  -16.24400 36.48700 43.11900
C  -14.77700 36.30900 42.77600
C  -16.89800 38.89100 43.86700
C  -17.15400 35.51800 42.29700
C  -17.96400 34.61000 43.21400
N  -11.92100 35.63600 42.04100
C  -12.80700 34.76200 42.70100
C  -12.16800 33.49200 42.77000
C  -10.95800 33.56600 42.08700
C  -10.85600 34.92200 41.69400
C  -12.81500 32.34500 43.42200
C  -9.77100 32.86800 41.59600
O  -9.38400 31.72400 41.74000
C  -8.97100 33.93100 40.78800
C  -7.52900 34.05000 41.25100
O  -6.56900 33.88300 40.52700
O  -7.46400 34.37900 42.54800
C  -6.19900 34.74200 43.17300
H  -9.47900 40.93700 40.00500
H  -15.71000 40.41800 41.83600
H  -14.78500 34.38300 43.58200
H  -7.16000 36.70700 40.26400
H  -8.12500 38.86700 38.58000
H  -7.57200 40.12100 41.00000
H  -6.20600 39.26100 40.16700
H  -6.97100 38.52800 41.59800
H  -8.30800 36.89600 37.38700
H  -8.47300 35.43800 38.21300
H  -6.68100 34.75900 37.79000
H  -5.81000 35.77000 38.78100
H  -11.79500 43.62100 39.10700
H  -10.38900 42.46300 39.04900
H  -10.58000 43.40300 40.37700
H  -16.28500 43.79000 40.87300
H  -15.83400 42.61200 42.23800
H  -16.33400 42.06800 40.63000
H  -17.11500 38.14500 41.86600
H  -16.33500 36.31200 44.19100
H  -17.38600 39.76000 43.42500
H  -15.98200 39.26600 44.32500
H  -17.60200 38.36900 44.51500
H  -16.56600 34.91500 41.60600
H  -17.80300 36.09000 41.63300
H  -17.27700 33.98100 43.77900
H  -18.56100 33.96100 42.57300
H  -18.61800 35.26300 43.79100
H  -12.10400 31.53800 43.59800
H  -13.60100 31.91500 42.80100
H  -13.28300 32.59800 44.37300
H  -8.85300 33.71200 39.72700
H  -5.51100 35.30300 42.54000
H  -5.76800 33.78900 43.48000
H  -6.47500 35.35500 44.03100

