158

Mg 7.30200 54.80900 42.17000
C  6.51300 51.47100 41.48700
C  10.47500 54.21300 40.95700
C  7.71700 58.21000 41.87000
C  3.87000 55.28500 42.62100
N  8.28600 53.08700 41.22400
C  7.82700 51.78400 41.14500
C  9.00900 50.85200 40.67300
C  10.26600 51.71400 41.00100
C  9.62700 53.10300 40.99000
C  11.04400 51.29300 42.31500
C  8.97300 50.40000 39.20100
C  8.79700 51.45500 38.07900
H  7.53900 51.24000 37.23400
N  8.95900 55.99800 41.61500
C  10.17100 55.53400 41.21500
C  11.03600 56.63400 41.00700
C  10.28300 57.81900 41.34400
C  8.91400 57.38600 41.68400
C  12.48400 56.60400 40.44100
C  10.75700 59.25900 41.45000
O  11.90500 59.53600 41.08900
C  9.96300 60.51600 41.88000
N  5.95800 56.52700 42.17200
C  6.38400 57.81800 42.03300
C  5.26200 58.85300 42.29700
C  4.02200 57.85100 42.49700
C  4.66400 56.45700 42.46300
C  5.54200 59.76800 43.52600
C  2.83000 58.06800 41.47900
C  1.58000 58.83600 41.93200
N  5.54600 53.65800 42.23900
C  4.24900 53.98900 42.52800
C  3.47800 52.83100 42.72100
C  4.33800 51.82100 42.30400
C  5.57200 52.38300 42.00400
C  2.04000 52.70000 43.18300
C  4.37400 50.36100 42.08200
O  3.51500 49.45800 42.31400
C  5.83100 50.13500 41.52100
C  5.88700 49.22300 40.40700
O  5.42100 49.49300 39.28400
O  6.61700 48.07500 40.71200
C  6.94400 47.10800 39.70000
H  11.53600 53.99600 40.82000
H  7.99100 59.26700 41.84400
H  2.82500 55.45200 42.89100
H  8.85600 49.99400 41.32700
H  10.96800 51.41100 40.22500
H  10.43200 50.66400 42.96100
H  11.24900 52.21000 42.86800
H  11.97100 50.74500 42.14200
H  8.20200 49.63400 39.12100
H  9.93600 49.95100 38.95900
H  9.70000 51.29100 37.49200
H  8.76700 52.43000 38.56500
H  12.79600 55.60500 40.13700
H  13.03700 56.97200 41.30500
H  12.73200 57.23300 39.58600
H  9.32000 60.93300 41.10400
H  10.64700 61.33500 42.09900
H  9.56500 60.25200 42.85900
H  5.14600 59.46000 41.39900
H  3.56600 57.99400 43.47600
H  5.11100 59.29000 44.40600
H  5.19100 60.77500 43.30100
H  6.60300 59.81500 43.77100
H  2.52700 57.09200 41.10100
H  3.14900 58.66700 40.62600
H  0.85600 58.08700 42.25500
H  1.03000 59.43100 41.20300
H  1.91000 59.39700 42.80600
H  1.69300 51.73600 43.55600
H  1.44100 52.87400 42.29000
H  1.95600 53.52600 43.89000
H  6.45600 49.59000 42.22800
H  7.96100 47.03000 39.31700
H  6.34800 47.17800 38.79000
H  6.79000 46.15100 40.19800
Mg -5.28400 25.41700 25.83300
C  -3.80800 26.93300 28.62000
C  -6.88600 23.22700 28.12500
C  -6.60600 23.74800 23.25900
C  -3.49700 27.44100 23.78100
N  -5.50100 25.22400 28.08400
C  -4.70900 25.92700 28.97900
C  -5.01000 25.45100 30.42000
C  -5.84000 24.16300 30.23800
C  -6.16100 24.25400 28.73000
C  -5.10600 22.88400 30.60100
C  -5.71100 26.59800 31.22300
C  -6.50100 26.36000 32.53100
H  -6.19200 25.09600 33.34100
N  -6.59700 23.70700 25.70600
C  -7.14300 22.93400 26.76600
C  -7.99900 21.95000 26.19500
C  -8.01400 22.12500 24.76900
C  -7.11100 23.23900 24.49500
C  -8.61300 20.88600 27.06600
C  -8.82700 21.34000 23.75600
O  -8.84800 21.68600 22.59000
C  -9.52100 20.02700 24.17200
N  -5.04100 25.61900 23.75900
C  -5.68600 24.80100 22.88900
C  -5.41900 25.21800 21.47300
C  -4.42300 26.36600 21.63600
C  -4.31100 26.52500 23.14100
C  -4.77900 24.03500 20.66000
C  -4.92200 27.63500 20.96500
C  -4.32900 27.83900 19.58900
N  -3.86700 26.85400 26.06200
C  -3.24500 27.60700 25.14100
C  -2.36400 28.64500 25.76800
C  -2.50200 28.37300 27.09500
C  -3.43300 27.33100 27.25600
C  -1.59400 29.70000 24.98900
C  -2.09500 28.74700 28.42100
O  -1.33000 29.64000 28.74700
C  -2.77000 27.79500 29.43700
C  -1.82000 27.01800 30.33000
O  -1.12200 26.08400 29.91100
O  -1.94400 27.48000 31.59100
C  -1.23800 26.72000 32.60200
H  -7.37600 22.61600 28.88600
H  -7.12700 23.23700 22.44600
H  -2.84100 28.05900 23.16400
H  -4.05200 25.19600 30.87200
H  -6.77800 24.34900 30.76100
H  -5.86600 22.21200 30.99900
H  -4.28000 22.95200 31.30900
H  -4.62700 22.46100 29.71700
H  -6.37300 27.15400 30.55900
H  -4.91600 27.29500 31.48900
H  -7.56900 26.38400 32.31700
H  -6.46100 27.18500 33.24200
H  -8.53300 19.88900 26.63200
H  -9.67800 21.09500 27.17100
H  -8.18200 20.75400 28.05800
H  -8.89900 19.35700 24.76500
H  -9.76000 19.50900 23.24400
H  -10.47000 20.24500 24.66200
H  -6.35700 25.54500 21.02400
H  -3.44700 26.12900 21.21200
H  -5.53900 23.46000 20.13100
H  -4.11900 23.45700 21.30700
H  -4.11000 24.42200 19.89100
H  -4.77600 28.38000 21.74700
H  -5.98500 27.46700 20.78900
H  -3.63900 27.04600 19.30400
H  -3.64300 28.68500 19.56000
H  -5.03400 28.03200 18.77900
H  -2.05300 29.92100 24.02500
H  -0.53000 29.46300 25.00600
H  -1.66700 30.58800 25.61700
H  -3.30800 28.45900 30.11300
H  -0.18700 26.74500 32.31400
H  -1.53200 25.67100 32.63100
H  -1.15800 27.30000 33.52100

