158

Mg 9.31100 48.68900 27.50800
C  7.35600 47.98900 30.32300
C  11.92900 49.28100 29.57800
C  11.20100 49.23200 24.76500
C  6.56000 48.49600 25.42500
N  9.58100 48.74100 29.75900
C  8.66300 48.39800 30.72500
C  9.26100 48.55800 32.11500
C  10.64200 49.41100 31.78400
C  10.74600 49.19600 30.28600
C  10.73300 50.84400 32.32000
C  9.53300 47.20800 32.82600
C  10.37800 47.16800 34.15100
H  10.10300 46.10800 35.25900
N  11.35800 49.08300 27.21200
C  12.29600 49.28800 28.17200
C  13.53800 49.48600 27.58200
C  13.35400 49.55600 26.16900
C  11.91000 49.27100 25.99200
C  14.74100 49.72600 28.37700
C  14.31600 49.71600 24.99900
O  14.06700 49.53200 23.78500
C  15.77400 49.96100 25.38200
N  8.90500 48.93500 25.30100
C  9.82200 49.03900 24.39400
C  9.25800 49.31900 23.03700
C  7.86600 48.75600 23.23600
C  7.72300 48.64900 24.72500
C  9.34400 50.78600 22.58800
C  7.46800 47.45400 22.41000
C  6.08100 47.50000 21.81700
N  7.41900 48.34700 27.76500
C  6.32800 48.31900 26.83000
C  5.13400 47.91000 27.49300
C  5.46400 47.81600 28.89900
C  6.87200 48.03200 28.94600
C  3.72900 47.79800 26.95800
C  4.97800 47.46300 30.20600
O  3.83500 47.08800 30.52100
C  6.24200 47.58000 31.21000
C  6.40800 46.33500 31.97000
O  6.77000 45.21600 31.55000
O  6.13800 46.61700 33.29000
C  6.48400 45.49100 34.13500
H  12.71800 49.49400 30.30200
H  11.78000 49.42500 23.86000
H  5.60900 48.39600 24.89800
H  8.50300 49.03600 32.73500
H  11.46600 48.87300 32.25400
H  9.82300 51.07800 32.87300
H  10.85500 51.49900 31.45700
H  11.56900 50.97000 33.00800
H  10.03100 46.62700 32.04900
H  8.59600 46.71300 33.08200
H  10.26900 48.11900 34.67300
H  11.41200 46.96400 33.87500
H  14.50100 49.68200 29.44000
H  15.27100 50.64200 28.11900
H  15.41700 48.89100 28.19200
H  15.83900 50.89200 25.94500
H  16.42500 50.07800 24.51500
H  16.14400 49.15400 26.01400
H  9.73600 48.83800 22.18300
H  7.17300 49.52400 22.89100
H  9.94600 50.80400 21.67900
H  9.75900 51.36200 23.41500
H  8.33600 51.15600 22.40000
H  7.58400 46.58000 23.05100
H  8.21600 47.47400 21.61700
H  6.15600 47.39400 20.73400
H  5.56700 48.45400 21.92600
H  5.50700 46.60500 22.05700
H  3.65000 48.10000 25.91300
H  2.96700 48.31500 27.54200
H  3.48800 46.73700 27.02200
H  6.10200 48.42100 31.88900
H  7.50500 45.14100 33.98100
H  5.78000 44.66300 34.05000
H  6.35800 45.81600 35.16800
Mg 0.53700 43.94500 25.84400
C  2.88200 43.46900 28.59400
C  -1.86300 42.59800 27.88700
C  -1.45000 43.77200 23.19000
C  3.33500 44.88700 23.93300
N  0.66300 43.08700 27.92600
C  1.62100 43.06400 28.90200
C  1.00400 42.88500 30.27600
C  -0.43600 42.44000 29.93600
C  -0.57600 42.72200 28.47900
C  -0.75700 40.96200 30.21000
C  1.02400 44.16900 31.21300
C  1.35400 43.81700 32.71300
H  0.80500 42.59500 33.41000
N  -1.40700 43.33100 25.62100
C  -2.24800 42.76300 26.50600
C  -3.56600 42.57700 25.89800
C  -3.43800 42.88100 24.50200
C  -2.08000 43.32100 24.38500
C  -4.72300 42.08600 26.72800
C  -4.49100 42.85000 23.49300
O  -4.27600 42.99600 22.31000
C  -5.86100 42.56200 23.93100
N  0.83800 44.23500 23.89100
C  -0.17100 44.27200 22.99000
C  0.26900 45.05900 21.70100
C  1.67200 45.58200 22.19700
C  2.02900 44.80600 23.42900
C  0.37100 44.24300 20.40400
C  1.60000 47.04500 22.52700
C  1.26900 47.90300 21.20000
N  2.68500 44.22800 26.13200
C  3.64700 44.65500 25.22800
C  4.97800 44.60500 25.91700
C  4.66600 44.29900 27.24200
C  3.31700 44.01000 27.32700
C  6.35500 44.81900 25.23000
C  5.30000 44.06800 28.55200
O  6.46000 44.03700 28.88600
C  4.07900 43.72500 29.54400
C  4.48100 42.52600 30.31000
O  4.99400 41.49900 29.83300
O  4.53300 42.80300 31.66400
C  5.22100 41.84100 32.57100
H  -2.64200 42.19800 28.54000
H  -2.02500 43.93500 22.27600
H  4.14500 45.26000 23.30300
H  1.46300 42.03700 30.78300
H  -1.10900 43.01800 30.56900
H  -1.53600 40.96900 30.97300
H  0.10400 40.38000 30.53800
H  -1.19500 40.48000 29.33600
H  0.07100 44.69500 31.26900
H  1.74400 44.90200 30.85000
H  0.99400 44.65300 33.31200
H  2.44000 43.91200 32.69600
H  -5.54400 42.80300 26.76100
H  -4.38000 42.03200 27.76100
H  -4.90900 41.08500 26.33900
H  -6.06800 41.64400 24.48000
H  -6.51500 42.64700 23.06300
H  -6.22700 43.40200 24.52100
H  -0.53500 45.77600 21.53200
H  2.46500 45.39600 21.47200
H  0.85500 44.91600 19.69500
H  -0.56700 43.92900 19.94500
H  0.91400 43.35300 20.72000
H  2.58600 47.35400 22.87600
H  0.88800 47.27400 23.32000
H  0.24800 48.24900 21.36100
H  1.18000 47.27000 20.31700
H  1.94200 48.75000 21.07200
H  6.20400 45.16900 24.20900
H  7.07500 44.03200 25.45000
H  6.80700 45.70200 25.68200
H  3.91100 44.64200 30.10900
H  5.51400 42.35700 33.48500
H  6.06700 41.42800 32.02200
H  4.59100 40.98100 32.79700

