158

Mg 2.84500 0.27700 43.52600
C  5.94200 2.01000 43.17400
C  1.26500 2.82300 41.98400
C  0.26400 -1.76400 42.88500
C  4.74000 -2.55400 44.54600
N  3.60900 1.99400 42.46100
C  4.80200 2.61700 42.52500
C  4.83300 3.93400 41.93400
C  3.32500 4.36800 41.80000
C  2.67900 3.00800 42.12500
C  2.89600 5.53600 42.79400
C  5.69300 4.21000 40.69600
C  6.51400 3.03700 40.12600
H  6.85300 3.08600 38.63000
N  0.95600 0.52800 42.80000
C  0.46900 1.71300 42.30500
C  -0.94300 1.57800 42.06200
C  -1.33000 0.23900 42.41100
C  -0.02900 -0.40900 42.72300
C  -1.82100 2.72700 41.56300
C  -2.73900 -0.46000 42.34100
O  -3.71400 0.20200 41.98000
C  -2.99300 -1.83500 42.67600
N  2.55100 -1.90800 43.56700
C  1.41600 -2.45600 43.22400
C  1.46300 -3.99000 43.47200
C  2.83100 -4.25100 44.17000
C  3.46400 -2.79000 44.07000
C  0.27700 -4.74900 44.21900
C  3.84400 -5.28600 43.63900
C  4.25300 -6.31500 44.70900
N  4.85400 -0.21200 43.91700
C  5.43600 -1.31600 44.45200
C  6.77300 -0.97900 44.94800
C  7.05400 0.30900 44.41600
C  5.84400 0.71400 43.80700
C  7.76600 -2.00100 45.63100
C  8.03500 1.29200 44.30200
O  9.26600 1.24800 44.60200
C  7.38900 2.45700 43.56000
C  7.29500 3.64500 44.44500
O  8.20900 4.46500 44.45500
O  6.05600 3.90600 45.03800
C  5.74300 5.22900 45.61300
H  0.79000 3.74700 41.64800
H  -0.57900 -2.44500 42.74700
H  5.26400 -3.39700 45.00200
H  5.24700 4.57500 42.71200
H  3.06900 4.65500 40.78000
H  2.25000 5.14400 43.57900
H  2.40900 6.29400 42.18000
H  3.76900 6.06800 43.17200
H  6.28400 5.12500 40.73600
H  5.08000 4.46800 39.83200
H  6.11600 2.05300 40.37300
H  7.48400 3.18600 40.60000
H  -2.80700 2.71700 42.02900
H  -1.90300 2.80000 40.47900
H  -1.25700 3.61000 41.86600
H  -4.04900 -2.10100 42.61400
H  -2.66700 -2.10200 43.68100
H  -2.52200 -2.52400 41.97600
H  1.45600 -4.39000 42.45800
H  2.57800 -4.32900 45.22800
H  -0.09600 -4.14400 45.04600
H  0.55300 -5.73200 44.59800
H  -0.56900 -4.97100 43.56900
H  4.65900 -4.78300 43.11800
H  3.26000 -5.89900 42.95300
H  5.26100 -6.06000 45.03500
H  4.36700 -7.32600 44.31900
H  3.65000 -6.29600 45.61700
H  7.96200 -2.89800 45.04300
H  7.40100 -2.30500 46.61200
H  8.70000 -1.45100 45.74100
H  8.01800 2.57400 42.67700
H  5.92800 5.12600 46.68200
H  4.66800 5.29600 45.44700
H  6.26300 6.09000 45.19300
Mg 7.06600 57.13100 41.37700
C  6.32600 53.80000 41.12600
C  10.23200 56.48200 40.31600
C  7.74900 60.51800 41.09800
C  3.77300 57.83000 42.09800
N  8.06900 55.36900 40.65000
C  7.56900 54.08200 40.60800
C  8.54300 53.11400 39.91300
C  9.89000 53.85100 40.07300
C  9.37700 55.35800 40.39400
C  10.84100 53.24000 41.06400
C  8.11800 52.86100 38.44000
C  8.39600 51.45300 37.78200
H  9.41000 51.14500 36.71800
N  8.78300 58.32100 40.84900
C  10.02000 57.84000 40.55200
C  10.96700 58.96500 40.36200
C  10.23900 60.18900 40.61300
C  8.90100 59.72100 40.85900
C  12.41700 58.83900 40.11000
C  10.80400 61.60600 40.56400
O  12.01200 61.86700 40.36400
C  9.90600 62.89700 40.71700
N  5.90000 58.93700 41.39100
C  6.40900 60.17600 41.38400
C  5.34700 61.24600 41.72000
C  4.07100 60.39300 42.07600
C  4.58600 58.96200 41.81000
C  5.73600 62.28200 42.83000
C  2.85400 60.82600 41.21900
C  1.40100 60.77100 41.85600
N  5.29500 56.04500 41.57700
C  4.02600 56.46200 41.93100
C  3.31100 55.22500 42.33400
C  4.19100 54.16500 42.02100
C  5.28900 54.73800 41.54500
C  1.99900 55.10500 43.11700
C  4.35200 52.72200 41.97100
O  3.73400 51.74200 42.40400
C  5.72800 52.44500 41.24400
C  5.40900 51.76400 39.98800
O  4.69700 52.22000 39.11400
O  6.02400 50.51900 39.87400
C  5.54800 49.73100 38.74500
H  11.26600 56.28800 40.02300
H  7.83400 61.60100 40.98400
H  2.77300 57.99800 42.50100
H  8.50600 52.17200 40.45900
H  10.54300 53.77700 39.20300
H  10.23100 52.78400 41.84400
H  11.43100 53.98700 41.59300
H  11.53700 52.49800 40.67300
H  8.57900 53.65300 37.85100
H  7.03500 52.85100 38.31900
H  7.42900 51.17700 37.36100
H  8.51900 50.63300 38.49100
H  12.58100 59.06400 39.05600
H  12.96100 57.95000 40.43200
H  12.79600 59.63400 40.75300
H  9.44800 62.82900 41.70400
H  9.16100 63.09500 39.94700
H  10.51800 63.79500 40.62900
H  5.29900 61.70400 40.73200
H  3.78800 60.46400 43.12600
H  5.80800 63.31800 42.49900
H  6.70600 61.97400 43.22000
H  4.98500 62.14900 43.60800
H  2.79700 60.21800 40.31600
H  2.89500 61.86100 40.87800
H  0.94100 61.66700 41.44000
H  1.40200 60.77600 42.94600
H  0.83500 59.89600 41.53600
H  1.96000 55.70400 44.02700
H  1.72100 54.08300 43.37800
H  1.20900 55.51300 42.48700
H  6.33100 51.77200 41.85300
H  4.64200 49.19900 39.03600
H  6.22700 48.95600 38.38800
H  5.22400 50.14400 37.79100

