158

Mg 9.98600 48.36400 25.18300
C  8.10400 48.61600 28.08900
C  12.68300 49.77100 27.23400
C  12.02700 48.16500 22.71700
C  7.29700 47.27900 23.47400
N  10.32200 49.19600 27.43600
C  9.32700 49.10400 28.44600
C  9.91800 49.39100 29.80600
C  11.28600 50.11700 29.40100
C  11.49700 49.58000 27.98300
C  11.30800 51.66800 29.43000
C  10.18400 48.19300 30.71400
C  9.45300 48.25100 32.08000
H  9.72900 47.16900 33.25800
N  12.05000 48.93400 25.01300
C  12.97600 49.45000 25.93600
C  14.28200 49.43600 25.35900
C  14.16700 49.01700 23.95600
C  12.68700 48.74600 23.84600
C  15.62400 49.82700 26.03900
C  15.11900 48.90400 22.77300
O  14.72300 48.78400 21.61800
C  16.55000 48.87100 23.13600
N  9.67300 47.93300 23.29200
C  10.68200 47.90300 22.44400
C  10.19400 47.09600 21.16800
C  8.70300 46.69300 21.44100
C  8.55500 47.36700 22.85700
C  10.33900 47.88600 19.83100
C  8.41800 45.18600 21.45100
C  8.65200 44.34000 22.67000
N  8.05500 48.05100 25.57400
C  7.07200 47.67800 24.77700
C  5.77900 47.70400 25.52100
C  6.16400 47.97800 26.78700
C  7.55500 48.25500 26.80300
C  4.37300 47.23300 25.11800
C  5.66000 48.10200 28.12000
O  4.48300 47.95200 28.50400
C  6.85200 48.35400 29.01500
C  6.93600 47.12000 29.84000
O  7.67300 46.13800 29.69400
O  5.99000 47.19900 30.91300
C  5.93500 46.14500 31.89200
H  13.42500 50.27600 27.85500
H  12.75500 48.03200 21.91400
H  6.44000 46.89800 22.91400
H  9.25600 50.15100 30.21900
H  12.09200 49.70000 30.00500
H  12.29400 52.00900 29.74700
H  10.58500 51.95800 30.19300
H  11.00500 52.28300 28.58300
H  11.22200 48.03700 31.00700
H  9.79200 47.31200 30.20600
H  8.38800 48.18800 31.85800
H  9.54800 49.21500 32.58100
H  15.44700 50.14400 27.06700
H  16.11100 50.62200 25.47400
H  16.30400 48.97700 26.00700
H  16.50400 48.04300 23.84400
H  16.83800 49.76800 23.68300
H  17.19600 48.84500 22.25800
H  10.78400 46.18100 21.11100
H  8.01200 47.15100 20.73300
H  11.03700 48.70400 20.00900
H  9.37900 48.21100 19.42900
H  10.76800 47.24400 19.06300
H  8.92700 44.71600 20.61000
H  7.33800 45.13900 21.31300
H  9.36200 44.90300 23.27500
H  9.15400 43.42200 22.36200
H  7.72500 44.12100 23.20000
H  4.23700 46.38500 25.78800
H  4.33100 47.13300 24.03300
H  3.53800 47.87600 25.39500
H  6.66700 49.26500 29.58400
H  5.96000 46.68900 32.83600
H  6.73400 45.40300 31.89200
H  4.99900 45.59100 31.82700
Mg 1.33700 42.64700 24.84300
C  2.33400 42.79200 28.25300
C  -1.54700 41.27000 25.90800
C  0.58700 42.20300 21.65700
C  4.57600 43.56300 23.98300
N  0.43500 42.28600 26.86400
C  0.99200 42.45800 28.12000
C  -0.00200 42.22000 29.19500
C  -1.24500 41.51000 28.44100
C  -0.75600 41.66400 26.97100
C  -1.40300 40.07800 28.81800
C  -0.38200 43.46600 30.11300
C  -0.07600 43.21900 31.64000
H  -0.63400 41.92100 32.26400
N  -0.32700 41.99300 23.93900
C  -1.40900 41.46900 24.53600
C  -2.47700 41.15300 23.49600
C  -1.80000 41.48600 22.24900
C  -0.42200 41.93000 22.60800
C  -3.94300 40.70700 23.81400
C  -2.33100 41.24400 20.89700
O  -1.67600 41.42500 19.87600
C  -3.68200 40.72000 20.72900
N  2.45100 42.71700 23.08300
C  1.86900 42.54200 21.91300
C  2.91000 42.68900 20.75700
C  4.06600 43.40600 21.51100
C  3.69000 43.22400 22.99100
C  3.30000 41.34100 20.08100
C  4.40400 44.85400 20.96700
C  3.23700 45.87700 21.14900
N  3.08900 43.06500 25.85800
C  4.29800 43.51100 25.34200
C  5.27400 43.72000 26.38700
C  4.52500 43.49100 27.58600
C  3.20600 43.06800 27.17300
C  6.66900 44.09200 26.27200
C  4.59200 43.44200 28.99300
O  5.45400 43.73500 29.79300
C  3.14300 42.87900 29.51800
C  3.49200 41.65300 30.26300
O  3.85600 40.62700 29.71900
O  3.49300 41.85600 31.63300
C  3.83200 40.68800 32.40400
H  -2.51700 40.81700 26.12400
H  0.41600 42.14400 20.58000
H  5.47800 44.01000 23.55900
H  0.51900 41.46200 29.78000
H  -2.12100 42.13600 28.60900
H  -2.46800 39.92200 28.98900
H  -0.74700 39.83400 29.65400
H  -0.93800 39.50800 28.01300
H  -1.41300 43.67800 29.83000
H  0.14300 44.35500 29.76200
H  -0.70800 43.97300 32.10900
H  0.98100 43.36500 31.86500
H  -4.05700 39.62300 23.81300
H  -4.73300 41.18900 23.23700
H  -4.12200 41.05000 24.83300
H  -3.96400 39.80100 21.24300
H  -3.87100 40.49500 19.67900
H  -4.34900 41.52400 21.03800
H  2.49400 43.30800 19.96200
H  5.02100 42.88300 21.47600
H  2.64300 40.48300 20.22600
H  4.30200 41.05000 20.39700
H  3.44400 41.54800 19.02100
H  4.54700 44.71600 19.89500
H  5.25800 45.33200 21.44700
H  2.43800 45.48300 21.77800
H  2.87400 46.26000 20.19500
H  3.62300 46.72200 21.71900
H  7.15800 43.69600 25.38100
H  7.22100 43.81300 27.16900
H  6.73600 45.18000 26.26900
H  2.66800 43.60300 30.18000
H  3.27800 39.86300 31.95500
H  3.67600 40.73900 33.48100
H  4.90500 40.51400 32.31700

