158

Mg 50.73000 46.12900 43.25200
C  47.91200 47.44800 41.67900
C  49.94500 43.14400 41.66900
C  53.83600 45.04200 43.95300
C  51.52100 49.37800 44.31300
N  49.10000 45.39700 41.84700
C  47.99800 46.09000 41.42700
C  47.09100 45.21700 40.58200
C  47.62000 43.76000 40.98000
C  48.93900 44.06200 41.58400
C  46.63600 42.98800 41.87500
C  47.23200 45.55500 39.05300
C  46.01500 46.04400 38.22900
H  45.47200 45.03300 37.20500
N  51.77700 44.30300 42.91000
C  51.21500 43.14000 42.27100
C  52.20200 42.04100 42.38200
C  53.39100 42.63500 42.95100
C  53.05500 44.07200 43.25400
C  51.92900 40.53700 42.05700
C  54.73700 41.88600 43.24000
O  54.84700 40.70300 42.88300
C  55.92200 42.53900 43.86200
N  52.42000 47.05500 43.96200
C  53.55900 46.33500 44.29000
C  54.60000 47.33800 44.84600
C  53.86200 48.68800 45.04100
C  52.52400 48.36400 44.34800
C  55.47300 46.83600 46.06800
C  54.67000 49.88000 44.47200
C  54.92200 51.00700 45.52200
N  49.91200 48.09500 43.04000
C  50.29200 49.29800 43.57800
C  49.34300 50.27900 43.16800
C  48.35400 49.63600 42.50100
C  48.82800 48.30400 42.37600
C  49.52600 51.79600 43.40800
C  47.05200 49.78600 41.86000
O  46.25900 50.71200 41.80100
C  46.72600 48.38000 41.31100
C  45.36100 47.92600 41.76000
O  45.03500 47.49000 42.85500
O  44.51600 48.07300 40.67800
C  43.16400 47.48700 40.98900
H  49.59100 42.25200 41.14700
H  54.86700 44.75300 44.17000
H  51.76600 50.29900 44.84600
H  46.05600 45.31000 40.91200
H  47.78300 43.12500 40.10900
H  45.72700 43.56900 42.03000
H  47.00900 42.93100 42.89700
H  46.53900 42.00700 41.40900
H  47.73200 44.82000 38.42200
H  48.00000 46.31900 38.94000
H  46.15400 46.94300 37.62900
H  45.26800 46.31200 38.97700
H  51.11400 40.38300 41.35000
H  51.71600 39.94000 42.94400
H  52.74100 40.01100 41.55300
H  55.54600 42.90700 44.81700
H  56.37700 43.31500 43.24700
H  56.78000 41.87500 43.96900
H  55.33600 47.54900 44.07100
H  53.60000 48.93100 46.07100
H  55.30300 45.76300 46.15600
H  55.31600 47.27800 47.05200
H  56.52300 46.90300 45.78400
H  54.06800 50.27100 43.65200
H  55.66300 49.54900 44.16900
H  55.99800 51.04700 45.69400
H  54.29700 50.88200 46.40600
H  54.64900 51.97400 45.10000
H  50.05700 52.26300 42.57800
H  49.90600 52.02600 44.40400
H  48.53400 52.24300 43.34800
H  46.68900 48.47200 40.22500
H  43.21600 46.39900 40.94700
H  42.51000 47.80500 40.17800
H  42.83800 47.86700 41.95800
Mg 17.22700 52.67400 25.26400
C  18.99300 51.53000 28.17100
C  14.60600 53.21600 27.37600
C  15.47200 53.37600 22.55800
C  19.92600 51.52800 23.30800
N  16.88900 52.50600 27.58900
C  17.74900 52.00500 28.51000
C  17.26300 52.34100 29.90700
C  15.72800 52.62300 29.66400
C  15.69800 52.76300 28.14100
C  14.73700 51.54500 30.10300
C  18.03800 53.51100 30.51900
C  17.95900 53.84000 31.96400
H  17.00900 53.01100 32.84500
N  15.46600 53.39900 25.00600
C  14.46400 53.55300 25.97800
C  13.23200 53.98800 25.38500
C  13.47200 54.10900 23.99600
C  14.85800 53.63600 23.80100
C  12.02300 54.45700 26.14700
C  12.49100 54.65700 22.90800
O  12.90300 54.81900 21.78400
C  11.05500 55.07900 23.21300
N  17.72400 52.57400 23.17200
C  16.81300 52.96100 22.25200
C  17.38100 52.93600 20.82000
C  18.89400 52.42900 21.09800
C  18.83400 52.00600 22.60100
C  16.58300 51.93200 19.98100
C  19.96400 53.51200 20.89400
C  21.33700 52.91900 20.43200
N  18.92100 51.51100 25.60500
C  19.91600 51.17500 24.68800
C  21.02000 50.54700 25.43800
C  20.67600 50.74000 26.78300
C  19.41600 51.29700 26.82700
C  22.26500 49.97500 24.86100
C  21.19400 50.47800 28.15000
O  22.30500 50.08600 28.54300
C  20.09200 51.01300 29.09400
C  19.62200 49.84800 29.99000
O  18.94200 48.90400 29.65000
O  20.08600 50.01400 31.32600
C  19.38500 49.28100 32.35500
H  13.76600 53.39200 28.05200
H  14.77300 53.60200 21.75000
H  20.82500 51.21200 22.77500
H  17.40800 51.40500 30.44700
H  15.41800 53.57300 30.10100
H  14.08100 51.17400 29.31600
H  14.13100 51.94100 30.91800
H  15.22200 50.70200 30.59500
H  17.70100 54.45900 30.10000
H  19.08800 53.45500 30.23300
H  17.79600 54.91000 32.09300
H  18.96700 53.73200 32.36400
H  12.04300 55.54100 26.03200
H  12.03200 54.14200 27.19000
H  11.13200 54.06600 25.65400
H  10.47900 54.20500 23.51600
H  10.66300 55.41900 22.25500
H  11.11300 55.88600 23.94400
H  17.26900 53.94400 20.42200
H  19.19600 51.53900 20.54700
H  15.54500 52.02100 20.30200
H  16.87800 50.89100 20.11400
H  16.72100 52.08400 18.91100
H  19.98500 54.11700 21.80000
H  19.54400 54.10900 20.08400
H  22.09000 53.05200 21.20900
H  21.66400 53.34000 19.48100
H  21.22200 51.87400 20.14400
H  22.76100 50.74600 24.27200
H  22.10000 49.04200 24.32300
H  22.98800 49.74100 25.64200
H  20.53300 51.79400 29.71300
H  19.31900 48.19500 32.28700
H  18.32900 49.54500 32.30800
H  19.87200 49.63000 33.26500

