158

Mg 24.00300 -5.67400 45.78200
C  26.13400 -3.34500 44.38400
C  21.55000 -4.74100 43.47900
C  22.16800 -8.66900 46.19000
C  26.74300 -7.24800 47.32400
N  23.88100 -4.17000 44.16500
C  24.85100 -3.29100 43.76300
C  24.42600 -2.27300 42.68900
C  22.86500 -2.49800 42.81200
C  22.74800 -3.98600 43.48200
C  22.15400 -1.47200 43.69700
C  25.16600 -2.62400 41.28800
C  26.09400 -1.52800 40.59800
H  26.01900 -1.26200 39.08300
N  21.96600 -6.50700 45.10600
C  21.20800 -5.86600 44.18100
C  19.97600 -6.62200 44.07800
C  20.11800 -7.83400 44.80900
C  21.40800 -7.72600 45.52300
C  18.75400 -6.23700 43.20400
C  19.01100 -8.89100 44.89100
O  17.88700 -8.69700 44.36300
C  19.16900 -10.13200 45.79100
N  24.36300 -7.60500 46.63400
C  23.49700 -8.64300 46.69000
C  23.99700 -9.84000 47.53600
C  25.43700 -9.40200 47.87500
C  25.56500 -8.01600 47.26400
C  23.05800 -10.23100 48.66400
C  26.53200 -10.44800 47.42700
C  26.95000 -11.46100 48.55400
N  25.99700 -5.23900 46.03700
C  27.01000 -5.96700 46.68700
C  28.25300 -5.23400 46.58900
C  28.02300 -4.15100 45.61800
C  26.59300 -4.30300 45.38400
C  29.51300 -5.52800 47.22200
C  28.56000 -3.04400 44.82800
O  29.63700 -2.56700 44.69500
C  27.35900 -2.44500 44.03100
C  27.19700 -0.95500 44.22000
O  26.68200 -0.46100 45.19400
O  27.75200 -0.30400 43.19800
C  27.70500 1.09500 43.07900
H  20.78000 -4.44800 42.76300
H  21.56900 -9.55100 46.42500
H  27.58900 -7.65700 47.87900
H  24.86600 -1.33400 43.02700
H  22.52500 -2.47000 41.77700
H  22.83000 -0.96900 44.38700
H  21.40500 -2.00800 44.28000
H  21.62900 -0.76900 43.04900
H  24.47100 -3.08400 40.58500
H  25.84500 -3.43700 41.54800
H  27.10800 -1.78200 40.90600
H  25.74700 -0.63500 41.11800
H  18.62800 -6.97100 42.40900
H  18.79400 -5.25900 42.72500
H  17.95900 -6.10300 43.93800
H  19.24500 -9.86300 46.84400
H  19.99500 -10.71400 45.38200
H  18.24400 -10.70500 45.85700
H  23.89600 -10.61200 46.77400
H  25.56600 -9.28700 48.95100
H  23.57400 -10.43100 49.60300
H  22.50700 -11.14200 48.43200
H  22.31000 -9.48000 48.92100
H  27.47000 -10.05200 47.03700
H  26.09200 -11.08500 46.66000
H  26.98200 -12.37800 47.96700
H  26.19700 -11.36300 49.33700
H  27.97000 -11.20100 48.83700
H  29.88000 -4.67800 47.79700
H  30.27000 -5.72500 46.46200
H  29.54700 -6.40900 47.86200
H  27.65500 -2.64100 43.00000
H  28.68200 1.57800 43.06500
H  27.29500 1.52700 43.99200
H  27.07000 1.42400 42.25600
Mg 17.11600 -1.97700 28.14200
C  16.03100 0.09000 30.96800
C  19.18300 -3.56400 30.34400
C  18.25500 -3.58400 25.55900
C  15.02500 0.01000 26.13500
N  17.66300 -1.58400 30.44500
C  16.99800 -0.85100 31.36100
C  17.41800 -1.31200 32.79000
C  18.75100 -2.16600 32.50700
C  18.58600 -2.42200 30.98100
C  20.12300 -1.63800 32.74600
C  16.26200 -2.01100 33.54600
C  15.91100 -1.38600 34.94600
H  17.10800 -0.79600 35.71700
N  18.42500 -3.46900 27.98900
C  19.14900 -4.02200 28.99900
C  19.94800 -5.12300 28.44600
C  19.63700 -5.19600 27.08500
C  18.75300 -4.02600 26.85600
C  20.81100 -6.10300 29.30700
C  20.03100 -6.27000 25.98200
O  19.47500 -6.19700 24.86400
C  21.23700 -7.13800 26.17100
N  16.70400 -1.82200 26.12400
C  17.37500 -2.62400 25.20300
C  16.85500 -2.35100 23.73700
C  15.62900 -1.39700 23.98400
C  15.74200 -0.97300 25.48600
C  17.99100 -1.69400 22.86400
C  14.24700 -2.11800 23.62500
C  13.61300 -1.62300 22.29100
N  15.85100 -0.32900 28.50200
C  15.04500 0.30500 27.53300
C  14.36200 1.42200 28.19400
C  14.70500 1.36100 29.50900
C  15.56600 0.24300 29.68000
C  13.59300 2.47500 27.60900
C  14.49300 1.99000 30.79700
O  13.82900 2.93500 31.14500
C  15.27100 1.16500 31.76700
C  16.17100 2.02700 32.54400
O  17.26100 2.44300 32.08400
O  15.61900 2.32800 33.76500
C  16.44500 3.17600 34.59400
H  19.68000 -4.19000 31.08900
H  18.58900 -4.10300 24.65900
H  14.38500 0.65900 25.53300
H  17.65400 -0.43200 33.38800
H  18.67700 -3.14300 32.98600
H  20.67800 -1.51700 31.81500
H  20.79600 -2.27200 33.32300
H  20.09700 -0.63000 33.16000
H  16.55700 -3.04700 33.71300
H  15.37700 -2.11000 32.91800
H  15.45900 -2.19400 35.52100
H  15.18000 -0.57900 34.89000
H  21.82400 -5.87400 28.97700
H  20.54900 -7.16100 29.31200
H  20.70700 -5.78900 30.34600
H  20.93100 -8.18300 26.22000
H  21.94000 -6.82200 26.94200
H  21.76800 -6.94200 25.23900
H  16.53800 -3.30500 23.31300
H  15.83100 -0.50700 23.38700
H  17.65500 -0.89100 22.20800
H  18.50600 -2.43400 22.25200
H  18.70900 -1.27500 23.57000
H  13.58500 -1.89400 24.46100
H  14.41600 -3.19400 23.64500
H  12.52700 -1.53400 22.32100
H  13.96800 -2.35100 21.56100
H  14.00000 -0.64700 21.99600
H  12.57400 2.08800 27.61500
H  13.96600 2.56100 26.58900
H  13.57100 3.39900 28.18700
H  14.53600 0.72200 32.43900
H  17.46300 2.86200 34.36000
H  16.14600 3.09100 35.63900
H  16.33800 4.19100 34.21200

