158

Mg 5.51200 52.91200 41.10100
C  4.87100 49.43700 40.80900
C  8.55300 52.35000 39.61700
C  5.69000 56.17700 40.63300
C  2.08800 53.31200 41.96900
N  6.57600 51.06400 40.33300
C  6.11000 49.77600 40.27100
C  7.17300 48.86100 39.56200
C  8.49000 49.77300 39.62900
C  7.82100 51.16700 39.94900
C  9.37900 49.36600 40.86400
C  6.82000 48.47000 38.12800
C  5.85200 49.40400 37.36900
H  6.57600 50.41200 36.39000
N  6.96100 54.07900 40.33600
C  8.08200 53.67600 39.63900
C  8.86500 54.82000 39.28400
C  8.10800 55.93100 39.67100
C  6.84200 55.39000 40.22800
C  10.21900 54.72200 38.76500
C  8.47600 57.40500 39.48500
O  9.52200 57.74800 38.97400
C  7.56900 58.53500 39.88200
N  4.02700 54.46900 41.19200
C  4.44300 55.79200 41.13200
C  3.23300 56.77500 41.27300
C  2.01300 55.86600 41.54700
C  2.72700 54.43200 41.57100
C  3.54700 57.64200 42.55200
C  0.97600 55.88200 40.37000
C  0.08700 57.14800 40.40100
N  3.88800 51.74300 41.51300
C  2.60600 52.00200 41.95600
C  1.95000 50.81000 42.38500
C  2.82100 49.74900 41.95400
C  3.95900 50.35600 41.34400
C  0.61300 50.75800 43.21900
C  2.93500 48.35000 41.81600
O  2.12500 47.57300 42.21400
C  4.28400 48.05100 41.12300
C  4.01400 47.15600 39.95100
O  3.35700 47.44000 38.93900
O  4.52400 45.88300 40.18500
C  3.79600 44.86500 39.42400
H  9.56000 52.16200 39.23600
H  5.68500 57.26200 40.51100
H  1.12000 53.51700 42.43000
H  7.34000 47.92000 40.08600
H  9.13400 49.74200 38.75000
H  9.07300 48.37400 41.19600
H  9.35300 50.12900 41.64100
H  10.41100 49.26500 40.52700
H  6.29400 47.51900 38.21700
H  7.68200 48.26200 37.49400
H  5.20400 50.04100 37.97200
H  5.16500 48.77700 36.80100
H  10.35500 54.42900 37.72400
H  10.71500 53.93100 39.32800
H  10.80600 55.62100 38.95300
H  8.18400 59.42500 39.74800
H  7.44900 58.49900 40.96500
H  6.71900 58.61900 39.20400
H  3.23200 57.32800 40.33400
H  1.54100 56.05300 42.51100
H  4.43400 57.26300 43.05900
H  2.72600 57.62500 43.26800
H  3.78700 58.68600 42.35000
H  0.38200 54.99000 40.57000
H  1.31500 55.85000 39.33500
H  0.03400 57.50400 39.37200
H  0.55900 57.83900 41.09800
H  -0.94500 56.88700 40.63700
H  -0.13400 50.07200 42.82000
H  0.15000 51.74500 43.21900
H  0.75500 50.51600 44.27200
H  4.89800 47.48800 41.82600
H  4.25500 44.74200 38.44300
H  2.76100 45.12100 39.19800
H  3.86900 43.90800 39.93900
Mg -10.87900 38.56900 40.84500
C  -9.34500 35.59200 39.93600
C  -8.49500 40.36300 39.28100
C  -12.83500 41.35000 41.12300
C  -13.64000 36.60500 42.08500
N  -9.12700 38.03900 39.76000
C  -8.64700 36.79500 39.48000
C  -7.44000 36.74100 38.49700
C  -7.07000 38.33900 38.55100
C  -8.37200 38.98500 39.19300
C  -5.87500 38.73500 39.56400
C  -7.77700 36.19900 37.04200
C  -6.75700 35.29000 36.20500
H  -6.43100 35.57600 34.70500
N  -10.66600 40.59000 40.33700
C  -9.54300 41.11900 39.76300
C  -9.55300 42.56100 39.73800
C  -10.80700 42.94900 40.23400
C  -11.49000 41.63400 40.66200
C  -8.42800 43.37700 39.11900
C  -11.35800 44.33600 40.36000
O  -10.63500 45.24200 40.03800
C  -12.76700 44.70000 40.77000
N  -12.97900 38.87600 41.43200
C  -13.52100 40.14400 41.43900
C  -15.07300 40.03600 41.71400
C  -15.32100 38.48800 41.87500
C  -13.87000 37.95200 41.83100
C  -15.51600 41.06700 42.83600
C  -16.32900 37.91800 40.80700
C  -15.81100 37.42700 39.46200
N  -11.35100 36.51600 41.05900
C  -12.43700 35.90200 41.65500
C  -12.12400 34.45600 41.77100
C  -10.91800 34.26400 41.08200
C  -10.53700 35.57100 40.69200
C  -12.98700 33.47700 42.54000
C  -9.80900 33.36600 40.71600
O  -9.64400 32.18600 41.08200
C  -8.91300 34.09400 39.77700
C  -7.44600 33.81900 40.11800
O  -6.70000 34.57800 40.81300
O  -7.02500 32.78000 39.37500
C  -5.65500 32.35300 39.65800
H  -7.64800 40.85300 38.79600
H  -13.44600 42.25500 41.08900
H  -14.42800 35.98400 42.51700
H  -6.55800 36.23500 38.88900
H  -6.68300 38.73500 37.61300
H  -5.90000 37.96100 40.33100
H  -5.96900 39.66500 40.12500
H  -4.93700 38.60600 39.02500
H  -8.02600 37.02300 36.37300
H  -8.74400 35.69700 37.04900
H  -7.06800 34.25500 36.34900
H  -5.84400 35.30200 36.80000
H  -8.75900 44.24900 38.55500
H  -7.82000 42.88100 38.36300
H  -7.75700 43.73500 39.90100
H  -12.84900 44.37200 41.80600
H  -13.54200 44.15500 40.23100
H  -12.86000 45.78600 40.73900
H  -15.57500 40.40600 40.82000
H  -15.71000 38.34100 42.88200
H  -16.19100 41.87900 42.56500
H  -14.56600 41.51000 43.13200
H  -15.92700 40.61600 43.74000
H  -17.06400 38.67000 40.52100
H  -16.82200 37.02900 41.20300
H  -14.72700 37.38800 39.56800
H  -15.99200 38.23900 38.75700
H  -16.22900 36.49300 39.08700
H  -12.68500 32.44100 42.38600
H  -14.05300 33.64200 42.38700
H  -12.62900 33.52300 43.56900
H  -9.01300 33.87700 38.71400
H  -5.58700 31.26900 39.55900
H  -5.32600 32.61900 40.66300
H  -4.91500 32.68500 38.92900

