158

Mg 17.12200 -1.54900 28.04800
C  16.15500 0.48800 30.81500
C  19.31200 -3.19400 30.25000
C  18.61400 -3.01900 25.37200
C  15.45800 0.53300 25.89900
N  17.87300 -1.28200 30.27800
C  17.09400 -0.54000 31.22200
C  17.43600 -0.99000 32.65400
C  18.50100 -2.09000 32.43400
C  18.56200 -2.24200 30.90900
C  19.97600 -1.72000 32.89200
C  16.23100 -1.60400 33.42100
C  16.01300 -1.25000 34.92200
H  17.15300 -0.71500 35.76700
N  18.69900 -2.90000 27.86500
C  19.44100 -3.48200 28.89000
C  20.23000 -4.54300 28.35100
C  19.93900 -4.60100 26.94500
C  19.05700 -3.48300 26.66500
C  21.23800 -5.44700 29.13900
C  20.52700 -5.60500 25.87500
O  20.21500 -5.45600 24.67400
C  21.39900 -6.77500 26.19000
N  17.10000 -1.33100 25.85500
C  17.82900 -1.92700 25.01100
C  17.56100 -1.53100 23.50400
C  16.32800 -0.63100 23.75800
C  16.30300 -0.37700 25.26600
C  18.79500 -0.79600 22.81400
C  14.94800 -1.27100 23.28400
C  13.91700 -0.27100 22.93700
N  15.88700 0.02600 28.31000
C  15.31600 0.79800 27.26900
C  14.49900 1.81000 27.93100
C  14.77000 1.73100 29.26300
C  15.64000 0.66300 29.48800
C  13.66400 2.72700 27.17500
C  14.57500 2.32800 30.61000
O  13.87900 3.21200 30.97200
C  15.28300 1.43000 31.61800
C  16.00600 2.24500 32.55600
O  17.18300 2.63800 32.48300
O  15.17800 2.48000 33.68200
C  15.72400 3.31500 34.77400
H  19.78000 -3.85900 30.97900
H  19.10900 -3.27500 24.43300
H  14.77700 1.16400 25.32500
H  17.77000 -0.13600 33.24300
H  18.16700 -2.99000 32.95000
H  20.72600 -1.70000 32.10200
H  20.29300 -2.52400 33.55600
H  20.00100 -0.73000 33.34700
H  16.31000 -2.69100 33.41100
H  15.35800 -1.34200 32.82300
H  15.63500 -2.16900 35.37100
H  15.11700 -0.64600 35.06700
H  20.84900 -6.45600 29.27800
H  21.18700 -5.08400 30.16500
H  22.28200 -5.44300 28.82500
H  21.62000 -7.34800 25.29000
H  21.04300 -7.39900 27.00900
H  22.30800 -6.25800 26.49700
H  17.30700 -2.49100 23.05600
H  16.43500 0.37100 23.34200
H  19.42300 -1.39800 22.15800
H  19.45700 -0.57200 23.65000
H  18.40400 0.11400 22.35800
H  14.64300 -1.96600 24.06600
H  15.20600 -1.84800 22.39500
H  13.06000 -0.35700 23.60500
H  13.63500 -0.36900 21.88900
H  14.42200 0.69500 22.94300
H  13.29500 3.50800 27.83900
H  12.82600 2.28700 26.63400
H  14.28500 3.02600 26.33100
H  14.59800 0.79700 32.18200
H  14.93600 3.95800 35.16500
H  16.44100 4.04800 34.40300
H  16.31000 2.88100 35.58500
Mg 1.95500 41.82100 25.55300
C  3.06200 41.82800 28.92500
C  -1.00000 40.08500 26.74800
C  1.03000 41.00200 22.35700
C  5.04800 42.89300 24.50300
N  1.03200 41.26800 27.61600
C  1.71200 41.34000 28.81300
C  0.73700 41.07700 29.96700
C  -0.44300 40.38200 29.27800
C  -0.11600 40.48400 27.77900
C  -0.86500 38.98100 29.76400
C  0.38600 42.38100 30.87900
C  -0.21600 42.05600 32.29300
H  -1.53300 41.28900 32.28600
N  0.24800 40.66800 24.63600
C  -0.80600 40.12500 25.38800
C  -1.76400 39.61200 24.36100
C  -1.24100 39.91500 23.07700
C  0.04900 40.52800 23.29200
C  -3.11200 38.89300 24.67800
C  -1.75800 39.67100 21.66200
O  -1.12100 39.83000 20.63300
C  -3.08000 39.15500 21.42500
N  2.95200 41.74600 23.73000
C  2.32000 41.52700 22.54600
C  3.20000 41.99600 21.37200
C  4.28600 42.82800 22.01400
C  4.15300 42.42800 23.51200
C  3.63800 40.83500 20.35600
C  3.98900 44.34500 21.85000
C  3.94200 44.92300 20.48600
N  3.69300 42.33200 26.44100
C  4.89100 42.76000 25.92000
C  5.82500 43.15900 26.94400
C  5.14900 42.83400 28.13300
C  3.86400 42.24400 27.79700
C  7.09400 43.81500 26.66300
C  5.28000 42.86400 29.57500
O  6.13800 43.32300 30.33800
C  4.01400 42.06100 30.13400
C  4.43000 40.76200 30.84100
O  4.94400 39.71400 30.33600
O  4.41200 40.92100 32.19800
C  4.83000 39.73400 32.99200
H  -1.87200 39.46800 26.97300
H  0.83400 40.88000 21.29000
H  6.01800 43.32100 24.24500
H  1.24900 40.35300 30.60100
H  -1.32700 41.01900 29.30000
H  -1.90000 38.83100 30.07000
H  -0.25100 38.75200 30.63500
H  -0.66100 38.26400 28.96800
H  -0.28300 43.05500 30.34200
H  1.27300 42.98400 31.07100
H  -0.43400 43.08200 32.59000
H  0.64900 41.66800 32.83200
H  -3.39600 39.09400 25.71100
H  -3.13300 37.81600 24.51200
H  -3.98800 39.22900 24.12400
H  -2.97800 38.16800 21.87800
H  -3.36600 38.97800 20.38800
H  -3.87600 39.75800 21.86400
H  2.56000 42.66300 20.79400
H  5.28200 42.75000 21.57800
H  3.64400 39.87600 20.87400
H  4.68300 40.94000 20.06500
H  3.10400 40.86400 19.40600
H  4.81500 44.84300 22.35700
H  3.05600 44.61000 22.34800
H  4.27500 44.11800 19.83000
H  4.66200 45.74100 20.49000
H  2.92100 45.26600 20.32000
H  7.96700 43.18900 26.85000
H  7.05100 44.44500 27.55100
H  7.02500 44.41100 25.75300
H  3.50300 42.58200 30.94400
H  4.24200 39.93200 33.88900
H  5.91300 39.82800 33.06300
H  4.39900 38.82400 32.57300

