158

Mg 34.83600 2.52100 29.29300
C  32.89300 3.59400 31.92200
C  37.61300 2.41000 31.56600
C  36.98400 1.98900 26.76400
C  32.33400 3.39900 27.09800
N  35.20200 3.03300 31.49300
C  34.16000 3.34400 32.33600
C  34.67700 3.28600 33.76300
C  36.22700 3.15400 33.57400
C  36.40700 2.86200 32.09900
C  37.00500 4.43000 34.00400
C  33.98100 2.10800 34.52900
C  33.83200 2.36900 36.06400
H  34.86700 3.22100 36.91600
N  37.02300 2.08600 29.22800
C  37.92800 2.01100 30.21100
C  39.19300 1.50400 29.73400
C  39.00700 1.26100 28.37300
C  37.64400 1.75100 28.07700
C  40.44400 1.49800 30.56800
C  39.96500 0.69400 27.31800
O  39.61100 0.57000 26.14500
C  41.33500 0.27600 27.71900
N  34.61000 2.50200 27.20400
C  35.69200 2.28500 26.32200
C  35.17300 2.29100 24.89200
C  33.68400 2.69500 25.00900
C  33.49800 2.88500 26.52400
C  36.02100 3.09000 23.84400
C  32.65100 1.76200 24.39800
C  32.22400 0.53200 25.21500
N  32.92000 3.15600 29.45900
C  32.04700 3.48400 28.48800
C  30.78800 3.85200 29.06400
C  31.03000 3.88100 30.47200
C  32.38800 3.56900 30.61200
C  29.63700 4.25200 28.28800
C  30.50000 4.12600 31.76300
O  29.39600 4.41400 32.14600
C  31.66200 3.91000 32.82100
C  31.77800 5.19800 33.53900
O  32.19300 6.26600 33.06800
O  31.15500 5.14100 34.73200
C  31.45800 6.21000 35.66800
H  38.44700 2.22100 32.24500
H  37.44300 1.90500 25.77700
H  31.64000 3.64400 26.29200
H  34.49300 4.22400 34.28700
H  36.56700 2.22400 34.03000
H  36.39400 5.14400 34.55500
H  37.32500 4.92500 33.08700
H  37.85000 4.23300 34.66400
H  34.55600 1.19900 34.35100
H  33.00800 1.90300 34.08200
H  33.61700 1.47900 36.65400
H  32.92100 2.96700 36.03100
H  41.04500 2.30100 30.14000
H  41.09900 0.62900 30.50800
H  40.25500 1.77900 31.60400
H  41.62300 0.94500 28.53000
H  41.85400 0.34500 26.76200
H  41.29000 -0.78800 27.95300
H  35.23100 1.24200 24.60200
H  33.56000 3.68600 24.57300
H  36.31300 2.37700 23.07200
H  36.86400 3.66900 24.21900
H  35.29100 3.81500 23.48500
H  33.16700 1.31500 23.54800
H  31.74300 2.29700 24.11800
H  32.36900 0.66900 26.28600
H  32.90500 -0.27200 24.93500
H  31.20900 0.22700 24.96000
H  29.43100 5.23300 28.71800
H  28.74400 3.63200 28.35600
H  29.77400 4.43200 27.22200
H  31.25000 3.17200 33.50900
H  32.47000 6.61500 35.70600
H  31.19100 5.92600 36.68600
H  30.88000 7.11400 35.47500
Mg -5.46200 25.05000 26.59900
C  -4.06600 26.50200 29.47700
C  -7.63400 23.16200 28.53900
C  -6.44600 23.51900 23.88800
C  -3.13000 26.86300 24.74000
N  -5.77200 24.88600 28.75000
C  -5.08400 25.53100 29.74300
C  -5.47800 24.92600 31.04800
C  -6.53100 23.83000 30.77600
C  -6.67100 24.00100 29.25900
C  -6.15400 22.45500 31.34800
C  -5.94900 26.02700 32.03900
C  -5.64800 25.70700 33.50100
H  -5.08000 24.38200 33.88800
N  -6.90100 23.66300 26.30300
C  -7.65000 22.94100 27.20200
C  -8.59000 21.98700 26.51500
C  -8.30300 22.16000 25.15600
C  -7.16400 23.16800 25.06200
C  -9.45900 21.13600 27.24000
C  -9.04700 21.58600 23.98400
O  -8.66500 21.71800 22.82700
C  -10.27300 20.64000 24.20400
N  -4.88100 25.22600 24.63300
C  -5.42100 24.41800 23.68600
C  -4.70400 24.51900 22.31200
C  -3.86600 25.84200 22.58000
C  -3.97900 26.06300 24.06800
C  -3.91100 23.22800 21.77700
C  -4.40500 27.10400 21.84300
C  -3.51500 27.71000 20.78800
N  -3.92500 26.53000 26.96900
C  -3.06900 27.17700 26.13000
C  -2.13900 28.03700 26.82600
C  -2.44100 27.77600 28.17800
C  -3.58100 26.80200 28.17600
C  -1.04900 28.81700 26.16100
C  -2.09000 28.02800 29.57900
O  -1.35300 28.74500 30.20500
C  -3.13200 27.22700 30.40000
C  -2.41200 26.38800 31.33900
O  -2.05500 25.19900 31.09400
O  -1.99700 27.09900 32.47000
C  -1.38800 26.32100 33.50100
H  -8.42900 22.70600 29.13300
H  -6.70400 22.95700 22.98800
H  -2.38500 27.35100 24.10800
H  -4.51300 24.49600 31.31400
H  -7.48300 24.18600 31.17000
H  -6.16800 21.69100 30.57100
H  -6.86800 22.13200 32.10600
H  -5.17400 22.39100 31.82100
H  -7.02300 26.21600 32.06600
H  -5.53600 27.00100 31.77800
H  -6.50700 25.92500 34.13700
H  -4.93400 26.43200 33.89000
H  -9.18600 20.18300 26.78700
H  -10.48300 21.35200 26.93500
H  -9.34800 21.06200 28.32200
H  -10.02000 19.73200 24.75300
H  -10.50700 20.23400 23.22000
H  -11.10600 21.19600 24.63300
H  -5.47500 24.68500 21.56000
H  -2.82100 25.61900 22.36500
H  -2.83700 23.36400 21.65000
H  -4.28000 22.84400 20.82600
H  -3.99900 22.40600 22.48800
H  -4.68800 27.88600 22.54800
H  -5.34500 26.82900 21.36500
H  -4.15300 27.84600 19.91500
H  -2.61500 27.10300 20.68200
H  -3.22300 28.69600 21.14800
H  -0.48600 29.36300 26.91800
H  -1.26100 29.48800 25.32900
H  -0.29100 28.14400 25.76100
H  -3.63900 28.00200 30.97400
H  -2.10200 26.28100 34.32400
H  -0.53900 26.94600 33.77900
H  -1.09100 25.32600 33.16900

