158

Mg 34.99300 0.73000 28.70700
C  33.10400 1.81100 31.32000
C  37.59600 0.29900 30.88200
C  36.92100 -0.20600 25.97400
C  32.43500 1.62700 26.52800
N  35.27200 1.03200 30.89500
C  34.37400 1.54100 31.73200
C  34.97400 1.64100 33.19500
C  36.46400 1.55700 32.93600
C  36.42300 0.83800 31.45600
C  37.38700 2.84500 32.98100
C  34.52800 0.39800 34.09700
C  33.97900 0.76700 35.54000
H  34.56300 1.97300 36.30000
N  36.94500 0.00300 28.50900
C  37.84900 -0.18400 29.52500
C  38.97600 -0.83500 28.99500
C  38.79700 -1.06700 27.56900
C  37.47100 -0.43000 27.27000
C  40.16900 -1.17000 29.89700
C  39.71100 -1.79900 26.59000
O  39.39200 -2.08300 25.43800
C  41.14900 -2.01500 26.94200
N  34.64000 0.44800 26.55700
C  35.60800 0.21900 25.65200
C  35.25100 0.65200 24.25900
C  33.74500 1.06200 24.42500
C  33.52000 1.04400 25.91700
C  36.06000 2.01600 23.72900
C  32.72100 0.09500 23.71100
C  32.10900 -0.97700 24.46500
N  33.16200 1.54600 28.79200
C  32.19400 1.73900 27.87300
C  31.00800 2.07900 28.53600
C  31.30700 2.17000 29.88800
C  32.65800 1.82900 30.00200
C  29.66300 2.30800 27.85200
C  30.74200 2.36900 31.28200
O  29.59300 2.60200 31.57600
C  31.93800 2.23300 32.21000
C  32.07400 3.56200 32.90900
O  32.44800 4.59200 32.47200
O  31.62600 3.38700 34.19800
C  31.72000 4.53300 35.07600
H  38.46700 0.19200 31.53200
H  37.59600 -0.30000 25.12000
H  31.67300 2.19000 25.98600
H  34.75600 2.59700 33.67100
H  36.89800 0.87900 33.67100
H  36.84400 3.79000 33.00000
H  38.00000 2.95500 32.08700
H  37.93600 2.95100 33.91600
H  35.26400 -0.39300 34.24000
H  33.66300 -0.02600 33.58900
H  34.17200 -0.16500 36.07100
H  32.92200 1.00500 35.41800
H  41.03000 -0.58700 29.56900
H  40.37800 -2.23600 29.80100
H  40.00700 -1.05500 30.96900
H  41.78700 -2.43600 26.16500
H  41.12500 -2.59700 27.86300
H  41.55900 -1.05200 27.24900
H  35.26700 -0.25500 23.65600
H  33.64800 2.08700 24.06800
H  36.91100 2.30200 24.34800
H  35.49400 2.94800 23.71200
H  36.40900 1.74000 22.73400
H  33.08200 -0.26800 22.74900
H  31.92300 0.72700 23.32100
H  32.33900 -1.79800 23.78600
H  31.03100 -0.85300 24.57600
H  32.43300 -1.10500 25.49800
H  29.58100 2.18200 26.77300
H  29.13600 3.25300 27.98900
H  29.05500 1.48800 28.23400
H  31.56900 1.44800 32.87000
H  31.11800 5.27800 34.55600
H  32.75300 4.84700 35.22800
H  31.24300 4.35200 36.03900
Mg 47.77800 14.34700 27.38400
C  45.69200 14.39600 30.25300
C  50.03700 16.10000 28.97100
C  49.58300 14.41100 24.50600
C  45.03300 13.04200 25.58600
N  47.81800 15.24000 29.42100
C  46.89600 15.09500 30.47300
C  47.37500 15.70400 31.82700
C  48.67800 16.41400 31.27900
C  48.87800 15.89500 29.81600
C  48.55100 17.95400 31.33100
C  47.64500 14.63000 32.91400
C  47.51700 15.13800 34.35600
H  48.75600 14.96400 35.25800
N  49.66600 14.96800 26.89100
C  50.47200 15.64900 27.71300
C  51.79600 15.77800 27.12400
C  51.66600 15.18700 25.77700
C  50.27300 14.87400 25.65300
C  52.98000 16.25400 27.87000
C  52.71400 15.07000 24.69300
O  52.48200 14.59400 23.54400
C  54.02500 15.53400 24.89800
N  47.39200 13.76100 25.30000
C  48.28400 13.95000 24.33200
C  47.75900 13.26200 22.98000
C  46.39200 12.73000 23.39100
C  46.21900 13.21500 24.86200
C  47.81800 14.18000 21.78700
C  46.18200 11.15500 23.20100
C  46.97200 10.38500 24.28500
N  45.80900 13.78300 27.82600
C  44.74500 13.31200 26.94800
C  43.49300 13.13500 27.73100
C  43.89200 13.46900 29.00300
C  45.24000 13.94800 29.03200
C  42.23000 12.36500 27.27300
C  43.39100 13.58300 30.33600
O  42.29500 13.37900 30.76400
C  44.53600 14.23600 31.18800
C  43.99000 15.51800 31.81800
O  43.61000 16.48000 31.18200
O  44.05700 15.46800 33.18800
C  43.71100 16.72700 33.91600
H  50.88500 16.56300 29.48000
H  50.17500 14.35300 23.59000
H  44.21500 12.53800 25.06600
H  46.56800 16.39000 32.08700
H  49.52000 16.11200 31.90300
H  48.67700 18.28400 30.30000
H  49.30700 18.46900 31.92400
H  47.50700 18.20500 31.51400
H  48.67500 14.29000 32.80400
H  47.03200 13.74100 32.76500
H  46.86100 14.46400 34.90600
H  47.04900 16.12100 34.39500
H  53.61300 15.37300 27.97700
H  52.75100 16.37800 28.92900
H  53.42500 17.12400 27.38700
H  54.38800 15.10100 25.83000
H  54.07700 16.61700 25.00500
H  54.72800 15.25900 24.11100
H  48.47400 12.47700 22.73500
H  45.55500 13.02100 22.75700
H  48.33800 15.10900 22.01900
H  46.80300 14.47900 21.52800
H  48.34400 13.69800 20.96200
H  46.71100 11.02300 22.25700
H  45.16800 10.77900 23.06500
H  47.72500 9.79600 23.76100
H  46.34900 9.65100 24.79600
H  47.49400 11.03600 24.98600
H  41.86900 11.81900 28.14500
H  42.62000 11.58100 26.62500
H  41.48600 12.96400 26.74800
H  44.64900 13.54100 32.02100
H  43.08600 17.42900 33.36400
H  44.70500 17.09500 34.17100
H  43.18900 16.58000 34.86100

