158

Mg 26.85700 51.02000 25.91600
C  24.99800 52.22100 28.59800
C  29.25800 49.85700 28.31900
C  28.73700 49.87100 23.33700
C  24.83300 52.67900 23.62400
N  27.02100 50.79200 28.28200
C  26.12700 51.48200 29.14700
C  26.44900 51.13900 30.68100
C  27.89300 50.43900 30.49200
C  28.12200 50.36100 28.90400
C  29.06800 51.11300 31.27700
C  25.23600 50.38900 31.34800
C  25.53200 49.30900 32.44800
H  24.96100 49.68400 33.90300
N  28.63100 49.90900 25.84200
C  29.50800 49.62300 26.95100
C  30.76100 48.88200 26.48000
C  30.54900 48.75600 25.04100
C  29.23000 49.51500 24.66900
C  31.86900 48.45300 27.32000
C  31.51100 48.17400 23.99000
O  31.28300 48.31600 22.77900
C  32.78000 47.53100 24.49500
N  26.81300 51.27000 23.77900
C  27.64800 50.58400 22.90200
C  27.12100 50.67800 21.42700
C  25.84100 51.60300 21.69400
C  25.81600 51.89600 23.09200
C  28.15800 51.23800 20.41300
C  24.61800 50.89900 21.15000
C  24.37000 49.55400 21.80400
N  25.22700 52.21200 26.01900
C  24.53100 52.87400 25.01600
C  23.36100 53.49900 25.73100
C  23.49300 53.16600 27.07800
C  24.70100 52.49700 27.21000
C  22.24100 54.24900 25.11400
C  22.82200 53.30200 28.26900
O  21.70800 53.79000 28.51600
C  23.78800 52.73200 29.37100
C  24.22700 53.82200 30.32700
O  25.19400 54.55100 30.22600
O  23.36200 53.73800 31.37800
C  23.83900 54.36700 32.62500
H  30.04900 49.57300 29.01500
H  29.33500 49.42100 22.54100
H  24.13900 53.05000 22.86700
H  26.60600 52.08500 31.19800
H  27.86800 49.37800 30.73900
H  28.94400 52.16600 31.52800
H  30.01800 51.16400 30.74500
H  29.13700 50.72500 32.29400
H  24.71200 49.80400 30.59200
H  24.57600 51.14800 31.76700
H  26.61900 49.24900 32.50000
H  25.02400 48.35700 32.29300
H  31.94800 47.37300 27.19700
H  31.65400 48.67700 28.36500
H  32.78600 49.00400 27.11300
H  33.32800 48.16500 25.19300
H  33.51100 47.47600 23.68800
H  32.55800 46.58400 24.98600
H  26.80400 49.70400 21.05300
H  25.97900 52.56200 21.19500
H  27.77300 52.15700 19.96900
H  28.57600 50.62300 19.61600
H  28.91400 51.40300 21.18000
H  24.59600 50.85500 20.06100
H  23.74000 51.48400 21.42600
H  24.59600 49.57400 22.87000
H  24.79900 48.74300 21.21600
H  23.28500 49.49500 21.71300
H  21.50100 53.63900 24.59600
H  22.60300 54.95100 24.36300
H  21.69800 54.80800 25.87600
H  23.25300 51.99400 29.96900
H  24.10700 55.38400 32.33900
H  24.71800 53.85000 33.00800
H  23.01500 54.47200 33.33100
Mg -1.42000 34.43100 27.12600
C  -3.12600 32.72000 29.67600
C  -0.18600 36.53400 29.44300
C  -0.25300 36.33600 24.51600
C  -3.04900 32.41900 24.70100
N  -1.69200 34.68100 29.36800
C  -2.36000 33.81000 30.16200
C  -2.03000 34.14600 31.61900
C  -1.25100 35.44000 31.55700
C  -0.98800 35.58300 30.05000
C  -1.92400 36.66400 32.18000
C  -1.27200 32.98900 32.29200
C  -1.84200 32.47400 33.63900
H  -0.90500 32.54800 34.88600
N  -0.38200 36.12600 27.02700
C  0.07800 36.86000 28.05800
C  0.79600 37.99700 27.60700
C  0.70600 37.98900 26.20000
C  -0.01400 36.78100 25.84300
C  1.51100 38.90800 28.57900
C  1.23200 39.06100 25.19500
O  1.02500 39.01300 23.94300
C  2.02500 40.23200 25.55800
N  -1.67500 34.43400 24.86200
C  -1.02000 35.27400 24.04200
C  -1.15900 34.85200 22.56200
C  -2.14200 33.71200 22.60700
C  -2.28300 33.45000 24.11000
C  -1.36900 36.03100 21.53800
C  -1.70400 32.42100 21.74800
C  -0.67000 31.46800 22.41300
N  -2.70400 32.93100 27.06200
C  -3.27300 32.17300 26.05800
C  -4.17200 31.15600 26.62400
C  -4.09000 31.35300 27.94900
C  -3.22000 32.45100 28.23100
C  -4.95700 30.09800 25.85700
C  -4.69900 30.95600 29.26700
O  -5.43800 30.00800 29.46000
C  -4.05000 31.79900 30.38700
C  -5.11200 32.45500 31.21500
O  -5.68600 33.50000 30.92000
O  -5.44300 31.64200 32.29600
C  -6.42300 32.13200 33.30100
H  0.24200 37.09500 30.27600
H  0.29000 36.72000 23.65000
H  -3.60000 31.68200 24.11200
H  -2.98800 34.30000 32.11500
H  -0.27100 35.33700 32.02200
H  -2.83200 36.46700 32.75000
H  -2.17700 37.44000 31.45800
H  -1.16600 37.12400 32.81500
H  -0.21000 33.23000 32.32600
H  -1.31100 32.11900 31.63500
H  -2.15400 31.43100 33.69700
H  -2.79800 32.97900 33.77600
H  1.50400 38.67400 29.64400
H  1.00100 39.85400 28.40000
H  2.59100 38.88000 28.43400
H  1.27200 41.01400 25.65400
H  2.69200 40.42500 24.71800
H  2.64300 40.05800 26.43900
H  -0.13500 34.54700 22.34700
H  -3.07900 34.01800 22.14200
H  -0.56500 36.01300 20.80200
H  -1.31000 36.99800 22.03700
H  -2.37300 35.98200 21.11700
H  -1.38000 32.76100 20.76400
H  -2.62500 31.86700 21.56900
H  0.13700 32.00100 22.91700
H  -0.22200 30.84900 21.63600
H  -1.25300 30.91800 23.15200
H  -5.42000 29.59900 26.70800
H  -4.40600 29.43900 25.18600
H  -5.63900 30.65000 25.21100
H  -3.46900 31.15700 31.05000
H  -6.67700 31.34900 34.01600
H  -7.29000 32.64600 32.88500
H  -5.81600 32.74700 33.96500

