158

Mg -1.46100 34.87200 26.53800
C  -2.89200 33.10400 29.16700
C  -0.38200 37.21300 28.76800
C  -0.48400 36.86600 24.01100
C  -2.97500 32.75800 24.21700
N  -1.69500 35.13600 28.70000
C  -2.11900 34.22100 29.61400
C  -1.81400 34.65300 31.07400
C  -0.96500 35.95700 30.90500
C  -1.10800 36.15000 29.35400
C  -1.34900 37.09400 31.85300
C  -1.06400 33.51400 31.87300
C  -1.78000 33.25900 33.20000
H  -0.97200 33.29700 34.56600
N  -0.51100 36.78100 26.42400
C  -0.10500 37.55400 27.47100
C  0.64500 38.74600 26.95600
C  0.61700 38.62900 25.52000
C  -0.11800 37.39800 25.27200
C  1.22000 39.82700 27.80400
C  1.17100 39.53400 24.43900
O  1.09800 39.31800 23.27300
C  1.87200 40.78800 24.79200
N  -1.81100 34.89300 24.45100
C  -1.22400 35.75000 23.63900
C  -1.39800 35.41500 22.14500
C  -2.01800 34.01700 22.26800
C  -2.30400 33.82700 23.73200
C  -2.16000 36.36200 21.25100
C  -1.10600 32.96500 21.62700
C  0.23000 32.62800 22.31600
N  -2.63900 33.20000 26.61400
C  -3.24400 32.46300 25.54600
C  -4.05100 31.41200 26.09800
C  -3.97300 31.68000 27.48000
C  -3.14700 32.78500 27.79400
C  -4.83000 30.36200 25.42000
C  -4.36100 31.17200 28.81300
O  -5.21400 30.36800 29.21000
C  -3.53100 31.97200 29.88600
C  -4.42800 32.42400 31.03100
O  -5.01400 33.46600 31.02800
O  -4.40900 31.48500 32.02800
C  -5.36500 31.73700 33.06400
H  -0.11700 38.01400 29.46100
H  -0.20100 37.46100 23.14000
H  -3.41400 31.99200 23.57500
H  -2.77700 34.93500 31.49900
H  0.10100 35.75400 31.01100
H  -1.96000 36.67700 32.65400
H  -1.90100 37.75300 31.18200
H  -0.46300 37.63200 32.18900
H  -0.07200 33.91500 32.08300
H  -1.03400 32.65600 31.20200
H  -1.93300 32.18100 33.26000
H  -2.76600 33.71500 33.28800
H  1.56500 39.32100 28.70600
H  0.53700 40.64100 28.04800
H  2.09500 40.20800 27.27800
H  1.99700 41.37800 23.88400
H  2.88600 40.52800 25.09600
H  1.30800 41.40100 25.49500
H  -0.41300 35.33600 21.68400
H  -2.94100 33.84400 21.71400
H  -1.43500 37.03700 20.79700
H  -2.97200 36.89000 21.75200
H  -2.58700 35.91800 20.35200
H  -0.88200 33.30000 20.61400
H  -1.68300 32.04000 21.64600
H  0.12900 31.64700 22.78100
H  0.31000 33.32400 23.15100
H  1.15300 32.71100 21.74300
H  -5.07300 29.50200 26.04400
H  -4.24000 30.08500 24.54600
H  -5.78600 30.80500 25.14000
H  -2.77500 31.36200 30.38100
H  -5.04300 32.44600 33.82600
H  -5.40400 30.76900 33.56300
H  -6.33200 32.05900 32.67800
Mg -10.38200 16.97100 42.41300
C  -6.95200 17.49700 42.78400
C  -10.74600 20.35000 41.62300
C  -13.54500 16.30600 41.73100
C  -9.59000 13.52400 42.36900
N  -8.92600 18.65300 42.00100
C  -7.56100 18.66200 42.34000
C  -7.01800 20.03100 41.99100
C  -8.25000 20.93900 41.94200
C  -9.40100 19.91800 41.75900
C  -8.40900 21.83800 43.26200
C  -6.04000 20.08600 40.76900
C  -4.68200 20.79500 41.01300
H  -4.13600 21.64500 39.86500
N  -11.88300 18.18500 41.82100
C  -11.94300 19.54600 41.63800
C  -13.31600 19.96300 41.34500
C  -14.16000 18.75400 41.31400
C  -13.18400 17.64400 41.62500
C  -13.69800 21.41600 41.09000
C  -15.63800 18.70300 41.08300
O  -16.23000 19.76000 40.92500
C  -16.34600 17.44400 40.71400
N  -11.38100 15.15800 41.97100
C  -12.72700 15.21200 41.90300
C  -13.35800 13.77400 41.97800
C  -12.04000 12.88600 41.85300
C  -10.89300 13.90900 42.04200
C  -14.09900 13.50800 43.32500
C  -11.89600 12.26200 40.45600
C  -12.48000 10.87800 40.25100
N  -8.70700 15.69800 42.73200
C  -8.49900 14.32300 42.75300
C  -7.05600 13.98600 43.02700
C  -6.50500 15.24600 43.19700
C  -7.50400 16.20700 42.85000
C  -6.39700 12.64500 43.15200
C  -5.24900 15.90000 43.42100
O  -4.14000 15.57300 43.82300
C  -5.51900 17.40300 43.25500
C  -5.21000 18.03000 44.53600
O  -5.92800 18.01900 45.54200
O  -4.04400 18.66900 44.51100
C  -3.47400 19.15200 45.77000
H  -10.85600 21.42800 41.48400
H  -14.60600 16.08700 41.59400
H  -9.48000 12.43900 42.42200
H  -6.32500 20.39500 42.75000
H  -8.08000 21.62200 41.11000
H  -8.44100 22.89400 42.99100
H  -7.54300 21.72400 43.91500
H  -9.32900 21.61200 43.80000
H  -6.63500 20.47200 39.94200
H  -5.72000 19.05100 40.65000
H  -3.89900 20.11600 41.35100
H  -4.74600 21.45600 41.87700
H  -14.34200 21.49200 40.21400
H  -12.90300 22.16000 41.14100
H  -14.27200 21.77400 41.94400
H  -17.33900 17.61800 40.30000
H  -16.43000 16.94800 41.68100
H  -15.78700 16.89500 39.95700
H  -14.13100 13.54200 41.24500
H  -11.93700 12.16100 42.66000
H  -15.02900 12.97900 43.11800
H  -14.42600 14.41800 43.82800
H  -13.43000 13.02300 44.03500
H  -10.86800 12.10800 40.13000
H  -12.34200 12.93900 39.72800
H  -11.82000 10.06600 39.94500
H  -13.31300 10.96400 39.55300
H  -13.02100 10.54400 41.13700
H  -6.66700 12.06900 44.03700
H  -5.33600 12.86700 43.04100
H  -6.78100 11.96800 42.38800
H  -4.88800 17.90000 42.51900
H  -2.85300 20.02800 45.58200
H  -2.80000 18.40600 46.19000
H  -4.21000 19.39900 46.53500

