158

Mg 40.30600 9.27500 28.96400
C  42.04800 10.51100 31.66700
C  38.39100 7.36000 31.20300
C  38.61600 8.03400 26.39900
C  42.69600 10.68400 26.80800
N  40.41200 8.85200 31.20200
C  41.01700 9.66700 32.07500
C  40.32000 9.68700 33.47000
C  39.15000 8.59300 33.28200
C  39.31500 8.17400 31.80600
C  39.25200 7.33600 34.17500
C  39.88200 11.12600 34.01700
C  38.86100 11.23600 35.15900
H  39.36900 11.98100 36.46500
N  38.67500 7.97900 28.85200
C  38.12500 7.27100 29.86500
C  36.98100 6.45100 29.24400
C  36.99900 6.67500 27.84200
C  38.11200 7.60400 27.64800
C  36.09100 5.46000 30.16700
C  36.08900 6.05600 26.83100
O  36.24700 6.20500 25.59400
C  34.92600 5.05400 27.17800
N  40.58100 9.42200 26.89800
C  39.79100 8.75900 26.05400
C  40.28300 8.84700 24.63100
C  41.51100 9.77200 24.75100
C  41.57000 10.07600 26.25500
C  40.48600 7.46800 23.92000
C  41.64300 11.01200 23.81600
C  40.65900 12.19300 24.01400
N  42.09400 10.25000 29.14200
C  42.91500 10.81600 28.14400
C  44.00600 11.50400 28.80400
C  43.66500 11.47200 30.14500
C  42.50200 10.68200 30.32800
C  45.31400 12.06800 28.14600
C  44.03000 11.87700 31.56800
O  44.95000 12.51800 31.94400
C  42.81400 11.51000 32.48900
C  43.51900 10.95600 33.75200
O  44.01200 9.89200 34.02600
O  43.48400 11.96600 34.67700
C  43.75400 11.52800 36.00000
H  37.74800 6.98700 32.00200
H  38.12000 7.59700 25.53000
H  43.40700 11.11400 26.09900
H  41.11800 9.29600 34.10200
H  38.20600 9.13700 33.31900
H  38.26300 7.03000 34.51500
H  39.78400 7.56700 35.09800
H  39.77000 6.48200 33.73800
H  39.53900 11.78300 33.21800
H  40.85000 11.56500 34.26000
H  38.50300 10.25700 35.48000
H  38.01000 11.80300 34.78200
H  36.46800 4.43800 30.12800
H  35.08500 5.37200 29.75500
H  35.93700 5.78200 31.19700
H  35.26200 4.33100 27.92100
H  34.62400 4.52200 26.27600
H  34.15100 5.65000 27.66000
H  39.56900 9.39700 24.01800
H  42.42400 9.19000 24.62700
H  40.00400 7.63200 22.95600
H  40.02800 6.71400 24.55900
H  41.54100 7.20500 23.84500
H  41.37600 10.69700 22.80700
H  42.62900 11.46900 23.90600
H  41.09800 12.98200 24.62400
H  39.82000 11.80700 24.59300
H  40.38800 12.73400 23.10700
H  45.30500 11.95000 27.06200
H  46.24200 11.58800 28.45800
H  45.25400 13.14400 28.30600
H  42.27000 12.43500 32.68200
H  43.16900 10.64700 36.26100
H  43.68300 12.37100 36.68700
H  44.81900 11.29800 36.03800
Mg 46.45500 16.68200 28.32300
C  44.35900 15.99300 30.93000
C  48.61000 18.35900 30.44200
C  48.41400 17.40100 25.84400
C  44.25200 14.92200 26.14400
N  46.50900 17.12600 30.42400
C  45.56500 16.56100 31.34100
C  46.00300 16.85900 32.77200
C  47.38800 17.59000 32.55600
C  47.52000 17.74700 31.07000
C  47.56000 18.93200 33.27300
C  46.01300 15.64000 33.78700
C  45.41000 15.94800 35.13400
H  45.23800 17.42900 35.60200
N  48.28700 17.72800 28.15900
C  49.03000 18.37000 29.08800
C  50.19800 18.96300 28.56900
C  50.29500 18.58900 27.19700
C  48.95400 17.90000 26.98900
C  51.22000 19.85200 29.39900
C  51.44200 18.70500 26.19500
O  51.31200 18.30000 25.03400
C  52.72300 19.32200 26.56100
N  46.39000 16.16700 26.27000
C  47.25900 16.73200 25.45900
C  46.99800 16.31400 23.95500
C  45.70000 15.41000 24.01500
C  45.38500 15.50300 25.54200
C  46.77800 17.63200 23.08900
C  45.89500 13.85900 23.63000
C  45.07700 13.29700 22.42600
N  44.66200 15.66800 28.46500
C  43.83100 15.10700 27.49000
C  42.52300 14.73300 28.08000
C  42.71700 15.02700 29.43800
C  43.96600 15.59700 29.63600
C  41.28000 14.25100 27.37700
C  42.13900 15.03000 30.74100
O  40.97400 14.68100 31.03100
C  43.19900 15.52800 31.75300
C  42.53000 16.60900 32.60600
O  42.17900 17.71800 32.29500
O  42.33800 16.09100 33.82900
C  41.48800 16.93700 34.62700
H  49.38000 18.67300 31.15000
H  49.13100 17.66600 25.06500
H  43.49000 14.64600 25.41200
H  45.30500 17.59300 33.17500
H  48.17300 16.87300 32.79500
H  47.66900 19.77100 32.58600
H  48.46700 18.84600 33.87100
H  46.64600 19.07000 33.85100
H  47.03700 15.30600 33.95100
H  45.53600 14.78800 33.30400
H  46.07300 15.55000 35.90300
H  44.44800 15.44200 35.22200
H  50.80400 20.85300 29.51300
H  52.20800 19.92000 28.94500
H  51.39900 19.30500 30.32500
H  53.36300 19.31600 25.67900
H  53.06700 18.70100 27.38800
H  52.52700 20.36200 26.82400
H  47.82100 15.73000 23.54300
H  44.79700 15.68200 23.46900
H  45.72100 17.75000 22.85400
H  47.41000 17.37900 22.23700
H  47.14000 18.47300 23.67900
H  45.71500 13.13900 24.42900
H  46.96500 13.69700 23.50000
H  44.02500 13.48600 22.63900
H  45.25700 12.24600 22.20100
H  45.37100 13.89400 21.56200
H  41.22100 13.16400 27.43800
H  41.24700 14.58200 26.33900
H  40.35700 14.67700 27.77000
H  43.49400 14.64700 32.32200
H  40.55900 16.95300 34.05800
H  41.89000 17.90600 34.92300
H  41.24200 16.42700 35.55900

