158

Mg 46.51100 25.57500 28.06300
C  47.71300 27.70200 30.69700
C  45.64900 23.22400 30.37800
C  45.75600 23.54400 25.49700
C  48.28100 27.78300 25.87500
N  46.66400 25.52100 30.26000
C  47.06400 26.49800 31.13200
C  46.78600 26.10200 32.55300
C  46.21200 24.70300 32.49000
C  46.19200 24.40700 30.91500
C  47.09500 23.66300 33.23800
C  45.89800 27.12600 33.38200
C  46.32900 27.25500 34.88600
H  45.25600 27.46700 35.90400
N  45.83700 23.63600 28.01900
C  45.50400 22.80600 29.07300
C  44.79700 21.60300 28.64100
C  44.85200 21.70800 27.22300
C  45.52300 23.01000 26.84200
C  44.12300 20.57200 29.53400
C  44.25800 20.75600 26.15200
O  44.32400 20.95900 24.91600
C  43.40800 19.67600 26.59400
N  46.93300 25.71300 26.00200
C  46.30600 24.80200 25.10400
C  46.59700 25.20300 23.63700
C  47.42800 26.56000 23.82500
C  47.58700 26.70800 25.33500
C  47.34800 24.08700 22.82500
C  46.70700 27.82600 23.21000
C  47.63000 28.80100 22.46000
N  47.68900 27.49100 28.22600
C  48.29100 28.18400 27.20400
C  48.85000 29.44000 27.80000
C  48.66000 29.30200 29.18700
C  47.93800 28.10800 29.39100
C  49.58800 30.49400 27.14800
C  48.88500 29.88800 30.45100
O  49.53100 30.93200 30.77500
C  48.27100 28.92200 31.56100
C  49.32200 28.47500 32.54900
O  50.13400 27.64200 32.30200
O  49.10500 28.99400 33.83600
C  50.01200 28.51200 34.88800
H  45.26700 22.51000 31.11000
H  45.56500 22.92700 24.61600
H  48.76000 28.50300 25.20800
H  47.69300 26.14500 33.15600
H  45.17900 24.61100 32.82600
H  46.47700 22.90500 33.71900
H  47.63500 24.21700 34.00600
H  47.79500 23.12500 32.59900
H  44.88900 26.72700 33.47700
H  45.74000 28.09600 32.90900
H  47.03400 28.08000 34.99100
H  46.73800 26.28800 35.17800
H  44.11400 20.73600 30.61200
H  44.54900 19.58500 29.35800
H  43.10200 20.61200 29.15300
H  43.83100 19.05500 27.38400
H  43.10200 18.95800 25.83400
H  42.53900 20.18000 27.01600
H  45.61200 25.41100 23.21700
H  48.41500 26.39200 23.39400
H  48.37300 24.32800 22.54100
H  46.86400 23.87300 21.87200
H  47.47400 23.17500 23.40800
H  46.23900 28.30300 24.07200
H  45.89600 27.51300 22.55200
H  47.59300 29.80100 22.89200
H  47.23400 28.85500 21.44600
H  48.67200 28.48400 22.43000
H  49.00700 30.83200 26.29000
H  50.62800 30.25800 26.92400
H  49.71400 31.25100 27.92300
H  47.56400 29.62800 31.99700
H  49.68000 27.48800 35.06000
H  49.68900 29.03500 35.78800
H  51.06800 28.64800 34.65800
Mg 7.40200 53.51800 40.98600
C  6.89600 50.14000 40.66100
C  10.63600 53.06600 39.63100
C  7.62800 56.86500 40.26800
C  4.20900 53.98200 41.98800
N  8.59000 51.81000 40.18600
C  8.13000 50.55900 40.17700
C  9.12400 49.58300 39.52800
C  10.42000 50.48500 39.40600
C  9.93900 51.85600 39.83400
C  11.54200 50.06700 40.37800
C  8.75400 49.02600 38.08900
C  7.97200 49.92100 37.09400
H  7.20200 49.25100 35.91600
N  8.96000 54.77300 40.12800
C  10.17400 54.40600 39.71900
C  11.01000 55.62500 39.60300
C  10.12800 56.76000 39.63700
C  8.82800 56.17100 40.02100
C  12.51000 55.53900 39.15900
C  10.48300 58.19600 39.29500
O  11.59400 58.44400 38.92900
C  9.55700 59.34200 39.33100
N  6.06600 55.24100 41.19600
C  6.37900 56.52300 40.84700
C  5.18000 57.45800 41.08100
C  4.02600 56.50200 41.59800
C  4.79200 55.16800 41.54800
C  5.52100 58.65000 42.00700
C  2.73800 56.32500 40.66500
C  1.48000 56.85700 41.35500
N  5.89600 52.39000 41.46200
C  4.65200 52.67200 41.93500
C  3.93700 51.43700 42.26200
C  4.85200 50.44500 41.82900
C  5.98900 51.02500 41.29400
C  2.52100 51.15900 42.79700
C  4.91400 49.02300 41.69000
O  4.16900 48.06300 42.06100
C  6.25300 48.78200 40.84600
C  5.86100 48.02500 39.55800
O  5.28000 48.48400 38.63900
O  6.25200 46.71500 39.60800
C  5.65100 45.80200 38.60200
H  11.66900 52.91300 39.31300
H  7.57500 57.91100 39.95800
H  3.23300 54.12300 42.45700
H  9.18400 48.71200 40.18100
H  10.92200 50.53600 38.44000
H  11.29200 49.12800 40.87200
H  11.66800 50.83700 41.13900
H  12.51700 49.82800 39.95300
H  8.25700 48.05800 38.15000
H  9.69200 48.94400 37.54000
H  8.70300 50.65900 36.76500
H  7.19000 50.44500 37.64300
H  12.54900 54.83900 38.32500
H  13.01800 55.17200 40.05200
H  12.93400 56.44300 38.72300
H  9.20700 59.40300 40.36100
H  8.78700 59.14500 38.58400
H  10.06300 60.25100 39.00700
H  4.95400 57.82300 40.08000
H  3.64400 56.73800 42.59100
H  5.24800 59.62800 41.61200
H  6.55600 58.66400 42.34900
H  4.89100 58.53900 42.89000
H  2.62600 55.26000 40.45900
H  2.89100 56.91500 39.76100
H  1.36900 57.88000 40.99400
H  1.55000 56.87700 42.44300
H  0.66900 56.22600 40.99300
H  2.09700 52.03600 43.28600
H  2.62600 50.36200 43.53400
H  1.88500 50.88800 41.95400
H  7.02200 48.25300 41.40900
H  4.59400 46.06500 38.65100
H  5.90300 44.77000 38.84400
H  6.11000 46.04600 37.64400

