158

Mg 16.99300 -1.23100 27.84200
C  15.78500 0.78300 30.51200
C  19.12500 -2.74600 30.01700
C  18.65100 -2.69000 25.29700
C  15.17500 0.69200 25.75700
N  17.50300 -0.83400 29.97400
C  16.84100 -0.11600 30.98400
C  17.38200 -0.38100 32.39700
C  18.54800 -1.42800 32.11500
C  18.41100 -1.75800 30.62500
C  19.95300 -1.00100 32.59800
C  16.24000 -0.96900 33.37600
C  16.10700 -0.28100 34.72900
H  17.35900 0.33500 35.29900
N  18.59300 -2.59700 27.65000
C  19.27500 -3.17800 28.69900
C  20.09300 -4.24200 28.16700
C  20.02900 -4.19500 26.76600
C  19.03200 -3.15000 26.53100
C  20.83200 -5.17900 28.96400
C  20.63800 -5.04800 25.76300
O  20.16800 -5.19300 24.60100
C  21.74400 -5.90900 26.08000
N  16.92700 -1.12100 25.87100
C  17.67900 -1.73100 24.92500
C  17.40600 -1.32300 23.52100
C  16.11500 -0.46000 23.70700
C  16.04100 -0.30100 25.23800
C  18.60100 -0.61700 22.80600
C  14.78800 -1.17100 23.24200
C  14.58400 -1.45700 21.72100
N  15.64300 0.34800 28.01100
C  14.92000 1.02200 27.11200
C  14.04100 2.02600 27.70200
C  14.32800 1.95600 29.07500
C  15.35100 0.97300 29.18900
C  13.04800 2.97900 27.04000
C  14.06800 2.55200 30.38300
O  13.39600 3.52900 30.68900
C  14.84300 1.69200 31.46600
C  15.64400 2.61500 32.33500
O  16.77700 3.02300 32.09500
O  14.91600 2.92700 33.43100
C  15.63700 3.81300 34.40900
H  19.78900 -3.23800 30.73100
H  19.22400 -3.06200 24.44500
H  14.58900 1.33000 25.09300
H  17.85200 0.54000 32.74300
H  18.48700 -2.43300 32.53300
H  20.50200 -1.90200 32.87100
H  19.87800 -0.40500 33.50800
H  20.54600 -0.52200 31.81800
H  16.28100 -2.04600 33.53600
H  15.31500 -0.78200 32.83000
H  15.59200 -0.92100 35.44500
H  15.36100 0.47900 34.49400
H  20.39200 -6.17400 28.91000
H  20.88500 -4.86400 30.00600
H  21.90400 -5.23800 28.77200
H  21.40800 -6.70600 26.74300
H  22.47400 -5.31400 26.63100
H  22.24700 -6.31000 25.20000
H  17.19200 -2.25900 23.00400
H  16.23500 0.48300 23.17300
H  19.11900 -1.31900 22.15300
H  19.37100 -0.28600 23.50400
H  18.32200 0.21100 22.15600
H  14.02000 -0.49300 23.61200
H  14.76700 -2.07400 23.85200
H  13.62000 -1.00000 21.49900
H  14.51000 -2.49200 21.38700
H  15.34700 -1.03000 21.07000
H  12.47200 2.46600 26.26900
H  13.55000 3.80500 26.53700
H  12.25600 3.34600 27.69300
H  14.06300 1.15700 32.00700
H  15.33200 4.85400 34.51500
H  16.72700 3.83800 34.41400
H  15.38200 3.30000 35.33600
Mg 34.93300 3.33300 30.41600
C  32.62500 4.44600 32.85200
C  37.31400 3.56700 32.61000
C  37.17900 2.92100 27.76100
C  32.36500 3.58000 28.01100
N  34.90200 4.04900 32.37600
C  33.91300 4.22400 33.34100
C  34.28700 4.26900 34.78300
C  35.82200 4.12800 34.63900
C  36.01600 3.91700 33.09900
C  36.66900 5.28100 35.37700
C  33.61800 3.04400 35.48600
C  33.10500 3.38800 36.89100
H  33.74500 4.55200 37.59100
N  36.98100 3.06100 30.21400
C  37.76700 3.30500 31.30600
C  39.09000 2.97200 30.88500
C  39.09900 2.65100 29.48400
C  37.73600 2.86900 29.06400
C  40.26100 3.15700 31.84400
C  40.30800 2.29100 28.55800
O  40.24700 2.14700 27.33700
C  41.68400 1.98200 29.06800
N  34.72000 3.24300 28.17100
C  35.85000 3.05400 27.37500
C  35.35500 3.02500 25.88600
C  33.84600 3.20300 25.96600
C  33.60000 3.26800 27.43600
C  36.04200 3.99600 24.81000
C  33.09500 2.08700 25.13800
C  32.66800 0.70200 25.74100
N  32.87300 3.89300 30.41800
C  31.93100 3.84900 29.30700
C  30.62100 4.29800 29.81300
C  30.83500 4.44100 31.23000
C  32.24300 4.23100 31.52400
C  29.37200 4.54900 28.99500
C  30.22100 4.82600 32.42600
O  29.07500 5.12500 32.68900
C  31.37000 4.73300 33.51800
C  31.26900 5.99600 34.26400
O  31.99800 6.95300 34.19500
O  30.35400 5.78700 35.22900
C  30.34800 6.82000 36.21600
H  38.10900 3.60500 33.35700
H  37.95300 2.89100 26.99100
H  31.53300 3.77100 27.32900
H  34.04300 5.27200 35.13300
H  36.13000 3.15400 35.02000
H  36.90900 6.01000 34.60300
H  37.62200 4.84700 35.67700
H  36.11100 5.64000 36.24200
H  34.27300 2.20200 35.71100
H  32.90900 2.64600 34.76000
H  33.28500 2.46400 37.44000
H  32.02400 3.50800 36.96400
H  41.22800 2.74400 31.55700
H  39.98400 2.67900 32.78300
H  40.49200 4.21000 32.00300
H  41.60700 1.21000 29.83400
H  42.04300 2.95000 29.41800
H  42.23100 1.51000 28.25200
H  35.69300 2.03000 25.59400
H  33.59200 4.17100 25.53400
H  36.78300 3.41300 24.26400
H  36.53100 4.84300 25.28900
H  35.25400 4.50200 24.25100
H  33.54500 1.92700 24.15800
H  32.17700 2.61300 24.87600
H  31.76800 0.98800 26.28500
H  33.41600 0.43900 26.49000
H  32.63200 -0.07200 24.97400
H  29.54500 5.36000 28.28800
H  28.58100 4.76700 29.71300
H  29.15800 3.62100 28.46500
H  31.17200 3.90200 34.19500
H  29.69100 7.64200 35.93200
H  31.33100 7.23500 36.44000
H  29.97600 6.37900 37.14100

