158

Mg 40.77800 9.26300 30.30300
C  42.63800 10.23100 33.10400
C  38.16600 8.54400 32.53300
C  39.03600 8.04000 27.64000
C  43.53200 9.79300 28.29500
N  40.53500 9.33900 32.59800
C  41.32700 9.93900 33.55800
C  40.63900 10.09600 34.89000
C  39.32000 9.35000 34.66300
C  39.35600 9.06700 33.17900
C  39.18400 7.94500 35.28800
C  40.42700 11.63200 35.18500
C  39.94400 11.94200 36.63200
H  40.93100 12.71500 37.55600
N  38.88400 8.46600 30.06700
C  38.01700 8.17300 31.11300
C  36.85100 7.52000 30.54500
C  37.06200 7.44400 29.13400
C  38.40900 7.98000 28.86800
C  35.56600 7.14400 31.39600
C  36.13100 6.91200 28.03400
O  36.42300 6.82300 26.86500
C  34.68700 6.44600 28.33800
N  41.28000 8.75900 28.28500
C  40.35100 8.48800 27.39400
C  40.86200 8.77000 25.94600
C  42.31800 9.23300 26.15300
C  42.33200 9.27900 27.69400
C  40.68000 7.62400 24.87800
C  42.78300 10.65900 25.52900
C  42.14200 11.16600 24.25600
N  42.73200 9.83000 30.56200
C  43.77100 10.08000 29.64700
C  44.99200 10.44700 30.34600
C  44.55700 10.58000 31.65900
C  43.17900 10.22600 31.78900
C  46.35600 10.56700 29.84800
C  44.99200 10.91300 33.01700
O  46.06300 11.33800 33.37000
C  43.81100 10.80500 33.95700
C  44.09500 9.93300 35.15400
O  44.80200 8.93200 35.19000
O  43.73600 10.60300 36.32700
C  44.07400 9.97200 37.60200
H  37.30900 8.57600 33.20900
H  38.41900 7.87900 26.75300
H  44.36300 9.91200 27.59600
H  41.33300 9.48200 35.46400
H  38.46400 9.97100 34.92800
H  39.89300 7.72100 36.08500
H  39.25600 7.13600 34.56100
H  38.21400 7.92400 35.78300
H  39.79300 12.07400 34.41600
H  41.39700 12.11100 35.04700
H  39.64100 11.03500 37.15600
H  39.01900 12.46200 36.38200
H  35.71000 7.26400 32.46900
H  35.31700 6.10000 31.20400
H  34.65500 7.65200 31.08200
H  34.17000 7.38900 28.51000
H  34.63000 5.96700 29.31500
H  34.24100 5.83500 27.55300
H  40.30600 9.66200 25.65900
H  42.94300 8.36600 25.94400
H  40.07500 8.13400 24.12900
H  40.13300 6.72700 25.16700
H  41.64500 7.28900 24.49900
H  43.86900 10.69000 25.45000
H  42.45700 11.45200 26.20300
H  41.50500 10.40000 23.81300
H  42.93400 11.48700 23.57900
H  41.52900 12.03800 24.48300
H  46.85300 9.59700 29.82100
H  46.91900 11.34500 30.36300
H  46.27200 10.94500 28.82900
H  43.62800 11.82700 34.28900
H  43.80100 10.51100 38.51000
H  45.13700 9.73400 37.62100
H  43.47900 9.06000 37.65000
Mg -9.85200 39.88400 39.86500
C  -8.90200 36.51700 39.13600
C  -6.57000 40.86400 39.32200
C  -10.78800 43.08200 39.65700
C  -13.17000 38.73600 39.95900
N  -8.08400 38.77800 39.23400
C  -7.83100 37.42800 39.02300
C  -6.40200 37.11700 38.53800
C  -5.65200 38.45100 38.96600
C  -6.83400 39.50100 39.14800
C  -4.69900 38.39100 40.20800
C  -6.27400 36.84400 36.89000
C  -7.39300 37.39300 35.96600
H  -8.08000 36.57100 34.87900
N  -8.82500 41.74400 39.56700
C  -7.48700 41.87100 39.40900
C  -7.17100 43.35000 39.36800
C  -8.35300 43.99000 39.35200
C  -9.38200 42.96600 39.53700
C  -5.74100 43.84000 39.33500
C  -8.56100 45.43900 39.07600
O  -7.61100 46.21100 39.06200
C  -9.96400 46.03300 38.78200
N  -11.71500 40.74100 39.75600
C  -11.83900 42.11500 39.65900
C  -13.27400 42.51300 39.43300
C  -14.05100 41.09900 39.54800
C  -12.95000 40.13900 39.76000
C  -13.94300 43.62100 40.28800
C  -14.95500 40.85400 38.32200
C  -16.42000 40.37600 38.45800
N  -10.87900 38.00200 39.77100
C  -12.21200 37.67700 39.86200
C  -12.42200 36.26300 39.85300
C  -11.14400 35.74500 39.51600
C  -10.23900 36.86600 39.53400
C  -13.61700 35.38600 40.16100
C  -10.40700 34.55100 39.21800
O  -10.73600 33.39000 39.14700
C  -8.91100 35.06800 38.96300
C  -8.02400 34.34900 39.88500
O  -8.23800 34.07500 41.07500
O  -6.89200 33.93200 39.25200
C  -5.88200 33.16200 40.04300
H  -5.49400 41.04700 39.27300
H  -11.22100 44.08300 39.59900
H  -14.20000 38.37900 39.88500
H  -5.96900 36.29600 39.10900
H  -5.08100 38.75800 38.09100
H  -3.69400 38.74600 39.98000
H  -4.70900 37.38700 40.63000
H  -5.13700 38.98900 41.00700
H  -6.39500 35.76600 36.78800
H  -5.27400 36.97800 36.47800
H  -6.95300 38.29200 35.53400
H  -8.23900 37.85100 36.47800
H  -5.40000 44.03300 38.31800
H  -5.06400 43.15900 39.85100
H  -5.53000 44.79900 39.80800
H  -10.58900 46.09100 39.67300
H  -10.59900 45.62500 37.99500
H  -9.74700 47.04500 38.44100
H  -13.10200 42.91600 38.43500
H  -14.68500 41.04400 40.43300
H  -14.72300 43.27700 40.96800
H  -14.43400 44.34100 39.63300
H  -13.23100 44.10900 40.95300
H  -14.46200 39.95700 37.94900
H  -14.70700 41.62200 37.58900
H  -17.08700 40.95600 37.82100
H  -16.84900 40.31300 39.45800
H  -16.56000 39.42100 37.95100
H  -14.16000 36.00000 40.87900
H  -13.29100 34.44700 40.60800
H  -14.15100 35.11200 39.25100
H  -8.71800 34.79800 37.92500
H  -5.49700 32.26600 39.55700
H  -6.35100 32.68300 40.90300
H  -5.03900 33.83200 40.21500

