158

Mg 25.21300 0.97300 29.91700
C  27.04700 1.07800 32.81200
C  22.31900 1.34000 31.80200
C  23.36700 0.60000 27.16700
C  28.15400 0.48600 28.15000
N  24.69900 1.12300 32.05700
C  25.65500 1.31700 33.00700
C  24.93600 1.74700 34.32600
C  23.44000 1.80400 34.08400
C  23.43900 1.41800 32.57900
C  22.63500 0.67100 34.88300
C  25.48900 3.20700 34.72400
C  26.21900 3.30000 36.08400
H  25.64900 4.21100 37.20200
N  23.13000 0.90700 29.48200
C  22.16500 1.16700 30.38900
C  20.88600 1.19000 29.74600
C  21.17900 0.89200 28.33000
C  22.57400 0.73900 28.31200
C  19.53400 1.42200 30.46600
C  20.17400 0.74400 27.23900
O  20.39900 0.52500 26.05700
C  18.62700 0.80200 27.62200
N  25.67700 0.48500 27.99000
C  24.73700 0.60500 26.96400
C  25.46500 0.59900 25.60800
C  26.92100 0.78100 26.00200
C  26.94200 0.53800 27.48900
C  25.21800 -0.60300 24.71700
C  27.43800 2.20800 25.63700
C  26.64500 3.46100 26.21400
N  27.22400 0.78800 30.32400
C  28.28500 0.55300 29.54000
C  29.45400 0.35400 30.36000
C  29.05100 0.66100 31.66200
C  27.67800 0.85600 31.59900
C  30.86200 0.11700 29.86000
C  29.50000 0.96200 33.02700
O  30.61500 0.95300 33.54100
C  28.23100 1.30200 33.83600
C  28.18300 0.38200 34.98800
O  27.75000 -0.76200 35.03800
O  28.65700 1.06700 36.08400
C  28.53800 0.21000 37.29000
H  21.46600 1.72000 32.36800
H  22.79800 0.49700 26.24100
H  29.02300 0.52700 27.49000
H  25.20700 1.01100 35.08300
H  22.91100 2.74400 34.24000
H  21.92400 1.18600 35.53000
H  23.30400 0.11300 35.53800
H  22.08500 0.03500 34.19000
H  24.56900 3.78300 34.82000
H  26.10400 3.55200 33.89200
H  27.18900 3.70100 35.78900
H  26.47000 2.28900 36.40500
H  19.12100 2.38000 30.14900
H  19.60600 1.63600 31.53200
H  18.86800 0.58400 30.26100
H  18.27200 1.55900 28.32100
H  18.38600 -0.23100 27.87100
H  17.98900 1.07400 26.78100
H  25.12000 1.47300 25.05400
H  27.54500 0.05400 25.48400
H  26.15700 -0.91100 24.25600
H  24.60300 -0.32800 23.86000
H  24.89200 -1.50200 25.24100
H  27.33000 2.23300 24.55300
H  28.51000 2.19200 25.83300
H  25.81400 3.25400 26.88800
H  26.16100 3.99100 25.39200
H  27.26100 4.11400 26.83200
H  31.07200 0.12200 28.79000
H  31.03500 -0.85800 30.31600
H  31.53900 0.75100 30.43300
H  28.31600 2.31500 34.22900
H  28.66100 0.89800 38.12700
H  29.30700 -0.56300 37.28200
H  27.53400 -0.20500 37.38200
Mg 10.27300 47.93500 25.56500
C  8.27500 48.20400 28.47600
C  12.83300 49.39600 27.21300
C  12.03700 47.89600 22.61100
C  7.41900 47.02200 23.80900
N  10.51300 48.74000 27.59400
C  9.64300 48.63900 28.65900
C  10.26400 49.13300 29.90700
C  11.43600 49.99300 29.46200
C  11.64800 49.45500 27.98800
C  11.18600 51.49800 29.58500
C  10.77400 47.93800 30.79200
C  10.96600 48.13100 32.33400
H  10.47000 47.03700 33.29000
N  12.16400 48.45200 25.02400
C  13.08800 48.88900 25.93600
C  14.37000 48.94800 25.30200
C  14.20800 48.64100 23.90100
C  12.74900 48.29300 23.77300
C  15.66600 49.46100 26.00900
C  15.14300 48.72900 22.77600
O  14.85200 48.35800 21.60000
C  16.60300 49.02100 22.96500
N  9.79200 47.70000 23.46500
C  10.65700 47.75400 22.37700
C  9.87200 47.37500 21.03900
C  8.57000 46.69800 21.61100
C  8.58600 47.16900 23.05800
C  9.43700 48.57500 20.10100
C  8.61200 45.11500 21.50600
C  9.38300 44.42900 22.64200
N  8.22900 47.64000 26.05500
C  7.16600 47.27500 25.19300
C  5.93700 47.31600 25.94900
C  6.39000 47.58800 27.22300
C  7.75900 47.82400 27.25800
C  4.50900 47.04100 25.39300
C  5.89300 47.82100 28.50800
O  4.70300 47.60000 28.95400
C  7.09400 48.12000 29.42000
C  7.08700 46.88600 30.21800
O  7.56000 45.80800 29.83500
O  6.63400 47.13600 31.46300
C  6.67000 46.08400 32.39700
H  13.67700 49.82300 27.76000
H  12.50700 47.70500 21.64400
H  6.59700 46.69600 23.16900
H  9.49200 49.64100 30.48500
H  12.39000 49.88400 29.97700
H  12.07700 51.95900 30.01200
H  10.31100 51.66300 30.21300
H  10.97100 51.93200 28.60800
H  11.78600 47.64300 30.51500
H  10.20800 47.03500 30.56200
H  10.56900 49.14400 32.40800
H  11.99700 48.30100 32.64200
H  15.57900 49.88200 27.01000
H  16.20600 50.24400 25.47700
H  16.39300 48.65300 26.10100
H  17.10100 48.88800 22.00400
H  17.03300 48.36600 23.72200
H  16.70500 50.04800 23.31400
H  10.51300 46.67900 20.49800
H  7.74400 47.00400 20.96800
H  10.08200 49.39700 20.41200
H  8.37500 48.81900 20.06400
H  9.67000 48.27200 19.08000
H  9.05100 44.90500 20.53000
H  7.65400 44.60200 21.41900
H  10.11400 44.92200 23.28300
H  9.91700 43.76800 21.96000
H  8.61000 43.95500 23.24600
H  4.21300 47.29600 24.37600
H  3.89000 47.75900 25.93100
H  4.05600 46.07400 25.61400
H  6.94900 49.00900 30.03400
H  7.67900 45.70000 32.55100
H  5.97700 45.29900 32.09700
H  6.23600 46.49400 33.30900

