158

Mg 36.09700 49.32400 25.07900
C  36.06400 47.48900 27.98100
C  34.84800 52.03800 26.58400
C  35.77900 50.83700 22.00100
C  36.90700 46.32200 23.35700
N  35.62800 49.70400 27.15800
C  35.71800 48.85200 28.18600
C  35.20600 49.59800 29.43700
C  34.66800 51.02500 28.91000
C  35.06300 50.93400 27.44800
C  33.14700 51.28000 29.21500
C  36.23100 49.65800 30.56400
C  35.61400 49.63900 32.01000
H  34.15100 49.92700 32.36500
N  35.50700 51.22000 24.40300
C  35.06000 52.22000 25.19700
C  34.80400 53.45300 24.41400
C  35.18200 53.09100 23.09600
C  35.51200 51.65500 23.07700
C  34.29600 54.64600 25.11600
C  35.22000 53.99200 21.86100
O  35.58200 53.53900 20.77000
C  34.97000 55.47300 21.97000
N  36.26100 48.63200 22.95700
C  35.98800 49.42400 21.92800
C  36.20100 48.77800 20.62700
C  36.73600 47.38700 21.03900
C  36.67000 47.47300 22.52200
C  34.96500 48.77700 19.65900
C  38.15100 47.03400 20.42500
C  39.39800 47.88600 20.92200
N  36.52000 47.29100 25.54600
C  36.77500 46.24300 24.72500
C  36.89400 45.06500 25.56100
C  36.63900 45.51200 26.84200
C  36.43600 46.86100 26.79300
C  37.33700 43.76400 25.05200
C  36.58700 45.10000 28.20800
O  36.71100 43.98900 28.73400
C  36.21200 46.38100 29.03100
C  34.96200 46.12900 29.88600
O  33.82900 45.94500 29.46900
O  35.26600 46.21200 31.22300
C  34.20900 45.92100 32.19000
H  34.67300 52.93000 27.18900
H  35.81700 51.31700 21.02100
H  37.10100 45.41600 22.77900
H  34.40900 49.01600 29.89900
H  35.26000 51.84200 29.32300
H  32.56500 51.08800 28.31400
H  32.97700 52.32200 29.48400
H  32.79000 50.62700 30.01200
H  36.77300 50.59500 30.43300
H  37.02700 48.92000 30.47100
H  36.23900 50.33700 32.56700
H  35.89000 48.64100 32.35100
H  33.77100 55.42700 24.56500
H  35.16400 55.03300 25.65000
H  33.74500 54.37300 26.01700
H  33.88700 55.58000 21.90800
H  35.58800 55.84200 21.15200
H  35.48200 55.76200 22.88800
H  36.99700 49.22400 20.03000
H  36.12700 46.54200 20.71800
H  34.03400 48.47200 20.13600
H  35.17300 48.25500 18.72500
H  34.81700 49.80000 19.31300
H  38.06700 47.23700 19.35700
H  38.38900 45.97800 20.55400
H  39.81300 48.41200 20.06200
H  40.20800 47.21200 21.19900
H  39.16000 48.61000 21.70000
H  38.23000 43.93600 24.45000
H  36.58800 43.21500 24.48200
H  37.51500 43.12500 25.91600
H  37.09300 46.57000 29.64400
H  34.64600 46.07600 33.17600
H  34.03600 44.85800 32.02000
H  33.25100 46.44100 32.15300
Mg -1.05400 33.96900 26.91500
C  -2.99500 32.48700 29.52900
C  0.39900 36.01300 29.22500
C  0.40900 35.76300 24.29300
C  -2.94400 32.24000 24.59000
N  -1.33900 34.33600 29.16700
C  -2.09100 33.57200 30.01000
C  -2.00700 34.03900 31.44200
C  -1.03000 35.25100 31.34600
C  -0.62200 35.25200 29.82400
C  -1.65700 36.65400 31.80600
C  -1.52500 32.91700 32.42900
C  -2.49000 32.51300 33.64800
H  -1.84400 32.25100 35.02500
N  0.34700 35.49100 26.80000
C  0.84400 36.14600 27.90600
C  1.88200 37.13400 27.42200
C  1.75900 37.13600 26.02800
C  0.84900 36.08700 25.60200
C  2.80200 37.86200 28.30400
C  2.43700 38.14400 24.99800
O  2.20900 38.16100 23.82300
C  3.52900 39.01000 25.52500
N  -1.23400 34.04800 24.85400
C  -0.57700 34.84800 23.96100
C  -0.97300 34.57200 22.43500
C  -1.73100 33.20700 22.56500
C  -1.99400 33.17100 24.08600
C  -1.61400 35.81000 21.76200
C  -0.95400 32.02700 22.02400
C  0.27400 31.61600 22.87000
N  -2.59300 32.59500 26.99300
C  -3.23600 31.97700 25.96000
C  -4.13900 30.96400 26.44100
C  -4.13500 31.22100 27.88000
C  -3.11400 32.12600 28.11400
C  -5.10900 30.14800 25.68700
C  -4.78000 30.78900 29.09500
O  -5.68100 29.97900 29.22700
C  -4.02600 31.58700 30.30000
C  -5.03900 32.41900 30.94000
O  -5.66700 33.34200 30.42100
O  -5.35100 31.95200 32.09500
C  -6.38100 32.65200 32.93800
H  0.90500 36.58500 30.00500
H  0.82300 36.37800 23.49100
H  -3.45300 31.68900 23.79700
H  -2.97700 34.37100 31.81100
H  -0.21700 35.02000 32.03400
H  -2.73800 36.55200 31.90800
H  -1.33900 37.46700 31.15400
H  -1.28700 36.93600 32.79200
H  -0.59300 33.14000 32.94800
H  -1.36900 32.04900 31.78800
H  -2.95500 31.56600 33.37300
H  -3.31500 33.22600 33.66500
H  2.56700 38.92500 28.35500
H  3.82500 37.65500 27.98800
H  2.76400 37.41900 29.29900
H  3.15300 39.70500 26.27600
H  4.06300 39.43900 24.67700
H  4.22000 38.35300 26.05500
H  -0.02400 34.42100 21.91900
H  -2.65900 33.30900 22.00200
H  -0.78200 36.09200 21.11800
H  -1.77200 36.65600 22.43100
H  -2.53200 35.51400 21.25400
H  -0.63200 32.10900 20.98600
H  -1.64100 31.18100 22.03300
H  0.29700 32.40100 23.62600
H  1.17000 31.69600 22.25500
H  0.13400 30.67800 23.40700
H  -5.17700 30.39400 24.62800
H  -6.09700 30.30500 26.12100
H  -4.87900 29.12700 25.99400
H  -3.63200 30.81000 30.95500
H  -7.22200 33.13700 32.44400
H  -5.81400 33.38100 33.51600
H  -6.67000 31.77200 33.51300

