158

Mg 48.98800 46.87700 43.01800
C  45.61500 47.21500 42.37400
C  49.16500 44.18200 41.04000
C  52.38300 46.96600 43.37900
C  48.83200 50.18300 44.42400
N  47.58200 46.02400 41.60800
C  46.22900 46.19400 41.65800
C  45.58000 45.34000 40.61500
C  46.65900 44.22400 40.31700
C  47.89300 44.77900 41.06400
C  46.22400 42.85800 40.83300
C  45.12800 46.20300 39.42200
C  43.56600 46.12700 39.15400
H  43.02100 45.45700 37.77000
N  50.50600 45.62300 42.42100
C  50.39500 44.53500 41.59600
C  51.68700 43.81100 41.45300
C  52.60600 44.54600 42.32200
C  51.85900 45.77400 42.75000
C  51.96800 42.54800 40.62900
C  54.03300 44.08300 42.77500
O  54.61900 43.14100 42.17300
C  54.74700 44.71500 44.06500
N  50.44400 48.36200 43.68600
C  51.74400 48.04800 43.93400
C  52.47200 49.29600 44.55400
C  51.30400 50.22700 44.88300
C  50.10800 49.58600 44.25000
C  53.36000 48.99400 45.72200
C  51.48900 51.65500 44.56900
C  50.99400 52.06800 43.18600
N  47.52500 48.40500 43.43200
C  47.60100 49.66100 43.97700
C  46.29900 50.29200 43.90200
C  45.37400 49.28900 43.42000
C  46.24700 48.22100 43.08300
C  46.03200 51.67000 44.31600
C  43.97400 48.92600 43.01200
O  42.88400 49.51900 43.10200
C  44.15800 47.45900 42.41000
C  43.39400 46.46600 43.15900
O  43.73800 45.90300 44.21300
O  42.12600 46.38100 42.60700
C  41.28100 45.31100 43.20400
H  49.11500 43.39300 40.28600
H  53.47300 47.02200 43.42000
H  48.76600 51.21200 44.78400
H  44.71900 44.80700 41.01800
H  46.75300 44.18100 39.23100
H  46.50800 42.06800 40.13700
H  45.18200 42.59300 41.01200
H  46.77300 42.74000 41.76700
H  45.63500 45.88700 38.51100
H  45.37300 47.25100 39.59900
H  43.39100 47.20100 39.09100
H  42.85200 45.75300 39.88800
H  52.88300 42.49200 40.03900
H  51.13200 42.46000 39.93400
H  51.86200 41.68600 41.28700
H  55.34900 45.58500 43.80400
H  55.37700 43.89700 44.41500
H  53.99800 45.02500 44.79400
H  53.04500 49.69100 43.71500
H  51.11300 50.08900 45.94700
H  53.28300 47.94000 45.98900
H  53.29200 49.73200 46.52000
H  54.36300 49.06100 45.30000
H  52.54100 51.93600 44.61500
H  50.90000 52.14900 45.34200
H  51.60800 52.90700 42.86000
H  49.97700 52.45700 43.14700
H  51.19000 51.25300 42.48800
H  45.03400 51.89500 43.93800
H  46.72200 52.38100 43.86200
H  46.07400 51.75300 45.40200
H  43.62600 47.54600 41.46200
H  41.87300 44.42000 43.41300
H  40.43300 45.00100 42.59200
H  40.77500 45.57200 44.13300
Mg -12.61300 15.99400 42.05700
C  -9.66600 14.07200 41.66100
C  -10.98500 18.40100 40.06300
C  -15.48100 17.64000 41.50600
C  -14.34900 13.19900 42.99900
N  -10.46600 16.24000 40.92700
C  -9.48000 15.24900 40.91900
C  -8.24800 15.73400 40.02900
C  -8.80300 17.13200 39.51400
C  -10.22400 17.28400 40.18800
C  -7.87200 18.33000 39.96500
C  -7.77500 14.76600 38.89100
C  -6.22100 14.54800 38.76300
H  -5.52500 15.26100 37.59800
N  -13.11500 17.86000 41.14700
C  -12.29700 18.75400 40.47800
C  -12.92800 20.04900 40.33000
C  -14.26600 19.85900 40.78300
C  -14.29800 18.42200 41.18300
C  -12.22400 21.28400 40.00600
C  -15.39800 20.84900 40.95800
O  -15.24200 22.00800 40.62900
C  -16.72700 20.51900 41.71400
N  -14.65200 15.46000 42.16600
C  -15.68100 16.33400 41.96000
C  -16.98600 15.74300 42.47600
C  -16.54300 14.36800 43.09500
C  -15.13800 14.33400 42.66900
C  -17.92800 16.64500 43.34100
C  -17.40300 13.11000 42.77700
C  -18.94000 13.22300 42.89300
N  -12.17500 14.06400 42.29300
C  -12.98100 13.03100 42.78200
C  -12.11400 11.89600 43.04900
C  -10.80500 12.31700 42.62200
C  -10.91100 13.55500 42.10500
C  -12.45200 10.51100 43.66400
C  -9.41300 11.82600 42.45900
O  -8.83900 10.78900 42.78500
C  -8.60200 12.95000 41.68100
C  -7.52400 13.40600 42.56300
O  -7.59200 13.55100 43.79000
O  -6.33600 13.55100 41.85200
C  -5.16500 14.15300 42.56000
H  -10.46500 19.24100 39.59800
H  -16.42200 18.18000 41.37400
H  -14.90100 12.31900 43.33600
H  -7.54500 15.80300 40.86000
H  -8.88400 17.14700 38.42800
H  -6.94400 17.98500 40.42100
H  -8.37200 19.09900 40.55500
H  -7.61000 18.95800 39.11400
H  -8.20900 15.05700 37.93500
H  -8.27000 13.79600 38.94300
H  -5.97100 13.49400 38.88700
H  -5.67500 14.91200 39.63300
H  -12.92000 21.73400 39.29800
H  -11.18700 21.18500 39.68500
H  -12.20300 21.90600 40.90100
H  -17.20700 19.92700 40.93400
H  -17.22300 21.47700 41.86800
H  -16.50900 19.96500 42.62700
H  -17.55800 15.38300 41.62100
H  -16.57100 14.56400 44.16700
H  -17.52700 17.65700 43.39800
H  -17.98200 16.25300 44.35700
H  -18.91800 16.72600 42.89200
H  -17.04100 12.43600 43.55300
H  -17.15100 12.59100 41.85200
H  -19.41000 12.28100 42.61300
H  -19.30100 13.93800 42.15300
H  -19.22700 13.47500 43.91300
H  -12.25300 9.72900 42.93100
H  -13.46100 10.43000 44.06800
H  -11.79400 10.44600 44.52900
H  -8.24400 12.39100 40.81700
H  -4.35100 13.48600 42.27700
H  -5.35800 14.19000 43.63300
H  -5.02600 15.14800 42.13800

