158

Mg 48.44700 16.13100 28.53900
C  46.31800 16.06900 31.32700
C  50.70400 17.92000 30.46800
C  50.50500 16.03200 25.99100
C  45.88500 14.79800 26.65600
N  48.41600 16.97300 30.61800
C  47.49700 16.74400 31.60500
C  48.02600 17.20800 32.96600
C  49.20200 18.12800 32.57200
C  49.43200 17.65700 31.14600
C  48.93100 19.68500 32.77500
C  48.27900 15.99600 33.90200
C  48.37900 16.39800 35.38800
H  48.01400 17.76900 35.94400
N  50.33500 16.78000 28.25000
C  51.13500 17.52300 29.17600
C  52.41700 17.78800 28.52000
C  52.33600 17.23500 27.29000
C  51.05400 16.63500 27.12500
C  53.49100 18.62400 29.20200
C  53.40200 17.33300 26.22600
O  53.19000 16.89100 25.12100
C  54.86100 17.70700 26.59900
N  48.26400 15.28500 26.64100
C  49.27000 15.48000 25.68800
C  48.84700 15.05800 24.26500
C  47.41800 14.44900 24.53900
C  47.12800 14.83600 26.04300
C  48.90300 16.15400 23.20300
C  47.25300 12.95100 24.47400
C  47.24800 12.32600 23.05200
N  46.47600 15.68100 28.83200
C  45.58900 15.14000 27.96100
C  44.31000 15.03900 28.62100
C  44.55300 15.30600 30.01600
C  45.94100 15.68700 30.07000
C  42.98700 14.48600 28.09200
C  43.99900 15.31900 31.35400
O  42.93800 14.97700 31.80800
C  45.24200 15.75000 32.32600
C  44.74300 16.87100 33.18900
O  44.21200 17.91300 32.78000
O  44.69200 16.39700 34.49200
C  43.87600 17.21100 35.31700
H  51.44600 18.38200 31.12300
H  51.10700 16.02100 25.08000
H  45.09000 14.37300 26.04000
H  47.25300 17.79100 33.46700
H  50.08800 17.79700 33.11400
H  49.78200 20.13500 33.28700
H  48.08000 19.91400 33.41600
H  48.77200 20.14300 31.79900
H  49.19500 15.53500 33.53200
H  47.44600 15.29400 33.91900
H  49.40900 16.27400 35.72400
H  47.86000 15.60400 35.92600
H  54.28900 17.94400 29.49800
H  53.14900 19.06800 30.13700
H  53.75700 19.41200 28.49700
H  54.98100 18.78700 26.68200
H  55.45200 17.55900 25.69500
H  55.14400 16.98500 27.36500
H  49.56500 14.31900 23.91000
H  46.60800 14.95600 24.01500
H  49.39400 17.06800 23.53600
H  47.89100 16.34700 22.84600
H  49.54700 15.76800 22.41300
H  46.23900 12.79800 24.84300
H  47.87600 12.39200 25.17300
H  47.87000 11.46200 22.81600
H  47.51900 13.09000 22.32400
H  46.29800 11.89100 22.74100
H  42.89100 13.40600 28.19800
H  42.87500 14.69100 27.02700
H  42.26400 14.99900 28.72800
H  45.53700 14.86900 32.89600
H  44.17100 18.25500 35.42700
H  43.77500 16.78700 36.31600
H  42.89400 17.24600 34.84600
Mg 35.67900 48.44200 24.75600
C  36.00800 46.76500 27.91400
C  34.40500 51.13400 26.47100
C  35.14300 49.87900 21.78100
C  36.67500 45.45400 23.14600
N  35.14100 48.81000 27.01700
C  35.38600 48.04400 28.05200
C  34.99600 48.76200 29.38700
C  34.24200 50.06400 28.85600
C  34.53400 50.00200 27.30900
C  32.64500 50.08300 29.06300
C  36.16500 49.06200 30.44300
C  35.90100 48.74200 31.87000
H  34.55500 49.04000 32.48200
N  35.07200 50.37000 24.16400
C  34.62900 51.34700 25.06000
C  34.55800 52.56800 24.25400
C  34.78600 52.20900 22.88600
C  34.89000 50.75600 22.89600
C  34.37600 53.85600 24.91600
C  34.84300 52.99800 21.68100
O  35.15900 52.56300 20.58500
C  34.33900 54.37200 21.67500
N  35.99900 47.76200 22.77700
C  35.65800 48.55900 21.70900
C  35.98200 47.81400 20.40300
C  36.59500 46.44100 20.86300
C  36.34400 46.53300 22.36800
C  34.84700 47.67800 19.47000
C  38.11800 46.30700 20.59700
C  39.01900 47.38200 21.23500
N  36.24400 46.49300 25.31000
C  36.64900 45.38500 24.57900
C  37.06800 44.30500 25.42300
C  36.81900 44.84100 26.74800
C  36.32800 46.16300 26.65500
C  37.60800 43.08300 24.89700
C  37.00100 44.51300 28.19500
O  37.40500 43.50800 28.79100
C  36.53500 45.86600 29.00400
C  35.43200 45.37200 29.89200
O  34.20700 45.43500 29.58900
O  35.88300 45.06000 31.12700
C  34.84600 44.58300 32.02200
H  34.05000 52.04500 26.95700
H  35.03700 50.35500 20.80400
H  36.98900 44.53700 22.64400
H  34.32800 48.07000 29.90000
H  34.66200 50.94800 29.33600
H  32.08500 50.12400 28.12800
H  32.58200 50.90800 29.77300
H  32.34400 49.17400 29.58300
H  36.32000 50.14000 30.48600
H  37.07200 48.69400 29.96400
H  36.60600 49.36800 32.41700
H  36.11900 47.67900 31.97200
H  35.02300 54.52900 24.35300
H  34.75900 53.73300 25.92900
H  33.36500 54.24500 24.79500
H  34.08500 54.67600 20.65900
H  35.17200 55.00100 21.99000
H  33.35300 54.55300 22.10200
H  36.72100 48.52400 20.03100
H  35.99800 45.64700 20.41400
H  33.85900 47.80000 19.91400
H  34.76700 46.69300 19.01100
H  34.90000 48.42600 18.67800
H  38.17900 46.51200 19.52800
H  38.41100 45.28800 20.85100
H  39.88900 46.88100 21.66000
H  38.67600 48.06000 22.01600
H  39.21600 48.09000 20.43000
H  36.87400 42.75000 24.16300
H  37.69700 42.38300 25.72800
H  38.60200 43.22600 24.47100
H  37.37100 46.29000 29.56100
H  35.14100 44.20800 33.00200
H  34.27200 43.76600 31.58500
H  34.15000 45.38100 32.28000

