158

Mg 49.76500 35.33800 25.73700
C  47.55500 34.43500 28.20800
C  50.26200 38.41200 27.41100
C  51.75400 36.39400 23.14700
C  49.38500 32.24500 24.36200
N  48.79600 36.42700 27.47900
C  48.08400 35.68300 28.44000
C  48.04200 36.43800 29.78000
C  48.49100 37.88300 29.34400
C  49.22700 37.59600 27.99400
C  47.45000 39.02300 29.07000
C  48.94600 35.80300 31.00000
C  48.35300 35.63200 32.39500
H  47.09600 36.40800 32.86100
N  50.79200 37.15800 25.30000
C  50.99500 38.15900 26.17400
C  52.08100 39.05800 25.67300
C  52.33100 38.63300 24.37400
C  51.62100 37.37900 24.20300
C  52.67400 40.20800 26.46500
C  53.16300 39.32100 23.32000
O  53.26700 38.85400 22.19900
C  54.01400 40.41500 23.75800
N  50.52200 34.43500 24.06800
C  51.15200 35.08100 23.00000
C  51.21900 34.21900 21.70600
C  50.69400 32.84400 22.21400
C  50.19300 33.15100 23.68300
C  50.55200 34.83400 20.48700
C  51.61400 31.56800 22.15800
C  51.70500 30.80300 20.81600
N  48.60500 33.67100 26.07800
C  48.61200 32.44500 25.45700
C  47.59800 31.63200 26.04500
C  47.09400 32.32800 27.12600
C  47.80700 33.59800 27.08200
C  46.99800 30.44200 25.40500
C  46.27100 32.34500 28.25900
O  45.49500 31.50300 28.64500
C  46.59200 33.66500 29.04100
C  47.09300 33.10000 30.33500
O  48.15100 32.57300 30.47100
O  46.09700 33.10200 31.31800
C  46.37500 32.23700 32.48800
H  50.29000 39.32500 28.01000
H  52.50000 36.61500 22.38100
H  49.27300 31.29600 23.83500
H  47.01200 36.52700 30.12500
H  49.27500 38.16700 30.04600
H  47.62100 39.86200 29.74500
H  46.44400 38.60800 29.13100
H  47.53100 39.44000 28.06600
H  49.91200 36.26300 31.21100
H  49.25500 34.78900 30.74600
H  49.08200 35.83400 33.17900
H  48.30500 34.55500 32.55500
H  53.67000 39.97100 26.84000
H  52.13400 40.29000 27.40900
H  52.70900 41.19000 25.99300
H  54.70100 40.68800 22.95700
H  54.62900 40.06600 24.58700
H  53.44700 41.31700 23.98800
H  52.27100 34.13100 21.43500
H  49.84200 32.64500 21.56300
H  49.80600 35.54200 20.84900
H  49.95100 34.15300 19.88400
H  51.27600 35.34500 19.85300
H  51.31900 30.81800 22.89100
H  52.58000 32.00500 22.41200
H  52.74600 31.00500 20.56400
H  51.09000 31.12000 19.97300
H  51.54600 29.74600 21.03000
H  46.69700 29.64000 26.07900
H  47.72700 29.94600 24.76400
H  46.20000 30.79700 24.75200
H  45.70500 34.28500 29.16800
H  45.47600 32.13400 33.09600
H  47.16600 32.70800 33.07300
H  46.62000 31.22100 32.18000
Mg 17.38200 52.99800 27.40100
C  19.23600 51.52000 29.90300
C  14.95300 53.88200 29.60900
C  15.49500 54.06400 24.72600
C  19.87000 51.90200 25.08000
N  17.16900 52.73000 29.41200
C  18.08900 52.20000 30.29800
C  17.60700 52.35400 31.75600
C  16.11500 52.77400 31.59200
C  16.07100 53.21800 30.14900
C  15.13700 51.56400 31.75500
C  18.46800 53.49900 32.34600
C  18.83700 53.32700 33.85100
H  17.94400 52.53800 34.81800
N  15.48100 53.91400 27.15400
C  14.69000 54.22200 28.22500
C  13.52600 54.94800 27.74700
C  13.63800 55.07400 26.27400
C  14.94300 54.32500 25.96900
C  12.42300 55.25000 28.69100
C  12.87600 55.87200 25.27100
O  13.16400 56.08700 24.12000
C  11.63200 56.43600 25.84100
N  17.64100 52.92600 25.19300
C  16.66700 53.41900 24.35000
C  17.18200 53.22300 22.90800
C  18.62700 52.68500 23.04200
C  18.74400 52.52400 24.56000
C  16.23700 52.43400 22.02700
C  19.76800 53.59900 22.51200
C  19.73800 55.13700 23.04600
N  19.05500 51.76800 27.43100
C  20.01500 51.53200 26.46800
C  21.06800 50.69600 26.99000
C  20.83000 50.68400 28.39100
C  19.56800 51.28600 28.55100
C  22.29100 50.16200 26.20600
C  21.25300 50.13800 29.70200
O  22.15200 49.41700 30.04300
C  20.29200 50.77200 30.76000
C  19.79900 49.59900 31.57900
O  19.29100 48.58600 31.09500
O  19.94700 49.86600 32.91300
C  19.92500 48.70100 33.81500
H  14.24000 54.05600 30.41800
H  14.96800 54.37600 23.82200
H  20.64500 51.70800 24.33500
H  17.74100 51.39700 32.26100
H  15.81600 53.61600 32.21700
H  14.66300 51.34600 30.79800
H  14.35600 51.72200 32.49800
H  15.68700 50.66400 32.02800
H  18.02200 54.49400 32.34700
H  19.36300 53.41000 31.73000
H  18.89400 54.27500 34.38500
H  19.87900 53.00800 33.88600
H  12.50000 54.76100 29.66200
H  11.44800 55.01200 28.26600
H  12.39500 56.33100 28.82600
H  10.89300 55.66600 26.06400
H  11.09600 57.00300 25.08100
H  11.91100 57.12500 26.63800
H  17.15700 54.15900 22.35100
H  18.68400 51.66200 22.66900
H  16.69100 51.54600 21.58700
H  15.71600 53.12700 21.36600
H  15.38800 51.98400 22.54100
H  19.58300 53.64100 21.43800
H  20.76500 53.16400 22.58200
H  18.82500 55.36100 23.59800
H  19.93900 55.77300 22.18400
H  20.57300 55.23900 23.73900
H  22.59400 50.83500 25.40400
H  22.09900 49.12600 25.92600
H  23.10200 50.06000 26.92800
H  20.76400 51.44400 31.47700
H  20.10300 49.02300 34.84100
H  20.64500 47.90300 33.63400
H  18.93600 48.24400 33.77300

