158

Mg 8.61600 3.50000 26.95400
C  9.87500 2.38800 30.05100
C  6.47800 5.64200 28.71200
C  7.18500 4.40100 24.00600
C  10.23500 0.99700 25.31100
N  8.05800 3.87000 29.20100
C  8.92400 3.42000 30.20400
C  8.44100 4.09400 31.50000
C  7.47900 5.19100 31.04600
C  7.24900 4.84600 29.59700
C  6.22000 5.25800 31.96300
C  9.69200 4.65900 32.28500
C  9.34500 5.32400 33.69200
H  9.82800 4.69900 35.00500
N  7.21900 4.99300 26.43300
C  6.43500 5.68400 27.29900
C  5.71200 6.75600 26.51800
C  5.91800 6.36100 25.10400
C  6.80600 5.16500 25.13400
C  4.80800 7.85000 27.16500
C  5.31400 7.02700 23.83500
O  5.60100 6.74500 22.65200
C  4.46000 8.32900 23.96800
N  8.70900 2.79100 24.83500
C  7.98300 3.29200 23.82300
C  8.30100 2.61600 22.47600
C  9.37100 1.62700 22.93100
C  9.44900 1.77000 24.48100
C  7.17300 1.97900 21.77200
C  10.81100 1.79300 22.24200
C  11.70900 2.98100 22.76700
N  9.79700 1.97400 27.48600
C  10.45500 1.04600 26.71700
C  11.20300 0.13700 27.55700
C  11.08800 0.65200 28.82000
C  10.14100 1.74200 28.77000
C  11.96000 -1.03700 27.02600
C  11.46700 0.49300 30.26100
O  12.18300 -0.30400 30.85300
C  10.76100 1.54200 31.03000
C  10.04800 0.94100 32.09300
O  8.89500 0.50600 32.05500
O  10.87200 0.87200 33.15800
C  10.28200 0.31900 34.41900
H  5.95700 6.38700 29.31700
H  6.77000 4.80700 23.08100
H  10.78800 0.14100 24.91900
H  7.93600 3.30200 32.05200
H  7.85500 6.20000 31.21800
H  6.08600 6.26000 32.37100
H  6.29900 4.46800 32.71000
H  5.40900 5.06700 31.26000
H  10.24900 5.34800 31.65000
H  10.36000 3.84300 32.56300
H  8.26800 5.32500 33.85800
H  9.66400 6.36400 33.76700
H  3.78300 7.71100 26.82200
H  5.10100 8.88200 26.97000
H  4.72000 7.67000 28.23700
H  5.13900 9.07700 24.37700
H  3.59100 8.21900 24.61600
H  4.20700 8.63900 22.95400
H  8.73600 3.40500 21.86200
H  9.15300 0.56300 22.83200
H  6.23400 2.06700 22.31800
H  7.43100 0.92100 21.73100
H  7.00900 2.36200 20.76500
H  10.67000 1.80600 21.16100
H  11.35600 0.87200 22.45100
H  11.16000 3.53600 23.52700
H  11.89700 3.68600 21.95800
H  12.70400 2.74700 23.14500
H  12.24600 -1.51300 27.96400
H  12.88700 -0.66900 26.58700
H  11.42400 -1.70900 26.35600
H  11.55300 2.13800 31.48500
H  9.77000 -0.64200 34.37600
H  9.67100 1.07800 34.90900
H  11.19300 0.18800 35.00300
Mg -2.32900 34.08100 27.72400
C  -4.16900 31.90100 29.98300
C  -1.02500 35.55100 30.48000
C  -1.13700 36.29600 25.65400
C  -3.92500 32.29200 25.15500
N  -2.70100 33.84600 29.97700
C  -3.40000 32.86800 30.59500
C  -3.06700 32.87900 32.12000
C  -2.14600 34.11000 32.30800
C  -1.87800 34.46200 30.85000
C  -2.74500 35.39500 33.02500
C  -2.38400 31.56500 32.70900
C  -2.98000 30.90600 33.98400
H  -2.13100 30.95200 35.26900
N  -1.32600 35.80300 28.04600
C  -0.72700 36.23300 29.19900
C  0.04000 37.37900 28.92300
C  0.05400 37.59500 27.49700
C  -0.82600 36.55900 26.99700
C  0.66400 38.11700 30.06900
C  0.75400 38.64200 26.69400
O  0.54400 38.75200 25.48600
C  1.59300 39.67500 27.38200
N  -2.29200 34.08300 25.64900
C  -1.78900 35.23500 25.01200
C  -2.04900 35.20600 23.49200
C  -2.81200 33.86400 23.32500
C  -3.09400 33.37800 24.74900
C  -2.73400 36.46000 22.90200
C  -2.10300 32.80000 22.36900
C  -1.60600 31.49900 23.01400
N  -3.73000 32.43200 27.53000
C  -4.22400 31.80500 26.43000
C  -5.06700 30.70000 26.70900
C  -5.07100 30.69700 28.11400
C  -4.26800 31.74800 28.58900
C  -5.72300 29.78000 25.67000
C  -5.52900 30.02400 29.31500
O  -6.13700 29.05400 29.42700
C  -4.95500 30.80900 30.61900
C  -6.04000 31.21100 31.55900
O  -6.97600 32.05500 31.39300
O  -5.86000 30.50700 32.73100
C  -6.79500 30.71400 33.83200
H  -0.41200 35.88700 31.31800
H  -0.83100 37.03800 24.91300
H  -4.44200 31.88400 24.28300
H  -4.04200 32.96600 32.59900
H  -1.31900 33.83800 32.96300
H  -3.66100 35.17600 33.57300
H  -3.04500 36.13300 32.28100
H  -2.03600 35.89700 33.68500
H  -1.34600 31.84000 32.90000
H  -2.33700 30.87500 31.86600
H  -3.39300 29.90800 33.83100
H  -3.84300 31.53600 34.20200
H  0.49800 39.19000 29.96700
H  1.74800 38.11300 29.95700
H  0.45300 37.81500 31.09500
H  0.91000 40.44400 27.74300
H  2.35600 40.03500 26.69200
H  2.15100 39.14600 28.15400
H  -1.03200 35.07700 23.12000
H  -3.82900 33.96200 22.94600
H  -3.04100 37.10600 23.72500
H  -3.64300 36.20400 22.35700
H  -2.05700 36.99600 22.23700
H  -1.23200 33.32000 21.97200
H  -2.78300 32.39000 21.62200
H  -2.34900 30.70200 23.01200
H  -1.29300 31.63700 24.04900
H  -0.74400 31.15000 22.44600
H  -5.09700 29.38900 24.86900
H  -6.59700 30.28000 25.25200
H  -6.03100 28.91600 26.25900
H  -4.24000 30.16800 31.13400
H  -6.31700 31.33400 34.59100
H  -6.88800 29.66400 34.10700
H  -7.81100 31.00500 33.56300

