158

Mg 0.41800 43.39600 25.54000
C  1.75200 43.20600 28.87900
C  -2.58500 42.46200 26.87100
C  -0.69800 43.04500 22.50200
C  3.71800 43.51900 24.36300
N  -0.37000 43.03900 27.64500
C  0.34200 43.01400 28.80200
C  -0.53500 42.88700 30.04600
C  -1.91900 42.37300 29.42300
C  -1.59200 42.49500 27.87600
C  -2.33800 40.95200 29.79000
C  -0.61200 44.23900 30.83400
C  0.02800 44.29700 32.27200
H  -0.85500 44.34000 33.49500
N  -1.45500 42.96700 24.80900
C  -2.59300 42.62300 25.46100
C  -3.73200 42.72000 24.45800
C  -3.18900 42.94700 23.15400
C  -1.70400 42.99500 23.43000
C  -5.19500 42.62400 24.87100
C  -3.84100 42.90300 21.77400
O  -3.24700 43.05100 20.73000
C  -5.22400 42.45200 21.67000
N  1.34400 43.24100 23.74100
C  0.64300 43.20700 22.55600
C  1.60800 43.22700 21.36800
C  2.92200 43.61300 21.94800
C  2.67200 43.43000 23.46600
C  1.51200 41.91500 20.55100
C  3.29400 45.01900 21.60200
C  3.70300 45.39500 20.14000
N  2.41300 43.47200 26.41700
C  3.68500 43.48900 25.78400
C  4.73500 43.69500 26.82200
C  3.96300 43.60000 28.06800
C  2.58000 43.42200 27.74800
C  6.24500 43.75900 26.74400
C  4.16200 43.30500 29.44600
O  5.20400 43.20000 30.12300
C  2.70400 43.20100 30.06700
C  2.66300 41.92200 30.76500
O  2.42000 40.83300 30.26700
O  3.13600 42.24200 32.03600
C  3.21100 41.01800 32.97500
H  -3.59500 42.30600 27.25600
H  -1.04700 42.96900 21.47000
H  4.72400 43.68800 23.97300
H  -0.13200 42.06300 30.63500
H  -2.73200 42.97600 29.82800
H  -1.88000 40.64700 30.73000
H  -1.93600 40.25700 29.05300
H  -3.42700 40.89300 29.80800
H  -1.63800 44.60500 30.86500
H  -0.08400 44.95400 30.20500
H  0.56100 45.24800 32.27800
H  0.87100 43.62500 32.43300
H  -5.88600 43.19100 24.24700
H  -5.21500 43.02600 25.88400
H  -5.48600 41.57700 24.95700
H  -5.46300 42.20400 20.63500
H  -5.81900 43.27700 22.06100
H  -5.26100 41.50100 22.20100
H  1.23500 44.05400 20.76400
H  3.73700 42.98800 21.58200
H  1.42500 41.11700 21.28900
H  2.46100 41.68200 20.06700
H  0.84200 41.98100 19.69300
H  4.15500 45.25000 22.22900
H  2.52200 45.69700 21.96600
H  3.23800 44.66100 19.48200
H  4.77200 45.54700 19.99300
H  3.24400 46.35800 19.91500
H  6.65300 43.35000 25.82000
H  6.64400 43.18400 27.58000
H  6.53500 44.81000 26.75600
H  2.53000 43.97800 30.81100
H  3.39900 40.06200 32.48700
H  2.22400 40.94400 33.42900
H  3.90300 40.95800 33.81500
Mg -2.09200 34.31700 26.63000
C  -3.98800 32.50800 28.88500
C  -0.94000 36.25300 29.26000
C  -0.56500 36.41700 24.42400
C  -3.57300 32.56600 23.98200
N  -2.61600 34.52200 28.73900
C  -3.25800 33.55300 29.45600
C  -3.12100 33.84000 30.97800
C  -2.36800 35.18600 31.04800
C  -1.95400 35.37700 29.58100
C  -3.16900 36.40700 31.46800
C  -2.21800 32.69900 31.61000
C  -2.93800 31.68700 32.65100
H  -2.45400 31.80900 34.17300
N  -0.89900 36.11000 26.83400
C  -0.39700 36.63200 28.03300
C  0.37700 37.76500 27.67500
C  0.31100 38.04100 26.28900
C  -0.40300 36.81600 25.77600
C  0.97600 38.69600 28.60400
C  0.90400 39.14500 25.42400
O  0.59500 39.22900 24.21900
C  1.81900 40.26500 25.95900
N  -2.29400 34.61100 24.41700
C  -1.37800 35.44500 23.80000
C  -1.49800 35.18700 22.26400
C  -2.36300 33.86800 22.16500
C  -2.75600 33.62300 23.59000
C  -2.02000 36.48800 21.49700
C  -1.69000 32.65000 21.61100
C  -0.51200 32.12300 22.40300
N  -3.50200 32.88700 26.42500
C  -3.95600 32.20600 25.28800
C  -4.77600 31.11800 25.67100
C  -4.84000 31.23800 27.08100
C  -4.03800 32.28300 27.48200
C  -5.45000 30.09000 24.82600
C  -5.42400 30.65900 28.26500
O  -6.30400 29.75100 28.46800
C  -4.72000 31.38100 29.50800
C  -5.86400 31.75700 30.47000
O  -6.41600 32.85700 30.47400
O  -5.91400 30.91100 31.48400
C  -6.97700 31.10700 32.48900
H  -0.47800 36.79000 30.09100
H  -0.01700 37.00100 23.68200
H  -4.04600 32.01500 23.16700
H  -4.11800 33.85300 31.41900
H  -1.55000 35.11600 31.76500
H  -3.03300 36.62900 32.52600
H  -4.19000 36.45200 31.08800
H  -2.61100 37.20800 30.98300
H  -1.39500 33.13800 32.17500
H  -1.75000 32.12500 30.81000
H  -2.87600 30.65100 32.31700
H  -4.00600 31.89900 32.61800
H  2.05300 38.79900 28.47200
H  0.90600 38.28600 29.61200
H  0.28000 39.52900 28.50500
H  1.07800 40.93500 26.39600
H  2.32700 40.75700 25.13000
H  2.58200 39.94700 26.66900
H  -0.58600 35.10000 21.67400
H  -3.20300 33.93900 21.47400
H  -1.25900 37.11500 21.03300
H  -2.45400 37.08400 22.29900
H  -2.76200 36.21500 20.74600
H  -1.21100 32.92200 20.67000
H  -2.46100 31.89400 21.46500
H  0.35600 31.93000 21.77200
H  -0.80400 31.17800 22.86000
H  -0.07500 32.75900 23.17300
H  -4.71400 29.75100 24.09700
H  -6.25300 30.49300 24.20900
H  -5.83200 29.28500 25.45400
H  -4.09800 30.68700 30.07300
H  -7.78000 31.74000 32.11100
H  -6.46400 31.62900 33.29700
H  -7.30400 30.10400 32.76100

