158

Mg 24.32300 -5.37100 45.74600
C  26.60900 -3.20900 44.14200
C  21.80400 -4.09900 43.68800
C  22.38200 -8.02800 46.29900
C  26.86800 -6.76600 47.59800
N  24.28300 -3.94300 44.10200
C  25.28700 -3.12200 43.64100
C  24.77800 -2.30900 42.41400
C  23.25100 -2.40700 42.57000
C  23.07800 -3.51800 43.54300
C  22.48000 -1.03800 43.00800
C  25.23200 -2.81600 41.01200
C  26.25700 -1.90800 40.28300
H  26.06200 -1.60500 38.80500
N  22.27800 -5.92100 45.16600
C  21.40400 -5.23000 44.37100
C  20.18200 -5.91000 44.28200
C  20.34200 -7.11100 44.99300
C  21.72200 -7.01100 45.53800
C  18.99200 -5.29500 43.47800
C  19.23100 -8.02800 45.29000
O  18.12100 -7.69100 44.92200
C  19.35100 -9.30600 46.04900
N  24.69700 -7.24500 46.56800
C  23.71800 -8.21300 46.71500
C  24.18300 -9.44200 47.51900
C  25.59300 -8.92300 48.08500
C  25.74000 -7.58700 47.36700
C  23.27200 -9.94300 48.70100
C  26.80000 -9.87700 47.99300
C  27.65300 -10.13700 49.26000
N  26.38800 -5.06100 45.93900
C  27.30700 -5.66800 46.77500
C  28.59300 -5.04000 46.54200
C  28.40900 -4.08900 45.56600
C  27.03600 -4.13800 45.25200
C  29.90700 -5.29000 47.35600
C  28.98900 -3.15000 44.69400
O  30.14400 -2.76400 44.80200
C  27.86700 -2.45000 43.71600
C  27.74800 -0.98200 43.91900
O  26.95300 -0.38600 44.62200
O  28.57400 -0.34900 43.06600
C  28.71400 1.09400 43.25900
H  21.01700 -3.65300 43.07600
H  21.80300 -8.94300 46.44200
H  27.71700 -7.09900 48.19900
H  25.14700 -1.30600 42.62800
H  22.68700 -2.68700 41.68000
H  23.13600 -0.17200 42.91300
H  22.09900 -1.20400 44.01500
H  21.67300 -1.04700 42.27500
H  24.38300 -2.92000 40.33700
H  25.67800 -3.77600 41.27300
H  27.29300 -2.21500 40.42900
H  26.22500 -1.01600 40.90800
H  18.48700 -6.01900 42.84000
H  19.20900 -4.36600 42.95000
H  18.28400 -5.05000 44.27000
H  18.38700 -9.80900 46.11400
H  19.64900 -9.01300 47.05600
H  20.17900 -9.78600 45.52700
H  24.37400 -10.29100 46.86100
H  25.46500 -8.64400 49.13100
H  23.83600 -9.98600 49.63300
H  22.94000 -10.96000 48.49200
H  22.42000 -9.29600 48.90700
H  27.32100 -9.59800 47.07700
H  26.51000 -10.90700 47.78400
H  27.48100 -11.17500 49.54700
H  27.28700 -9.44900 50.02200
H  28.72900 -10.00700 49.14900
H  30.78700 -5.34400 46.71500
H  29.82600 -6.20300 47.94600
H  30.06200 -4.38700 47.94600
H  28.21400 -2.67300 42.70700
H  28.37400 1.55600 44.18700
H  28.25300 1.63500 42.43200
H  29.77400 1.33800 43.19500
Mg -6.37000 25.35100 26.15500
C  -5.04700 26.88200 29.09100
C  -8.11200 23.26100 28.28600
C  -7.08400 23.43800 23.49100
C  -4.22600 27.21700 24.29500
N  -6.43800 25.09300 28.44000
C  -5.91400 25.87000 29.44200
C  -6.46100 25.49000 30.83100
C  -7.30100 24.20900 30.57100
C  -7.28200 24.17200 29.01000
C  -6.86100 22.90200 31.25600
C  -7.08300 26.60600 31.65500
C  -6.72300 26.73700 33.15000
H  -6.06400 25.60500 33.86500
N  -7.54300 23.71400 25.88100
C  -8.17800 22.99700 26.88500
C  -9.10400 22.11800 26.26400
C  -8.91000 22.20500 24.87000
C  -7.81000 23.14600 24.68700
C  -10.14000 21.28500 27.05500
C  -9.64700 21.55400 23.72500
O  -9.34900 21.83400 22.59600
C  -10.62400 20.46200 24.07200
N  -5.79700 25.29600 24.25200
C  -6.21700 24.50300 23.23200
C  -5.45700 24.61700 21.95400
C  -4.86700 26.10100 22.16500
C  -4.87300 26.13600 23.73400
C  -4.47000 23.49000 21.61500
C  -5.64000 27.23300 21.47200
C  -5.15100 27.85900 20.15800
N  -4.99400 26.84300 26.56100
C  -4.19100 27.55200 25.66600
C  -3.52000 28.65100 26.38500
C  -3.78600 28.37300 27.70800
C  -4.71800 27.30700 27.76200
C  -2.69600 29.75200 25.73400
C  -3.46400 28.76600 29.02800
O  -2.67300 29.60500 29.47300
C  -4.30000 27.83500 29.91500
C  -3.26400 27.13500 30.79100
O  -2.58300 26.20500 30.49600
O  -3.34100 27.77900 31.97000
C  -2.25700 27.52200 32.88400
H  -8.73100 22.59300 28.88900
H  -7.18200 22.68200 22.71000
H  -3.74300 27.85200 23.55000
H  -5.59100 25.24700 31.44100
H  -8.26800 24.58000 30.91200
H  -7.38800 22.05300 30.81900
H  -7.14900 22.90400 32.30700
H  -5.78100 22.79600 31.35300
H  -8.17200 26.58000 31.69700
H  -6.85000 27.48700 31.05700
H  -7.60900 27.04800 33.70400
H  -6.03200 27.57800 33.10700
H  -9.88100 21.40900 28.10600
H  -10.26400 20.24200 26.76200
H  -11.08700 21.80400 26.90300
H  -10.14300 19.71400 24.70300
H  -11.06200 20.15800 23.12200
H  -11.43400 20.82600 24.70500
H  -6.11500 24.76400 21.09800
H  -3.80200 26.21100 21.96100
H  -4.48100 22.81000 22.46700
H  -3.45600 23.74200 21.30300
H  -4.89400 22.97700 20.75300
H  -5.83800 28.05300 22.16300
H  -6.66200 26.88900 21.31400
H  -4.71300 28.83400 20.37200
H  -5.87300 27.85700 19.34100
H  -4.23000 27.36400 19.85100
H  -2.07100 29.30200 24.96300
H  -2.11200 30.35000 26.43400
H  -3.42900 30.32900 25.17100
H  -4.89200 28.47300 30.57100
H  -1.28400 27.89400 32.56300
H  -2.24600 26.49000 33.23200
H  -2.53100 28.11600 33.75600

