158

Mg 24.94300 -8.49600 47.79200
C  27.04400 -5.99000 46.63200
C  22.51800 -7.61000 45.43500
C  23.13300 -11.17800 48.66800
C  27.70500 -9.92700 49.46800
N  24.91500 -7.19800 46.04700
C  25.89500 -6.19300 45.80300
C  25.44700 -5.20600 44.70600
C  23.98000 -5.66300 44.33800
C  23.81100 -6.91400 45.32000
C  22.90700 -4.48500 44.54700
C  26.45500 -5.15400 43.52900
C  26.79400 -3.81200 42.92200
H  26.98100 -3.85200 41.41300
N  23.02900 -9.20600 47.17900
C  22.21100 -8.65000 46.26800
C  21.05400 -9.43100 46.14200
C  21.16300 -10.59200 46.97000
C  22.51000 -10.43000 47.65700
C  19.89000 -9.05100 45.26400
C  20.26700 -11.82000 47.07200
O  19.16700 -11.83800 46.53700
C  20.59400 -12.98800 47.88800
N  25.46400 -10.32500 48.87200
C  24.42900 -11.11400 49.28400
C  24.95400 -12.12800 50.37300
C  26.49800 -11.85700 50.44200
C  26.52600 -10.59000 49.63900
C  24.32200 -11.95000 51.73800
C  27.39200 -13.03200 49.84200
C  27.86500 -14.07800 50.89900
N  26.89800 -8.03000 48.15900
C  27.95700 -8.74300 48.79900
C  29.16000 -7.82200 48.87300
C  28.82200 -6.73900 48.06100
C  27.46200 -6.93100 47.61300
C  30.41800 -8.14500 49.60200
C  29.24800 -5.48300 47.53700
O  30.30100 -4.84900 47.64600
C  28.09300 -4.98800 46.56100
C  27.79200 -3.60600 46.97400
O  27.51800 -3.28500 48.07800
O  27.86100 -2.80200 45.83500
C  27.78200 -1.37800 46.14000
H  21.73000 -7.18300 44.81200
H  22.66400 -11.99600 49.22000
H  28.57400 -10.42200 49.90600
H  25.51300 -4.18900 45.09400
H  23.96700 -6.05100 43.32000
H  22.70200 -4.04700 43.57000
H  23.27000 -3.77100 45.28700
H  21.88400 -4.62200 44.90000
H  26.00100 -5.65100 42.67100
H  27.34800 -5.56600 43.99900
H  27.73500 -3.44300 43.32900
H  26.00100 -3.09500 43.13000
H  20.05200 -9.67400 44.38400
H  19.94900 -8.01900 44.91900
H  18.93000 -9.18000 45.76300
H  21.67200 -13.11300 47.78400
H  20.05800 -13.81400 47.41900
H  20.34600 -12.81100 48.93400
H  24.92700 -13.16200 50.03000
H  26.90700 -11.55000 51.40400
H  23.29900 -11.61300 51.57400
H  24.77400 -11.17200 52.35300
H  24.42700 -12.88500 52.29000
H  28.23200 -12.66900 49.24900
H  26.83200 -13.47200 49.01700
H  28.81900 -14.50900 50.59800
H  27.04000 -14.78700 50.83100
H  27.90200 -13.61500 51.88600
H  31.16400 -7.44000 49.23500
H  30.85800 -9.12700 49.42400
H  30.13600 -7.92100 50.63100
H  28.55600 -4.95900 45.57500
H  28.07100 -1.04100 47.13500
H  26.75300 -1.09800 45.91800
H  28.27700 -0.78300 45.37200
Mg 35.72000 49.59700 25.75800
C  35.30700 47.81100 28.73100
C  34.91800 52.41800 27.54500
C  35.90000 51.19300 22.85900
C  36.27500 46.52600 24.13900
N  35.01600 50.01000 27.88400
C  35.06900 49.15700 28.91800
C  34.90500 49.88800 30.28200
C  34.58900 51.31000 29.80700
C  34.88100 51.29000 28.32300
C  33.14000 51.98800 30.06100
C  36.26800 49.72300 31.00500
C  36.30800 49.58000 32.49400
H  35.07200 49.85100 33.36900
N  35.46300 51.51000 25.29300
C  35.16800 52.53400 26.12500
C  34.91700 53.75500 25.45600
C  35.21700 53.48500 24.09000
C  35.50500 51.96600 23.98800
C  34.75600 55.09700 26.21100
C  35.23000 54.55400 22.99500
O  35.64300 54.28300 21.84000
C  34.94100 56.07900 23.31200
N  35.88200 48.86400 23.69700
C  36.17000 49.80200 22.78300
C  36.55000 49.17100 21.45200
C  36.90500 47.71100 21.94700
C  36.36000 47.67600 23.35900
C  35.42300 49.27200 20.37200
C  38.41900 47.28700 21.80800
C  38.55100 45.87600 21.20200
N  35.72600 47.55000 26.26000
C  35.93000 46.46100 25.51900
C  35.99400 45.26200 26.35500
C  35.74800 45.75700 27.67100
C  35.59900 47.16900 27.56000
C  36.19600 43.81300 25.90000
C  35.59400 45.37000 29.00500
O  35.46500 44.23000 29.48800
C  35.42200 46.71600 29.79200
C  34.21100 46.47700 30.61100
O  33.07200 46.69600 30.25700
O  34.42000 45.83500 31.82600
C  33.40300 45.83700 32.86200
H  34.60500 53.30600 28.09800
H  35.99500 51.76700 21.93400
H  36.69000 45.60700 23.72200
H  34.11000 49.45000 30.88600
H  35.33600 51.97500 30.24200
H  33.24900 52.78200 30.80000
H  32.63200 51.17200 30.57400
H  32.68300 52.37200 29.14900
H  36.86300 50.59700 30.74000
H  36.76800 48.86700 30.55100
H  37.16300 50.18500 32.79500
H  36.48300 48.52000 32.67900
H  33.88200 55.74000 26.10800
H  35.65100 55.70900 26.10900
H  34.73400 54.97700 27.29400
H  35.17300 56.64000 22.40600
H  35.71200 56.31300 24.04600
H  33.94300 56.29700 23.69100
H  37.49100 49.58500 21.09000
H  36.16400 47.05300 21.49200
H  35.65500 48.84900 19.39400
H  35.25900 50.34000 20.23000
H  34.54800 48.66200 20.59500
H  39.00400 47.28900 22.72800
H  38.85600 48.00900 21.11900
H  38.63300 45.90700 20.11500
H  37.68000 45.25100 21.39900
H  39.26800 45.28000 21.76600
H  35.67800 43.51000 24.99000
H  35.78500 43.08300 26.59700
H  37.27800 43.69300 25.83900
H  36.34900 46.84000 30.35200
H  33.84000 46.28400 33.75500
H  33.06700 44.81400 33.03000
H  32.56800 46.50400 32.64600

