158

Mg 41.38900 40.83400 27.38600
C  40.65200 43.32100 29.75700
C  42.41300 38.84900 29.95000
C  42.46500 38.62000 25.11500
C  40.59600 43.18200 24.91000
N  41.51700 41.09100 29.56100
C  41.15100 42.08800 30.30800
C  41.04900 41.69900 31.83300
C  41.82600 40.32400 31.86900
C  41.93400 40.05700 30.33400
C  43.19400 40.14300 32.70500
C  39.56600 41.63500 32.43600
C  39.22800 42.65000 33.54500
H  38.54000 42.04400 34.80800
N  42.21200 38.90900 27.49000
C  42.58000 38.26300 28.62900
C  43.17800 36.99200 28.34400
C  43.19700 36.92100 26.93900
C  42.63900 38.17400 26.45100
C  43.87600 36.19100 29.39700
C  43.78500 35.85500 26.06100
O  43.69700 35.87000 24.81100
C  44.48600 34.66400 26.65700
N  41.67800 40.97200 25.32700
C  42.08500 39.88800 24.58200
C  41.79300 40.18300 23.07200
C  41.01400 41.49700 23.05900
C  41.08700 41.90300 24.53400
C  43.16400 40.16900 22.17000
C  39.61700 41.33700 22.50200
C  38.52800 40.74300 23.43500
N  40.73700 42.84600 27.27800
C  40.40800 43.68400 26.18200
C  39.89900 44.93500 26.64200
C  40.05000 44.85100 28.03900
C  40.48900 43.56300 28.35600
C  39.49000 46.02500 25.73500
C  39.82100 45.60400 29.31500
O  39.53300 46.83500 29.56100
C  40.09500 44.52600 30.45400
C  41.07600 45.10800 31.42000
O  42.25900 45.27700 31.20800
O  40.37900 45.61100 32.48300
C  41.21200 46.43200 33.36000
H  42.71800 38.24900 30.81000
H  42.85300 38.01700 24.29100
H  40.32000 43.82600 24.07200
H  41.61400 42.43400 32.40600
H  41.30600 39.44800 32.25800
H  43.43200 41.14500 33.06400
H  44.05200 39.75200 32.15700
H  43.14800 39.52500 33.60200
H  39.39500 40.69100 32.95200
H  38.80900 41.73800 31.65900
H  38.55800 43.34300 33.03600
H  40.13400 43.19800 33.80600
H  44.90300 36.05500 29.05900
H  43.28400 35.28200 29.50200
H  43.84100 36.65900 30.38100
H  43.95900 34.28400 27.53100
H  45.52000 34.96300 26.82700
H  44.47500 33.95400 25.83000
H  41.11800 39.42300 22.68000
H  41.62400 42.23100 22.53400
H  43.29200 41.15300 21.71900
H  43.01500 39.39500 21.41700
H  44.09100 39.89500 22.67300
H  39.52100 40.77400 21.57400
H  39.25300 42.29700 22.13500
H  37.92400 40.03300 22.87000
H  37.85400 41.52500 23.78300
H  38.95900 40.20700 24.28000
H  39.05700 45.57100 24.84400
H  40.38200 46.60300 25.49000
H  38.79100 46.59500 26.34800
H  39.12500 44.33200 30.91000
H  41.87500 45.80600 33.95800
H  40.65400 47.05300 34.06100
H  41.78600 47.19300 32.83200
Mg 26.53300 50.67500 25.89700
C  24.39300 51.81600 28.56700
C  28.88700 49.97300 28.21800
C  28.57500 49.81300 23.24600
C  24.22900 51.81900 23.67400
N  26.60500 51.03500 28.15900
C  25.55000 51.29200 29.01300
C  25.96000 51.19900 30.48200
C  27.49200 50.74200 30.30300
C  27.74500 50.65500 28.80200
C  28.42700 51.78100 30.85300
C  25.13200 50.10400 31.21300
C  24.88400 50.31800 32.69100
H  26.08000 50.50800 33.68400
N  28.53900 49.98200 25.73200
C  29.31300 49.80200 26.83500
C  30.63600 49.24700 26.41400
C  30.48100 49.05000 24.97300
C  29.16500 49.64500 24.55300
C  31.81700 48.92800 27.38000
C  31.39000 48.35500 23.96500
O  31.28500 48.35300 22.75400
C  32.51800 47.59700 24.49400
N  26.47400 50.83200 23.76800
C  27.37300 50.36800 22.92000
C  26.93800 50.45800 21.48500
C  25.42100 50.84700 21.69500
C  25.38400 51.20900 23.17500
C  27.71000 51.53100 20.58200
C  24.30000 49.73500 21.34400
C  24.70000 48.26400 21.54400
N  24.77400 51.69500 26.04300
C  23.96100 52.07000 24.99300
C  22.81600 52.70100 25.55000
C  22.98900 52.70100 26.92200
C  24.14200 52.05300 27.19500
C  21.58700 53.13200 24.70500
C  22.33600 52.97700 28.20700
O  21.28300 53.46300 28.48300
C  23.25200 52.41500 29.31500
C  23.62200 53.55300 30.14000
O  24.11000 54.60200 29.67600
O  23.47900 53.28600 31.46800
C  23.79000 54.30800 32.40400
H  29.54600 49.55900 28.98400
H  29.11300 49.39000 22.39500
H  23.51500 52.21400 22.94800
H  25.86800 52.11100 31.07200
H  27.63200 49.79900 30.83200
H  28.88700 51.20700 31.65800
H  27.89900 52.61400 31.31700
H  29.20600 52.08100 30.15300
H  25.63700 49.14000 31.27600
H  24.18000 49.94400 30.70600
H  24.54700 49.34200 33.04100
H  24.09300 51.03400 32.91400
H  32.04100 49.79100 28.00600
H  32.72000 48.60500 26.86100
H  31.53200 48.11600 28.04900
H  32.77800 46.91300 23.68600
H  32.24200 46.99900 25.36200
H  33.25700 48.35900 24.74000
H  27.03800 49.45300 21.07600
H  25.22400 51.77900 21.16500
H  28.40700 52.06500 21.22700
H  27.08500 52.27600 20.08800
H  28.28700 50.91900 19.88900
H  24.16100 49.79100 20.26500
H  23.35300 50.06500 21.77200
H  23.86100 47.97900 22.17800
H  25.69600 48.19300 21.97900
H  24.77500 47.67400 20.63100
H  20.65500 53.05600 25.26600
H  21.36000 52.57700 23.79500
H  21.78500 54.12900 24.31000
H  22.51900 51.74300 29.76000
H  24.14400 55.19100 31.87200
H  24.64500 54.02700 33.01900
H  23.00800 54.65300 33.08100

