158

Mg 17.50800 -1.33300 28.70400
C  16.51600 0.62500 31.38400
C  19.21300 -3.23800 30.92200
C  19.41000 -2.63400 26.10900
C  16.26200 0.96200 26.48900
N  17.80700 -1.25700 30.84200
C  17.32200 -0.35800 31.77000
C  17.61200 -0.79200 33.24900
C  18.77400 -1.79400 32.95900
C  18.60500 -2.07800 31.51000
C  20.22900 -1.28900 33.21700
C  16.32100 -1.39200 33.92200
C  15.94200 -0.75900 35.22500
H  16.89400 -0.16900 36.22000
N  18.78700 -3.00000 28.54300
C  19.43200 -3.62100 29.59400
C  20.21700 -4.78600 29.04000
C  20.22200 -4.64700 27.61600
C  19.46400 -3.39500 27.34800
C  20.83700 -5.87000 29.94100
C  20.91800 -5.48600 26.55400
O  20.82300 -5.23900 25.36500
C  21.70600 -6.62200 26.99700
N  17.80400 -0.85900 26.62700
C  18.63300 -1.51000 25.82100
C  18.68700 -0.96100 24.39100
C  17.57400 0.16600 24.46900
C  17.23400 0.10800 25.98000
C  20.10700 -0.56000 23.79200
C  16.35500 -0.13600 23.54500
C  16.07900 1.02400 22.53100
N  16.44600 0.38300 28.89000
C  15.94200 1.17900 27.86500
C  14.98200 2.08900 28.40500
C  15.17700 1.94900 29.85000
C  16.14900 0.89500 30.02300
C  14.12500 3.20000 27.66700
C  14.81900 2.43500 31.23400
O  14.14500 3.33500 31.54000
C  15.72200 1.58100 32.18400
C  16.50500 2.50400 33.02900
O  17.59300 2.97600 32.80100
O  15.83200 2.87500 34.17000
C  16.35100 3.79700 35.18100
H  19.74900 -3.79600 31.69200
H  20.20000 -2.86400 25.39100
H  15.87100 1.78200 25.88500
H  17.93400 0.04500 33.86900
H  18.61100 -2.73600 33.48200
H  20.69500 -1.00600 32.27300
H  20.85600 -2.05600 33.67000
H  20.26000 -0.44200 33.90200
H  16.64100 -2.36700 34.28900
H  15.39700 -1.47800 33.35100
H  15.47000 -1.51200 35.85800
H  15.05800 -0.13400 35.10100
H  20.54500 -6.87500 29.63700
H  20.53300 -5.84900 30.98800
H  21.92200 -5.82900 29.84600
H  21.13900 -7.29400 27.64000
H  22.50700 -6.14900 27.56500
H  22.24700 -7.22000 26.26300
H  18.48800 -1.79500 23.71800
H  18.00700 1.15100 24.29800
H  20.33600 -1.04300 22.84200
H  20.78100 -0.79700 24.61500
H  19.99900 0.51200 23.62800
H  15.45600 -0.43200 24.08500
H  16.64400 -0.97500 22.91200
H  15.23900 0.88300 21.85100
H  16.89900 1.06600 21.81500
H  15.93700 1.95600 23.07900
H  14.40600 3.47800 26.65200
H  14.33500 4.07800 28.27900
H  13.07000 2.99600 27.85200
H  15.13600 1.03200 32.92100
H  16.13300 4.82800 34.90200
H  17.44000 3.84200 35.18500
H  15.96400 3.58400 36.17700
Mg 26.37200 51.20300 25.42300
C  23.87700 52.02400 27.86800
C  28.56900 50.42700 27.80500
C  28.60900 50.79300 22.91100
C  24.21800 52.53700 23.06800
N  26.25100 51.41800 27.59500
C  25.09400 51.54800 28.38000
C  25.51400 51.38200 29.84600
C  27.03700 50.97500 29.80700
C  27.34900 50.95800 28.32300
C  27.99300 51.84100 30.73000
C  24.55600 50.45100 30.63400
C  24.12500 50.93400 32.04000
H  24.02200 49.99500 33.23000
N  28.21400 50.54100 25.33400
C  28.96500 50.27100 26.41100
C  30.25500 49.89500 26.01300
C  30.32300 49.87200 24.57800
C  29.00100 50.37200 24.17100
C  31.38800 49.59900 27.03200
C  31.52400 49.76900 23.68300
O  31.41000 49.85600 22.49800
C  32.84600 49.46200 24.43100
N  26.47500 51.83500 23.39000
C  27.43600 51.44900 22.54000
C  27.18600 51.73700 21.02700
C  25.72600 52.21100 21.08500
C  25.45200 52.19100 22.63000
C  28.16100 52.78400 20.41700
C  24.73500 51.14500 20.51300
C  23.81700 51.71300 19.45500
N  24.42800 52.05100 25.36100
C  23.67100 52.44700 24.36600
C  22.29000 52.75200 24.78000
C  22.40500 52.64700 26.17200
C  23.68600 52.22600 26.50900
C  21.20200 53.17600 23.89400
C  21.68200 52.87300 27.38700
O  20.53200 53.28200 27.55100
C  22.65600 52.53400 28.59300
C  22.94300 53.68500 29.51800
O  23.65000 54.63000 29.30300
O  22.31400 53.38300 30.74600
C  22.45000 54.46500 31.77700
H  29.15800 49.95900 28.59600
H  29.29200 50.62900 22.07400
H  23.61900 52.91300 22.23700
H  25.54700 52.36500 30.31600
H  27.10700 49.92400 30.08500
H  28.51200 52.66700 30.24300
H  28.69500 51.23700 31.30600
H  27.41100 52.21000 31.57500
H  25.06500 49.48800 30.67600
H  23.64400 50.25200 30.07100
H  23.11500 51.31100 31.88000
H  24.80800 51.76100 32.23500
H  32.30100 50.19500 27.02200
H  31.75900 48.57400 27.00600
H  31.08000 49.72100 28.07100
H  33.28500 50.31600 24.94700
H  33.40900 49.31100 23.51000
H  32.75100 48.49700 24.92900
H  27.39800 50.89200 20.37200
H  25.63800 53.14700 20.53300
H  28.52100 52.53400 19.41900
H  29.02100 52.85800 21.08300
H  27.66800 53.75600 20.42600
H  24.11300 50.60000 21.22200
H  25.42400 50.45000 20.03300
H  23.74900 50.94900 18.68100
H  24.15200 52.64900 19.00900
H  22.82300 51.87100 19.87300
H  21.64500 53.90700 23.22000
H  20.32400 53.50800 24.44800
H  20.86400 52.31800 23.31300
H  22.13800 51.78900 29.19700
H  22.75500 53.88500 32.64800
H  21.49100 54.96200 31.92200
H  23.32400 55.10500 31.65900

