158

Mg 36.71600 2.48400 30.04000
C  34.27400 3.37300 32.49300
C  39.12800 2.58800 32.49400
C  38.93700 1.95900 27.71600
C  34.20000 2.89000 27.57700
N  36.71200 2.94100 32.24300
C  35.54700 3.19300 33.03600
C  35.90900 3.13500 34.57400
C  37.47000 3.04400 34.46600
C  37.79200 2.78200 33.01500
C  38.13800 4.31800 34.99000
C  35.30000 1.79200 35.23700
C  34.40900 2.00400 36.40400
H  35.02000 2.88800 37.50500
N  38.79500 2.19300 30.09000
C  39.62200 2.37100 31.14200
C  41.03900 2.14700 30.73000
C  41.01800 2.01400 29.34100
C  39.55100 2.02100 28.98400
C  42.12400 2.03200 31.75500
C  42.07200 1.98700 28.35900
O  41.93600 1.75400 27.19100
C  43.51700 1.98500 28.86000
N  36.56900 2.33600 27.95100
C  37.61900 2.10300 27.24400
C  37.24600 1.74700 25.77200
C  35.72400 2.21900 25.72700
C  35.43200 2.44900 27.16100
C  38.16200 2.33700 24.64900
C  34.72600 1.31200 25.02400
C  33.69500 2.06400 24.14800
N  34.69700 3.04300 29.98200
C  33.83600 3.12100 28.92100
C  32.52600 3.44600 29.48200
C  32.72000 3.55600 30.82100
C  34.07000 3.31000 31.10000
C  31.25400 3.59600 28.80100
C  32.02700 3.83000 32.07800
O  30.90500 4.08500 32.21600
C  33.08000 3.70000 33.23600
C  33.04000 4.88200 34.08100
O  33.73700 5.91100 33.92800
O  32.24800 4.60700 35.20400
C  32.21800 5.69800 36.19300
H  39.86900 2.64200 33.29400
H  39.62100 1.75800 26.89000
H  33.38700 3.10000 26.87800
H  35.59300 4.09700 34.97700
H  37.85900 2.20500 35.04300
H  37.55000 5.23200 34.90400
H  38.96900 4.64700 34.36600
H  38.47300 4.18900 36.02000
H  36.15400 1.24400 35.63500
H  34.82300 1.21800 34.44200
H  34.21200 1.02700 36.84700
H  33.48800 2.50300 36.10100
H  42.43100 3.02500 32.08300
H  43.02100 1.53200 31.39000
H  41.87200 1.35300 32.56900
H  44.14700 2.06200 27.97400
H  43.56500 1.04000 29.40200
H  43.74800 2.92900 29.35300
H  37.17600 0.65900 25.78400
H  35.61900 3.24600 25.37800
H  38.92200 1.59800 24.39600
H  38.73900 3.15900 25.07200
H  37.56600 2.58900 23.77100
H  34.23700 0.61600 25.70600
H  35.31000 0.88500 24.20800
H  34.15600 2.87100 23.58000
H  32.96700 2.49900 24.83400
H  33.25100 1.29000 23.52200
H  30.83000 2.62900 28.52900
H  31.30600 4.12900 27.85200
H  30.58500 4.18500 29.42900
H  32.72000 2.82600 33.77900
H  31.77300 6.52100 35.63500
H  33.21700 5.95900 36.54400
H  31.60900 5.48900 37.07200
Mg 26.37000 51.06500 25.73200
C  24.63100 52.20200 28.50100
C  28.78700 49.78200 27.79400
C  27.93400 49.97400 23.04600
C  24.01600 52.71700 23.76600
N  26.66100 51.06500 27.89700
C  25.76900 51.53600 28.85200
C  26.26000 51.21900 30.31300
C  27.70700 50.71500 29.93400
C  27.74000 50.48000 28.44600
C  28.95400 51.52800 30.34600
C  25.29400 50.15200 31.01800
C  24.79500 50.43700 32.50000
H  25.89000 50.95000 33.49200
N  28.16100 50.04900 25.44900
C  28.96700 49.62200 26.39900
C  29.96400 48.68400 25.85900
C  29.78300 48.75700 24.41300
C  28.62100 49.67400 24.22700
C  31.10300 48.03300 26.59300
C  30.52200 48.06300 23.34500
O  30.13700 48.14000 22.16600
C  31.69700 47.20800 23.68400
N  26.08600 51.49800 23.66400
C  26.78600 50.70400 22.75300
C  26.04000 50.63600 21.39000
C  24.83000 51.60300 21.57100
C  24.93200 51.94700 23.08700
C  26.91300 50.91200 20.15900
C  23.52100 50.87800 21.40400
C  22.67400 51.26100 20.16300
N  24.61600 52.29200 26.05700
C  23.74200 52.84700 25.09100
C  22.74000 53.64900 25.76100
C  23.04900 53.39600 27.14000
C  24.18400 52.59800 27.24900
C  21.67900 54.50300 25.16200
C  22.59300 53.50700 28.50700
O  21.53400 53.98400 28.89300
C  23.64600 52.91900 29.43400
C  24.26300 53.96000 30.38500
O  25.21300 54.65000 30.12100
O  23.69900 53.98900 31.60700
C  24.45700 54.83900 32.56400
H  29.44200 49.24800 28.48600
H  28.24100 49.39700 22.17100
H  23.27700 53.13000 23.07600
H  26.23500 52.07800 30.98300
H  27.91900 49.74500 30.38500
H  28.61200 52.17300 31.15700
H  29.36400 52.01500 29.46200
H  29.72300 50.84300 30.70300
H  25.71100 49.14900 30.93000
H  24.40100 50.08000 30.39700
H  24.28300 49.55500 32.88400
H  24.00800 51.19100 32.47700
H  31.10500 46.94600 26.51200
H  31.17600 48.29500 27.64800
H  32.01600 48.43800 26.15600
H  32.45600 47.93100 23.98600
H  32.19100 46.60300 22.92400
H  31.42000 46.49200 24.45700
H  25.76700 49.58600 21.28900
H  24.90800 52.49800 20.95400
H  27.89900 51.20900 20.51800
H  26.61300 51.70600 19.47600
H  27.04500 49.96500 19.63600
H  22.93500 50.84100 22.32300
H  23.58300 49.83500 21.09400
H  21.74000 51.58200 20.62500
H  22.50100 50.45300 19.45200
H  23.08000 52.14900 19.67900
H  22.01100 54.71100 24.14500
H  21.45500 55.38700 25.75900
H  20.78900 53.90200 24.97800
H  22.99100 52.24500 29.98500
H  25.52700 54.65000 32.47100
H  24.21100 54.61400 33.60200
H  24.23200 55.89000 32.37800

