158

Mg 9.58100 47.41500 27.59200
C  7.32400 47.28000 30.29500
C  11.99100 48.28400 29.89000
C  11.83600 47.72500 25.01500
C  7.03700 47.13200 25.33500
N  9.63500 47.89500 29.85500
C  8.63000 47.67700 30.75000
C  9.08100 47.92600 32.16700
C  10.52000 48.31000 32.00500
C  10.73800 48.19100 30.49800
C  10.97900 49.65600 32.62700
C  8.82600 46.81000 33.09600
C  9.81400 46.55600 34.27000
H  9.32700 45.65600 35.42400
N  11.58100 48.00100 27.43400
C  12.41200 48.22100 28.50400
C  13.73700 48.40300 28.02600
C  13.70000 48.24900 26.64600
C  12.35300 48.01900 26.29600
C  14.94600 48.70400 28.91500
C  14.84300 48.49900 25.65000
O  14.74100 48.46000 24.46600
C  16.25000 48.79700 26.16100
N  9.49500 47.53000 25.41400
C  10.51000 47.46800 24.61800
C  10.09200 47.33800 23.15300
C  8.49500 47.22100 23.23800
C  8.31700 47.28200 24.70800
C  10.64900 48.40000 22.19700
C  7.92700 45.87100 22.65400
C  7.60800 45.90300 21.10700
N  7.58200 47.15100 27.76100
C  6.63100 47.14500 26.75500
C  5.32800 47.03500 27.38300
C  5.57700 46.98600 28.76100
C  6.96600 47.20700 28.91600
C  4.05200 46.80900 26.76800
C  4.93900 46.84000 30.04600
O  3.72300 46.72000 30.31700
C  6.06300 46.89800 31.08100
C  6.15400 45.52400 31.69400
O  6.70900 44.52200 31.21800
O  5.61000 45.61200 32.96800
C  5.68600 44.35000 33.78100
H  12.73800 48.73400 30.54600
H  12.52400 47.74600 24.16700
H  6.25900 47.07600 24.57100
H  8.47300 48.75200 32.53700
H  11.09500 47.54900 32.53300
H  10.12000 50.20400 33.01300
H  11.52500 50.22900 31.87700
H  11.62900 49.37500 33.45600
H  8.63300 45.83400 32.65000
H  7.94500 47.09300 33.67300
H  9.95500 47.54900 34.69700
H  10.77500 46.16500 33.93900
H  14.61200 48.52100 29.93600
H  15.22400 49.74900 28.78500
H  15.78000 48.03400 28.70100
H  16.89000 49.10200 25.33400
H  16.73500 47.88700 26.51500
H  16.24900 49.65200 26.83800
H  10.47100 46.42200 22.69900
H  8.03300 48.08400 22.75700
H  11.29000 48.99400 22.84800
H  9.82500 48.93600 21.72700
H  11.22900 47.93300 21.40000
H  7.01800 45.58600 23.18500
H  8.70100 45.11900 22.80600
H  7.80400 46.90200 20.71500
H  6.58400 45.62200 20.86100
H  8.26500 45.17600 20.63000
H  3.51100 47.64400 27.21400
H  3.60300 45.84100 26.99100
H  4.06200 46.92400 25.68400
H  5.77700 47.66900 31.79600
H  6.30200 43.60300 33.27900
H  4.64100 44.05300 33.86300
H  5.94500 44.60000 34.81000
Mg 0.49100 43.59800 26.29700
C  2.51500 42.78300 29.00000
C  -2.27400 43.04300 28.32100
C  -1.50400 43.64800 23.54000
C  3.27400 43.71000 24.30400
N  0.15800 42.88500 28.34400
C  1.11800 42.66800 29.30800
C  0.55400 42.57700 30.67300
C  -0.95300 42.41200 30.36300
C  -1.04900 42.82300 28.86700
C  -1.48900 40.96400 30.74600
C  0.87000 43.88400 31.47000
C  1.62300 43.76300 32.80200
H  1.38500 42.52700 33.64200
N  -1.61400 43.41400 25.95000
C  -2.56800 43.26000 26.92200
C  -3.86300 43.34300 26.27800
C  -3.67300 43.58600 24.87900
C  -2.23700 43.54600 24.75200
C  -5.14700 43.00900 26.97900
C  -4.64500 43.91400 23.79500
O  -4.41000 44.09500 22.59400
C  -6.08900 43.97800 24.10000
N  0.78800 43.77400 24.27200
C  -0.15400 43.72400 23.29500
C  0.52000 43.89200 21.87900
C  2.03500 44.18500 22.21900
C  2.06700 43.87000 23.72200
C  0.32600 42.81500 20.82000
C  2.61000 45.59500 21.90300
C  4.16200 45.69100 21.80900
N  2.57800 43.34600 26.57400
C  3.55600 43.42100 25.64400
C  4.80800 43.29200 26.37800
C  4.46000 42.97400 27.67600
C  3.10600 43.07300 27.74200
C  6.15300 43.41400 25.74300
C  4.95700 42.55300 28.94500
O  6.07400 42.27100 29.31200
C  3.69600 42.54900 29.86900
C  3.78800 41.29300 30.69600
O  3.13000 40.26600 30.59500
O  4.67100 41.39600 31.75500
C  4.85200 40.15500 32.54100
H  -3.11200 42.90300 29.00800
H  -2.06400 43.79000 22.61400
H  4.15200 43.66800 23.65600
H  0.92700 41.69100 31.18900
H  -1.49900 43.18800 30.89900
H  -2.57600 40.91800 30.81900
H  -1.00400 40.61500 31.65800
H  -1.23900 40.26000 29.95200
H  -0.00200 44.53400 31.53800
H  1.63000 44.43500 30.91600
H  1.24500 44.53200 33.47600
H  2.67500 43.93300 32.57600
H  -5.43500 42.08700 26.47500
H  -5.94400 43.74500 26.87300
H  -5.08900 42.71800 28.02800
H  -6.42100 42.94200 24.16000
H  -6.63200 44.45000 23.28000
H  -6.41200 44.40600 25.04900
H  0.14800 44.80400 21.41200
H  2.76600 43.47900 21.82800
H  -0.54200 42.21600 21.09600
H  1.15800 42.11800 20.72200
H  0.04700 43.30600 19.88800
H  2.31800 46.31200 22.67000
H  2.26400 45.99500 20.95000
H  4.68300 44.74400 21.66700
H  4.56600 46.19600 22.68700
H  4.49000 46.25300 20.93400
H  6.05100 43.24200 24.67200
H  6.70800 42.60500 26.21800
H  6.64700 44.37100 25.91400
H  3.90100 43.43500 30.47000
H  5.08800 39.24800 31.98400
H  4.18400 40.03900 33.39500
H  5.75000 40.25300 33.15000

