158

Mg 48.27900 24.23500 28.07500
C  49.32500 26.56300 30.57100
C  47.44700 21.98400 30.54500
C  47.27400 22.19800 25.65400
C  49.63400 26.47300 25.66900
N  48.36800 24.28300 30.29800
C  48.76000 25.38500 31.09200
C  48.45500 25.10400 32.55100
C  48.05700 23.57300 32.56700
C  47.91300 23.27100 31.03700
C  49.05100 22.58400 33.27600
C  47.39900 26.03900 33.17800
C  47.97800 26.61800 34.55400
H  47.11200 27.01300 35.72200
N  47.50900 22.37100 28.11300
C  47.28200 21.55000 29.18800
C  46.71300 20.29300 28.72500
C  46.55400 20.43100 27.31100
C  47.14000 21.68900 26.94500
C  46.23900 19.17300 29.67700
C  45.96400 19.45900 26.34500
O  46.20000 19.51800 25.13300
C  45.08000 18.30300 26.74300
N  48.58000 24.31200 25.99300
C  47.90700 23.36800 25.22500
C  48.10300 23.71800 23.70600
C  48.81000 25.16900 23.76300
C  49.04000 25.33700 25.20500
C  48.85800 22.63900 22.86700
C  47.92800 26.26800 23.16200
C  48.57900 27.55800 22.66900
N  49.33400 26.10900 28.06000
C  49.79200 26.89300 27.01900
C  50.41800 28.09900 27.48500
C  50.22900 28.00200 28.86900
C  49.67700 26.76800 29.17000
C  51.14800 29.06600 26.63300
C  50.56800 28.63900 30.14400
O  51.14100 29.65900 30.42900
C  49.99800 27.77900 31.35400
C  51.03400 27.36700 32.21700
O  51.91500 26.54000 31.93100
O  50.92700 27.94600 33.42200
C  51.78500 27.51500 34.53000
H  47.18100 21.40600 31.43200
H  46.79000 21.64700 24.84500
H  49.95000 27.19200 24.90900
H  49.43000 25.20100 33.02900
H  47.10300 23.35000 33.04600
H  49.36400 21.77600 32.61500
H  48.53600 22.14100 34.12800
H  49.94100 22.96900 33.77400
H  46.45300 25.57000 33.45000
H  47.10300 26.75700 32.41300
H  48.53700 27.54000 34.39800
H  48.65000 25.82600 34.88600
H  46.61500 18.22300 29.29700
H  45.14900 19.15300 29.70300
H  46.61000 19.39400 30.67800
H  45.58800 17.57600 27.37600
H  44.77200 17.72700 25.87100
H  44.19500 18.74700 27.19800
H  47.08300 23.88900 23.36400
H  49.79200 25.08200 23.29700
H  48.91200 21.59900 23.18800
H  49.85500 23.02400 22.64800
H  48.29000 22.73000 21.94200
H  47.36000 26.67900 23.99700
H  47.21700 25.93800 22.40400
H  48.30300 27.78800 21.64000
H  49.65800 27.51800 22.81400
H  48.19500 28.38000 23.27400
H  50.42300 29.46800 25.92500
H  51.97300 28.54500 26.14700
H  51.60500 29.89400 27.17500
H  49.22500 28.43300 31.75600
H  52.85000 27.64900 34.33700
H  51.60500 26.47300 34.79500
H  51.44200 28.10600 35.37900
Mg -12.53100 15.97100 41.62600
C  -9.38400 14.43400 41.29300
C  -11.15900 18.64900 40.03500
C  -15.57900 17.07800 41.45300
C  -13.79900 12.64100 42.51600
N  -10.51300 16.44300 40.72500
C  -9.38300 15.70600 40.71800
C  -8.24000 16.31700 40.00100
C  -8.69200 17.82500 39.88000
C  -10.20600 17.67400 40.26900
C  -7.97400 18.80300 40.90600
C  -7.91700 15.59100 38.64800
C  -6.42900 15.25700 38.50400
H  -5.83200 15.97900 37.29200
N  -13.22400 17.64600 40.99100
C  -12.55200 18.66500 40.34300
C  -13.42000 19.73100 40.10200
C  -14.70600 19.37700 40.52300
C  -14.53800 17.96400 41.00300
C  -13.10900 20.94400 39.43500
C  -15.94600 20.28600 40.48800
O  -15.88700 21.42500 40.02400
C  -17.26600 19.78100 41.00000
N  -14.42600 14.96600 41.97400
C  -15.51300 15.72900 41.93500
C  -16.78000 14.93600 42.29800
C  -16.21600 13.45000 42.52700
C  -14.72500 13.65900 42.33600
C  -17.44200 15.54700 43.48900
C  -16.76700 12.40100 41.55300
C  -17.14900 11.05900 42.20300
N  -11.79300 14.02100 41.94300
C  -12.39200 12.77800 42.27500
C  -11.33400 11.72800 42.38300
C  -10.14600 12.36200 42.09200
C  -10.53500 13.69300 41.70900
C  -11.51800 10.24400 42.85100
C  -8.71300 12.18300 42.01800
O  -7.96100 11.30400 42.30300
C  -8.10100 13.47100 41.48700
C  -7.10600 13.89200 42.53700
O  -7.33600 13.97900 43.71800
O  -5.86100 14.11300 41.95400
C  -4.87400 14.66100 42.90700
H  -10.82500 19.63400 39.70400
H  -16.57400 17.51100 41.33300
H  -14.05900 11.65500 42.90700
H  -7.32300 16.31900 40.59100
H  -8.53300 18.11500 38.84100
H  -7.20000 18.23900 41.42600
H  -8.65400 19.16900 41.67600
H  -7.53900 19.55700 40.25100
H  -8.17000 16.26100 37.82600
H  -8.61500 14.76300 38.52900
H  -6.26100 14.19000 38.36100
H  -5.86200 15.41900 39.42100
H  -13.29600 21.82900 40.04300
H  -13.85900 21.07400 38.65400
H  -12.17000 20.94900 38.88100
H  -17.69900 19.13100 40.24000
H  -17.84700 20.70300 41.02800
H  -17.19600 19.33900 41.99400
H  -17.49900 14.96800 41.48000
H  -16.42500 13.09200 43.53500
H  -17.30200 16.62600 43.42700
H  -17.05100 15.22000 44.45200
H  -18.52300 15.45100 43.38300
H  -16.06400 12.26800 40.73100
H  -17.73700 12.71200 41.16600
H  -18.19600 10.75700 42.22000
H  -16.90400 11.07100 43.26500
H  -16.44000 10.26500 41.97100
H  -12.12500 10.28400 43.75600
H  -10.59000 9.69300 43.00400
H  -12.16900 9.75900 42.12400
H  -7.67600 13.24100 40.51000
H  -4.03200 13.97200 42.98500
H  -5.20700 14.95100 43.90400
H  -4.55200 15.62100 42.50400

