158

Mg 25.27700 -7.74700 47.93400
C  28.00300 -5.77900 46.79700
C  23.41700 -6.83400 45.42600
C  23.17000 -10.37200 48.73000
C  27.65900 -9.26500 50.24500
N  25.85800 -6.63400 46.15900
C  26.89200 -5.73100 45.98400
C  26.58900 -4.72500 44.82800
C  25.06200 -5.00500 44.49200
C  24.74800 -6.21200 45.45200
C  24.00100 -3.84800 44.43500
C  27.55800 -4.96300 43.62400
C  28.12100 -3.62500 43.01600
H  28.07400 -3.57400 41.47200
N  23.41300 -8.45700 47.22000
C  22.84800 -7.87400 46.18400
C  21.59900 -8.55300 45.93500
C  21.56900 -9.73000 46.74500
C  22.73400 -9.58200 47.62900
C  20.64000 -8.14900 44.75900
C  20.54600 -10.80600 46.66400
O  19.70600 -10.81100 45.75000
C  20.42200 -11.97100 47.62700
N  25.45600 -9.67000 49.25600
C  24.40400 -10.40600 49.47700
C  24.48300 -11.23300 50.76000
C  25.95000 -10.87200 51.23300
C  26.43300 -9.87600 50.18100
C  23.36100 -11.03500 51.85000
C  26.94900 -12.14800 51.50700
C  27.94600 -12.19900 52.64100
N  27.36900 -7.48300 48.58100
C  28.22100 -8.15400 49.48500
C  29.52500 -7.53700 49.48000
C  29.44900 -6.55400 48.46200
C  28.18300 -6.65400 47.88800
C  30.70400 -7.96300 50.22500
C  30.21200 -5.40700 47.82800
O  31.31000 -4.91600 48.12500
C  29.25900 -4.92900 46.68100
C  28.97900 -3.47000 46.82500
O  28.20500 -2.99000 47.59400
O  29.73400 -2.77000 45.86700
C  29.48800 -1.34500 45.84900
H  22.73000 -6.31600 44.75500
H  22.47500 -11.13800 49.08000
H  28.36800 -9.63100 50.99100
H  26.66600 -3.65900 45.04100
H  25.02000 -5.36900 43.46500
H  23.30400 -4.07600 45.24100
H  23.43000 -3.80000 43.50700
H  24.51900 -2.91200 44.64300
H  27.01700 -5.51100 42.85200
H  28.33200 -5.68200 43.89200
H  29.11200 -3.42200 43.42400
H  27.46800 -2.83100 43.37700
H  20.86100 -7.12400 44.46200
H  19.63400 -7.97300 45.13900
H  20.59200 -8.90400 43.97400
H  21.41000 -12.34300 47.90000
H  19.86000 -12.74200 47.10100
H  19.94900 -11.65700 48.55700
H  24.44200 -12.31500 50.63100
H  25.98900 -10.20100 52.09000
H  23.75200 -10.42200 52.66200
H  23.03700 -12.02400 52.17400
H  22.56900 -10.44100 51.39500
H  27.41500 -12.40900 50.55700
H  26.33300 -12.98800 51.82700
H  27.75600 -13.09000 53.23800
H  27.80700 -11.27300 53.20000
H  28.94000 -12.12900 52.20000
H  31.46700 -7.19500 50.09700
H  31.16600 -8.85500 49.80300
H  30.52300 -8.25900 51.25900
H  29.71600 -4.91900 45.69100
H  29.62100 -0.90700 46.83800
H  28.45300 -1.12300 45.58600
H  30.21200 -0.90400 45.16400
Mg 35.69700 0.92700 29.80100
C  33.29700 1.65800 32.31400
C  38.13500 1.52000 32.19000
C  37.92000 0.42500 27.45500
C  33.07300 1.13100 27.38300
N  35.57600 1.31700 32.04100
C  34.58500 1.45400 32.82500
C  34.99200 1.83600 34.22000
C  36.51400 2.19700 34.00000
C  36.80700 1.65900 32.61900
C  36.97200 3.64700 34.07900
C  34.67400 0.78500 35.26100
C  34.16100 1.40200 36.55100
H  35.03400 2.39000 37.28400
N  37.77300 0.79300 29.85200
C  38.62500 1.07900 30.85600
C  39.97900 1.02900 30.45200
C  39.89700 0.56900 29.09100
C  38.52100 0.61400 28.75800
C  41.11600 1.36800 31.43700
C  41.03400 0.36000 28.05900
O  40.83000 0.02800 26.89500
C  42.38700 0.32200 28.48600
N  35.51700 0.80400 27.80600
C  36.60400 0.49000 27.03900
C  36.19300 0.34700 25.57300
C  34.67700 0.50000 25.62600
C  34.37700 0.78700 27.04900
C  36.97500 1.21000 24.56300
C  33.87100 -0.65400 25.04100
C  33.76100 -1.96600 25.88900
N  33.61600 1.42700 29.78800
C  32.77400 1.45600 28.74800
C  31.49100 1.94200 29.24700
C  31.63200 1.98700 30.66300
C  32.94200 1.63300 30.92900
C  30.30800 2.37600 28.45800
C  30.98600 2.31000 31.86500
O  29.92600 2.85400 32.04100
C  32.05700 2.11800 33.01500
C  32.31300 3.38400 33.73000
O  33.09400 4.26100 33.33500
O  31.64200 3.42300 34.98900
C  31.85900 4.63700 35.83500
H  38.90600 1.86300 32.88200
H  38.51600 0.08700 26.60400
H  32.34700 1.28600 26.58300
H  34.56200 2.79400 34.51200
H  37.14300 1.65800 34.70800
H  36.15900 4.29300 34.41100
H  37.27900 4.05100 33.11400
H  37.77300 3.77000 34.80800
H  35.52000 0.14900 35.52200
H  33.85000 0.14800 34.94000
H  33.99700 0.60400 37.27500
H  33.23000 1.91600 36.31100
H  41.17000 2.45300 31.53200
H  42.10900 1.05100 31.11800
H  40.87900 0.91700 32.40000
H  42.94300 -0.15400 27.67800
H  42.40000 -0.34500 29.34800
H  42.71500 1.32500 28.75800
H  36.37500 -0.68800 25.28400
H  34.40800 1.41700 25.10200
H  36.37900 2.10200 24.36800
H  37.30600 0.71800 23.64800
H  37.92600 1.50000 25.00800
H  34.11100 -0.87500 24.00100
H  32.82200 -0.35800 25.05300
H  34.57200 -1.91400 26.61600
H  33.92700 -2.83700 25.25500
H  32.79600 -2.06200 26.38600
H  30.55500 3.18700 27.77300
H  29.44100 2.62900 29.06800
H  30.05400 1.49600 27.86800
H  31.58400 1.41900 33.70400
H  32.21000 5.47900 35.23900
H  32.64200 4.33700 36.53100
H  30.94000 4.90200 36.35800

