158

Mg -12.65400 38.89800 42.87600
C  -10.87400 35.92100 41.87600
C  -10.32800 40.72300 41.05800
C  -14.49800 41.56900 43.51600
C  -15.33100 36.76200 43.77500
N  -10.67200 38.33800 41.66000
C  -10.19400 37.07500 41.42400
C  -8.95600 37.20800 40.54300
C  -8.73800 38.72700 40.39400
C  -9.97400 39.31500 41.09700
C  -7.40900 39.21500 41.04400
C  -9.07500 36.64000 39.12800
C  -7.75000 36.15500 38.56100
H  -7.00300 36.95700 37.49000
N  -12.42100 40.83900 42.46500
C  -11.40300 41.40000 41.74500
C  -11.60400 42.81600 41.58900
C  -12.77000 43.12500 42.32200
C  -13.30400 41.85600 42.79500
C  -10.60400 43.66300 40.83800
C  -13.27300 44.52700 42.53500
O  -12.73600 45.49500 41.97200
C  -14.43000 44.67000 43.47500
N  -14.65700 39.09500 43.54300
C  -15.12800 40.34000 43.79000
C  -16.57800 40.23100 44.24100
C  -16.99100 38.72400 44.15100
C  -15.53000 38.14200 43.86300
C  -16.82100 40.79500 45.71100
C  -17.95900 38.33900 43.01300
C  -19.38300 38.68500 43.31300
N  -13.02100 36.70600 42.97900
C  -14.15900 36.11400 43.35400
C  -13.87600 34.63900 43.28900
C  -12.61300 34.54200 42.69200
C  -12.14600 35.87200 42.46600
C  -14.67000 33.39100 43.74100
C  -11.61700 33.63300 42.19200
O  -11.61800 32.41400 42.05800
C  -10.42300 34.49600 41.64900
C  -9.14200 34.13500 42.36400
O  -9.00900 34.25200 43.57800
O  -8.21500 33.74300 41.50000
C  -6.89000 33.72300 42.11500
H  -9.69200 41.29000 40.37400
H  -15.04200 42.45500 43.84800
H  -16.23000 36.14900 43.86300
H  -8.07400 36.77600 41.01500
H  -8.65300 39.06800 39.36200
H  -6.94800 38.50600 41.73100
H  -7.64300 40.07900 41.66600
H  -6.61900 39.49600 40.34800
H  -9.08900 37.38300 38.33100
H  -9.86000 35.89100 39.02300
H  -7.87300 35.11600 38.25400
H  -6.99300 36.13500 39.34400
H  -10.71400 44.73000 41.03000
H  -10.65100 43.49300 39.76200
H  -9.59600 43.49800 41.22000
H  -14.19000 44.38100 44.49800
H  -15.35600 44.26000 43.07300
H  -14.42800 45.76000 43.44500
H  -17.08900 40.82000 43.48000
H  -17.26900 38.30000 45.11600
H  -17.61500 41.53900 45.64500
H  -15.91700 41.23100 46.13600
H  -17.26400 40.06000 46.38300
H  -17.86100 37.26200 42.87300
H  -17.64600 38.89800 42.13100
H  -19.93500 37.75500 43.44400
H  -19.82200 39.30200 42.52900
H  -19.53500 39.34500 44.16700
H  -15.12400 32.90400 42.87800
H  -15.46700 33.71000 44.41200
H  -13.95100 32.72700 44.22100
H  -10.28600 34.36700 40.57500
H  -6.78200 32.99900 42.92300
H  -6.75300 34.71500 42.54600
H  -6.18000 33.51200 41.31500
Mg -10.92900 16.44500 42.94100
C  -7.46500 17.40000 42.88400
C  -11.65000 19.90100 42.45100
C  -14.03500 15.64000 42.69000
C  -9.86700 13.16600 42.66700
N  -9.65600 18.48600 42.56700
C  -8.27600 18.56000 42.73800
C  -7.86300 20.01000 42.49300
C  -9.17200 20.80800 42.59000
C  -10.24500 19.73700 42.45100
C  -9.25000 21.53800 43.99100
C  -7.00200 20.18400 41.20200
C  -5.56700 20.68700 41.22400
H  -4.64400 20.06300 40.20100
N  -12.61500 17.54800 42.75200
C  -12.72900 18.96000 42.57600
C  -14.10300 19.32300 42.39400
C  -14.84400 18.13400 42.69100
C  -13.85400 17.03700 42.78200
C  -14.66900 20.72700 42.05400
C  -16.38900 18.03800 42.70500
O  -17.07600 18.97600 42.31100
C  -17.01400 16.80200 43.33700
N  -11.83200 14.65200 42.69600
C  -13.17200 14.55200 42.66000
C  -13.62500 13.09000 42.91600
C  -12.27600 12.32500 42.57100
C  -11.21300 13.40900 42.64100
C  -14.35500 12.92700 44.29500
C  -12.38300 11.58400 41.13400
C  -12.86700 10.11500 41.08300
N  -9.09800 15.49500 42.74400
C  -8.84400 14.16100 42.74700
C  -7.41400 13.89300 42.83300
C  -6.82600 15.15500 42.97500
C  -7.91200 16.09300 42.87300
C  -6.84000 12.51200 42.74900
C  -5.56600 15.79400 43.14300
O  -4.38000 15.40100 43.29500
C  -5.94300 17.30400 43.25100
C  -5.69200 17.64000 44.63500
O  -5.94400 16.96100 45.61000
O  -5.12600 18.85600 44.64100
C  -4.88500 19.48200 46.01100
H  -11.93000 20.92300 42.18700
H  -15.04400 15.22200 42.67800
H  -9.62800 12.10700 42.79000
H  -7.20900 20.14000 43.35500
H  -9.27900 21.60100 41.84900
H  -8.31200 21.74900 44.50600
H  -9.76500 20.92200 44.72800
H  -9.90400 22.40400 43.88800
H  -7.57100 20.87100 40.57600
H  -7.04400 19.21400 40.70600
H  -5.05400 20.45100 42.15700
H  -5.50500 21.77300 41.15800
H  -14.83200 20.84800 40.98300
H  -13.98000 21.54000 42.28100
H  -15.56900 21.09500 42.54600
H  -18.03600 17.00200 43.66000
H  -16.35400 16.38100 44.09500
H  -17.03600 16.10000 42.50300
H  -14.42300 12.99000 42.18000
H  -12.02700 11.59800 43.34300
H  -14.36200 13.91800 44.74900
H  -13.83700 12.25300 44.97700
H  -15.41200 12.67000 44.23400
H  -11.59100 11.88300 40.44800
H  -13.27800 12.00100 40.67300
H  -12.13900 9.36900 40.76500
H  -13.76100 10.14400 40.46000
H  -13.27200 9.93400 42.07800
H  -7.54000 11.77600 42.35400
H  -6.61200 12.05200 43.71000
H  -5.88900 12.44300 42.22100
H  -5.32600 17.90500 42.58400
H  -3.99600 20.04800 45.73400
H  -4.57000 18.71700 46.72000
H  -5.71500 20.10800 46.34100

