158

Mg 45.18600 4.30100 47.84400
C  43.05600 6.95000 47.11000
C  42.59200 2.11700 47.05700
C  47.38600 1.62300 47.47600
C  47.85300 6.50500 47.93600
N  43.10700 4.53100 47.23200
C  42.48900 5.68100 46.89000
C  41.06200 5.36000 46.44600
C  40.85400 3.82500 46.77600
C  42.24600 3.44300 46.99700
C  39.75800 3.49900 47.88700
C  40.94500 5.78400 44.97100
C  40.02200 6.91000 44.53100
H  40.34800 7.77600 43.29000
N  44.99300 2.10500 47.67000
C  43.80400 1.49300 47.31800
C  44.08100 0.08300 47.12200
C  45.55200 -0.05400 47.33700
C  46.04300 1.28700 47.48300
C  43.04300 -0.99000 46.99500
C  46.29400 -1.41600 47.33300
O  45.66500 -2.44600 47.18000
C  47.75600 -1.55500 47.53500
N  47.32500 4.13900 47.71000
C  47.98800 2.89400 47.65100
C  49.54700 3.05300 47.82700
C  49.63800 4.57400 48.23300
C  48.21900 5.15200 47.96600
C  50.23100 2.12000 48.85700
C  50.83500 5.29000 47.50500
C  51.80800 6.24800 48.32100
N  45.41800 6.29400 47.72200
C  46.58800 7.09100 47.83100
C  46.21300 8.43000 47.75700
C  44.80200 8.44800 47.44400
C  44.38000 7.13900 47.41000
C  47.13100 9.60000 47.92400
C  43.63900 9.27300 47.29200
O  43.48100 10.49500 47.38700
C  42.38300 8.29900 47.07500
C  41.50800 8.43700 48.31500
O  41.66100 7.89800 49.39900
O  40.60000 9.39000 47.99800
C  39.56400 9.68000 49.01900
H  41.70800 1.48000 46.99400
H  48.07000 0.78300 47.33500
H  48.71600 7.17400 47.97100
H  40.31400 6.00300 46.91000
H  40.52700 3.29800 45.88000
H  39.08200 4.32000 48.12300
H  40.08800 3.02500 48.81100
H  39.12600 2.73000 47.44200
H  40.53600 4.86700 44.54700
H  41.94000 5.93300 44.55100
H  39.80000 7.67600 45.27500
H  39.07900 6.41800 44.29400
H  42.97900 -1.77700 47.74500
H  43.15400 -1.47600 46.02500
H  42.04500 -0.55200 46.95600
H  48.05200 -0.91700 48.36700
H  48.30400 -1.42100 46.60200
H  47.87500 -2.60400 47.80800
H  50.04800 2.88700 46.87300
H  49.78200 4.73600 49.30200
H  49.52800 1.53000 49.44500
H  50.79000 2.74200 49.55500
H  50.90400 1.47400 48.29300
H  50.43400 5.99300 46.77600
H  51.53200 4.60300 47.02600
H  52.78000 6.18800 47.83100
H  51.86600 6.06400 49.39400
H  51.45400 7.27600 48.23900
H  47.38900 9.55900 48.98200
H  46.55200 10.46300 47.59600
H  47.95200 9.38200 47.24000
H  41.81000 8.57600 46.19100
H  39.36200 8.69400 49.43800
H  38.65200 10.12100 48.61700
H  40.01800 10.33900 49.75800
Mg -2.42500 35.23000 27.33300
C  -4.27000 33.27600 29.63800
C  -1.83000 37.53700 29.86400
C  -0.57300 36.98100 25.13000
C  -3.60000 33.18200 24.72700
N  -3.07700 35.39500 29.40300
C  -3.63400 34.37500 30.19500
C  -3.74500 34.82600 31.68400
C  -3.10300 36.27800 31.73900
C  -2.70600 36.46000 30.23100
C  -3.96200 37.34000 32.43400
C  -3.01800 33.87400 32.68500
C  -2.85000 34.34700 34.17900
H  -2.60400 33.47700 35.37400
N  -1.21800 36.90700 27.52500
C  -1.11600 37.71100 28.67900
C  -0.19700 38.73800 28.32400
C  0.06800 38.71900 26.94500
C  -0.65400 37.57400 26.44100
C  0.36400 39.71600 29.29100
C  0.74800 39.72300 25.96600
O  0.74800 39.73800 24.71400
C  1.43600 40.98600 26.41500
N  -2.18000 35.16500 25.20400
C  -1.24800 35.92000 24.52600
C  -1.07900 35.41700 23.07500
C  -1.93000 34.13300 22.97900
C  -2.61400 34.16200 24.37100
C  -1.37700 36.53100 22.03900
C  -1.09100 32.77500 22.79800
C  -1.47800 31.66800 21.83900
N  -3.81700 33.67100 27.14300
C  -4.13000 32.86300 26.02900
C  -4.88100 31.71400 26.44000
C  -5.06700 31.90400 27.82500
C  -4.30100 32.99100 28.23300
C  -5.41200 30.64300 25.43600
C  -5.63100 31.35700 29.07900
O  -6.28100 30.36100 29.21800
C  -5.16100 32.30200 30.24300
C  -6.31200 32.79900 30.97200
O  -6.96400 33.77300 30.68600
O  -6.55600 32.07200 32.11400
C  -7.60400 32.70900 32.93100
H  -1.77000 38.32400 30.61800
H  -0.02300 37.57500 24.39700
H  -3.92500 32.54500 23.90100
H  -4.80500 34.81400 31.93500
H  -2.18300 36.28400 32.32300
H  -4.90700 36.91400 32.76900
H  -4.23200 38.14400 31.74800
H  -3.33400 37.62900 33.27600
H  -2.03800 33.76600 32.21900
H  -3.58300 32.94200 32.71000
H  -3.64500 35.00100 34.53800
H  -1.99900 35.02800 34.18700
H  0.23500 39.19000 30.23700
H  -0.07300 40.71100 29.37900
H  1.45200 39.69400 29.22600
H  1.60800 41.70800 25.61700
H  2.34800 40.72200 26.95000
H  0.76400 41.41300 27.16000
H  -0.01100 35.23800 22.95000
H  -2.63000 34.26000 22.15300
H  -0.46100 36.82300 21.52400
H  -1.86600 37.40600 22.46600
H  -2.06400 36.25700 21.23900
H  -1.29600 32.29800 23.75700
H  -0.02700 32.94600 22.63300
H  -0.57500 31.45700 21.26600
H  -2.21000 32.00200 21.10400
H  -1.95800 30.89600 22.44000
H  -4.72200 30.45200 24.61400
H  -6.33700 30.96600 24.96000
H  -5.59600 29.72600 25.99700
H  -4.56100 31.64400 30.87100
H  -7.73000 32.07100 33.80600
H  -8.58700 32.77600 32.46500
H  -7.30900 33.66900 33.35200

