158

Mg 46.21300 44.25300 43.08100
C  42.90200 43.38000 42.53000
C  46.92400 40.94600 42.69100
C  49.49900 45.07500 42.80300
C  45.38400 47.68900 43.23000
N  45.07000 42.42700 42.64200
C  43.72500 42.27200 42.45600
C  43.21200 40.81500 42.39500
C  44.51300 40.03800 42.57800
C  45.58000 41.22100 42.66800
C  44.42800 39.07300 43.78200
C  42.41900 40.34700 41.18500
C  43.03800 40.93200 39.85800
H  42.57000 40.10700 38.66900
N  47.98200 43.12600 42.84200
C  48.05900 41.79500 42.69700
C  49.53700 41.39200 42.54700
C  50.29600 42.59000 42.75200
C  49.25000 43.66500 42.82500
C  50.01900 39.91500 42.38600
C  51.89000 42.72400 42.84300
O  52.57000 41.73600 42.70100
C  52.63700 43.99200 43.03900
N  47.19400 46.09400 42.86400
C  48.55700 46.13500 42.85500
C  49.09800 47.59100 42.76600
C  47.80300 48.35800 43.05800
C  46.70600 47.34000 43.00200
C  50.29600 47.96400 43.65100
C  47.58000 49.71400 42.27600
C  47.23000 50.92400 43.14900
N  44.48100 45.42300 42.82100
C  44.26500 46.76800 43.07700
C  42.79700 46.95200 42.98900
C  42.22500 45.64800 42.83300
C  43.34700 44.74400 42.71600
C  42.03300 48.23700 42.95200
C  40.96300 44.95200 42.67900
O  39.78500 45.26000 42.65800
C  41.42300 43.42500 42.58100
C  40.62000 42.57900 43.54600
O  40.03700 41.56300 43.26500
O  40.81500 42.95300 44.88600
C  40.32800 41.96300 45.81800
H  47.13900 39.87600 42.73100
H  50.51700 45.42900 42.62400
H  45.09500 48.71700 43.46100
H  42.73000 40.77300 43.37200
H  44.78700 39.43800 41.71000
H  43.42800 38.64500 43.84800
H  44.53600 39.67800 44.68200
H  45.18700 38.29600 43.69300
H  41.39900 40.69600 41.34600
H  42.53600 39.26500 41.25000
H  44.10700 41.13200 39.92700
H  42.50300 41.87300 39.72700
H  51.02800 39.94600 41.97400
H  49.37100 39.37500 41.69600
H  49.95000 39.42500 43.35700
H  52.68900 44.48900 42.07000
H  53.65300 43.81200 43.39000
H  52.20200 44.70200 43.74200
H  49.44500 47.66400 41.73500
H  47.70100 48.60800 44.11400
H  50.74200 47.08000 44.10700
H  49.80400 48.52000 44.44800
H  51.09200 48.49300 43.12600
H  46.71400 49.58600 41.62700
H  48.41400 49.93300 41.60900
H  47.79000 50.86400 44.08300
H  46.15700 50.91500 43.34100
H  47.41600 51.84500 42.59700
H  42.07000 48.43300 41.88100
H  42.48900 49.00100 43.58300
H  41.01200 48.19600 43.33100
H  41.05800 43.05800 41.62200
H  39.24000 41.90600 45.85100
H  40.64100 42.25400 46.82000
H  40.67900 40.94600 45.64300
Mg 15.68400 51.77100 25.83000
C  17.52200 50.93000 28.53200
C  13.01100 52.17200 27.91400
C  13.73300 52.02900 23.11800
C  18.36200 50.70200 23.77500
N  15.42500 51.77800 28.05600
C  16.35000 51.44300 28.96000
C  15.88800 51.83800 30.37900
C  14.33900 51.85200 30.14300
C  14.19800 51.96600 28.63400
C  13.61400 50.50500 30.70100
C  16.45600 53.16800 30.90500
C  16.63400 53.26800 32.44600
H  16.00700 52.31500 33.41900
N  13.65500 52.24400 25.54900
C  12.75100 52.24300 26.55500
C  11.41800 52.55600 25.92100
C  11.58700 52.38900 24.53200
C  13.06400 52.27100 24.31300
C  10.12900 52.68900 26.68600
C  10.54700 52.51000 23.42100
O  10.92300 52.43300 22.24400
C  9.13700 52.87700 23.76300
N  16.07100 51.51600 23.76100
C  15.09400 51.73400 22.88100
C  15.60500 51.62100 21.48400
C  17.15600 51.42700 21.69500
C  17.22100 51.19200 23.17000
C  14.99500 50.44100 20.67200
C  18.11500 52.66300 21.27400
C  18.96500 52.46200 20.06300
N  17.53600 50.80800 26.04100
C  18.56800 50.51100 25.15900
C  19.70400 49.90800 25.83000
C  19.34300 50.19600 27.17100
C  18.03800 50.66400 27.25200
C  20.97000 49.35200 25.23900
C  19.79500 49.94600 28.47600
O  20.86300 49.45900 28.79800
C  18.68200 50.50900 29.45900
C  18.26100 49.41600 30.42200
O  17.20000 48.71900 30.40400
O  19.19200 49.41100 31.45400
C  18.86900 48.69200 32.67600
H  12.13200 52.27000 28.55400
H  13.19200 52.17500 22.18100
H  19.17700 50.34300 23.14300
H  16.11400 51.15500 31.19800
H  13.86100 52.69100 30.64800
H  13.77700 50.55600 31.77800
H  14.18200 49.67500 30.28200
H  12.61800 50.45800 30.26100
H  15.84500 54.02100 30.61000
H  17.41600 53.22500 30.39300
H  16.35400 54.29400 32.68300
H  17.71000 53.30200 32.61400
H  10.25500 53.24300 27.61600
H  9.76800 51.68900 26.92700
H  9.27500 53.23400 26.28500
H  9.06800 53.86300 24.22400
H  8.66300 52.03600 24.27000
H  8.60700 52.96700 22.81400
H  15.37000 52.52700 20.92600
H  17.46500 50.47200 21.27000
H  14.43500 49.93300 21.45700
H  15.74800 49.81500 20.19300
H  14.28500 50.88600 19.97500
H  18.90900 52.81200 22.00600
H  17.58500 53.60400 21.12200
H  19.07000 51.46500 19.63500
H  19.99800 52.54400 20.40000
H  18.69700 53.13600 19.24800
H  21.31700 48.72200 26.05800
H  21.61300 50.21300 25.05800
H  20.80800 48.88600 24.26700
H  19.01000 51.45000 29.90100
H  19.13100 49.30100 33.54100
H  19.39700 47.73900 32.72000
H  17.79000 48.53700 32.70800

