158

Mg 49.94600 44.42500 43.45800
C  46.81100 45.21300 41.96900
C  49.55100 41.21300 42.59700
C  53.09900 43.88000 44.44500
C  50.37200 47.87800 43.94100
N  48.30700 43.32400 42.47000
C  47.23000 43.83800 41.74000
C  46.35000 42.66200 41.19000
C  47.24600 41.42300 41.42200
C  48.44200 41.97000 42.20200
C  46.59000 40.07300 42.06800
C  45.77300 42.71700 39.69900
C  46.30400 43.64300 38.57700
H  46.64100 42.96500 37.23800
N  51.14600 42.82300 43.52900
C  50.81700 41.54800 43.16400
C  51.91100 40.62600 43.28000
C  52.98700 41.37900 43.78300
C  52.39900 42.74900 44.02400
C  51.88200 39.23200 42.85500
C  54.45800 40.89000 43.87300
O  54.73000 39.75600 43.52800
C  55.65400 41.72600 44.33200
N  51.49500 45.70300 44.24100
C  52.75200 45.21000 44.49200
C  53.79300 46.35900 44.77400
C  52.90400 47.65500 44.60600
C  51.49100 47.08700 44.23000
C  54.53600 46.19700 46.10500
C  53.38500 48.69200 43.55400
C  53.95200 50.06100 44.12900
N  48.81100 46.18400 43.24100
C  49.11800 47.46700 43.50500
C  48.00900 48.39100 43.11300
C  47.06800 47.51400 42.61400
C  47.59400 46.21100 42.61700
C  48.05500 49.83700 43.21600
C  45.76400 47.47200 42.01700
O  44.96800 48.39200 41.80400
C  45.58300 45.99600 41.48500
C  44.33600 45.32200 41.84900
O  43.44900 45.07000 40.98000
O  44.33800 45.19600 43.21300
C  42.99900 44.69500 43.71600
H  49.50800 40.20500 42.18000
H  54.11700 43.64000 44.75800
H  50.54300 48.95200 44.04300
H  45.56600 42.59300 41.94400
H  47.75700 41.32200 40.46500
H  46.47300 39.29400 41.31500
H  45.63700 40.33700 42.52700
H  47.25900 39.73100 42.85700
H  44.71600 42.90300 39.88900
H  45.90700 41.71100 39.30000
H  47.17600 44.17100 38.96100
H  45.56100 44.42600 38.42900
H  51.81200 39.04600 41.78300
H  50.95400 38.76200 43.18000
H  52.70500 38.59200 43.17500
H  55.76600 42.54100 43.61800
H  56.55700 41.13100 44.19900
H  55.41300 42.14100 45.31100
H  54.62700 46.30500 44.07400
H  52.75900 47.98100 45.63600
H  54.81000 45.18400 46.40000
H  53.73400 46.48000 46.78700
H  55.36400 46.90000 46.19800
H  52.63800 48.83700 42.77400
H  54.16600 48.30800 42.89700
H  54.93800 50.21000 43.68900
H  54.14400 50.03600 45.20100
H  53.30000 50.91600 43.95300
H  48.19900 50.09100 44.26600
H  47.09300 50.22500 42.88300
H  48.93800 50.21600 42.70000
H  45.58600 46.08400 40.39900
H  42.39800 45.38900 44.30300
H  43.28300 43.96800 44.47700
H  42.35200 44.28900 42.93900
Mg 6.83100 54.14000 39.87500
C  6.30500 50.53200 39.61200
C  10.10700 53.49300 39.24700
C  7.10900 57.24600 39.56000
C  3.28600 54.43600 39.95100
N  8.07500 52.21600 39.24200
C  7.66700 50.92900 39.38400
C  8.85900 49.99100 39.23800
C  9.97700 50.94800 39.56000
C  9.38800 52.37600 39.31600
C  10.59400 50.77000 40.97800
C  9.07400 49.27100 37.93300
C  8.78300 50.05300 36.62400
H  7.63500 49.59500 35.66700
N  8.38300 55.24800 39.41200
C  9.70200 54.83300 39.19500
C  10.56000 55.93800 39.15700
C  9.73100 57.15000 39.17300
C  8.36800 56.60100 39.41900
C  12.01900 55.86700 38.66500
C  10.15400 58.65300 38.99000
O  11.37700 58.90100 39.00700
C  9.18500 59.79400 38.91800
N  5.33200 55.58500 39.52700
C  5.78300 56.86500 39.61800
C  4.60300 57.88900 39.67500
C  3.34100 56.97200 39.72800
C  3.99200 55.56400 39.68800
C  4.71700 58.79100 40.93100
C  2.21200 57.22900 38.65900
C  0.96900 57.85200 39.16000
N  5.11600 52.81100 39.78700
C  3.76000 53.09200 39.97000
C  3.00900 51.84500 40.31500
C  4.01700 50.82500 40.20400
C  5.26800 51.48300 39.80800
C  1.59800 51.66700 40.75100
C  4.21200 49.41500 40.33400
O  3.42300 48.53400 40.68300
C  5.75500 49.14900 39.90700
C  5.72300 48.11100 38.86900
O  5.68400 48.31500 37.68500
O  5.68700 46.85700 39.38600
C  5.82900 45.71400 38.53700
H  11.17800 53.27600 39.25200
H  7.09600 58.31500 39.34000
H  2.22400 54.51300 40.19300
H  8.73900 49.25100 40.03000
H  10.80100 50.92800 38.84700
H  10.01300 50.24200 41.73400
H  10.74400 51.77400 41.37400
H  11.55500 50.27300 40.84000
H  8.48600 48.35700 37.84600
H  10.02900 48.74700 37.96900
H  9.70600 50.09800 36.04700
H  8.58600 51.07100 36.96100
H  12.51600 54.95800 39.00500
H  12.61600 56.64100 39.14900
H  12.11100 55.93800 37.58200
H  8.50500 59.78800 39.76900
H  8.60200 59.73800 37.99900
H  9.90700 60.60500 38.81900
H  4.81500 58.48600 38.78800
H  2.93500 56.94300 40.73900
H  4.70600 59.75400 40.42000
H  5.62000 58.51100 41.47300
H  3.80700 58.67500 41.51900
H  1.91700 56.29000 38.19100
H  2.66300 57.85200 37.88600
H  0.21100 57.24800 38.66200
H  0.92500 58.84200 38.70600
H  0.89400 57.82900 40.24700
H  0.98100 51.53300 39.86300
H  1.20400 52.57500 41.20800
H  1.33800 50.78700 41.34000
H  6.27200 48.78600 40.79500
H  6.62500 45.07100 38.91300
H  6.23600 45.77700 37.52800
H  4.84100 45.25300 38.54500

