158

Mg 46.32900 24.67900 29.23300
C  47.10800 27.06500 31.62300
C  45.68800 22.41300 31.78800
C  45.72500 22.38900 26.93600
C  47.29700 26.90600 26.72600
N  46.54900 24.76700 31.44200
C  46.76100 25.84400 32.16200
C  46.39700 25.60400 33.62400
C  45.97700 24.06600 33.64500
C  45.97300 23.75300 32.21400
C  46.85200 23.16200 34.44700
C  45.28000 26.55500 34.03600
C  45.51500 27.34800 35.33200
H  44.40700 27.22400 36.34500
N  45.80600 22.55700 29.32100
C  45.63600 21.81100 30.46800
C  45.22700 20.45000 30.10000
C  45.28200 20.38500 28.67600
C  45.64200 21.78200 28.21000
C  44.94900 19.47300 31.13100
C  44.87400 19.21600 27.77600
O  44.91000 19.33800 26.50500
C  44.48300 17.89800 28.35300
N  46.64400 24.66500 27.14900
C  46.22200 23.61300 26.39200
C  46.51400 23.79300 24.84900
C  46.70200 25.35900 24.79300
C  46.94200 25.64500 26.30500
C  47.75400 22.98500 24.45200
C  45.58000 26.21600 24.11800
C  44.20500 25.90900 24.69000
N  47.09800 26.69200 29.14700
C  47.36900 27.44500 28.02100
C  47.80100 28.71100 28.51400
C  47.68600 28.67100 29.91300
C  47.26800 27.37500 30.25100
C  48.40900 29.77700 27.65000
C  47.88100 29.39200 31.18600
O  48.24300 30.54100 31.36800
C  47.49900 28.42300 32.30200
C  48.68800 28.17900 33.14500
O  49.78400 27.83300 32.70000
O  48.39500 28.46300 34.48000
C  49.34900 28.07600 35.48800
H  45.48800 21.82000 32.68200
H  45.21100 21.88400 26.11600
H  47.74300 27.57000 25.98300
H  47.34600 25.67500 34.15500
H  44.97300 23.80400 33.97800
H  47.76400 23.05700 33.86000
H  46.34400 22.22000 34.65400
H  47.14000 23.61600 35.39600
H  44.33200 26.03100 34.15800
H  45.05800 27.28200 33.25500
H  45.58100 28.40800 35.08800
H  46.45000 26.99000 35.76300
H  45.56100 18.62000 30.84000
H  43.87800 19.32400 31.27100
H  45.35500 19.87000 32.06100
H  45.31900 17.61000 28.99100
H  44.29200 17.11900 27.61600
H  43.57200 17.98400 28.94600
H  45.56700 23.56600 24.35900
H  47.66700 25.51700 24.31300
H  47.65200 22.25300 23.65100
H  48.01900 22.43200 25.35300
H  48.59100 23.60300 24.12700
H  45.54100 25.95800 23.06000
H  45.74600 27.28500 24.25200
H  43.68800 25.22500 24.01700
H  43.58200 26.76500 24.95100
H  44.27000 25.33700 25.61500
H  47.80200 30.00900 26.77500
H  49.43000 29.52500 27.36100
H  48.39700 30.70700 28.21800
H  46.66600 28.86800 32.84600
H  48.87600 27.37200 36.17400
H  49.35500 28.91800 36.18000
H  50.34800 27.84500 35.12000
Mg -8.35700 40.26400 42.87700
C  -7.35700 36.88700 41.62500
C  -5.92700 41.55700 40.83300
C  -9.70500 43.29900 43.31700
C  -11.22500 38.75100 44.05000
N  -6.94600 39.29400 41.34700
C  -6.61700 37.93300 41.04600
C  -5.36500 37.79900 40.17500
C  -5.09100 39.32100 39.79600
C  -6.01400 40.14200 40.76500
C  -3.58200 39.79300 39.74400
C  -5.68300 36.82000 39.04700
C  -4.75200 35.60800 38.83700
H  -3.82000 35.59800 37.64400
N  -7.63800 42.21500 42.46100
C  -6.64500 42.46300 41.58400
C  -6.44300 43.93700 41.46700
C  -7.49400 44.47900 42.33500
C  -8.33900 43.31500 42.82500
C  -5.27400 44.56200 40.73900
C  -7.71900 45.91900 42.68900
O  -6.95800 46.69500 42.16000
C  -8.67700 46.41100 43.61800
N  -10.16000 40.99200 43.72800
C  -10.50200 42.28100 43.80800
C  -11.91400 42.53700 44.41100
C  -12.45200 41.03300 44.61900
C  -11.25200 40.22000 44.05500
C  -12.09100 43.58500 45.57500
C  -13.76200 40.57700 43.92300
C  -14.66700 39.72400 44.80300
N  -9.16300 38.20700 42.93500
C  -10.29900 37.76600 43.54200
C  -10.30400 36.42600 43.64100
C  -9.15000 36.07200 42.95500
C  -8.52400 37.16800 42.46800
C  -11.45000 35.51700 44.17700
C  -8.35100 34.92300 42.61800
O  -8.50300 33.74200 42.85500
C  -7.23000 35.39500 41.63800
C  -5.94800 34.94500 42.24800
O  -5.32300 35.47200 43.17300
O  -5.50300 33.79200 41.53000
C  -4.23200 33.22400 42.06600
H  -5.14700 41.98500 40.19900
H  -10.16200 44.29000 43.33000
H  -12.03500 38.23800 44.57200
H  -4.60100 37.52700 40.90400
H  -5.43800 39.49700 38.77800
H  -2.88200 38.98200 39.54300
H  -3.29400 40.26400 40.68400
H  -3.50800 40.43800 38.86800
H  -5.48000 37.46900 38.19500
H  -6.74400 36.58100 39.12000
H  -5.41900 34.75200 38.73100
H  -4.18300 35.49000 39.76000
H  -5.59400 44.72600 39.71000
H  -4.48400 43.82500 40.59000
H  -4.74400 45.40900 41.17400
H  -8.41700 47.43200 43.89900
H  -8.70100 45.72500 44.46400
H  -9.67900 46.54600 43.21200
H  -12.50300 42.94700 43.59100
H  -12.49100 40.84300 45.69200
H  -11.11700 44.07500 45.56700
H  -12.36100 43.08000 46.50200
H  -12.75700 44.41800 45.35400
H  -13.41800 40.00900 43.05800
H  -14.28400 41.49200 43.64300
H  -15.64700 40.19500 44.87900
H  -14.30800 39.93700 45.81000
H  -14.54200 38.67100 44.55000
H  -12.18400 35.41400 43.37800
H  -11.99700 35.80700 45.07400
H  -10.87500 34.59200 44.23400
H  -7.41100 34.94200 40.66400
H  -3.73100 32.76300 41.21500
H  -4.33600 32.45300 42.83000
H  -3.52700 33.95900 42.45300

