158

Mg 25.94400 -1.29800 29.03400
C  27.95100 -1.26500 31.95700
C  23.20800 -0.58800 31.26100
C  23.93700 -1.28800 26.37300
C  28.57200 -2.43900 27.16100
N  25.61700 -1.07600 31.38600
C  26.61800 -0.95700 32.31700
C  26.06400 -0.47000 33.73100
C  24.55500 -0.38000 33.45700
C  24.43800 -0.79400 31.93500
C  23.69800 -1.05700 34.53000
C  26.58600 0.88500 34.38800
C  27.32500 0.86900 35.68200
H  26.98800 1.81500 36.85600
N  23.89000 -0.98600 28.82400
C  22.98300 -0.69600 29.83200
C  21.75000 -0.45800 29.12800
C  21.93200 -0.51400 27.76800
C  23.32900 -0.99800 27.57300
C  20.39600 -0.33000 29.78900
C  20.93600 -0.15200 26.66200
O  21.32200 -0.07700 25.48900
C  19.54200 0.27100 26.90500
N  26.15700 -1.95100 27.07700
C  25.26000 -1.69300 26.14100
C  25.74600 -2.12200 24.72300
C  27.24400 -2.35500 24.98500
C  27.36400 -2.19100 26.50800
C  25.03200 -3.33500 24.13200
C  28.23800 -1.44100 24.19700
C  28.00500 0.05200 24.27800
N  27.82800 -1.87600 29.44600
C  28.78200 -2.25600 28.53500
C  30.03500 -2.31500 29.22900
C  29.74100 -1.91200 30.59300
C  28.41000 -1.67100 30.67400
C  31.30500 -2.84400 28.60500
C  30.36000 -1.68900 31.88500
O  31.49700 -1.78800 32.36500
C  29.19100 -1.17300 32.76000
C  29.01300 -2.01600 34.06500
O  28.60000 -3.14400 34.14700
O  29.65100 -1.30500 35.03900
C  29.61200 -1.83300 36.44900
H  22.37100 -0.23000 31.86500
H  23.35200 -1.10800 25.46900
H  29.46200 -2.70900 26.58800
H  26.46500 -1.26800 34.35600
H  24.17800 0.62900 33.62400
H  22.79900 -0.46100 34.69000
H  24.16700 -1.32700 35.47700
H  23.22300 -1.98400 34.20700
H  25.85700 1.68500 34.50800
H  27.26800 1.26100 33.62500
H  28.40200 0.83900 35.51400
H  27.03100 -0.10500 36.07100
H  20.44600 -0.42500 30.87300
H  19.79300 -1.18300 29.47700
H  19.83800 0.55800 29.49100
H  19.03800 -0.57300 27.37600
H  19.08400 0.45100 25.93300
H  19.44000 1.16800 27.51600
H  25.68600 -1.31000 23.99800
H  27.47100 -3.40000 24.77400
H  24.61300 -3.04200 23.17000
H  24.28300 -3.68100 24.84500
H  25.77200 -4.12500 24.00500
H  28.29000 -1.77300 23.16000
H  29.20300 -1.63000 24.66500
H  27.06600 0.29600 24.77400
H  28.10800 0.48900 23.28500
H  28.75600 0.55100 24.89100
H  31.39500 -2.64100 27.53700
H  31.36700 -3.92700 28.71500
H  32.16700 -2.43200 29.12900
H  29.32200 -0.12500 33.03000
H  28.64900 -1.75800 36.95500
H  30.39200 -1.54100 37.15200
H  29.76400 -2.91000 36.38100
Mg -9.51700 17.68900 42.24100
C  -6.16300 17.27100 42.55400
C  -9.11200 20.96800 41.45200
C  -12.85500 17.89300 41.40800
C  -9.85800 14.16400 42.20800
N  -7.81400 18.92300 42.07000
C  -6.52300 18.61200 42.36600
C  -5.59300 19.87100 42.27300
C  -6.64400 20.99600 42.29400
C  -7.95700 20.26800 41.91000
C  -6.73400 21.72400 43.70700
C  -4.70000 19.84400 40.94700
C  -5.03200 18.77000 39.91000
H  -4.62000 19.15300 38.52800
N  -10.78100 19.25000 41.57400
C  -10.39200 20.46100 41.20600
C  -11.55000 21.26600 40.82000
C  -12.68600 20.46600 40.91900
C  -12.12600 19.12100 41.29700
C  -11.41500 22.73500 40.40200
C  -14.11000 20.87000 40.76700
O  -14.42800 22.04100 40.52400
C  -15.38300 19.94700 40.93800
N  -11.10100 16.26200 41.84600
C  -12.39300 16.63100 41.74800
C  -13.35400 15.45900 41.72300
C  -12.36200 14.22500 41.84100
C  -10.95900 14.88200 41.98500
C  -14.36700 15.47600 42.87700
C  -12.33400 13.39100 40.46700
C  -12.83600 11.86900 40.51200
N  -8.28100 16.03400 42.40400
C  -8.55400 14.67000 42.45100
C  -7.30600 13.97600 42.67900
C  -6.33800 14.93300 42.85300
C  -7.01100 16.17000 42.64200
C  -7.09800 12.47000 42.74100
C  -4.94600 15.28400 43.04500
O  -3.96400 14.58000 43.12200
C  -4.79500 16.85000 42.99400
C  -4.43300 17.33100 44.35000
O  -3.43600 17.99300 44.54300
O  -5.41300 16.96900 45.25200
C  -5.08100 17.28600 46.71100
H  -9.08700 22.05900 41.42800
H  -13.86500 17.81900 41.00000
H  -10.00000 13.08400 42.27700
H  -4.81900 19.90600 43.04000
H  -6.58300 21.70400 41.46700
H  -5.91100 21.58700 44.40900
H  -7.68500 21.50100 44.19000
H  -6.60800 22.78000 43.46700
H  -3.68300 19.70800 41.31400
H  -4.90200 20.82000 40.50400
H  -6.08100 18.47300 39.90500
H  -4.51000 17.83800 40.12600
H  -10.75800 22.80200 39.53500
H  -11.12800 23.32800 41.27100
H  -12.34300 23.23800 40.12700
H  -15.45700 19.02300 40.36500
H  -16.21200 20.57300 40.60800
H  -15.50000 19.72700 41.99900
H  -14.02200 15.46200 40.86200
H  -12.70400 13.61500 42.67700
H  -14.52000 14.53200 43.39900
H  -15.31600 15.85600 42.49900
H  -14.00400 16.15000 43.65300
H  -11.31700 13.34700 40.07700
H  -12.89900 13.92900 39.70500
H  -13.13400 11.61300 41.52900
H  -12.00700 11.24300 40.18000
H  -13.71100 11.93600 39.86600
H  -7.37500 12.34700 43.78800
H  -6.08800 12.14200 42.49700
H  -7.72400 11.77700 42.17900
H  -4.05500 17.12700 42.24300
H  -5.96400 17.80000 47.09200
H  -4.26100 17.99600 46.81900
H  -4.91200 16.33600 47.21700

