158

Mg 17.26700 -1.29400 27.76900
C  16.12100 0.66500 30.46400
C  19.42200 -2.75000 29.82700
C  18.66600 -2.71100 24.98000
C  15.20600 0.70400 25.66600
N  17.75300 -1.01100 29.93500
C  17.04000 -0.27300 30.86400
C  17.38200 -0.73000 32.27200
C  18.55400 -1.71300 32.01600
C  18.59700 -1.83900 30.47800
C  19.91700 -1.34000 32.75900
C  16.15300 -1.34100 33.09200
C  16.14300 -0.73100 34.54600
H  17.45700 -0.28600 35.26400
N  18.88300 -2.65800 27.47400
C  19.57600 -3.21300 28.51300
C  20.32700 -4.33300 27.94800
C  20.17000 -4.31400 26.56300
C  19.20100 -3.17300 26.28500
C  21.16200 -5.24900 28.88700
C  20.78000 -5.22400 25.50300
O  20.52800 -5.12800 24.29600
C  21.76200 -6.29200 25.86000
N  16.96500 -1.07400 25.67800
C  17.66200 -1.77100 24.69700
C  17.24300 -1.29700 23.29600
C  16.14700 -0.30300 23.53300
C  15.99100 -0.26400 25.05900
C  18.54000 -0.94600 22.45100
C  14.75300 -0.45200 22.81300
C  14.68400 0.26600 21.46000
N  15.87700 0.31200 27.93100
C  15.14900 0.98900 27.03500
C  14.28700 1.92800 27.69600
C  14.66100 1.86200 29.00600
C  15.66100 0.88800 29.14300
C  13.29000 2.83200 27.01400
C  14.41700 2.38400 30.33500
O  13.61500 3.20300 30.71000
C  15.31300 1.57700 31.33900
C  16.18400 2.55000 32.17300
O  17.15300 3.14800 31.84900
O  15.61400 2.56900 33.41600
C  16.27300 3.38300 34.40300
H  20.11400 -3.35400 30.41700
H  19.18900 -3.09500 24.10200
H  14.59200 1.29500 24.98400
H  17.72500 0.11700 32.86600
H  18.27900 -2.73000 32.29500
H  20.12000 -2.19800 33.39900
H  19.93200 -0.45600 33.39600
H  20.69200 -1.14000 32.01900
H  16.30100 -2.42000 33.03900
H  15.25500 -0.96600 32.60100
H  15.61100 -1.49600 35.11100
H  15.41400 0.07700 34.48600
H  20.90100 -6.27700 28.63400
H  21.03200 -5.14500 29.96400
H  22.24400 -5.14900 28.79700
H  21.26900 -7.07600 26.43500
H  22.39200 -5.81900 26.61200
H  22.26000 -6.56500 24.92900
H  16.85000 -2.12700 22.70900
H  16.58700 0.67100 23.32000
H  19.47400 -1.14400 22.97600
H  18.40900 0.11700 22.24400
H  18.64300 -1.47500 21.50400
H  13.98100 -0.18100 23.53300
H  14.65000 -1.52500 22.65500
H  15.67300 0.70700 21.33900
H  13.99300 1.10900 21.45100
H  14.49500 -0.59600 20.82000
H  12.35700 2.28400 26.88300
H  13.65400 3.10100 26.02200
H  13.18600 3.84800 27.39400
H  14.63800 1.00700 31.97800
H  15.99600 4.39300 34.10100
H  17.32100 3.10300 34.29700
H  15.84900 3.00300 35.33300
Mg 35.89100 47.97600 26.60400
C  36.07600 46.00900 29.49200
C  34.81400 50.54600 28.58200
C  36.11800 49.86000 23.89400
C  36.46300 45.05500 24.72000
N  35.58400 48.27700 28.84700
C  35.75100 47.32200 29.78000
C  35.58300 47.94600 31.15400
C  34.64800 49.20100 30.83400
C  34.95500 49.34000 29.32600
C  33.10700 49.04400 31.07600
C  36.95300 48.53400 31.74800
C  37.14700 48.38900 33.26700
H  36.72600 49.47900 34.21900
N  35.43500 49.91100 26.22400
C  34.98600 50.89900 27.20600
C  34.90700 52.17700 26.60400
C  35.23600 51.98800 25.25700
C  35.62400 50.57700 25.07200
C  34.39200 53.45900 27.40400
C  35.29700 53.05400 24.05800
O  35.38500 52.74200 22.87700
C  35.08700 54.53300 24.27400
N  36.07700 47.42600 24.49100
C  36.25100 48.47900 23.60700
C  36.65200 47.88500 22.16800
C  36.57000 46.31200 22.41000
C  36.39400 46.20100 23.93100
C  35.76900 48.29500 20.96200
C  37.73300 45.45600 21.90200
C  37.55700 44.80200 20.56000
N  36.14300 45.92800 26.94200
C  36.39400 44.85500 26.04900
C  36.58400 43.60500 26.84300
C  36.57400 44.07300 28.16700
C  36.21100 45.43400 28.18100
C  36.73900 42.17300 26.28000
C  36.72300 43.63500 29.53800
O  37.07400 42.56100 29.94700
C  36.45900 44.91700 30.48400
C  35.37600 44.58700 31.40800
O  34.24400 44.19500 31.13800
O  35.84400 44.80000 32.68400
C  34.85300 44.58800 33.75600
H  34.48400 51.39100 29.19000
H  36.24300 50.54000 23.04800
H  36.65400 44.10300 24.21900
H  35.07700 47.27200 31.84600
H  34.94900 50.08900 31.38900
H  33.04400 48.15800 31.70800
H  32.58400 49.05100 30.12000
H  32.71200 49.88100 31.65300
H  37.04100 49.58000 31.45300
H  37.74800 47.94700 31.28900
H  38.21200 48.27800 33.47300
H  36.69300 47.44200 33.55900
H  34.75600 54.40400 27.00100
H  34.69200 53.31700 28.44200
H  33.30300 53.41400 27.41900
H  34.27000 54.67500 24.98300
H  34.68400 55.06300 23.41100
H  35.93000 55.08100 24.69600
H  37.67000 48.17600 21.91100
H  35.69900 45.88700 21.91100
H  34.96500 48.97200 21.25000
H  35.40400 47.49600 20.31600
H  36.35000 48.92900 20.29200
H  37.89700 44.69200 22.66300
H  38.66800 46.01000 21.81600
H  38.43600 44.99200 19.94300
H  36.67000 45.04200 19.97400
H  37.52300 43.72200 20.70400
H  36.35300 41.42500 26.97300
H  37.77300 41.99800 25.98400
H  36.18300 41.99500 25.36000
H  37.38600 45.15300 31.00700
H  35.33800 44.87100 34.69000
H  34.60200 43.54500 33.94600
H  33.95600 45.13100 33.46100

