158

Mg 42.40300 41.85500 26.41700
C  41.57800 44.24800 28.85000
C  43.85100 39.90700 28.85300
C  43.43800 39.97700 23.98400
C  41.60300 44.40600 23.92600
N  42.84900 42.22900 28.59500
C  42.22600 43.14400 29.41500
C  42.28400 42.70500 30.87600
C  43.27400 41.46800 30.85800
C  43.40300 41.19000 29.36000
C  44.66600 41.80200 31.43900
C  40.84700 42.39300 31.60800
C  40.56000 43.31600 32.86300
H  41.40300 43.07500 34.10700
N  43.21100 40.03600 26.42700
C  43.79700 39.36600 27.51700
C  44.22400 38.04300 26.96400
C  43.84800 38.04900 25.58700
C  43.44000 39.40900 25.26300
C  44.78600 36.96200 27.80500
C  43.96800 36.83600 24.65100
O  43.60200 36.92900 23.45400
C  44.67100 35.57900 25.05500
N  42.61000 42.27000 24.29500
C  42.98600 41.21500 23.51700
C  42.73500 41.46600 22.00100
C  41.86800 42.73500 22.00100
C  42.05700 43.19800 23.46900
C  44.05200 41.67300 21.11200
C  40.31600 42.45300 21.63500
C  39.55100 41.56900 22.66100
N  41.83000 43.96400 26.36600
C  41.48000 44.81700 25.29100
C  40.91400 46.06600 25.84200
C  40.91800 45.83000 27.28600
C  41.53000 44.64800 27.53600
C  40.32300 47.21300 25.05500
C  40.49400 46.43800 28.48900
O  39.92900 47.51600 28.70600
C  40.94800 45.41900 29.60700
C  41.92000 46.18900 30.44900
O  43.09000 46.29400 30.21300
O  41.23400 46.57100 31.60000
C  41.89200 47.12500 32.73400
H  44.08800 39.23800 29.68300
H  43.64900 39.25800 23.19000
H  41.08900 45.04600 23.20500
H  42.73700 43.53600 31.41700
H  42.92700 40.60000 31.41900
H  45.45600 41.24900 30.93000
H  44.75800 41.25800 32.37900
H  44.94300 42.83400 31.65600
H  40.96200 41.40400 32.05200
H  40.04300 42.53100 30.88500
H  39.50600 43.37000 33.13500
H  40.81300 44.30400 32.47700
H  45.08700 37.34500 28.78000
H  45.74400 36.60000 27.43100
H  44.00100 36.24000 28.03100
H  45.71300 35.89600 25.09300
H  44.59900 34.85400 24.24400
H  44.32200 35.13200 25.98600
H  42.20500 40.62700 21.54800
H  42.20100 43.57400 21.39000
H  44.40000 42.69700 20.97400
H  43.74200 41.31100 20.13100
H  44.81900 40.93800 21.35400
H  40.23400 41.97100 20.66100
H  39.76000 43.38900 21.60000
H  38.88300 42.28300 23.14200
H  40.15100 41.22200 23.50200
H  38.98000 40.83700 22.08900
H  41.08900 47.75600 24.50100
H  39.80200 47.86600 25.75500
H  39.59200 46.79100 24.36600
H  40.06500 45.01300 30.10000
H  41.52100 46.68400 33.66000
H  41.62400 48.18100 32.76800
H  42.97100 47.06600 32.58700
Mg -12.07500 37.34000 42.90400
C  -9.65900 34.92200 41.78000
C  -10.30000 39.77000 41.37400
C  -14.85700 39.27400 43.05300
C  -14.08300 34.55600 44.03800
N  -10.16500 37.30300 41.77200
C  -9.29000 36.25400 41.41800
C  -8.12700 36.72400 40.58500
C  -8.24700 38.25600 40.84300
C  -9.65000 38.51800 41.43200
C  -7.20100 38.71600 41.94500
C  -8.24000 36.34100 39.01400
C  -7.19600 35.36100 38.47600
H  -6.07500 35.74100 37.53600
N  -12.44700 39.22600 42.48500
C  -11.53200 40.10100 41.88500
C  -12.12000 41.40600 41.81900
C  -13.43300 41.37100 42.38300
C  -13.65900 39.84300 42.68500
C  -11.41400 42.66400 41.25900
C  -14.28100 42.56200 42.54500
O  -13.98500 43.69300 42.11600
C  -15.62500 42.49100 43.20800
N  -14.18900 36.92700 43.39200
C  -15.10700 37.95400 43.46400
C  -16.46100 37.56000 44.06700
C  -16.21800 36.03100 44.38000
C  -14.77300 35.84300 43.92500
C  -17.01600 38.37700 45.25900
C  -17.30000 35.16500 43.61400
C  -17.63600 33.75500 44.20600
N  -11.90200 35.18800 42.92600
C  -12.75800 34.25300 43.56600
C  -12.01800 32.96400 43.65700
C  -10.80800 33.18200 42.92000
C  -10.80000 34.54600 42.47400
C  -12.38800 31.71300 44.40000
C  -9.61900 32.57900 42.40700
O  -9.11900 31.44100 42.56000
C  -8.83300 33.69500 41.69100
C  -7.54800 33.84600 42.36800
O  -6.55500 33.31900 41.96000
O  -7.60500 34.55500 43.57600
C  -6.37300 34.69300 44.35400
H  -9.64300 40.50700 40.90800
H  -15.75900 39.85400 43.25900
H  -14.75400 33.80300 44.45700
H  -7.25500 36.33200 41.10800
H  -8.32200 38.87200 39.94600
H  -6.75800 39.69800 41.77700
H  -6.44000 37.93500 41.96800
H  -7.77500 38.82000 42.86500
H  -8.24200 37.21100 38.35700
H  -9.26700 35.99500 38.89700
H  -7.87800 34.72400 37.91200
H  -6.83700 34.72600 39.28500
H  -10.33500 42.61300 41.40700
H  -11.66900 43.55500 41.83300
H  -11.79400 42.86500 40.25700
H  -16.06500 43.48200 43.09700
H  -15.61000 42.42200 44.29600
H  -16.28800 41.77900 42.71500
H  -17.18000 37.71600 43.26200
H  -16.34700 35.79200 45.43600
H  -16.19300 38.99700 45.61500
H  -17.27800 37.64000 46.01700
H  -17.86200 39.05900 45.17300
H  -17.05400 35.16000 42.55200
H  -18.16900 35.76700 43.87800
H  -17.42800 33.09600 43.36200
H  -18.72400 33.69600 44.23900
H  -17.11100 33.55600 45.14000
H  -11.88200 31.57100 45.35500
H  -12.23200 30.88200 43.71200
H  -13.44700 31.90900 44.57100
H  -8.76300 33.28500 40.68300
H  -6.66000 34.82100 45.39700
H  -5.80200 35.56600 44.04000
H  -5.79300 33.77600 44.25100

