158

Mg 48.49200 34.40800 26.07500
C  46.73100 33.16500 28.74300
C  48.79800 37.37300 27.72400
C  49.69800 35.71200 23.30700
C  47.67100 31.47600 24.20800
N  47.97300 35.03800 28.10200
C  47.30400 34.36500 29.05500
C  47.36500 35.09900 30.39000
C  47.78800 36.57500 29.98400
C  48.24900 36.33900 28.53100
C  46.61000 37.60600 29.95000
C  48.52500 34.50600 31.35300
C  48.45000 34.76800 32.83300
H  47.31300 35.58800 33.30900
N  49.21800 36.29800 25.59100
C  49.22100 37.37800 26.39900
C  49.90800 38.43700 25.71800
C  50.23400 38.01700 24.45900
C  49.67500 36.65700 24.35700
C  50.13400 39.79300 26.24900
C  50.86100 38.67600 23.31600
O  51.05300 38.13000 22.21500
C  51.37400 40.16500 23.48900
N  48.31200 33.85300 23.98700
C  48.99300 34.57900 23.10500
C  49.06200 33.87900 21.76100
C  49.03600 32.40000 22.17500
C  48.23200 32.54000 23.53600
C  47.86200 34.31000 20.81600
C  50.46800 31.71900 22.47300
C  50.90200 30.55800 21.56500
N  47.41700 32.69800 26.38000
C  47.12800 31.59900 25.51900
C  46.45700 30.54100 26.22100
C  46.17300 31.13700 27.45100
C  46.80600 32.44500 27.49100
C  46.08800 29.32700 25.70500
C  45.52500 30.98700 28.67200
O  44.74000 30.14400 28.97700
C  45.83500 32.21200 29.56400
C  46.46500 31.69400 30.76100
O  47.60500 31.25600 30.81600
O  45.59800 31.70100 31.87800
C  46.18300 31.55400 33.25000
H  48.66300 38.35400 28.18400
H  50.22100 36.05200 22.41100
H  47.67700 30.51800 23.68500
H  46.33400 35.11100 30.74600
H  48.54600 37.08500 30.57700
H  45.68300 37.13600 30.27800
H  46.38200 38.07200 28.99100
H  46.91500 38.39100 30.64200
H  49.45800 34.96900 31.03200
H  48.69100 33.44100 31.19500
H  49.44000 35.13800 33.09900
H  48.42600 33.90100 33.49400
H  51.20500 39.99200 26.25200
H  49.78000 39.77900 27.28000
H  49.54800 40.50300 25.66600
H  52.20100 40.26000 24.19300
H  50.59900 40.90500 23.68700
H  51.87200 40.50600 22.58200
H  50.00300 34.10400 21.25800
H  48.41900 31.78500 21.52000
H  47.41800 33.49400 20.24700
H  48.26700 35.05800 20.13500
H  47.07800 34.66400 21.48600
H  50.49200 31.40100 23.51500
H  51.16100 32.55800 22.39600
H  51.91600 30.76500 21.22100
H  50.42000 30.63300 20.59000
H  50.83600 29.57800 22.03600
H  45.34100 28.91100 26.38200
H  46.99200 28.71900 25.73800
H  45.71200 29.33600 24.68200
H  44.88600 32.66100 29.85700
H  47.23500 31.84000 33.24200
H  46.06800 30.64600 33.84200
H  45.66900 32.22000 33.94300
Mg -2.51000 35.05200 27.09600
C  -4.33200 33.29800 29.60000
C  -1.45600 37.23200 29.70100
C  -0.79200 36.81700 24.76000
C  -3.86500 32.96600 24.70700
N  -2.93100 35.28300 29.43000
C  -3.65200 34.38100 30.18700
C  -3.62700 34.76000 31.65300
C  -2.73100 36.15900 31.67000
C  -2.39900 36.28300 30.18100
C  -3.58700 37.43400 32.13700
C  -3.05500 33.49400 32.52300
C  -3.98200 32.78900 33.48200
H  -3.92400 33.20000 34.99800
N  -1.25700 36.65100 27.20400
C  -0.96600 37.47200 28.37400
C  -0.09700 38.56300 28.03200
C  0.00400 38.51900 26.61500
C  -0.63400 37.24400 26.11500
C  0.40400 39.49400 29.06800
C  0.54400 39.68700 25.79800
O  0.50900 39.72000 24.57100
C  1.02600 40.95600 26.39000
N  -2.44300 34.99600 24.89800
C  -1.62100 35.76000 24.21800
C  -1.52400 35.29300 22.78500
C  -2.38500 34.04000 22.78000
C  -2.96100 33.96200 24.23100
C  -1.89900 36.42500 21.69000
C  -1.60100 32.79500 22.33400
C  -2.43300 31.83400 21.53000
N  -3.87700 33.53800 27.07800
C  -4.29000 32.78400 26.02800
C  -5.24800 31.83100 26.51100
C  -5.19800 31.88800 27.87500
C  -4.44000 33.00300 28.14900
C  -6.14100 30.86200 25.63900
C  -5.70900 31.34900 29.05700
O  -6.46700 30.37800 29.21200
C  -5.27900 32.23700 30.27300
C  -6.55100 32.83000 30.81600
O  -6.99600 33.87000 30.40800
O  -6.99100 32.22700 31.97800
C  -8.00100 32.86600 32.85500
H  -0.92000 37.70100 30.52800
H  -0.16700 37.33700 24.03100
H  -4.29400 32.31700 23.94100
H  -4.59500 34.94700 32.11900
H  -1.93200 35.96100 32.38500
H  -3.96800 37.98500 31.27700
H  -2.84900 38.01100 32.69300
H  -4.38600 37.33900 32.87200
H  -2.18200 33.97400 32.96600
H  -2.58200 32.78500 31.84400
H  -3.86200 31.70600 33.51400
H  -5.02100 33.00900 33.23600
H  0.66400 38.93700 29.96800
H  -0.35700 40.20500 29.39200
H  1.27900 40.09700 28.82800
H  0.18200 41.45100 26.87100
H  1.25400 41.53900 25.49800
H  1.92100 40.78600 26.98900
H  -0.49200 35.03400 22.54700
H  -3.26300 34.10200 22.13800
H  -1.75700 37.44300 22.05200
H  -2.95200 36.34600 21.42100
H  -1.15800 36.27000 20.90600
H  -1.11700 32.38600 23.22000
H  -0.74100 33.07100 21.72400
H  -1.88900 30.93600 21.23700
H  -2.81100 32.34100 20.64200
H  -3.28500 31.52500 22.13500
H  -6.66800 31.41300 24.86100
H  -6.81600 30.42900 26.37800
H  -5.59400 30.02000 25.21400
H  -4.76100 31.65400 31.03500
H  -7.44200 33.50100 33.54200
H  -8.64400 32.14300 33.35700
H  -8.70400 33.54100 32.36600

