158

Mg 24.65200 -7.43100 46.51500
C  26.86600 -4.80700 45.31500
C  22.34000 -6.28700 44.13700
C  22.84700 -10.08700 47.17700
C  27.41000 -8.82200 48.05500
N  24.60000 -5.74500 44.97800
C  25.65800 -4.85600 44.59200
C  25.26100 -4.07700 43.39500
C  23.71200 -4.31900 43.39600
C  23.46800 -5.52700 44.23200
C  22.75400 -3.12100 43.74400
C  26.07000 -4.41200 42.08700
C  26.80100 -3.28100 41.32300
H  26.54400 -3.20100 39.81000
N  22.69400 -7.88200 46.05300
C  21.94300 -7.32900 45.04700
C  20.67100 -8.04900 45.04300
C  20.76700 -9.16900 45.95300
C  22.17100 -9.11400 46.45700
C  19.49800 -7.69900 44.10700
C  19.72100 -10.15500 46.17600
O  18.63400 -9.97900 45.66800
C  19.95500 -11.31800 47.10000
N  25.09800 -9.27400 47.49600
C  24.15300 -10.14600 47.71100
C  24.70100 -11.34300 48.68400
C  26.16500 -10.92500 48.82200
C  26.24700 -9.60100 48.10300
C  23.97500 -11.48200 50.09000
C  27.27600 -11.89800 48.45500
C  28.48400 -12.02800 49.45200
N  26.70200 -6.80100 46.84900
C  27.61900 -7.50500 47.53100
C  28.79600 -6.67300 47.65800
C  28.55200 -5.63700 46.75600
C  27.22900 -5.75500 46.28100
C  30.02500 -7.14600 48.38700
C  29.06500 -4.38600 46.11100
O  30.14500 -3.84100 46.19900
C  28.05200 -3.99200 45.04900
C  27.60800 -2.57200 45.41500
O  27.74500 -1.57600 44.67500
O  26.81000 -2.61800 46.52200
C  26.29000 -1.38100 46.98000
H  21.66300 -6.01100 43.32500
H  22.21700 -10.92200 47.49300
H  28.25500 -9.18000 48.64700
H  25.50200 -3.04900 43.66500
H  23.36900 -4.50500 42.37800
H  22.13500 -3.31100 44.62100
H  22.16800 -2.88100 42.85700
H  23.48200 -2.33800 43.95200
H  25.47300 -4.94400 41.34600
H  26.83300 -5.11700 42.41400
H  27.85500 -3.46500 41.53100
H  26.47200 -2.34600 41.77700
H  18.99900 -8.61000 43.77800
H  19.85300 -7.05900 43.29900
H  18.80400 -7.17300 44.76300
H  20.29700 -10.99400 48.08300
H  20.60100 -12.07400 46.65500
H  18.97700 -11.78900 47.19300
H  24.77000 -12.34900 48.27100
H  26.30000 -10.67400 49.87400
H  24.33800 -12.27000 50.74900
H  22.89600 -11.60200 49.98700
H  24.14900 -10.49300 50.51300
H  27.65900 -11.64700 47.46600
H  26.85500 -12.89900 48.36700
H  28.19000 -11.57100 50.39600
H  29.33000 -11.47700 49.03900
H  28.72700 -13.07400 49.64000
H  30.71100 -6.31600 48.55900
H  30.48600 -7.98100 47.85900
H  29.66800 -7.41400 49.38100
H  28.37200 -4.02000 44.00700
H  27.12700 -0.92900 47.51300
H  25.44800 -1.39000 47.67100
H  25.91200 -0.64800 46.26700
Mg 43.80400 3.33800 47.10700
C  41.83600 6.31100 46.86300
C  40.71300 1.60800 46.83600
C  45.49500 0.80100 46.72100
C  46.69700 5.50200 46.69400
N  41.51200 3.99700 46.97500
C  40.99800 5.28800 46.97500
C  39.46500 5.23100 47.11600
C  39.16800 3.61900 47.30300
C  40.54500 3.02300 47.11200
C  38.57500 3.18700 48.64600
C  38.69000 5.92900 45.95200
C  39.36300 6.09100 44.55800
H  38.78100 5.35700 43.34900
N  43.18300 1.47900 46.64800
C  41.93700 0.91500 46.65600
C  42.12400 -0.49500 46.35100
C  43.49500 -0.74800 46.20400
C  44.14200 0.50900 46.50600
C  40.93200 -1.35000 46.00600
C  43.97100 -2.13000 45.85700
O  43.18200 -3.07800 45.70000
C  45.42500 -2.39300 45.80500
N  45.76000 3.22200 46.80200
C  46.25000 1.99800 46.79200
C  47.76400 1.94900 47.13200
C  48.15600 3.44700 46.53000
C  46.81200 4.12500 46.69600
C  48.02600 1.86700 48.64100
C  48.65400 3.42700 45.00800
C  50.18100 3.58700 44.67500
N  44.26200 5.45500 47.05100
C  45.43900 6.16600 46.75400
C  45.26300 7.54000 46.65100
C  43.84200 7.65300 46.75600
C  43.27800 6.35300 46.91900
C  46.28400 8.56500 46.42600
C  42.73300 8.62800 46.70300
O  42.79800 9.85600 46.51400
C  41.38700 7.76800 46.78500
C  40.74600 8.19100 48.07200
O  41.21700 8.13100 49.16400
O  39.54400 8.86800 47.81600
C  38.76000 9.62000 48.89500
H  39.79400 1.02500 46.75200
H  46.07900 -0.10300 46.90700
H  47.63900 6.04500 46.59300
H  39.21700 5.70800 48.06500
H  38.48800 3.24300 46.54000
H  38.05300 3.95900 49.21200
H  39.37200 2.85400 49.31100
H  37.92100 2.36000 48.37100
H  38.40100 6.95800 46.16300
H  37.77900 5.36200 45.76000
H  40.41500 5.84200 44.70200
H  39.41200 7.15600 44.32900
H  41.22400 -1.79700 45.05600
H  40.04000 -0.78100 45.74100
H  40.76300 -2.08000 46.79700
H  45.97700 -2.41500 46.74500
H  45.74500 -1.46900 45.32300
H  45.72000 -3.31100 45.29500
H  48.26100 1.16500 46.56100
H  48.88200 3.93700 47.17900
H  48.31500 2.85200 49.00700
H  48.74800 1.06400 48.79100
H  47.08700 1.54100 49.08900
H  48.12800 4.31100 44.64800
H  48.26600 2.46500 44.67400
H  50.67600 3.94200 45.57900
H  50.34500 4.42200 43.99400
H  50.64500 2.71900 44.20500
H  47.03000 8.69400 47.21000
H  45.87700 9.56800 46.30300
H  46.87800 8.35200 45.53700
H  40.77400 8.01200 45.91700
H  38.77700 9.05800 49.82900
H  37.80100 9.75400 48.39500
H  39.23100 10.59700 49.00400

