158

Mg 50.10600 35.52600 29.10200
C  47.45200 34.03300 31.08100
C  50.27800 37.94200 31.53500
C  51.74700 37.43300 27.02600
C  49.30300 33.23100 26.64500
N  48.94600 35.89900 30.95900
C  48.05100 35.13000 31.66400
C  47.87700 35.75000 33.05600
C  48.25600 37.22500 32.85400
C  49.26100 36.99000 31.75000
C  47.04700 38.08900 32.36800
C  48.64900 34.94000 34.10100
C  50.05200 35.37400 34.66800
H  50.12400 35.90100 36.05100
N  51.07500 37.35100 29.36000
C  51.11600 38.12000 30.46700
C  51.98000 39.26200 30.22400
C  52.35000 39.20400 28.84600
C  51.75600 37.97500 28.37000
C  51.97700 40.50700 31.15200
C  53.04200 40.22200 27.91700
O  53.02900 40.08600 26.71900
C  53.74900 41.45500 28.49800
N  50.50400 35.28300 27.08100
C  51.15100 36.30400 26.40100
C  51.34000 35.89300 24.93800
C  50.64900 34.50900 24.78400
C  50.19100 34.28800 26.21700
C  50.93500 36.91500 23.88300
C  51.34800 33.21800 24.15300
C  50.74200 32.73100 22.82900
N  48.75000 33.88100 28.90800
C  48.56000 33.03400 27.81500
C  47.61300 31.97800 28.19400
C  47.10000 32.37100 29.46600
C  47.80000 33.58200 29.79000
C  47.15000 30.87000 27.30100
C  46.12500 32.03500 30.48900
O  45.44000 30.99800 30.65600
C  46.28700 33.18400 31.52400
C  46.40600 32.49200 32.93200
O  46.98800 31.44100 33.23100
O  45.89800 33.31500 33.90500
C  45.78700 32.66500 35.25500
H  50.24800 38.62700 32.38500
H  52.23200 37.93100 26.18400
H  49.06700 32.47000 25.89800
H  46.89100 35.71300 33.52100
H  48.71900 37.74300 33.69300
H  46.21900 37.47300 32.01600
H  47.33200 38.71100 31.52000
H  46.65100 38.75500 33.13500
H  48.81400 33.94400 33.68900
H  48.08100 34.79900 35.02100
H  50.42300 36.22500 34.09600
H  50.74600 34.53400 34.70700
H  51.29000 41.31300 30.89300
H  52.98900 40.90900 31.11300
H  51.74200 40.19700 32.17100
H  54.27700 41.10800 29.38600
H  52.96200 42.16200 28.76300
H  54.38700 42.01300 27.81400
H  52.41600 35.71400 24.92400
H  49.76900 34.53700 24.14200
H  50.22900 37.69800 24.16100
H  50.52600 36.34300 23.05100
H  51.73900 37.52000 23.46400
H  51.23800 32.42500 24.89300
H  52.40400 33.40200 23.95600
H  50.08800 31.88200 23.02800
H  51.53200 32.57800 22.09500
H  50.01400 33.42400 22.40600
H  46.06500 30.78200 27.35600
H  47.67600 29.95000 27.55700
H  47.55500 31.14100 26.32600
H  45.39400 33.80800 31.50600
H  46.73500 32.50900 35.76800
H  45.23500 31.72900 35.33600
H  45.24000 33.20800 36.02600
Mg -11.49400 38.64100 40.56800
C  -10.02300 35.46500 40.08100
C  -8.86700 39.96200 38.83300
C  -13.38000 41.30400 40.23800
C  -14.49800 36.82100 41.57000
N  -9.58800 37.67700 39.60500
C  -9.25300 36.43000 39.46300
C  -7.95500 36.29200 38.63900
C  -7.48400 37.77500 38.58400
C  -8.71500 38.53000 39.04300
C  -6.25300 38.09700 39.44100
C  -8.29700 35.79800 37.22400
C  -7.11000 34.99100 36.46300
H  -6.46700 35.70900 35.33300
N  -11.10800 40.42000 39.84900
C  -9.90600 40.81400 39.27100
C  -9.95200 42.21700 39.09300
C  -11.28900 42.63500 39.31500
C  -12.00400 41.46900 39.85800
C  -8.85800 43.02200 38.50300
C  -11.86200 44.05900 38.99500
O  -11.16100 44.86700 38.43500
C  -13.30700 44.51500 39.39900
N  -13.68100 38.98600 40.65100
C  -14.14700 40.21800 40.65400
C  -15.64000 40.35400 40.97800
C  -15.95500 38.82000 41.25900
C  -14.58300 38.18100 41.26800
C  -16.03300 41.28200 42.15300
C  -17.00000 38.17000 40.16900
C  -18.07200 37.25900 40.80700
N  -12.10900 36.56700 40.97000
C  -13.34900 36.00300 41.36800
C  -13.18100 34.57300 41.43700
C  -11.85300 34.28700 40.99400
C  -11.28500 35.51200 40.70000
C  -14.36900 33.60600 41.72400
C  -10.86300 33.23600 40.75400
O  -10.93500 32.00800 40.84800
C  -9.58700 34.04900 40.24600
C  -8.55300 33.80500 41.29400
O  -8.28600 32.71700 41.80800
O  -7.77600 34.93000 41.53800
C  -6.58300 34.72300 42.30600
H  -8.01700 40.42800 38.33000
H  -13.93700 42.24300 40.25200
H  -15.42700 36.37500 41.93200
H  -7.15000 35.71400 39.09300
H  -7.26800 37.97700 37.53500
H  -6.40800 39.05900 39.92900
H  -5.40100 38.23800 38.77500
H  -5.94600 37.42600 40.24400
H  -8.46900 36.58900 36.49400
H  -9.26100 35.29500 37.29800
H  -7.59800 34.13300 36.00100
H  -6.35600 34.61300 37.15300
H  -8.92000 42.98900 37.41500
H  -7.91800 42.56600 38.81300
H  -8.79400 44.04700 38.86900
H  -13.48200 45.56800 39.17800
H  -13.21800 44.35500 40.47400
H  -14.07600 43.85200 39.00300
H  -16.21000 40.61800 40.08700
H  -16.41500 38.69600 42.24000
H  -16.68900 40.75400 42.84500
H  -16.60500 42.13500 41.78800
H  -15.20400 41.67500 42.74200
H  -16.39500 37.67700 39.40800
H  -17.44400 38.94100 39.53900
H  -17.82900 36.26500 40.43000
H  -19.11100 37.40300 40.51100
H  -18.02300 37.37300 41.89000
H  -15.06300 33.42400 40.90300
H  -14.89000 33.98700 42.60200
H  -13.94000 32.68700 42.12400
H  -9.37000 33.63400 39.26200
H  -6.01400 33.91400 41.84700
H  -6.85700 34.50900 43.33900
H  -5.86600 35.54300 42.32900

