158

Mg 0.62700 8.84000 26.23700
C  1.65700 10.40700 29.08600
C  0.09100 5.91200 28.11400
C  0.02200 7.09000 23.39900
C  1.75200 11.45100 24.27900
N  1.06500 8.10600 28.33500
C  1.20200 9.13000 29.33900
C  1.04800 8.53500 30.70900
C  0.85000 6.98100 30.42100
C  0.55700 6.98200 28.84700
C  2.02300 6.03600 30.82200
C  -0.15600 9.08200 31.45900
C  -0.05500 9.26700 32.98700
H  1.24400 8.97100 33.73000
N  0.05400 6.77200 25.79000
C  -0.12200 5.78900 26.73900
C  -0.72000 4.66900 26.07900
C  -0.84700 4.91300 24.68500
C  -0.22000 6.32100 24.57100
C  -1.06700 3.42200 26.85200
C  -1.52300 4.07400 23.61200
O  -1.61500 4.53500 22.46500
C  -1.91100 2.69800 23.86600
N  0.98500 9.13500 24.18400
C  0.62700 8.28500 23.14700
C  1.01100 8.76200 21.72600
C  1.35700 10.26200 22.04300
C  1.39100 10.28900 23.56700
C  2.26900 8.06600 21.21200
C  0.35900 11.34100 21.37800
C  -0.78300 11.77600 22.33700
N  1.50600 10.65400 26.53300
C  1.86900 11.67600 25.69000
C  2.30700 12.81800 26.43600
C  2.31700 12.35500 27.77200
C  1.81500 11.01300 27.78400
C  2.63800 14.15400 25.92500
C  2.57900 12.71700 29.13600
O  3.02700 13.77800 29.61400
C  2.23000 11.47200 30.06100
C  3.50800 11.05900 30.68500
O  4.34600 10.36900 30.17600
O  3.49100 11.49000 32.00300
C  4.53100 10.97300 32.95400
H  -0.21800 5.11800 28.79700
H  -0.32200 6.43800 22.59400
H  2.15800 12.22200 23.62000
H  1.94300 8.63000 31.32300
H  -0.04200 6.60900 30.92500
H  1.65800 5.35900 31.59500
H  2.87900 6.58100 31.21900
H  2.39400 5.58700 29.90100
H  -1.03600 8.46300 31.28400
H  -0.39500 10.03400 30.98400
H  -0.87900 8.73400 33.46000
H  -0.26600 10.28100 33.32600
H  -0.57600 2.57800 26.36800
H  -2.14500 3.26500 26.82300
H  -0.77800 3.57500 27.89200
H  -2.72500 2.33900 23.23600
H  -2.24600 2.45200 24.87400
H  -1.00300 2.10100 23.78300
H  0.08900 8.57900 21.17400
H  2.37900 10.46800 21.72700
H  2.29400 8.24800 20.13800
H  2.05600 7.01000 21.38100
H  3.20900 8.29500 21.71500
H  -0.03200 10.93400 20.44600
H  1.04600 12.12100 21.04900
H  -0.82400 11.17700 23.24700
H  -1.72000 11.71400 21.78200
H  -0.61800 12.77900 22.73100
H  1.73500 14.69900 25.65000
H  3.28500 14.06300 25.05300
H  3.10400 14.84200 26.63000
H  1.50600 11.77000 30.81900
H  5.47700 11.24700 32.48600
H  4.47500 9.89800 33.12600
H  4.59500 11.42000 33.94600
Mg -11.62400 38.10700 41.39200
C  -9.36400 35.45700 40.32800
C  -9.50600 40.29800 39.64600
C  -13.78300 40.59500 41.74600
C  -13.81300 35.70700 42.45300
N  -9.63500 37.86700 40.06500
C  -8.97300 36.74100 39.81100
C  -7.58600 37.03800 39.08500
C  -7.55400 38.57800 38.98900
C  -8.98700 38.95700 39.54700
C  -6.42600 39.25900 39.75100
C  -7.49300 36.25700 37.70900
C  -5.96700 35.89600 37.36500
H  -5.58500 35.90500 35.85200
N  -11.63500 40.16800 40.85500
C  -10.69000 40.90000 40.19400
C  -11.08000 42.23100 40.04500
C  -12.37100 42.35900 40.67100
C  -12.67900 41.01700 41.12400
C  -10.34200 43.38900 39.38400
C  -13.26800 43.66500 40.60100
O  -12.78600 44.75300 40.19000
C  -14.71700 43.62600 41.05100
N  -13.61000 38.02300 41.75600
C  -14.20800 39.28600 42.09300
C  -15.53700 39.02300 42.91400
C  -15.60200 37.43000 42.86500
C  -14.26400 37.03200 42.36100
C  -15.77300 39.68800 44.27100
C  -16.78400 36.89300 42.00600
C  -18.16500 37.18100 42.37800
N  -11.64300 35.97500 41.43000
C  -12.56600 35.21800 41.96300
C  -12.00000 33.86100 42.15500
C  -10.78000 33.90100 41.51100
C  -10.60800 35.21100 41.07000
C  -12.58500 32.87100 42.98300
C  -9.53100 33.21800 41.21900
O  -9.13900 32.09800 41.42700
C  -8.65100 34.14600 40.31500
C  -7.23700 34.17100 40.72900
O  -6.41000 33.49900 40.08900
O  -7.01200 35.18000 41.67300
C  -5.64900 35.24700 42.21800
H  -8.82300 40.97100 39.12400
H  -14.52200 41.27800 42.16900
H  -14.40600 34.93000 42.94200
H  -6.76300 36.69700 39.71400
H  -7.56400 38.93600 37.96000
H  -5.79400 38.54900 40.28500
H  -6.84100 39.86700 40.55500
H  -5.83000 39.92000 39.12200
H  -7.75500 36.98100 36.93800
H  -8.15400 35.39200 37.66600
H  -5.66900 34.87600 37.60800
H  -5.24000 36.40000 38.00200
H  -10.96300 43.73400 38.55800
H  -9.46000 42.97700 38.89300
H  -10.00800 44.25900 39.95000
H  -14.95500 43.34700 42.07700
H  -15.35800 43.02100 40.41000
H  -15.29400 44.53600 40.89100
H  -16.27300 39.49600 42.26400
H  -15.79000 37.10000 43.88700
H  -16.43800 39.07100 44.87600
H  -16.24300 40.66300 44.14100
H  -14.73800 39.82100 44.58700
H  -16.72800 35.81400 41.86200
H  -16.66800 37.44400 41.07200
H  -18.77100 36.27600 42.41000
H  -18.54700 37.70100 41.50000
H  -18.22300 37.75700 43.30100
H  -12.00500 31.94900 42.94100
H  -13.57200 32.63200 42.58700
H  -12.63900 33.17700 44.02700
H  -8.62600 33.73700 39.30500
H  -5.81000 35.55700 43.25100
H  -5.17800 36.07900 41.69600
H  -5.05700 34.33200 42.19500

