158

Mg 44.76800 4.68200 48.25500
C  42.66100 7.44200 47.35300
C  42.21800 2.62100 47.40200
C  46.99000 2.14000 48.37000
C  47.48200 6.99000 48.47400
N  42.68600 4.95800 47.42300
C  42.00400 6.17900 47.14200
C  40.52400 5.90000 46.62500
C  40.43500 4.35900 46.96400
C  41.84200 3.94800 47.37700
C  39.46600 4.11600 48.16400
C  40.47500 6.16200 45.07700
C  39.02000 6.46400 44.49100
H  38.89400 7.39100 43.26200
N  44.64100 2.71100 48.04600
C  43.51500 2.01000 47.64400
C  43.84300 0.63700 47.79300
C  45.18400 0.43200 48.21800
C  45.63400 1.81300 48.26400
C  42.75900 -0.48800 47.56400
C  45.75500 -0.89500 48.66100
O  45.08200 -1.91500 48.65000
C  47.19600 -0.93600 49.30400
N  46.92000 4.58300 48.30500
C  47.59400 3.40000 48.44900
C  49.06300 3.59800 48.52400
C  49.23300 5.19100 48.42000
C  47.82800 5.66500 48.40200
C  49.70300 2.90000 49.73800
C  50.11100 5.66700 47.18500
C  51.35800 6.52800 47.43800
N  45.13500 6.80100 47.94700
C  46.24100 7.59300 48.17900
C  45.93800 8.98200 47.94900
C  44.50100 9.01400 47.74000
C  44.08400 7.68100 47.69600
C  46.96900 10.14500 48.04600
C  43.27500 9.85300 47.45300
O  43.17600 11.08800 47.30700
C  42.07400 8.87300 47.20500
C  41.03000 9.27400 48.16400
O  40.98200 8.84300 49.34200
O  40.10500 10.26000 47.58000
C  38.99300 10.69600 48.49000
H  41.35100 1.97100 47.26400
H  47.81300 1.44700 48.55600
H  48.32300 7.68500 48.53100
H  39.84600 6.52800 47.20400
H  40.16500 3.70200 46.13700
H  39.08600 5.06400 48.54700
H  39.92600 3.62200 49.01900
H  38.66400 3.43000 47.89100
H  40.74600 5.31800 44.44300
H  41.23000 6.85200 44.70000
H  38.43400 6.86900 45.31700
H  38.67500 5.44500 44.31700
H  41.96300 -0.18900 46.88100
H  42.22400 -0.61600 48.50500
H  43.26000 -1.35400 47.13300
H  47.30800 -1.97200 49.62300
H  47.38900 -0.21100 50.09500
H  47.91600 -0.87500 48.48800
H  49.46500 3.13200 47.62400
H  49.76000 5.61600 49.27400
H  50.39300 2.11700 49.42300
H  48.96400 2.48200 50.42100
H  50.26900 3.64800 50.29300
H  49.38900 6.35500 46.74700
H  50.39300 4.92900 46.43300
H  51.60500 6.41700 48.49300
H  51.17900 7.59900 47.33800
H  52.17100 6.25800 46.76300
H  47.13400 10.50700 49.06100
H  46.64200 11.00100 47.45600
H  47.92500 9.73400 47.72200
H  41.76600 9.01200 46.16900
H  38.09000 10.92400 47.92300
H  39.33000 11.61800 48.96400
H  38.70700 9.98700 49.26700
Mg 1.53100 42.62300 26.41700
C  2.99800 42.63400 29.75400
C  -1.34200 41.42600 27.77300
C  0.40900 41.84400 23.30400
C  4.64300 43.36000 25.11900
N  0.98100 42.00800 28.54700
C  1.58700 42.31000 29.76400
C  0.62200 42.13200 30.93300
C  -0.66300 41.78600 30.21700
C  -0.33000 41.76300 28.71100
C  -1.36000 40.50000 30.78200
C  0.51200 43.51800 31.69000
C  0.99300 43.37900 33.12600
H  0.52100 42.20200 33.97800
N  -0.30600 41.91200 25.64000
C  -1.35900 41.40700 26.36500
C  -2.38300 40.99800 25.41500
C  -1.94700 41.14600 24.08000
C  -0.57600 41.67400 24.29200
C  -3.69700 40.49000 25.94800
C  -2.61600 40.80800 22.71800
O  -1.99200 40.80200 21.67300
C  -4.06800 40.71100 22.73400
N  2.38700 42.57200 24.48500
C  1.67800 42.37000 23.32700
C  2.62500 42.28300 22.14500
C  3.98200 42.95600 22.72600
C  3.71300 43.02400 24.22600
C  2.71600 40.81300 21.61600
C  4.28200 44.40000 22.11300
C  4.96100 44.42200 20.67200
N  3.46300 42.90300 27.21200
C  4.61100 43.24600 26.53100
C  5.66600 43.34300 27.49900
C  5.06200 43.13700 28.75000
C  3.77200 42.85900 28.58200
C  7.11600 43.59100 27.10700
C  5.40800 43.01800 30.17900
O  6.45600 43.15700 30.85900
C  3.96000 42.83400 30.88000
C  4.15100 41.59100 31.72300
O  4.17100 40.43900 31.31400
O  4.57500 41.95000 32.97500
C  5.08700 40.82700 33.83200
H  -2.36100 41.19500 28.09200
H  0.10600 41.58500 22.28700
H  5.63600 43.55400 24.70800
H  0.94900 41.31500 31.57700
H  -1.40700 42.57500 30.33400
H  -1.13500 40.46700 31.84800
H  -1.12700 39.56500 30.27400
H  -2.44600 40.59500 30.80000
H  -0.52600 43.82000 31.83100
H  1.05900 44.31400 31.18500
H  0.75600 44.30700 33.64500
H  2.08300 43.33800 33.14300
H  -4.32000 41.37500 26.07700
H  -3.58500 39.91900 26.87000
H  -4.19200 39.77700 25.28900
H  -4.45400 41.46800 23.41600
H  -4.37500 39.68600 22.94100
H  -4.37400 41.10400 21.76500
H  2.14700 42.79200 21.30700
H  4.85800 42.30900 22.68300
H  3.74400 40.56200 21.35600
H  2.22600 40.54400 20.68000
H  2.37400 40.04700 22.31200
H  4.99000 44.93400 22.74700
H  3.35400 44.96800 22.04900
H  5.01400 43.36800 20.39900
H  6.02400 44.66300 20.66900
H  4.43100 45.09700 20.00000
H  7.62200 42.73500 26.65900
H  7.58300 44.04500 27.98100
H  6.99300 44.44500 26.44100
H  3.77300 43.72900 31.47200
H  5.27200 41.23300 34.82700
H  6.03900 40.63300 33.33700
H  4.47300 39.92900 33.89600

