158

Mg 25.27700 -7.74700 47.93400
C  28.00300 -5.77900 46.79700
C  23.41700 -6.83400 45.42600
C  23.17000 -10.37200 48.73000
C  27.65900 -9.26500 50.24500
N  25.85800 -6.63400 46.15900
C  26.89200 -5.73100 45.98400
C  26.58900 -4.72500 44.82800
C  25.06200 -5.00500 44.49200
C  24.74800 -6.21200 45.45200
C  24.00100 -3.84800 44.43500
C  27.55800 -4.96300 43.62400
C  28.12100 -3.62500 43.01600
H  28.07400 -3.57400 41.47200
N  23.41300 -8.45700 47.22000
C  22.84800 -7.87400 46.18400
C  21.59900 -8.55300 45.93500
C  21.56900 -9.73000 46.74500
C  22.73400 -9.58200 47.62900
C  20.64000 -8.14900 44.75900
C  20.54600 -10.80600 46.66400
O  19.70600 -10.81100 45.75000
C  20.42200 -11.97100 47.62700
N  25.45600 -9.67000 49.25600
C  24.40400 -10.40600 49.47700
C  24.48300 -11.23300 50.76000
C  25.95000 -10.87200 51.23300
C  26.43300 -9.87600 50.18100
C  23.36100 -11.03500 51.85000
C  26.94900 -12.14800 51.50700
C  27.94600 -12.19900 52.64100
N  27.36900 -7.48300 48.58100
C  28.22100 -8.15400 49.48500
C  29.52500 -7.53700 49.48000
C  29.44900 -6.55400 48.46200
C  28.18300 -6.65400 47.88800
C  30.70400 -7.96300 50.22500
C  30.21200 -5.40700 47.82800
O  31.31000 -4.91600 48.12500
C  29.25900 -4.92900 46.68100
C  28.97900 -3.47000 46.82500
O  28.20500 -2.99000 47.59400
O  29.73400 -2.77000 45.86700
C  29.48800 -1.34500 45.84900
H  22.73000 -6.31600 44.75500
H  22.47500 -11.13800 49.08000
H  28.36800 -9.63100 50.99100
H  26.66600 -3.65900 45.04100
H  25.02000 -5.36900 43.46500
H  23.30400 -4.07600 45.24100
H  23.43000 -3.80000 43.50700
H  24.51900 -2.91200 44.64300
H  27.01700 -5.51100 42.85200
H  28.33200 -5.68200 43.89200
H  29.11200 -3.42200 43.42400
H  27.46800 -2.83100 43.37700
H  20.86100 -7.12400 44.46200
H  19.63400 -7.97300 45.13900
H  20.59200 -8.90400 43.97400
H  21.41000 -12.34300 47.90000
H  19.86000 -12.74200 47.10100
H  19.94900 -11.65700 48.55700
H  24.44200 -12.31500 50.63100
H  25.98900 -10.20100 52.09000
H  23.75200 -10.42200 52.66200
H  23.03700 -12.02400 52.17400
H  22.56900 -10.44100 51.39500
H  27.41500 -12.40900 50.55700
H  26.33300 -12.98800 51.82700
H  27.75600 -13.09000 53.23800
H  27.80700 -11.27300 53.20000
H  28.94000 -12.12900 52.20000
H  31.46700 -7.19500 50.09700
H  31.16600 -8.85500 49.80300
H  30.52300 -8.25900 51.25900
H  29.71600 -4.91900 45.69100
H  29.62100 -0.90700 46.83800
H  28.45300 -1.12300 45.58600
H  30.21200 -0.90400 45.16400
Mg 46.91900 35.52600 29.03800
C  45.11400 33.41700 31.17700
C  47.11000 37.81900 31.59700
C  48.08900 37.76000 26.92200
C  46.46400 33.25300 26.42700
N  46.06900 35.57800 31.06500
C  45.58400 34.52800 31.80800
C  45.79200 34.76700 33.29700
C  45.87500 36.27900 33.34000
C  46.45400 36.61800 31.88200
C  44.47900 37.00900 33.53000
C  47.02400 34.02600 33.83400
C  47.21400 33.83400 35.33700
H  46.28900 34.68400 36.26500
N  47.50300 37.53000 29.27500
C  47.56700 38.27300 30.34900
C  48.37800 39.41800 30.04600
C  48.67500 39.46400 28.70600
C  48.05400 38.29400 28.22400
C  48.84000 40.30900 31.23400
C  49.52200 40.46000 27.88700
O  49.73300 40.31500 26.68300
C  50.14700 41.71400 28.60500
N  47.14900 35.50100 26.87900
C  47.57800 36.63900 26.30600
C  47.46500 36.49700 24.78900
C  47.21700 34.92000 24.59600
C  46.98800 34.49200 26.02700
C  46.42900 37.50400 24.10600
C  48.33200 34.07200 23.94100
C  48.42600 34.36700 22.46200
N  46.08200 33.64400 28.75800
C  45.93000 32.86900 27.66100
C  45.28300 31.63800 28.06200
C  44.91600 31.81500 29.40700
C  45.45400 33.03300 29.85900
C  44.84800 30.53200 27.19400
C  44.16700 31.24500 30.51000
O  43.54300 30.19500 30.62100
C  44.07700 32.45300 31.59400
C  44.15900 31.85700 33.01600
O  44.94300 31.10700 33.43400
O  43.13800 32.38700 33.79400
C  43.07100 32.08700 35.23500
H  47.36700 38.39400 32.48900
H  48.57100 38.40400 26.18400
H  46.50800 32.48700 25.65000
H  44.95700 34.36600 33.87200
H  46.53200 36.64700 34.12900
H  44.60800 37.80000 34.27000
H  43.79500 36.23700 33.88100
H  44.08900 37.48300 32.62900
H  47.92400 34.51200 33.45700
H  46.94700 33.07900 33.29900
H  48.24600 33.93800 35.67200
H  46.84400 32.81200 35.41400
H  48.20300 40.18200 32.11000
H  48.91600 41.34000 30.89000
H  49.77700 39.82800 31.51600
H  50.72200 41.35000 29.45600
H  49.43600 42.43000 29.01800
H  50.69600 42.35600 27.91600
H  48.47100 36.56900 24.37500
H  46.31400 34.82200 23.99300
H  46.85600 38.36200 23.58800
H  45.72100 37.88900 24.84000
H  45.92600 36.86100 23.38400
H  48.30600 32.99700 24.11900
H  49.23700 34.36500 24.47300
H  49.32400 34.94800 22.25200
H  47.51900 34.80400 22.04500
H  48.40700 33.40600 21.94800
H  44.52800 29.63100 27.71800
H  45.76400 30.14200 26.75100
H  44.02700 30.77600 26.51900
H  43.09400 32.90800 31.47700
H  42.17800 31.46300 35.28400
H  42.82700 33.07000 35.63700
H  43.93300 31.50600 35.56100

