158

Mg 7.75600 2.17600 28.13800
C  9.42600 0.97700 30.99400
C  5.89100 4.13300 30.12500
C  5.98600 2.97300 25.45100
C  9.66500 0.03900 26.21000
N  7.62500 2.37700 30.37600
C  8.50600 1.97800 31.30600
C  8.25500 2.78100 32.66400
C  7.03700 3.66500 32.29000
C  6.79000 3.35900 30.84400
C  5.76400 3.29700 33.17300
C  9.53100 3.62500 33.12500
C  10.14400 3.41800 34.52400
H  9.80900 4.50600 35.58200
N  6.26600 3.53300 27.86400
C  5.62100 4.26800 28.76300
C  4.51000 5.08000 28.12900
C  4.52900 4.64400 26.75100
C  5.61700 3.67900 26.65600
C  3.65100 6.03500 28.96000
C  3.66200 5.17000 25.59100
O  3.69800 4.79700 24.41500
C  2.75200 6.27700 26.00800
N  7.79100 1.59000 26.09000
C  7.00200 2.08800 25.13600
C  7.14800 1.43900 23.78300
C  8.45900 0.61200 24.00900
C  8.69100 0.73900 25.57700
C  6.00600 0.57000 23.34400
C  9.69200 1.26500 23.24300
C  9.99700 0.80900 21.81700
N  9.18800 0.72600 28.46800
C  9.89900 -0.02500 27.60000
C  10.75800 -0.96400 28.24200
C  10.62200 -0.48900 29.57900
C  9.65200 0.47400 29.66100
C  11.48400 -2.02400 27.54900
C  11.09200 -0.80200 30.86900
O  11.85300 -1.70100 31.25300
C  10.47300 0.23100 31.81400
C  10.01800 -0.41800 33.09900
O  8.88900 -0.82000 33.33200
O  10.98700 -0.15200 34.11100
C  10.49000 -0.42800 35.47800
H  5.37700 4.79400 30.82600
H  5.25600 3.03700 24.64100
H  10.11300 -0.61900 25.46300
H  8.03400 1.95800 33.34400
H  7.27800 4.70500 32.51200
H  6.10300 2.63400 33.96800
H  4.89600 2.88600 32.65600
H  5.39600 4.21900 33.62200
H  9.40900 4.68400 32.90100
H  10.21500 3.29800 32.34200
H  11.23200 3.35200 34.52400
H  9.82800 2.45600 34.92700
H  3.80300 5.91700 30.03300
H  2.60800 5.80400 28.73900
H  3.84500 7.08000 28.72000
H  3.22300 7.04100 26.62600
H  1.88900 5.85700 26.52400
H  2.34300 6.67400 25.07900
H  7.28200 2.31500 23.14700
H  8.27000 -0.42900 23.74700
H  5.73100 0.98100 22.37200
H  5.17700 0.62600 24.04900
H  6.16600 -0.50200 23.22900
H  10.55900 1.13400 23.88900
H  9.56000 2.34300 23.16100
H  9.34700 0.06600 21.35500
H  11.04100 0.49600 21.81200
H  9.82500 1.67700 21.18100
H  10.77400 -2.84700 27.45900
H  12.46100 -2.24400 27.97800
H  11.61400 -1.76400 26.49800
H  11.25300 0.92600 32.12500
H  9.83500 0.38700 35.78500
H  11.36400 -0.51000 36.12400
H  9.92500 -1.36100 35.47700
Mg 46.83400 17.12000 28.43100
C  45.28700 16.48100 31.53700
C  49.33600 18.66700 30.23000
C  48.11300 18.18500 25.47900
C  44.13700 15.69600 26.88000
N  47.22400 17.56600 30.65000
C  46.38900 17.24900 31.74200
C  47.01500 17.77400 33.05100
C  48.31600 18.46600 32.53800
C  48.31500 18.27800 31.03500
C  48.57700 19.95800 32.89300
C  47.29800 16.61300 34.06500
C  47.95300 16.85000 35.38200
H  47.54300 18.00300 36.28900
N  48.52100 18.15300 27.92500
C  49.45100 18.60100 28.80400
C  50.63200 18.96100 28.01100
C  50.31900 18.89400 26.63500
C  48.89500 18.44200 26.63000
C  51.92000 19.37700 28.64800
C  51.21000 19.09800 25.32600
O  50.71700 19.12400 24.21400
C  52.67100 19.46300 25.39000
N  46.36400 16.65800 26.50600
C  46.94000 17.35300 25.41500
C  46.24600 16.98000 24.17100
C  44.97900 16.27100 24.56900
C  45.16800 16.11100 26.06200
C  45.98500 18.11600 23.21100
C  44.59300 14.97700 23.87600
C  43.75900 15.24700 22.58100
N  45.08600 16.21900 29.01000
C  44.07600 15.61400 28.28800
C  42.97500 15.19200 29.12500
C  43.44800 15.49700 30.42500
C  44.72600 16.10500 30.27600
C  41.68000 14.51600 28.65100
C  43.12800 15.38100 31.88800
O  42.19200 14.89300 32.50100
C  44.26000 16.02300 32.59100
C  43.74800 17.12500 33.46000
O  43.23900 18.17800 33.08500
O  43.79200 16.68300 34.74500
C  43.01600 17.45900 35.73900
H  50.21100 18.99100 30.79800
H  48.34000 18.52500 24.46600
H  43.28000 15.17800 26.44400
H  46.27000 18.43500 33.49400
H  49.22100 17.92200 32.80900
H  48.17500 20.71300 32.21800
H  49.55500 20.32600 33.20200
H  48.01200 20.10200 33.81400
H  47.89500 15.87300 33.53300
H  46.30800 16.17600 34.19600
H  49.03600 16.77900 35.28000
H  47.49600 16.02300 35.92600
H  52.67100 18.62400 28.88500
H  51.66200 19.93600 29.54700
H  52.31700 20.14700 27.98500
H  52.68000 20.38700 25.96900
H  53.05600 19.53500 24.37300
H  53.20000 18.62800 25.84900
H  46.85100 16.21400 23.68700
H  44.09500 16.90300 24.48000
H  45.89000 19.07900 23.71400
H  45.08500 17.94900 22.61800
H  46.75100 18.31800 22.46200
H  43.91800 14.52700 24.60400
H  45.43900 14.38200 23.53300
H  43.85800 16.25900 22.18900
H  42.72000 15.05400 22.84700
H  44.08500 14.46400 21.89600
H  41.48600 14.72100 27.59900
H  40.92100 15.03400 29.23600
H  41.86600 13.44800 28.76600
H  44.63300 15.16200 33.14600
H  42.28400 16.67700 35.94000
H  42.53500 18.37800 35.40500
H  43.63700 17.58400 36.62600

