158

Mg 53.68600 24.09800 44.10200
C  51.33200 26.49900 43.62100
C  51.56200 21.70700 42.76600
C  56.28600 21.86200 44.02200
C  55.82800 26.54300 45.52900
N  51.68400 24.12300 43.05800
C  50.84800 25.23100 43.15300
C  49.51000 24.86900 42.44700
C  49.44700 23.30800 42.62200
C  50.98400 23.01200 42.86100
C  48.66000 22.67300 43.75300
C  49.40300 25.47800 41.00300
C  49.99500 24.66600 39.80100
H  50.61600 25.33900 38.55100
N  53.93600 22.02600 43.45600
C  52.90900 21.27300 42.93200
C  53.42400 19.94400 42.56800
C  54.82200 19.98900 42.88000
C  55.12200 21.36800 43.48000
C  52.49600 18.88700 41.99400
C  55.77300 18.84400 42.83900
O  55.28400 17.86600 42.34500
C  57.11200 18.81800 43.30600
N  55.82600 24.21500 44.64900
C  56.58300 23.16300 44.55700
C  57.96100 23.47400 45.15200
C  57.87800 24.93000 45.57400
C  56.43200 25.26500 45.30100
C  58.33500 22.50800 46.21900
C  58.78500 25.99700 44.80000
C  60.04300 26.51800 45.61600
N  53.66100 26.12900 44.46000
C  54.54000 26.97600 45.07400
C  53.95400 28.28200 45.24400
C  52.63500 28.11700 44.69600
C  52.55300 26.81000 44.20800
C  54.47700 29.42900 45.98400
C  51.32400 28.72600 44.51000
O  50.87600 29.83000 44.81800
C  50.46600 27.76100 43.80000
C  50.16900 28.41500 42.56600
O  50.89300 28.98800 41.81800
O  48.82700 28.23800 42.27500
C  48.27100 28.67800 40.99200
H  50.84000 20.89400 42.66600
H  57.19800 21.30700 43.79100
H  56.40500 27.43700 45.77800
H  48.70400 25.32600 43.02000
H  49.11700 22.95700 41.64400
H  48.23300 23.44400 44.39400
H  49.32200 22.04500 44.35000
H  47.84000 22.11900 43.29500
H  50.04500 26.35300 41.10400
H  48.38600 25.76300 40.73200
H  49.27600 23.96600 39.37700
H  50.86300 24.15700 40.22000
H  52.28000 18.98300 40.93000
H  51.52000 18.89000 42.47900
H  52.97100 17.91400 42.12000
H  57.09000 19.05400 44.37000
H  57.78400 19.47700 42.75600
H  57.60400 17.84500 43.31900
H  58.60700 23.38900 44.27900
H  57.99700 25.02900 46.65300
H  57.45000 21.95200 46.52700
H  58.77600 22.99900 47.08600
H  59.02900 21.86300 45.67900
H  58.22100 26.74900 44.24900
H  59.14700 25.37300 43.98300
H  60.08200 25.99300 46.57000
H  60.14400 27.59000 45.78400
H  60.92900 26.17600 45.08100
H  55.53900 29.39100 46.22800
H  53.97900 29.30900 46.94600
H  54.32400 30.39200 45.49600
H  49.52600 27.52800 44.30000
H  48.91900 28.53800 40.12600
H  47.94500 29.71500 41.07000
H  47.47200 27.94800 40.86200
Mg 30.36700 58.56800 40.24900
C  27.44900 56.67100 39.34100
C  32.18500 55.80700 39.30500
C  33.03800 60.57300 39.90100
C  28.23300 61.36600 40.32600
N  29.84000 56.56200 39.23500
C  28.63900 55.93500 39.07200
C  28.67600 54.44700 38.74900
C  30.22500 54.24200 38.86200
C  30.83000 55.64800 39.10300
C  30.54900 53.23800 40.03300
C  28.10400 54.13100 37.31500
C  28.03400 55.25600 36.24000
H  28.69600 55.03200 34.86300
N  32.38800 58.18000 39.84600
C  32.94300 56.98500 39.48600
C  34.37900 57.12100 39.51100
C  34.67600 58.50700 39.62600
C  33.31900 59.20600 39.72800
C  35.22800 55.89100 39.43900
C  36.10900 58.99700 39.86000
O  37.02600 58.27300 40.10400
C  36.38100 60.47800 40.07100
N  30.54600 60.67400 40.20700
C  31.79400 61.25700 40.14100
C  31.66600 62.75800 40.52000
C  30.18700 62.94100 40.91800
C  29.57100 61.67300 40.42400
C  32.70500 63.37800 41.50800
C  29.51300 64.17700 40.25200
C  28.81200 65.19200 41.15200
N  28.27600 58.90500 40.20600
C  27.57800 60.11700 40.23200
C  26.12200 59.80100 40.09100
C  26.03800 58.50800 39.75800
C  27.40200 57.97800 39.76600
C  25.02900 60.89900 40.16700
C  25.12200 57.42500 39.37000
O  23.89900 57.42400 39.13500
C  25.95500 56.19100 39.19400
C  25.57300 55.23200 40.16500
O  25.96000 55.14300 41.32300
O  24.68500 54.33600 39.65000
C  24.33200 53.21600 40.44600
H  32.83800 54.94200 39.17300
H  33.93900 61.18600 39.82500
H  27.56000 62.21100 40.49300
H  28.05700 54.01600 39.53500
H  30.70700 53.94200 37.93100
H  29.82100 53.00100 40.80800
H  31.31800 53.59400 40.72000
H  30.84800 52.33900 39.49500
H  27.12600 53.65200 37.35300
H  28.74200 53.33200 36.93700
H  28.63700 56.08900 36.60000
H  26.98900 55.54200 36.12200
H  36.30700 56.04600 39.46600
H  35.00400 55.32900 38.53200
H  34.96700 55.19300 40.23500
H  35.87900 60.77200 40.99300
H  35.95800 61.02400 39.22700
H  37.46100 60.60700 40.13800
H  31.92400 63.35700 39.64700
H  30.07400 62.91800 42.00200
H  32.21600 63.63100 42.44800
H  33.09600 64.32400 41.13400
H  33.59000 62.75300 41.62900
H  28.80700 63.86100 39.48400
H  30.27700 64.68300 39.66300
H  29.05500 64.97700 42.19200
H  27.75600 65.02200 40.94400
H  28.91600 66.25400 40.93000
H  24.32400 60.70600 39.35900
H  25.38900 61.92800 40.14000
H  24.42900 60.74400 41.06400
H  25.76700 55.79300 38.19800
H  24.96100 53.05700 41.32200
H  24.38100 52.32900 39.81500
H  23.27900 53.38600 40.67200

