158

Mg 25.09200 1.17800 29.72600
C  27.21500 1.05400 32.67100
C  22.43700 1.27700 31.87900
C  23.30100 1.43100 27.11900
C  27.98800 0.48300 27.90100
N  24.83000 1.13400 31.99300
C  25.78400 1.23500 32.92000
C  25.20800 1.42500 34.31000
C  23.67100 1.41000 34.04900
C  23.63800 1.17500 32.54800
C  22.78500 0.53000 35.01500
C  25.67800 2.68200 35.10500
C  26.23300 2.47300 36.53600
H  25.93000 3.69600 37.51400
N  23.05700 1.30100 29.51200
C  22.07800 1.28500 30.52900
C  20.77600 1.39900 29.89000
C  21.02800 1.52400 28.51200
C  22.52000 1.41700 28.31400
C  19.50200 1.41400 30.64500
C  20.00400 1.72000 27.43300
O  20.44900 1.80600 26.28600
C  18.51400 2.01000 27.68500
N  25.62900 0.98300 27.78900
C  24.64400 1.25100 26.83800
C  25.15900 1.38100 25.39600
C  26.72400 1.11100 25.61000
C  26.82100 0.84100 27.16100
C  24.31000 0.62700 24.26800
C  27.71600 2.31500 25.37600
C  27.25000 3.64400 26.09900
N  27.10600 0.62900 30.21500
C  28.15700 0.37800 29.33000
C  29.40300 0.18000 30.05400
C  29.02900 0.41900 31.36200
C  27.65400 0.66100 31.38700
C  30.75100 -0.22500 29.53700
C  29.55300 0.63900 32.76200
O  30.69000 0.51900 33.24500
C  28.35100 0.97900 33.61600
C  28.15400 0.05500 34.77400
O  27.64000 -1.03000 34.63400
O  28.74300 0.50100 35.93900
C  28.91100 -0.41600 37.07600
H  21.57100 1.52600 32.49600
H  22.84700 1.68800 26.16000
H  28.93300 0.49100 27.35300
H  25.45700 0.53600 34.88900
H  23.37600 2.43500 34.27100
H  22.21100 -0.26900 34.54500
H  22.14700 1.23700 35.54500
H  23.33300 0.04300 35.82200
H  24.87000 3.41300 35.08300
H  26.56800 3.12800 34.66000
H  27.31000 2.53100 36.37900
H  26.05600 1.48700 36.96500
H  19.10000 2.42700 30.62100
H  19.67200 1.08400 31.67000
H  18.83600 0.71400 30.14000
H  17.88000 1.14700 27.48200
H  18.30900 2.65200 26.82800
H  18.38200 2.58800 28.60000
H  24.97400 2.39100 25.03100
H  26.95600 0.18500 25.08500
H  23.46800 0.08200 24.69300
H  25.04600 -0.06800 23.86300
H  23.94100 1.28900 23.48400
H  27.51600 2.40600 24.30800
H  28.72500 1.95400 25.57400
H  26.55100 3.29600 26.85900
H  26.63100 4.25200 25.43900
H  28.08300 4.19800 26.53300
H  31.28800 0.67700 29.24500
H  30.85400 -1.00200 28.77900
H  31.23900 -0.77000 30.34500
H  28.53100 1.96400 34.04700
H  28.01900 -0.26100 37.68300
H  29.86300 -0.23600 37.57500
H  28.95300 -1.45200 36.73800
Mg 48.07500 25.15700 29.18700
C  49.00400 27.47000 31.66100
C  46.90200 23.02800 31.68100
C  47.03200 23.14600 26.81300
C  49.32700 27.38500 26.87400
N  47.99200 25.33700 31.43400
C  48.40900 26.29300 32.25100
C  47.97800 26.10700 33.73800
C  47.51600 24.56000 33.72900
C  47.48600 24.29600 32.19500
C  48.57000 23.60300 34.38600
C  46.83900 27.13200 34.08800
C  47.03800 27.99200 35.30500
H  46.22300 27.83100 36.50100
N  47.21400 23.26500 29.20500
C  46.73600 22.58200 30.33000
C  46.17300 21.34400 29.94000
C  46.08200 21.35500 28.53500
C  46.81800 22.58300 28.08400
C  45.81200 20.14500 30.84300
C  45.47100 20.40200 27.55100
O  45.57000 20.57500 26.35200
C  44.77800 19.17900 27.95100
N  48.35300 25.15400 27.12300
C  47.65300 24.27800 26.33200
C  47.73800 24.72800 24.81300
C  48.29500 26.14900 24.93400
C  48.73100 26.23800 26.40300
C  48.68000 23.83900 23.95800
C  47.16300 27.24100 24.58100
C  47.55300 28.31800 23.48600
N  49.03500 27.00900 29.26400
C  49.51900 27.73800 28.20900
C  50.06900 28.99300 28.64200
C  50.00000 28.92600 30.10300
C  49.34000 27.70100 30.38400
C  50.73200 30.04400 27.78000
C  50.27400 29.58500 31.32700
O  50.95000 30.60600 31.53700
C  49.54200 28.59200 32.39700
C  50.64500 28.21600 33.30200
O  51.44600 27.27300 33.16800
O  50.70100 29.11600 34.39800
C  51.59500 28.76400 35.51600
H  46.34100 22.41900 32.39200
H  46.32600 22.69700 26.11000
H  49.52200 28.02000 26.00700
H  48.92600 26.14500 34.27300
H  46.49600 24.44200 34.09500
H  48.75500 22.81200 33.65900
H  48.01400 23.23000 35.24600
H  49.52200 24.08600 34.60600
H  45.97900 26.48300 34.25500
H  46.64900 27.61700 33.13100
H  47.07200 29.02100 34.94800
H  48.07400 27.79300 35.58200
H  46.19800 20.29600 31.85200
H  46.19900 19.22800 30.39900
H  44.73600 20.06600 31.00000
H  44.10300 19.56800 28.71300
H  45.41900 18.36700 28.29700
H  44.14400 18.78100 27.15900
H  46.79000 24.69500 24.27500
H  49.18800 26.31500 24.33200
H  48.47900 24.01800 22.90100
H  48.53200 22.79900 24.24900
H  49.70900 24.16000 24.12300
H  46.77800 27.66700 25.50700
H  46.24100 26.78500 24.22100
H  48.52100 28.12900 23.02200
H  47.63800 29.27700 23.99500
H  46.81600 28.42300 22.68900
H  50.08200 30.19300 26.91800
H  51.74200 29.85500 27.41600
H  50.65300 31.00200 28.29300
H  48.69300 28.95800 32.97500
H  51.00700 28.19700 36.23700
H  51.90000 29.77000 35.80400
H  52.41800 28.13800 35.17200

