158

Mg 40.76100 10.14100 29.73600
C  42.95000 10.95700 32.38400
C  38.54500 8.86300 32.07500
C  38.89300 9.07700 27.27400
C  43.45100 10.75800 27.51100
N  40.86100 9.92000 31.97100
C  41.78300 10.45600 32.87000
C  41.24500 10.47800 34.31600
C  39.98800 9.54600 34.16800
C  39.72000 9.42000 32.61400
C  39.92800 8.28400 34.97700
C  41.12600 11.92300 34.86200
C  40.17200 12.25800 36.06400
H  40.88500 12.71000 37.34000
N  38.89400 9.20000 29.69500
C  38.17700 8.76500 30.74100
C  36.90700 8.28800 30.24500
C  37.02500 8.33700 28.81700
C  38.29200 8.96900 28.53900
C  35.76200 7.82200 31.19900
C  36.04000 7.95200 27.73300
O  36.21100 8.15100 26.51200
C  34.71400 7.30900 28.07700
N  41.14200 9.86000 27.73700
C  40.21400 9.43400 26.87900
C  40.66800 9.41100 25.40600
C  41.98800 10.20900 25.58300
C  42.23300 10.27400 27.04300
C  40.84700 7.93500 24.89200
C  42.07700 11.54700 24.77300
C  41.27700 12.63800 25.36700
N  42.83100 10.67500 29.88700
C  43.76200 10.94100 28.91100
C  44.99100 11.43400 29.45500
C  44.66600 11.50000 30.85900
C  43.35200 11.03300 31.01900
C  46.33400 11.72900 28.72100
C  45.19900 11.87500 32.15800
O  46.26000 12.36900 32.37900
C  44.06300 11.58900 33.20600
C  44.63000 10.81500 34.29800
O  45.14300 9.67900 34.09600
O  44.56900 11.53800 35.53100
C  45.23800 10.92600 36.65100
H  37.81400 8.51800 32.80900
H  38.37900 8.76500 26.36200
H  44.31600 10.98600 26.88500
H  41.94600 9.93000 34.94600
H  39.14000 10.11400 34.55000
H  40.16600 7.40600 34.37700
H  38.87200 8.32800 35.24400
H  40.52400 8.38300 35.88400
H  40.87400 12.69000 34.13000
H  42.06400 12.19800 35.34400
H  39.74000 11.30300 36.36400
H  39.32300 12.91900 35.88700
H  35.98200 7.88000 32.26500
H  35.42400 6.80500 31.00000
H  34.94200 8.50400 30.97700
H  34.08200 7.89200 28.74700
H  34.90600 6.31300 28.47600
H  34.25400 7.18800 27.09700
H  39.88000 9.89800 24.83200
H  42.85900 9.61300 25.30800
H  41.62500 7.76000 24.14900
H  39.99500 7.85000 24.21700
H  40.92500 7.25400 25.74000
H  41.57200 11.22900 23.86100
H  43.12600 11.84100 24.77900
H  41.95100 13.46000 25.60800
H  40.72600 12.39700 26.27600
H  40.56300 12.97800 24.61600
H  46.43000 12.81100 28.63100
H  46.29500 11.32100 27.71100
H  47.22100 11.36300 29.23900
H  43.86200 12.56800 33.64100
H  44.74000 10.04300 37.05100
H  45.23900 11.72500 37.39300
H  46.25500 10.72000 36.31800
Mg 16.66700 52.10800 26.21300
C  18.57200 50.57400 28.70300
C  14.25400 52.70400 28.48200
C  14.93800 53.42800 23.66600
C  18.96600 50.71000 23.87600
N  16.49300 51.74500 28.36300
C  17.45600 51.22700 29.19300
C  17.02200 51.47100 30.66600
C  15.52500 51.78100 30.44800
C  15.36100 52.05200 28.98800
C  14.59900 50.60200 30.96400
C  17.91900 52.55100 31.35300
C  18.18200 52.40700 32.95100
H  17.10400 52.02100 33.93800
N  14.88200 53.06000 26.14100
C  14.03800 53.23900 27.19400
C  12.89600 53.97200 26.70900
C  13.01300 54.06700 25.25000
C  14.34500 53.54900 24.96000
C  11.75600 54.32900 27.62900
C  12.02200 54.57400 24.22900
O  12.26600 54.53700 23.06000
C  10.76800 55.27200 24.60900
N  16.82700 51.97500 23.93100
C  16.03800 52.68300 23.14500
C  16.48700 52.61400 21.67000
C  17.86400 51.72800 21.75900
C  17.96000 51.42700 23.27000
C  15.35100 51.91400 20.84500
C  19.15200 52.42200 21.20700
C  19.40600 53.84500 21.67500
N  18.35400 50.86100 26.18900
C  19.16700 50.38000 25.20900
C  20.26800 49.62400 25.75000
C  20.15900 49.76400 27.10400
C  18.97200 50.49700 27.32900
C  21.39400 48.96000 25.00200
C  20.69800 49.35700 28.39700
O  21.76500 48.67300 28.54500
C  19.74800 49.95900 29.47900
C  19.22000 48.99000 30.52500
O  18.30700 48.21800 30.41100
O  19.93600 49.23600 31.67900
C  19.54800 48.38900 32.82800
H  13.52900 52.90800 29.27300
H  14.60900 54.05900 22.83800
H  19.75900 50.37900 23.20300
H  17.13600 50.55500 31.24600
H  15.29200 52.71700 30.95500
H  15.11300 49.65300 31.11900
H  13.85400 50.36000 30.20600
H  13.94100 50.89000 31.78400
H  17.62400 53.59500 31.25300
H  18.87300 52.41700 30.84400
H  18.70400 53.23700 33.42700
H  18.82100 51.54100 33.12200
H  11.43300 55.36800 27.55500
H  12.20200 54.37400 28.62300
H  10.94700 53.62100 27.44900
H  10.31400 54.68400 25.40600
H  10.01500 55.34400 23.82400
H  11.19500 56.20500 24.97700
H  16.61700 53.62300 21.28100
H  17.85100 50.79300 21.19900
H  15.79300 51.28700 20.07000
H  14.67800 52.55900 20.28000
H  14.90400 51.19600 21.53400
H  19.21300 52.37500 20.11900
H  19.92200 51.81700 21.68500
H  20.47200 53.94200 21.88100
H  18.87100 54.02100 22.60800
H  19.15900 54.50600 20.84400
H  21.05300 48.71400 23.99700
H  21.52800 47.99100 25.48200
H  22.26600 49.61500 24.98900
H  20.09500 50.85500 29.99400
H  20.26100 48.54100 33.63900
H  19.53300 47.30400 32.72600
H  18.55100 48.70000 33.13900

