158

Mg 24.08800 -4.74900 45.35000
C  26.43800 -2.52000 43.89300
C  21.73500 -3.35400 43.31300
C  22.23300 -7.51200 45.85900
C  26.86600 -6.36700 46.84000
N  24.11300 -3.04000 43.80900
C  25.13500 -2.21800 43.47400
C  24.65200 -1.12100 42.52300
C  23.08400 -1.24200 42.72100
C  22.93000 -2.64400 43.30800
C  22.51100 -0.24000 43.76700
C  25.16200 -1.35600 41.11300
C  25.52000 -0.09900 40.24300
H  25.02700 -0.15200 38.79600
N  22.15600 -5.32300 44.77700
C  21.34600 -4.55100 43.90300
C  20.18800 -5.31900 43.68400
C  20.14600 -6.45700 44.53400
C  21.55100 -6.50400 45.12400
C  19.04600 -4.95000 42.68200
C  18.98000 -7.38500 44.64400
O  17.98700 -7.25500 43.93000
C  19.02800 -8.44000 45.69500
N  24.45100 -6.62000 46.36600
C  23.51300 -7.61800 46.49400
C  24.07100 -8.91500 47.08600
C  25.57200 -8.49300 47.37800
C  25.65500 -7.03200 46.86000
C  23.35400 -9.53500 48.32900
C  26.57900 -9.42200 46.75800
C  26.24700 -10.97800 46.89300
N  26.18100 -4.41000 45.57900
C  27.11800 -5.13000 46.26100
C  28.45500 -4.62100 46.03200
C  28.28100 -3.56900 45.10400
C  26.84800 -3.50100 44.84200
C  29.75400 -5.08200 46.67600
C  28.91800 -2.57100 44.30000
O  30.09900 -2.19800 44.29500
C  27.75500 -1.87400 43.45400
C  27.83100 -0.41700 43.96400
O  27.21600 0.02900 44.91700
O  28.77400 0.24200 43.20600
C  29.17000 1.51800 43.77000
H  20.95000 -3.06800 42.61000
H  21.62500 -8.38900 46.09000
H  27.75900 -6.87000 47.21800
H  25.09700 -0.19200 42.87800
H  22.47500 -1.28700 41.81800
H  23.31600 0.30500 44.25900
H  21.92500 -0.70800 44.55800
H  21.90000 0.54400 43.31900
H  24.35200 -1.88000 40.60600
H  26.00300 -2.04200 41.21900
H  26.60700 -0.02400 40.20900
H  24.99800 0.76600 40.65200
H  18.04700 -5.02300 43.11200
H  19.18500 -5.41800 41.70700
H  18.94800 -3.86600 42.62600
H  19.66900 -8.10100 46.51000
H  19.52500 -9.27800 45.20600
H  18.08300 -8.90100 45.98500
H  24.18200 -9.58300 46.23200
H  25.89500 -8.37200 48.41100
H  22.54600 -8.98600 48.81200
H  24.04900 -9.93200 49.06900
H  22.82200 -10.43600 48.02200
H  27.47000 -9.23600 47.35700
H  26.70000 -9.12300 45.71700
H  25.69600 -11.11400 47.82400
H  27.09200 -11.66600 46.89500
H  25.55700 -11.17900 46.07300
H  30.44300 -4.23800 46.70700
H  30.20600 -5.76200 45.95400
H  29.64100 -5.62600 47.61400
H  27.97300 -1.78100 42.39000
H  29.92200 1.94700 43.10900
H  29.60300 1.33900 44.75400
H  28.34200 2.21900 43.88100
Mg -12.21000 16.26400 41.77400
C  -9.09100 14.55100 41.37700
C  -10.68500 18.94100 40.39300
C  -15.25900 17.58400 41.25200
C  -13.67200 13.25800 42.84900
N  -10.14500 16.60300 40.95200
C  -9.07000 15.84800 40.82800
C  -7.87500 16.53900 40.22900
C  -8.35300 18.05700 40.18700
C  -9.84800 17.86600 40.46400
C  -7.67200 18.95900 41.30000
C  -7.35800 15.82900 38.90500
C  -5.90800 15.39600 38.79000
H  -4.93100 16.32400 37.99700
N  -12.88200 18.01500 41.10700
C  -12.08600 18.99900 40.63500
C  -12.86600 20.21700 40.43100
C  -14.22900 19.84100 40.56700
C  -14.16100 18.41900 40.93600
C  -12.37800 21.55000 39.94800
C  -15.38200 20.77800 40.13200
O  -15.16400 21.87700 39.66200
C  -16.82300 20.13700 39.94100
N  -14.22500 15.50600 42.00700
C  -15.31500 16.30600 41.74000
C  -16.55100 15.54700 42.04400
C  -16.03700 14.41300 42.97200
C  -14.54900 14.37700 42.60900
C  -17.70300 16.32700 42.75600
C  -16.72800 13.04400 42.59800
C  -16.87800 12.05300 43.77200
N  -11.57100 14.29500 41.95500
C  -12.26200 13.20100 42.55800
C  -11.37100 12.03600 42.79000
C  -10.07400 12.53700 42.35800
C  -10.27600 13.89400 41.88700
C  -11.81600 10.64400 43.14000
C  -8.61500 12.30200 42.23900
O  -7.94400 11.35300 42.53200
C  -7.96000 13.58600 41.51500
C  -6.86200 14.05400 42.39000
O  -6.98900 14.88800 43.26200
O  -5.67400 13.57700 41.95400
C  -4.50700 14.41500 42.29700
H  -10.21100 19.78800 39.89200
H  -16.23700 18.06800 41.29000
H  -14.18100 12.40600 43.30400
H  -7.01100 16.47000 40.89100
H  -8.20600 18.41800 39.16900
H  -7.96700 18.82900 42.34100
H  -7.85500 20.00600 41.06000
H  -6.58600 18.90900 41.22000
H  -7.51200 16.40900 37.99400
H  -8.02200 14.99500 38.68000
H  -5.89500 14.36400 38.43700
H  -5.66800 15.21800 39.83900
H  -12.95800 22.34800 40.41300
H  -12.46300 21.60300 38.86300
H  -11.34000 21.64600 40.26500
H  -16.65700 19.16800 39.46900
H  -17.24300 20.76800 39.15800
H  -17.34400 20.10900 40.89800
H  -16.88400 15.21200 41.06200
H  -16.19500 14.63900 44.02700
H  -17.38200 17.35500 42.92500
H  -18.09100 15.84400 43.65300
H  -18.47300 16.49800 42.00400
H  -16.18200 12.47100 41.84800
H  -17.72100 13.13500 42.15700
H  -17.90100 11.67800 43.79300
H  -16.67500 12.46100 44.76200
H  -16.22400 11.21200 43.53900
H  -12.26200 10.67000 44.13500
H  -10.91700 10.02800 43.12200
H  -12.49600 10.28100 42.37000
H  -7.60000 13.28800 40.53100
H  -4.15900 14.12600 43.28900
H  -4.54800 15.49200 42.13200
H  -3.75600 14.14000 41.55600

