158

Mg -2.35000 17.38700 27.70200
C  -2.56800 15.08700 30.27900
C  -2.93300 19.94100 29.72100
C  -2.39700 19.45400 24.85500
C  -2.10700 14.68200 25.34600
N  -2.90800 17.42900 29.73100
C  -2.78700 16.44700 30.68300
C  -2.92400 16.98700 32.18300
C  -3.05800 18.52400 31.94300
C  -2.96000 18.65000 30.36900
C  -4.22300 19.19100 32.65800
C  -1.78200 16.63800 33.24000
C  -1.39200 17.64600 34.40700
H  -1.08100 16.96200 35.67800
N  -2.54400 19.37400 27.36400
C  -2.74200 20.26000 28.37800
C  -2.75600 21.63700 27.86500
C  -2.38600 21.49500 26.46700
C  -2.42200 20.05300 26.14300
C  -3.01100 22.86000 28.64700
C  -1.98300 22.56800 25.45100
O  -1.63800 22.31500 24.27800
C  -1.87900 23.96200 25.88200
N  -2.44600 17.13000 25.40400
C  -2.40900 18.18500 24.54700
C  -2.19300 17.66200 23.05800
C  -1.81300 16.19300 23.29400
C  -2.17300 15.93400 24.75400
C  -3.43100 17.79000 22.22600
C  -0.32100 15.93300 23.03200
C  0.71600 16.46000 24.05100
N  -2.50100 15.32300 27.61700
C  -2.33200 14.36100 26.68700
C  -2.27900 13.09700 27.37000
C  -2.47600 13.28000 28.73300
C  -2.59600 14.66100 28.87400
C  -1.92400 11.79900 26.70600
C  -2.40600 12.60900 29.96300
O  -1.97700 11.52900 30.25900
C  -2.56900 13.73100 31.07200
C  -1.53500 13.63400 32.12200
O  -0.36200 13.98000 32.00100
O  -2.13000 13.16100 33.27600
C  -1.30000 13.17600 34.49200
H  -2.94400 20.74500 30.46000
H  -2.42700 20.07900 23.95900
H  -1.76200 13.89000 24.67800
H  -3.82100 16.54500 32.61800
H  -2.16700 19.12200 32.13300
H  -4.76500 18.52700 33.33100
H  -4.93500 19.42000 31.86500
H  -3.85600 20.11600 33.10200
H  -0.83600 16.49800 32.71700
H  -2.16800 15.74100 33.72500
H  -2.14900 18.41100 34.57800
H  -0.43400 18.08600 34.12700
H  -2.26100 23.65000 28.68800
H  -3.29600 22.50800 29.63800
H  -3.89600 23.30400 28.19200
H  -2.79400 24.27600 26.38400
H  -1.53000 24.58500 25.05800
H  -1.06600 23.97300 26.60700
H  -1.39600 18.28300 22.64800
H  -2.36200 15.45800 22.70500
H  -4.17300 18.42200 22.71400
H  -3.89500 16.84600 21.94100
H  -3.13400 18.29500 21.30600
H  -0.08700 16.38500 22.06800
H  -0.03500 14.93100 22.71200
H  1.59500 16.92300 23.60100
H  1.04500 15.85200 24.89400
H  0.29400 17.33400 24.54800
H  -1.13500 11.82100 25.95300
H  -2.79500 11.35600 26.22400
H  -1.68400 10.99700 27.40400
H  -3.55100 13.66200 31.53800
H  -1.17300 12.15700 34.85700
H  -1.73700 13.81200 35.26200
H  -0.26600 13.50700 34.39700
Mg 1.01600 8.03200 27.92400
C  1.37200 10.21100 30.51900
C  1.39300 5.35900 30.00600
C  1.64900 6.07900 25.21600
C  1.15900 10.80000 25.71200
N  1.49000 7.83800 30.02700
C  1.33100 8.85600 30.92000
C  1.34100 8.31400 32.40500
C  1.48000 6.79100 32.18800
C  1.41800 6.66800 30.63500
C  2.83100 6.19500 32.72000
C  0.15700 8.79100 33.27400
C  0.49700 9.16300 34.76400
H  0.04900 8.12500 35.73600
N  1.28600 5.97300 27.63700
C  1.34100 5.05100 28.58000
C  1.45300 3.78000 28.02200
C  1.62500 3.98200 26.61600
C  1.52200 5.39800 26.44700
C  1.36600 2.50600 28.86300
C  1.72900 2.90000 25.39600
O  1.95400 3.12500 24.25900
C  1.64600 1.46000 25.83400
N  1.23200 8.33800 25.85900
C  1.45800 7.37200 24.87600
C  1.75600 7.88400 23.47600
C  1.34500 9.36300 23.59200
C  1.20400 9.51900 25.15300
C  3.24400 7.58000 23.03800
C  0.15500 9.81900 22.71200
C  -1.28200 9.39700 23.09200
N  1.22700 10.14200 28.01400
C  1.20900 11.07000 27.11100
C  1.42600 12.30300 27.71600
C  1.58000 12.11400 29.06300
C  1.34300 10.69100 29.18600
C  1.41000 13.64000 27.10200
C  1.87200 12.67900 30.42600
O  2.20700 13.82800 30.79200
C  1.63600 11.43700 31.43200
C  2.80300 11.35000 32.28200
O  3.92900 10.95300 31.94200
O  2.57600 11.95800 33.51700
C  3.71300 12.25400 34.37800
H  1.32200 4.60100 30.79000
H  1.97700 5.54100 24.32400
H  1.28400 11.66700 25.06000
H  2.23900 8.78900 32.80000
H  0.64900 6.17400 32.52900
H  3.29800 5.71800 31.85800
H  2.59500 5.46500 33.49400
H  3.56300 6.90400 33.10800
H  -0.51500 7.93400 33.24000
H  -0.32200 9.64000 32.78700
H  0.10900 10.16500 34.94600
H  1.58300 9.21800 34.84000
H  2.18700 1.86500 28.54200
H  0.44700 2.11400 28.42800
H  1.32000 2.56100 29.95100
H  2.50900 1.24400 26.46400
H  1.68000 0.81900 24.95300
H  0.70400 1.21700 26.32600
H  1.10300 7.33900 22.79500
H  2.24300 9.93000 23.34400
H  3.90300 7.39300 23.88700
H  3.60600 8.48000 22.54000
H  3.38200 6.83000 22.26000
H  0.36800 9.38600 21.73400
H  0.23000 10.88800 22.51100
H  -1.76600 8.67400 22.43600
H  -1.84600 10.32800 23.16100
H  -1.35200 9.06300 24.12700
H  0.75900 14.39200 27.54900
H  1.14600 13.58400 26.04600
H  2.39400 14.09500 27.21600
H  0.78100 11.75500 32.02900
H  4.23600 13.13800 34.01400
H  4.46900 11.47800 34.50500
H  3.24800 12.67600 35.26900

