158

Mg -1.88400 17.66600 27.56100
C  -2.70300 15.34100 30.01900
C  -2.54600 20.17700 29.88000
C  -1.78500 19.90400 25.01600
C  -1.61600 15.05000 25.30200
N  -2.38000 17.70500 29.80800
C  -2.78700 16.63700 30.59300
C  -3.04500 17.09900 32.03800
C  -3.13800 18.64300 31.86500
C  -2.55400 18.88600 30.42500
C  -4.54900 19.20200 32.09100
C  -1.86600 16.60300 32.97800
C  -1.50500 17.39100 34.27100
H  -1.15400 16.63600 35.49000
N  -2.13100 19.72500 27.48200
C  -2.47500 20.55800 28.50100
C  -2.51400 21.94400 27.96700
C  -2.21000 21.89000 26.57000
C  -2.02500 20.46800 26.31000
C  -2.81800 23.17500 28.92300
C  -2.01700 22.97900 25.57500
O  -1.82600 22.78300 24.39800
C  -2.17400 24.34800 26.06600
N  -1.69700 17.49100 25.51400
C  -1.73700 18.55600 24.63800
C  -1.60300 18.11700 23.14800
C  -1.30600 16.57400 23.29100
C  -1.60100 16.37500 24.74700
C  -2.87300 18.46100 22.17700
C  0.17100 16.21400 22.91200
C  1.31500 16.94500 23.61400
N  -2.08300 15.58300 27.55200
C  -1.93100 14.61000 26.61000
C  -2.28900 13.26000 27.14800
C  -2.56800 13.59100 28.51100
C  -2.40600 14.97600 28.72200
C  -2.26700 11.97100 26.37200
C  -3.03200 13.04300 29.75300
O  -3.38400 11.91800 30.03500
C  -2.98400 14.07400 30.78800
C  -1.84800 13.56100 31.67500
O  -0.65500 13.85500 31.63200
O  -2.42900 12.68900 32.60300
C  -1.51300 12.35500 33.75400
H  -2.81300 21.02600 30.51200
H  -1.93600 20.52800 24.13300
H  -1.51800 14.31600 24.49900
H  -3.94800 16.66000 32.46100
H  -2.50400 19.15200 32.59000
H  -5.29600 18.43700 32.30500
H  -4.78300 19.69000 31.14500
H  -4.41500 19.92800 32.89300
H  -1.01700 16.44400 32.31400
H  -2.26800 15.69400 33.42600
H  -2.35800 18.05000 34.43500
H  -0.64700 18.01200 34.01500
H  -1.97500 23.86400 28.97600
H  -3.22300 22.96500 29.91300
H  -3.73500 23.53400 28.45600
H  -1.54900 24.60700 26.92000
H  -3.20000 24.65900 26.26200
H  -1.86900 25.00800 25.25300
H  -0.73500 18.64800 22.75900
H  -1.85000 15.92900 22.60200
H  -2.54200 19.06700 21.33200
H  -3.58100 19.07600 22.73200
H  -3.34100 17.52100 21.88600
H  0.31500 16.22900 21.83100
H  0.41100 15.19200 23.20800
H  1.89400 17.51400 22.88700
H  1.97800 16.26000 24.14300
H  1.07700 17.65100 24.41000
H  -1.54600 12.05800 25.55900
H  -3.28300 11.81200 26.01100
H  -1.94300 11.25600 27.12900
H  -3.89300 13.98400 31.38400
H  -1.79500 11.45700 34.30300
H  -1.63000 13.19100 34.44300
H  -0.47800 12.29400 33.42000
Mg 54.44200 24.07600 44.50300
C  51.88100 26.26900 43.98700
C  52.53400 21.52600 43.32700
C  57.25000 21.96100 44.42100
C  56.57000 26.82100 45.46900
N  52.56700 23.94600 43.72700
C  51.64000 24.93100 43.51800
C  50.35500 24.49700 42.84900
C  50.45100 22.96500 43.11900
C  51.95200 22.77800 43.44600
C  49.53500 22.39500 44.24800
C  50.18200 24.81200 41.31900
C  48.68500 24.79600 40.76400
H  48.51500 24.15500 39.41600
N  54.82700 22.08800 43.90100
C  53.89900 21.19500 43.49100
C  54.48700 19.86500 43.33000
C  55.85100 20.06000 43.45300
C  56.06200 21.41100 43.88600
C  53.62400 18.58100 43.01700
C  56.91100 19.02300 43.29700
O  56.59200 17.85300 43.15200
C  58.37700 19.25800 43.35100
N  56.63000 24.39100 44.74600
C  57.50500 23.32100 44.83100
C  58.88600 23.85100 45.38800
C  58.66700 25.33800 45.66500
C  57.23200 25.59200 45.16900
C  59.38200 23.01500 46.60600
C  59.67900 26.40500 45.05100
C  60.46300 27.24700 46.07900
N  54.25300 26.14700 44.71000
C  55.17700 27.09600 45.22500
C  54.40900 28.29400 45.44300
C  53.12300 28.09900 44.97900
C  53.09600 26.75300 44.53600
C  54.99700 29.52000 46.14900
C  51.78600 28.67200 44.75200
O  51.29300 29.81100 44.95200
C  50.96500 27.50300 44.02600
C  50.66800 28.18400 42.72600
O  51.53800 28.59200 41.96400
O  49.35200 27.93100 42.36500
C  48.90900 28.54100 41.16900
H  51.79900 20.76000 43.07100
H  58.07900 21.27700 44.61400
H  57.18500 27.62300 45.88300
H  49.46900 24.71100 43.44700
H  50.30700 22.40100 42.19800
H  50.04200 22.34600 45.21200
H  49.21100 21.38800 43.98400
H  48.62100 22.99000 44.26700
H  50.65900 23.98900 40.78700
H  50.73200 25.71800 41.06700
H  48.31700 25.80500 40.57500
H  47.95000 24.34400 41.42900
H  53.71800 18.32100 41.96200
H  52.55500 18.71300 43.18400
H  53.89900 17.70200 43.60100
H  58.50200 20.06700 42.63200
H  58.85100 18.31700 43.07200
H  58.70100 19.52600 44.35700
H  59.52300 23.73300 44.51200
H  58.70300 25.47300 46.74600
H  58.57800 22.35000 46.92200
H  59.64600 23.65400 47.44900
H  60.28100 22.48300 46.29400
H  59.19400 27.10300 44.36900
H  60.52600 25.84500 44.65300
H  60.18500 26.94900 47.09000
H  60.31200 28.30100 45.84600
H  61.54600 27.30500 45.96700
H  54.41600 29.80400 47.02600
H  55.15500 30.39400 45.51700
H  55.98200 29.26500 46.54200
H  50.02500 27.31100 44.54200
H  48.79300 29.59900 41.40700
H  47.90000 28.17800 40.97200
H  49.57100 28.29200 40.34000

