158

Mg 47.47800 34.29700 28.31100
C  45.77400 32.40900 30.76300
C  47.34000 36.99300 30.64700
C  48.28200 36.31600 25.97100
C  46.94000 31.66800 26.04700
N  46.60300 34.64700 30.45300
C  46.09600 33.66000 31.29700
C  46.04900 34.21400 32.76900
C  45.94200 35.77300 32.49600
C  46.67500 35.84000 31.09200
C  44.64000 36.47500 32.60800
C  47.35800 33.78800 33.43500
C  47.19700 33.33600 34.93600
H  46.29100 34.30300 35.84900
N  47.93600 36.29900 28.30300
C  47.83100 37.25500 29.33300
C  48.56500 38.46600 28.90000
C  49.02700 38.18100 27.57400
C  48.37600 36.93300 27.17700
C  48.82000 39.55500 29.86900
C  49.92000 39.05100 26.61700
O  50.11400 38.78900 25.44400
C  50.45500 40.35100 27.10200
N  47.51400 33.99100 26.25300
C  47.82700 35.03500 25.47100
C  47.95900 34.67800 23.98500
C  47.66200 33.17200 24.07200
C  47.39100 32.86700 25.51400
C  47.06800 35.47700 22.93900
C  48.70500 32.18100 23.52300
C  48.59100 31.52400 22.14200
N  46.65000 32.33400 28.41800
C  46.48000 31.41800 27.36800
C  45.85000 30.23000 27.88600
C  45.45100 30.54000 29.20800
C  46.04500 31.84500 29.48300
C  45.52000 28.97100 27.11400
C  44.78000 30.10200 30.40900
O  44.06800 29.21600 30.64600
C  44.80500 31.36800 31.36100
C  44.87800 31.05100 32.79400
O  45.67300 30.33600 33.35100
O  43.81500 31.72200 33.39700
C  43.67400 31.79700 34.83300
H  47.34900 37.80900 31.37300
H  48.77100 36.76600 25.10400
H  46.82300 30.88400 25.29600
H  45.22200 33.79200 33.33900
H  46.53200 36.28700 33.25400
H  44.00900 35.79300 33.17800
H  44.25700 36.62200 31.59800
H  44.83900 37.35700 33.21600
H  48.21400 34.46100 33.38400
H  47.73200 32.88800 32.94800
H  48.17400 33.35400 35.41900
H  46.90900 32.28600 34.98300
H  49.89900 39.69200 29.81200
H  48.70300 39.38500 30.93900
H  48.29500 40.43400 29.49400
H  51.05000 40.05800 27.96700
H  49.68800 41.08600 27.34500
H  51.15300 40.65400 26.32200
H  48.94400 34.84100 23.54700
H  46.68900 32.88900 23.67200
H  46.28300 34.82300 22.55900
H  47.65000 35.81100 22.08000
H  46.54900 36.27400 23.47300
H  48.90500 31.33500 24.18200
H  49.63900 32.70800 23.72100
H  47.75000 31.96300 21.60500
H  48.58700 30.45100 22.33600
H  49.42400 31.70200 21.46300
H  46.20500 28.74700 26.29600
H  44.49600 29.07600 26.75500
H  45.65300 28.18700 27.86000
H  43.80600 31.80300 31.31500
H  42.93200 31.05300 35.12300
H  43.23000 32.78000 34.98300
H  44.51000 31.72200 35.52900
Mg 30.57600 59.58500 38.24500
C  27.66100 57.79800 37.54700
C  32.39400 56.83200 37.26600
C  33.29400 61.50100 38.21300
C  28.56900 62.45500 38.49100
N  30.06100 57.59700 37.43100
C  28.82200 57.04700 37.22800
C  28.94500 55.66600 36.55800
C  30.42800 55.29200 36.77100
C  31.04100 56.62500 37.17000
C  30.56700 54.22100 37.93700
C  28.45500 55.78400 35.08500
C  27.15800 54.91300 34.77500
H  26.13500 55.51000 33.66700
N  32.56400 59.20300 37.87700
C  33.17100 58.00900 37.50200
C  34.62200 58.17300 37.49000
C  34.90000 59.51300 37.88000
C  33.57200 60.11000 37.98400
C  35.64300 57.03400 37.11500
C  36.27500 60.11300 38.13600
O  37.29400 59.46600 37.92400
C  36.52400 61.42100 38.56700
N  30.84200 61.65700 38.35100
C  32.04600 62.15500 38.33000
C  32.05700 63.70300 38.64400
C  30.52300 64.04900 38.68600
C  29.90700 62.62500 38.35300
C  32.72700 64.09400 40.01300
C  30.12000 65.20400 37.57100
C  31.17000 66.37500 37.38900
N  28.54100 60.03600 38.27500
C  27.88300 61.22300 38.44500
C  26.45400 61.00000 38.33600
C  26.38200 59.67800 37.99200
C  27.63600 59.10200 38.01500
C  25.28000 61.97500 38.52800
C  25.42600 58.67000 37.63400
O  24.23500 58.77800 37.51900
C  26.18100 57.37000 37.40200
C  25.82500 56.40300 38.51500
O  26.52400 56.09300 39.46700
O  24.50500 56.02100 38.34100
C  24.06100 55.01000 39.37600
H  32.97900 55.93900 37.03700
H  34.10200 62.22500 38.34400
H  28.00000 63.38300 38.57100
H  28.34200 54.97900 37.15100
H  30.92600 54.95900 35.86100
H  31.39000 54.29900 38.64800
H  30.78500 53.29500 37.40400
H  29.57900 54.09000 38.37900
H  29.27700 55.51800 34.42000
H  28.29400 56.85400 34.94800
H  26.56700 54.52100 35.60200
H  27.52200 54.04900 34.21900
H  35.17200 56.37000 36.39000
H  35.86800 56.39000 37.96500
H  36.56700 57.39500 36.66300
H  37.56000 61.51800 38.89000
H  36.03100 61.75800 39.47900
H  36.30900 62.14000 37.77700
H  32.54800 64.17400 37.79300
H  30.07600 64.40300 39.61400
H  33.31800 63.25700 40.38400
H  32.00500 64.33200 40.79500
H  33.36900 64.95200 39.81300
H  29.13000 65.52000 37.90100
H  30.01800 64.58600 36.67900
H  30.51600 67.23300 37.23500
H  31.67200 66.25500 36.42900
H  31.79400 66.43500 38.28200
H  24.94800 62.32600 37.55100
H  25.52300 62.72700 39.27900
H  24.40000 61.49100 38.95000
H  25.86900 56.99800 36.42600
H  24.00400 55.35900 40.40700
H  24.65000 54.09700 39.28700
H  23.13700 54.62300 38.94800

