158

Mg 35.94700 0.54000 30.51900
C  33.55700 2.23700 32.49600
C  38.09700 0.62800 33.18100
C  38.34700 -0.60800 28.48100
C  33.74300 0.76100 27.71000
N  35.94900 1.59000 32.51600
C  34.83300 2.06400 33.12400
C  35.10300 2.30300 34.61700
C  36.64700 2.11400 34.73200
C  36.93500 1.45500 33.41100
C  37.46500 3.47400 34.96300
C  34.28800 1.18700 35.40200
C  33.97700 1.65800 36.83600
H  34.84100 2.88200 37.33300
N  37.94300 0.10700 30.78000
C  38.61400 0.17600 31.96300
C  39.92600 -0.26500 31.78700
C  40.12500 -0.54100 30.39800
C  38.81200 -0.31700 29.81900
C  40.86700 -0.34300 32.91100
C  41.35700 -0.83100 29.52400
O  41.24000 -1.23900 28.35100
C  42.65100 -0.76300 30.01300
N  36.07700 0.11900 28.39700
C  37.19000 -0.31700 27.77500
C  37.07200 -0.54500 26.26500
C  35.47100 -0.46100 26.13500
C  35.04900 0.25300 27.47800
C  37.74200 0.61600 25.42400
C  34.68900 -1.79300 25.94100
C  33.87400 -1.84300 24.63000
N  34.03700 1.40200 30.13500
C  33.25300 1.36000 28.94400
C  31.93200 1.88700 29.30800
C  32.07200 2.29200 30.68900
C  33.31600 1.91600 31.11400
C  30.70600 1.94100 28.43400
C  31.33700 2.92600 31.73300
O  30.19200 3.34000 31.68300
C  32.24600 2.82100 33.05400
C  32.53100 4.17500 33.65800
O  33.46500 4.95300 33.32200
O  31.67000 4.45900 34.59200
C  31.77900 5.72000 35.37500
H  38.65200 0.57400 34.12000
H  39.09200 -0.83900 27.71600
H  33.00600 0.70700 26.90700
H  34.84500 3.34700 34.79100
H  36.87900 1.48900 35.59400
H  36.86700 4.31400 35.31700
H  37.83700 3.71200 33.96600
H  38.29700 3.37200 35.65900
H  34.94400 0.33300 35.56800
H  33.30200 0.91000 35.02800
H  34.29200 0.85500 37.50300
H  32.92700 1.94200 36.89700
H  40.65900 0.53400 33.52400
H  41.92500 -0.33400 32.65000
H  40.62500 -1.16700 33.58200
H  42.49300 -1.56400 30.73600
H  42.75000 0.06800 30.71100
H  43.55300 -0.92200 29.42200
H  37.37800 -1.54400 25.95500
H  35.16000 0.25700 25.37600
H  37.98400 1.44500 26.08900
H  37.04600 1.07100 24.71900
H  38.69200 0.32400 24.97600
H  34.07500 -1.82000 26.84100
H  35.43400 -2.56900 26.11900
H  34.07900 -0.96300 24.01900
H  32.80600 -1.83200 24.84600
H  34.11300 -2.74100 24.06000
H  31.07400 1.73100 27.43000
H  30.17000 2.88500 28.53100
H  29.93800 1.19200 28.62300
H  31.79400 2.19600 33.82400
H  32.58300 6.28600 34.90600
H  32.04300 5.42200 36.39000
H  30.92500 6.38900 35.47500
Mg 46.66500 24.36900 28.33200
C  47.56300 26.75700 30.90300
C  46.08800 22.19100 30.87200
C  46.48900 22.10400 26.13800
C  47.82400 26.72700 26.02000
N  46.58900 24.57700 30.67600
C  46.99300 25.60300 31.47800
C  46.78100 25.23800 32.94500
C  46.38900 23.78400 32.94100
C  46.35000 23.48500 31.39800
C  47.32000 22.89200 33.70900
C  45.86700 26.17900 33.76600
C  46.52500 26.77900 35.09600
H  45.54300 27.19300 36.12800
N  46.17300 22.44100 28.40300
C  45.99300 21.73800 29.53900
C  45.48700 20.41100 29.17200
C  45.69300 20.30800 27.76600
C  46.09100 21.63100 27.35700
C  44.98600 19.34100 30.14000
C  45.37100 19.19600 26.81900
O  45.20400 19.32500 25.59900
C  45.03500 17.81500 27.47200
N  47.14300 24.38100 26.31500
C  46.75800 23.31200 25.58900
C  47.01200 23.54800 24.11300
C  47.14000 25.09700 24.07800
C  47.42400 25.48300 25.60600
C  48.30900 22.94000 23.50100
C  45.97000 25.92800 23.52600
C  44.76700 26.23100 24.40300
N  47.50000 26.35400 28.36500
C  47.91300 27.15400 27.37000
C  48.56300 28.32400 27.82700
C  48.39900 28.25500 29.21500
C  47.78600 26.99000 29.50400
C  49.17900 29.42500 26.97100
C  48.61300 28.91700 30.43900
O  49.06200 30.02700 30.62600
C  48.16300 27.97400 31.62100
C  49.29900 27.46400 32.46300
O  49.83700 26.37700 32.48000
O  49.72000 28.45000 33.33500
C  50.52600 28.08300 34.48200
H  45.87100 21.47700 31.66900
H  46.52100 21.31700 25.38100
H  48.01900 27.54000 25.31700
H  47.73600 25.26700 33.46900
H  45.34200 23.81300 33.24300
H  46.70600 22.06800 34.07200
H  47.75100 23.39800 34.57200
H  48.11900 22.48000 33.09200
H  45.00100 25.57500 34.03600
H  45.47700 27.01800 33.19000
H  47.14300 27.62600 34.79800
H  47.23400 26.03600 35.46100
H  44.00900 19.00300 29.79500
H  44.64900 19.81500 31.06200
H  45.72400 18.55300 30.28800
H  45.91000 17.31000 27.88100
H  44.82900 17.10500 26.67100
H  44.14300 17.69700 28.08800
H  46.11000 23.33700 23.53900
H  47.92200 25.40100 23.38200
H  49.10100 23.61900 23.18700
H  48.04400 22.28100 22.67400
H  48.72200 22.26400 24.25000
H  45.65600 25.36900 22.64400
H  46.43400 26.86500 23.21800
H  44.83900 25.72200 25.36500
H  43.82000 25.81700 24.05700
H  44.79000 27.31800 24.47600
H  49.59600 28.96800 26.07300
H  49.95700 29.96100 27.51300
H  48.45400 30.14500 26.59100
H  47.42200 28.44500 32.26600
H  50.47400 28.88900 35.21500
H  51.51500 27.76400 34.15500
H  50.16700 27.18600 34.98600

