158

Mg 48.70900 46.89900 42.64400
C  45.33900 47.22000 41.78300
C  48.79800 43.96100 41.05400
C  51.96600 47.06000 42.94300
C  48.51500 50.38600 43.77200
N  47.20500 45.74100 41.48200
C  45.86300 45.97600 41.37400
C  45.15100 44.79500 40.69200
C  46.35000 43.76900 40.52400
C  47.52700 44.51300 41.07700
C  46.12800 42.47800 41.47800
C  44.59200 45.21400 39.27500
C  43.13100 44.76100 39.04600
H  42.84600 43.93700 37.75000
N  50.16200 45.51100 42.26100
C  50.02500 44.34400 41.60700
C  51.32800 43.72900 41.57000
C  52.20600 44.52100 42.34100
C  51.45500 45.73700 42.57100
C  51.68900 42.38900 40.89300
C  53.56200 44.06100 42.76300
O  54.06200 43.01000 42.38500
C  54.43200 44.78800 43.68000
N  50.04000 48.60600 43.07700
C  51.37500 48.29800 43.25900
C  52.21100 49.55400 43.83600
C  51.03000 50.63400 43.96000
C  49.77100 49.86500 43.55800
C  52.94500 49.27600 45.14200
C  51.19400 51.91000 43.01200
C  50.52000 53.17200 43.56500
N  47.25100 48.50400 42.87700
C  47.30500 49.83800 43.33800
C  45.96900 50.37000 43.34600
C  45.15700 49.37500 42.77700
C  46.01600 48.28400 42.44100
C  45.58800 51.72000 43.90400
C  43.77200 49.08500 42.30300
O  42.74600 49.75000 42.39900
C  43.85700 47.59000 41.72100
C  43.08300 46.74600 42.66000
O  43.46300 46.34700 43.72800
O  41.82200 46.26900 42.18100
C  41.07900 45.39800 43.06300
H  48.78300 42.98500 40.56500
H  53.01000 46.98000 43.25500
H  48.58000 51.42600 44.09800
H  44.49000 44.31900 41.41700
H  46.53800 43.40400 39.51400
H  46.05500 41.64100 40.78300
H  45.19300 42.56600 42.03200
H  46.88500 42.37700 42.25500
H  45.20200 44.88700 38.43300
H  44.70800 46.29500 39.19800
H  42.45500 45.58200 38.80600
H  42.67600 44.34500 39.94500
H  52.36600 42.53900 40.05200
H  50.75100 42.14200 40.39700
H  51.98600 41.55200 41.52500
H  54.87400 45.66400 43.20500
H  55.28300 44.13800 43.88200
H  53.94900 45.02400 44.62900
H  52.89700 50.06600 43.16100
H  50.93000 51.03700 44.96700
H  53.82200 48.71000 44.82900
H  52.22100 48.70400 45.72100
H  53.29400 50.09900 45.76600
H  50.74000 51.71200 42.04200
H  52.21100 52.18800 42.73700
H  49.67200 53.57100 43.00700
H  51.28500 53.94900 43.57400
H  50.28300 53.00400 44.61500
H  46.31100 52.46100 43.56200
H  45.46900 51.95900 44.96100
H  44.68700 51.98300 43.34900
H  43.45700 47.57400 40.70800
H  41.18500 45.76600 44.08400
H  41.46800 44.38100 43.00900
H  40.02900 45.33400 42.78100
Mg 41.92900 40.93200 26.18100
C  40.95800 43.28600 28.71300
C  43.15700 38.87900 28.55300
C  43.05200 39.00400 23.67500
C  40.96400 43.39900 23.78300
N  41.86700 41.09600 28.35400
C  41.39100 42.06900 29.24400
C  41.48700 41.57100 30.71400
C  42.21100 40.19800 30.59200
C  42.43400 39.99900 29.04400
C  43.55900 39.88800 31.38300
C  39.95700 41.52000 31.23800
C  39.77800 40.92700 32.67500
H  38.96700 41.83100 33.63700
N  43.02300 39.23800 26.12900
C  43.36500 38.47800 27.25600
C  44.04100 37.29600 26.83500
C  44.04500 37.35700 25.41000
C  43.38100 38.55400 24.98500
C  44.65900 36.29000 27.83800
C  44.62100 36.39900 24.42400
O  44.80600 36.72500 23.25400
C  45.13800 35.01300 24.86600
N  42.09500 41.20500 24.05600
C  42.47900 40.21100 23.19700
C  42.38700 40.57000 21.70400
C  41.84500 42.03300 21.76200
C  41.63500 42.26100 23.32500
C  43.70500 40.32200 20.97000
C  40.57000 42.37300 20.93300
C  40.71200 43.29600 19.72400
N  41.09300 42.94300 26.13400
C  40.75100 43.77800 25.12700
C  40.26500 45.03700 25.62300
C  40.24300 44.82800 27.07900
C  40.79600 43.54800 27.31200
C  39.62000 46.14300 24.76200
C  39.89600 45.46200 28.32700
O  39.37200 46.54700 28.45400
C  40.22500 44.45000 29.47700
C  41.00300 44.95400 30.60200
O  42.20700 45.24700 30.51500
O  40.26900 45.01200 31.71000
C  41.03100 45.43500 32.87700
H  43.49000 38.17300 29.31600
H  43.27300 38.31200 22.86100
H  40.79000 44.19600 23.05700
H  41.95600 42.35500 31.30900
H  41.57800 39.35800 30.87900
H  44.36300 39.62900 30.69400
H  43.35300 39.02300 32.01300
H  43.96500 40.82600 31.76300
H  39.49700 40.86600 30.49800
H  39.43700 42.47700 31.29500
H  40.77400 40.84700 33.11000
H  39.27200 39.96200 32.65300
H  44.71400 35.30000 27.38700
H  44.22500 36.33600 28.83600
H  45.66300 36.71200 27.79400
H  45.95100 35.20700 25.56600
H  45.46800 34.44500 23.99600
H  44.34200 34.37900 25.25800
H  41.63800 39.88500 21.30700
H  42.63600 42.69800 21.41500
H  44.28200 41.23800 21.09700
H  43.58800 40.04500 19.92200
H  44.35000 39.65500 21.54200
H  39.85200 42.72000 21.67600
H  40.30000 41.38100 20.57000
H  40.56100 42.67900 18.83800
H  41.64400 43.86100 19.70700
H  39.88800 44.00800 19.77600
H  40.42400 46.69100 24.27100
H  39.01200 46.76400 25.42100
H  38.93300 45.64700 24.07700
H  39.29000 44.01200 29.82700
H  40.38200 45.65900 33.72300
H  41.61600 46.35200 32.80600
H  41.70200 44.61500 33.13600

