158

Mg -2.36000 33.41000 25.81600
C  -4.04500 31.99800 28.60900
C  -0.59700 35.35700 28.03400
C  -0.74700 34.59700 23.19700
C  -4.35500 31.40300 23.71800
N  -2.51000 33.86700 28.07300
C  -3.11400 32.96800 29.00100
C  -2.71100 33.22800 30.40400
C  -1.73000 34.47600 30.27000
C  -1.64600 34.61400 28.69200
C  -2.07200 35.89400 30.96300
C  -1.99000 31.99100 31.09100
C  -1.79100 32.08400 32.59000
H  -2.93900 31.54400 33.50100
N  -0.95500 34.87900 25.63600
C  -0.33100 35.53500 26.65300
C  0.69300 36.38800 25.99400
C  0.60100 36.31000 24.62000
C  -0.43500 35.24900 24.41100
C  1.53000 37.35600 26.82200
C  1.28600 37.08700 23.52600
O  1.15200 36.78900 22.33400
C  2.26300 38.19800 23.87800
N  -2.69700 33.21200 23.75200
C  -1.74900 33.72600 22.85400
C  -1.96100 33.22100 21.44200
C  -2.92000 31.98000 21.68400
C  -3.38300 32.25500 23.10900
C  -2.60200 34.25000 20.51500
C  -2.37900 30.61600 21.61900
C  -3.22200 29.65300 20.82200
N  -3.81600 31.97200 26.04300
C  -4.55400 31.23500 25.08900
C  -5.32300 30.23300 25.76400
C  -5.18800 30.56000 27.07400
C  -4.24300 31.62300 27.24600
C  -6.31900 29.28600 25.14100
C  -5.68000 30.18000 28.43600
O  -6.52000 29.35400 28.82500
C  -5.06900 31.17100 29.39700
C  -6.13000 31.98700 30.06500
O  -6.97600 32.58900 29.48100
O  -6.10300 31.74900 31.45100
C  -7.14700 32.40300 32.24600
H  0.03800 35.94300 28.70100
H  -0.17600 34.94700 22.33500
H  -4.96700 30.71900 23.12700
H  -3.53100 33.65100 30.98400
H  -0.70200 34.28700 30.57900
H  -2.41900 36.52500 30.14400
H  -1.16700 36.37400 31.33500
H  -2.85600 36.02300 31.70900
H  -1.05400 31.80500 30.56500
H  -2.64400 31.13600 30.91900
H  -1.83500 33.16500 32.72400
H  -0.83900 31.70200 32.95700
H  2.57800 37.20200 26.56300
H  1.44700 37.21000 27.89900
H  1.39000 38.41600 26.61200
H  1.79900 39.03500 24.40100
H  2.71300 38.59100 22.96600
H  3.03900 37.79800 24.53000
H  -0.99300 32.89700 21.06000
H  -3.71300 32.04600 20.94000
H  -2.83700 35.10000 21.15600
H  -3.40000 33.86500 19.88000
H  -1.78300 34.54100 19.85800
H  -2.18000 30.17100 22.59400
H  -1.39000 30.59000 21.16000
H  -4.16600 30.09100 20.49900
H  -3.53100 28.80600 21.43400
H  -2.71400 29.23600 19.95200
H  -7.15300 29.86300 24.74200
H  -6.52800 28.61900 25.97700
H  -5.85100 28.85600 24.25500
H  -4.53200 30.54800 30.11100
H  -6.83900 32.60600 33.27200
H  -8.04000 31.77900 32.27200
H  -7.40300 33.37600 31.82700
Mg -13.20400 15.88200 41.52600
C  -10.06300 14.26300 41.22000
C  -11.89000 18.56000 39.77600
C  -16.33500 17.18700 41.12600
C  -14.52300 12.74400 42.37400
N  -11.20100 16.31500 40.67300
C  -10.06700 15.53100 40.61600
C  -8.89700 16.24300 39.89600
C  -9.57100 17.62400 39.46100
C  -11.00100 17.47800 39.98200
C  -8.87300 18.80100 40.11100
C  -8.19700 15.46200 38.64600
C  -6.67300 15.85300 38.56800
H  -6.19200 16.38900 37.29400
N  -13.98600 17.67100 40.76300
C  -13.22600 18.65500 40.14700
C  -14.05400 19.80400 39.98100
C  -15.41100 19.48800 40.29100
C  -15.29300 18.05000 40.77700
C  -13.45600 21.12200 39.45000
C  -16.59000 20.28500 40.00400
O  -16.60200 21.45600 39.51400
C  -17.98600 19.77000 40.22000
N  -15.13900 15.12000 41.67500
C  -16.26500 15.84800 41.60500
C  -17.52300 14.95500 41.81400
C  -16.98900 13.66000 42.29400
C  -15.44600 13.82300 42.11000
C  -18.67100 15.53800 42.75100
C  -17.53900 12.31800 41.59300
C  -18.15500 11.13500 42.47000
N  -12.41600 13.97300 42.03700
C  -13.08300 12.82900 42.31500
C  -12.17800 11.75400 42.56000
C  -10.98200 12.32800 42.02800
C  -11.18800 13.64400 41.72900
C  -12.42800 10.36300 43.00400
C  -9.54400 11.91500 41.76800
O  -8.93000 10.85900 42.10200
C  -8.95300 13.22000 41.23200
C  -7.78400 13.51500 42.10300
O  -7.88300 14.04200 43.19400
O  -6.61100 13.19100 41.49600
C  -5.46000 13.75500 42.22800
H  -11.57400 19.44300 39.21700
H  -17.39100 17.46300 41.08400
H  -14.91500 11.77700 42.69800
H  -8.24400 16.47200 40.73800
H  -9.57000 17.84300 38.39300
H  -9.03200 19.72300 39.55300
H  -7.81600 18.53800 40.15900
H  -9.24300 18.94800 41.12500
H  -8.55500 15.92900 37.72800
H  -8.25800 14.38200 38.51000
H  -6.19400 14.93300 38.90400
H  -6.45300 16.70900 39.20600
H  -13.13000 21.01300 38.41600
H  -12.60900 21.58500 39.95600
H  -14.22500 21.89400 39.45200
H  -18.26500 19.89000 41.26600
H  -18.12600 18.82000 39.70400
H  -18.65500 20.33900 39.57400
H  -18.05300 14.69800 40.89700
H  -17.06800 13.55400 43.37600
H  -19.64000 15.43700 42.26400
H  -18.53100 16.59200 42.99100
H  -18.69600 15.02800 43.71300
H  -16.74400 11.80800 41.04900
H  -18.39500 12.50300 40.94400
H  -17.98400 11.12000 43.54700
H  -17.61500 10.25600 42.11800
H  -19.21500 10.91800 42.34100
H  -11.52800 9.77100 43.16900
H  -13.10200 10.02200 42.21800
H  -13.01100 10.42800 43.92300
H  -8.50900 13.00000 40.26100
H  -5.14400 13.07600 43.02000
H  -5.69400 14.75400 42.59700
H  -4.72900 13.91600 41.43600

