158

Mg 48.14700 16.04600 28.71800
C  46.12400 16.08300 31.55700
C  50.40200 18.10500 30.53000
C  49.64200 17.01700 25.83100
C  45.54300 14.71200 26.98700
N  48.35000 16.83800 30.88700
C  47.35100 16.73200 31.80300
C  47.83800 17.29700 33.09900
C  48.94900 18.28600 32.59100
C  49.27600 17.72400 31.21600
C  48.64000 19.78500 32.62000
C  48.22800 16.07600 34.03300
C  47.74000 16.28300 35.45800
H  47.32700 17.65500 35.97600
N  49.81600 17.27200 28.31900
C  50.75000 17.82100 29.17800
C  51.87500 18.36900 28.45700
C  51.60700 18.18700 27.08200
C  50.25000 17.46000 27.02700
C  53.09800 19.02000 29.12000
C  52.40500 18.63400 25.81700
O  52.06500 18.35700 24.69300
C  53.66000 19.57600 25.95000
N  47.59300 16.05700 26.72100
C  48.40000 16.36600 25.72400
C  47.96800 15.90900 24.35800
C  46.81300 15.01100 24.71800
C  46.64800 15.19100 26.23300
C  47.49300 17.06300 23.45900
C  47.12200 13.46500 24.48900
C  45.95700 12.64700 23.94300
N  46.28700 15.19200 29.23200
C  45.34800 14.62900 28.39600
C  44.20700 14.15500 29.15500
C  44.45300 14.64400 30.46700
C  45.67500 15.40100 30.43500
C  42.93200 13.63300 28.52600
C  43.88500 14.90300 31.75600
O  42.86700 14.55300 32.30600
C  45.05000 15.72500 32.56200
C  44.39700 16.84500 33.33100
O  44.04900 17.93800 32.84300
O  44.25900 16.44900 34.61000
C  43.33700 17.34300 35.37900
H  51.14200 18.67500 31.09500
H  50.25600 17.16500 24.94000
H  44.71800 14.18700 26.50100
H  47.05100 17.92700 33.51300
H  49.84800 18.16200 33.19400
H  47.67800 20.07400 33.04200
H  48.77100 20.24800 31.64200
H  49.33800 20.29400 33.28500
H  49.31200 15.96000 34.01700
H  47.66500 15.23700 33.62300
H  48.54400 16.05400 36.15700
H  46.98200 15.51900 35.62900
H  53.21000 20.01000 28.67700
H  53.90300 18.32100 28.89000
H  52.85800 19.22100 30.16400
H  53.88400 19.86600 24.92300
H  54.49100 19.05500 26.42500
H  53.37300 20.50500 26.44300
H  48.80400 15.36000 23.92500
H  45.88600 15.12000 24.15500
H  46.53100 16.85400 22.99200
H  48.29600 17.11700 22.72400
H  47.39500 17.95200 24.08300
H  47.40700 13.11100 25.47900
H  47.97400 13.43300 23.80900
H  46.31100 12.07100 23.08800
H  45.01600 13.15900 23.74200
H  45.74100 12.00200 24.79400
H  42.09300 14.13500 29.00700
H  42.87700 12.56700 28.74800
H  42.86700 13.75400 27.44500
H  45.38400 15.05200 33.35200
H  42.56200 17.73900 34.72200
H  43.87900 18.10600 35.93700
H  42.82300 16.86900 36.21600
Mg 30.50400 56.88400 39.78100
C  27.96800 54.86800 38.83800
C  32.78000 54.45900 38.88900
C  32.92000 59.26000 39.66600
C  28.06000 59.37000 40.52300
N  30.32700 54.88900 39.01600
C  29.16600 54.24600 38.82600
C  29.47100 52.79500 38.42100
C  30.94400 52.65300 38.66400
C  31.39700 54.08600 39.01600
C  31.27200 51.50200 39.62900
C  28.98000 52.37800 37.06000
C  29.36100 53.28100 35.77600
H  28.24300 53.67300 34.76900
N  32.59300 56.85100 39.34300
C  33.31700 55.74200 39.05300
C  34.69500 56.17300 38.84700
C  34.72900 57.60100 38.94200
C  33.41500 57.95800 39.39100
C  35.78200 55.27800 38.29900
C  35.82700 58.53300 38.56200
O  36.90400 58.06400 38.31400
C  35.69800 60.05600 38.52900
N  30.52900 58.97300 40.20000
C  31.65200 59.75400 40.09000
C  31.27900 61.26000 40.11200
C  29.91700 61.23500 40.75900
C  29.41800 59.79700 40.48800
C  32.39600 62.05200 40.84900
C  28.97000 62.35400 40.14000
C  28.09200 63.11800 41.23100
N  28.39800 57.14000 39.81600
C  27.54200 58.15900 40.17000
C  26.20900 57.75000 40.02800
C  26.30500 56.46700 39.48300
C  27.67300 56.16300 39.34500
C  24.90700 58.43700 40.36000
C  25.57100 55.40800 38.95000
O  24.35600 55.22500 38.89000
C  26.61300 54.24300 38.52000
C  26.21300 53.03200 39.30800
O  26.43000 52.86700 40.50200
O  25.46000 52.19700 38.51300
C  24.68100 51.23500 39.22800
H  33.35100 53.58400 38.57200
H  33.61500 60.08700 39.50500
H  27.36500 60.20600 40.61900
H  28.90100 52.23600 39.16300
H  31.44000 52.53000 37.70100
H  30.37800 51.09000 40.09900
H  31.92700 51.86100 40.42300
H  31.99200 50.80800 39.19500
H  27.90300 52.21100 37.09400
H  29.52500 51.43600 37.00300
H  29.99800 52.64700 35.15800
H  29.83000 54.22700 36.04700
H  36.71200 55.22600 38.86400
H  36.17200 55.56600 37.32200
H  35.43700 54.24800 38.19900
H  36.60000 60.51200 38.12000
H  35.46300 60.61600 39.43400
H  34.85700 60.21100 37.85300
H  31.22700 61.57700 39.07100
H  29.91600 61.24800 41.84900
H  33.01600 62.50900 40.07800
H  33.09300 61.45000 41.43200
H  31.92700 62.81900 41.46500
H  28.30000 61.89800 39.41100
H  29.40900 63.10500 39.48200
H  27.02700 62.97500 41.04700
H  28.21300 64.20200 41.25000
H  28.33100 62.80200 42.24600
H  24.27800 57.71700 40.88400
H  24.38700 58.73400 39.45000
H  25.17700 59.24400 41.04100
H  26.52600 54.12400 37.44000
H  25.35000 50.50900 39.68900
H  24.02700 50.77000 38.49000
H  24.17700 51.87300 39.95500

