158

Mg 6.74800 53.04900 41.77100
C  5.48100 49.66800 41.45300
C  9.64600 51.94100 40.28600
C  7.62300 56.26500 41.42000
C  3.40000 54.06800 42.31600
N  7.45200 51.09300 40.83200
C  6.79800 49.88100 40.91100
C  7.71700 48.75300 40.33500
C  9.14800 49.41400 40.32600
C  8.78800 50.91900 40.43000
C  9.98000 49.04300 41.58200
C  7.41400 48.22300 38.92700
C  6.90800 49.25300 37.84900
H  5.59300 49.18400 37.17400
N  8.41800 54.02200 40.92400
C  9.55800 53.36700 40.50300
C  10.54700 54.37700 40.22400
C  10.04700 55.61000 40.63400
C  8.60100 55.37200 41.01500
C  11.91300 53.94900 39.77200
C  10.71600 56.92200 40.61700
O  11.73500 57.02000 40.04500
C  10.19700 58.19300 41.10300
N  5.66300 54.85400 41.86400
C  6.29700 56.04400 41.72400
C  5.35800 57.20700 42.12800
C  3.98300 56.49400 42.24100
C  4.36800 55.02300 42.10500
C  5.77700 57.99600 43.27400
C  2.93300 56.88700 41.14500
C  1.50600 57.07200 41.48800
N  4.81500 52.13200 42.03900
C  3.53000 52.66900 42.24100
C  2.52700 51.64900 42.36900
C  3.28700 50.43900 42.09800
C  4.62500 50.77800 41.83000
C  1.10000 51.94500 42.66500
C  3.16700 48.97900 41.91800
O  2.18200 48.25700 41.83900
C  4.64800 48.40400 41.76100
C  4.59700 47.30100 40.72400
O  4.31500 47.36100 39.56900
O  5.16000 46.19700 41.30200
C  5.43200 45.11900 40.39000
H  10.62800 51.56600 39.99000
H  7.77800 57.34200 41.32500
H  2.36400 54.27100 42.59300
H  7.78400 47.88700 40.99300
H  9.69500 49.14400 39.42300
H  10.97800 48.64500 41.39700
H  9.54900 48.19800 42.11900
H  9.87100 49.85100 42.30400
H  6.71400 47.38800 38.94000
H  8.34700 47.82700 38.52500
H  7.60900 49.18400 37.01800
H  6.81900 50.26000 38.25600
H  12.34400 54.77900 39.21200
H  11.95100 53.03600 39.17800
H  12.49400 53.68100 40.65500
H  10.97100 58.93700 41.29000
H  9.60400 58.05400 42.00600
H  9.55100 58.66200 40.36100
H  5.39900 57.90400 41.29100
H  3.52800 56.38000 43.22500
H  5.92100 59.04200 43.00200
H  6.73400 57.78000 43.75000
H  4.92400 58.00600 43.95300
H  3.03100 56.00500 40.51300
H  3.30600 57.71800 40.54800
H  0.91600 56.53200 40.74800
H  1.20700 58.10800 41.32800
H  1.25000 56.70700 42.48200
H  0.57500 52.37900 41.81300
H  1.08500 52.55000 43.57200
H  0.61600 51.00700 42.93800
H  4.92300 47.88000 42.67700
H  5.64100 45.51300 39.39600
H  4.59800 44.44000 40.21300
H  6.28300 44.51900 40.71100
Mg -5.67000 25.75300 25.62400
C  -4.36400 26.90200 28.69800
C  -7.56800 23.62900 27.42800
C  -6.51000 24.35500 22.71900
C  -3.50600 27.94900 23.95800
N  -5.74600 25.16600 27.79300
C  -5.15900 25.81500 28.83000
C  -5.72600 25.33200 30.16700
C  -6.52500 23.97800 29.79100
C  -6.65600 24.26000 28.25900
C  -5.94800 22.64000 30.17000
C  -6.64400 26.39800 30.74900
C  -6.59600 26.63000 32.24600
H  -5.98200 25.49200 33.05900
N  -7.01200 24.34000 25.13600
C  -7.73200 23.61600 26.01400
C  -8.66800 22.83800 25.27600
C  -8.24700 22.79500 23.92800
C  -7.21400 23.87600 23.86800
C  -9.84200 22.13700 25.92700
C  -8.68300 22.00900 22.73600
O  -8.11800 22.13200 21.66700
C  -9.88900 21.12400 22.90200
N  -5.06900 26.09000 23.56000
C  -5.56100 25.35200 22.55000
C  -4.99500 25.84600 21.28800
C  -3.95600 26.91200 21.67500
C  -4.19800 27.06100 23.13300
C  -4.38500 24.69900 20.43500
C  -4.14600 28.20000 20.89700
C  -2.84700 28.94700 20.67900
N  -4.14200 27.07700 26.20400
C  -3.39700 27.97000 25.35700
C  -2.61700 28.80700 26.19300
C  -3.03200 28.47000 27.52800
C  -3.88800 27.41500 27.46100
C  -1.65500 29.86400 25.69300
C  -2.81000 28.83600 28.85700
O  -2.06500 29.62200 29.35400
C  -3.71500 27.83500 29.73400
C  -2.80100 27.14500 30.64700
O  -2.24300 26.10400 30.44400
O  -2.69100 27.92400 31.76600
C  -1.89100 27.30900 32.81900
H  -8.17100 22.95600 28.04100
H  -6.76400 23.92400 21.74900
H  -3.02200 28.86900 23.62500
H  -4.90400 25.03500 30.81800
H  -7.52500 23.94200 30.22400
H  -6.67300 22.09500 30.77500
H  -5.17400 22.93000 30.88000
H  -5.63200 22.03400 29.32000
H  -7.67900 26.10400 30.57700
H  -6.63400 27.31500 30.16100
H  -7.59500 26.76900 32.65900
H  -6.01900 27.54400 32.38900
H  -9.96700 22.47100 26.95700
H  -9.80400 21.04900 25.98800
H  -10.82100 22.26000 25.46300
H  -10.78200 21.68400 23.18000
H  -9.65100 20.35200 23.63300
H  -9.98400 20.65300 21.92300
H  -5.73100 26.29400 20.62200
H  -2.97100 26.44700 21.69800
H  -3.37800 24.86200 20.05400
H  -4.97500 24.55600 19.53000
H  -4.40600 23.72900 20.93300
H  -4.81500 28.80300 21.51100
H  -4.65200 28.04900 19.94400
H  -1.96400 28.31100 20.61300
H  -2.73800 29.71700 21.44200
H  -2.91600 29.49800 19.74100
H  -1.34300 30.50000 26.52100
H  -2.10400 30.52500 24.95100
H  -0.66800 29.50600 25.39700
H  -4.50400 28.37600 30.25600
H  -0.88200 27.04100 32.50300
H  -2.40500 26.43000 33.20900
H  -1.89300 27.97300 33.68300

