158

Mg -2.39100 17.26600 26.26700
C  -2.97400 14.74300 28.72300
C  -3.09300 19.57800 28.43200
C  -2.44000 19.44400 23.73800
C  -2.80800 14.63100 23.88900
N  -3.15200 17.14900 28.32200
C  -3.06200 16.05100 29.22300
C  -3.13700 16.55300 30.64900
C  -3.41900 18.06400 30.46700
C  -3.27500 18.31100 28.99800
C  -4.69600 18.53700 31.14200
C  -1.88800 16.18000 31.52700
C  -1.82200 16.98100 32.82900
H  -1.76300 16.22300 34.12200
N  -2.45300 19.30700 26.18500
C  -2.72200 20.12800 27.25900
C  -2.45500 21.53000 26.79800
C  -2.23100 21.45300 25.35100
C  -2.37800 20.04900 25.00300
C  -2.67900 22.68100 27.70200
C  -1.81300 22.51700 24.33400
O  -1.67200 22.32800 23.15000
C  -1.60400 23.89400 24.78200
N  -2.60100 17.04500 24.14900
C  -2.52900 18.12000 23.32400
C  -2.74500 17.76500 21.87400
C  -2.76300 16.21900 21.93800
C  -2.68200 15.92100 23.43300
C  -4.05300 18.43800 21.40100
C  -1.65200 15.56000 21.06400
C  -2.14200 14.81400 19.85900
N  -2.68000 15.13800 26.28200
C  -2.69000 14.24000 25.23600
C  -2.77300 12.86000 25.74700
C  -2.81700 12.99300 27.11700
C  -2.89200 14.41800 27.37400
C  -2.98800 11.55300 24.93600
C  -2.94500 12.30100 28.35600
O  -2.96700 11.06500 28.57200
C  -3.09700 13.36300 29.43100
C  -1.90400 13.09800 30.34800
O  -0.86200 13.68900 30.31500
O  -2.33100 12.17600 31.28400
C  -1.50600 12.10700 32.55700
H  -3.14700 20.21300 29.31900
H  -2.36100 20.08400 22.85700
H  -2.84900 13.85100 23.12600
H  -3.93600 16.06300 31.20600
H  -2.51500 18.56000 30.82000
H  -5.37600 18.86400 30.35600
H  -4.48200 19.41200 31.75600
H  -5.16100 17.73100 31.71000
H  -0.93700 16.26300 31.00100
H  -1.88100 15.13000 31.82100
H  -2.62700 17.70700 32.93900
H  -0.90300 17.55600 32.71400
H  -3.02500 22.46800 28.71400
H  -3.41000 23.38900 27.31000
H  -1.70200 23.14800 27.82200
H  -0.97700 23.96300 25.67100
H  -2.54400 24.33200 25.11900
H  -1.24900 24.48600 23.93900
H  -1.90900 18.19700 21.32400
H  -3.73800 15.85900 21.60800
H  -4.38900 19.15400 22.15000
H  -4.81700 17.70200 21.14700
H  -3.86800 19.09100 20.54800
H  -1.12200 14.81700 21.66100
H  -0.86200 16.23900 20.74500
H  -2.72500 13.93000 20.11600
H  -1.21800 14.50900 19.36900
H  -2.66400 15.47300 19.16500
H  -4.04000 11.27600 24.87300
H  -2.43600 10.71000 25.35000
H  -2.58700 11.67800 23.93000
H  -4.04200 13.12200 29.91900
H  -1.31500 13.11800 32.91900
H  -0.59100 11.57700 32.29500
H  -1.93100 11.46300 33.32700
Mg 36.07100 49.45600 24.60200
C  36.05900 47.65100 27.57500
C  34.60400 52.08300 26.18000
C  35.86900 50.97400 21.61300
C  37.24300 46.52500 23.03300
N  35.32700 49.75100 26.62700
C  35.65400 48.97200 27.73900
C  35.54700 49.75400 29.04500
C  34.85700 51.11100 28.55800
C  34.97400 51.01600 27.05100
C  33.44700 51.30700 28.98300
C  36.82800 49.85500 29.93700
C  36.57500 49.68200 31.50100
H  35.17100 49.81900 32.07700
N  35.31500 51.18400 24.03200
C  34.78700 52.19500 24.79900
C  34.43200 53.32100 24.03000
C  34.85800 53.07000 22.70500
C  35.40700 51.68100 22.71300
C  33.78200 54.50400 24.65700
C  34.78100 53.97500 21.47500
O  35.16600 53.62400 20.33500
C  34.01400 55.36500 21.54700
N  36.29700 48.77600 22.51500
C  36.29000 49.66400 21.48100
C  36.72800 49.02800 20.13900
C  37.33300 47.67400 20.65300
C  36.90900 47.61800 22.15800
C  35.62200 48.93700 19.08300
C  38.89200 47.49400 20.37300
C  39.99000 47.96100 21.34000
N  36.47500 47.43300 25.07300
C  37.00200 46.36900 24.40900
C  37.17600 45.18600 25.25300
C  36.77200 45.69600 26.50500
C  36.38600 47.04700 26.31700
C  37.53400 43.86800 24.67600
C  36.64600 45.30000 27.86900
O  36.79100 44.22600 28.40900
C  36.18100 46.56700 28.65000
C  35.01600 46.35600 29.43500
O  33.86300 46.46500 28.94900
O  35.34900 45.95900 30.74800
C  34.25300 45.27300 31.39200
H  34.36100 53.00200 26.71700
H  35.86600 51.52400 20.67000
H  37.70200 45.67900 22.51700
H  34.82100 49.09000 29.51400
H  35.34000 51.94400 29.06800
H  33.06700 50.59200 29.71200
H  32.76600 51.29200 28.13100
H  33.28400 52.29300 29.41700
H  37.11100 50.90600 29.88500
H  37.62600 49.23900 29.52200
H  37.20300 50.37000 32.06700
H  37.01200 48.69000 31.61500
H  34.51700 55.19900 25.06200
H  33.28900 54.17300 25.57100
H  32.99600 55.00700 24.09500
H  32.93000 55.25000 21.52300
H  34.36900 55.99800 20.73400
H  34.32800 55.88600 22.45100
H  37.50800 49.60000 19.63700
H  36.80300 46.86800 20.14600
H  34.65900 49.02600 19.58500
H  35.79200 48.00400 18.54500
H  35.81700 49.75800 18.39400
H  39.22400 47.98600 19.45900
H  38.96400 46.41800 20.21500
H  39.59900 48.15700 22.33800
H  40.56900 48.79100 20.93600
H  40.74400 47.19100 21.50500
H  37.63400 43.14600 25.48700
H  38.53600 43.99200 24.26600
H  36.71100 43.77200 23.96800
H  37.06900 46.87900 29.19900
H  33.35200 45.85700 31.20000
H  34.23100 45.42100 32.47200
H  34.25900 44.23000 31.07700

