158

Mg 53.65700 23.73000 44.51300
C  50.91900 25.72300 43.80900
C  51.99900 21.06400 43.04800
C  56.60800 22.04600 44.40700
C  55.42600 26.56800 45.41600
N  51.74800 23.55100 43.34100
C  50.76000 24.42700 43.38900
C  49.60900 23.91500 42.49200
C  49.75500 22.33700 42.61700
C  51.28800 22.28300 43.02000
C  48.66200 21.54200 43.52700
C  49.74000 24.36900 41.03000
C  48.45200 24.36800 40.14500
H  48.03000 22.95300 39.63100
N  54.18300 21.81600 43.82800
C  53.27100 20.82900 43.41800
C  53.89800 19.56700 43.42600
C  55.25900 19.81400 43.83200
C  55.44200 21.28400 44.02000
C  53.23200 18.26500 43.14600
C  56.32600 18.71300 43.87500
O  56.09900 17.55900 43.55800
C  57.69900 18.94900 44.28300
N  55.83900 24.29600 44.53300
C  56.77100 23.39000 44.67300
C  58.15400 23.99100 44.83400
C  57.82200 25.53000 45.15200
C  56.23300 25.49700 45.05000
C  58.98000 23.22300 45.91800
C  58.48700 26.58000 44.19800
C  59.65900 27.31300 44.81400
N  53.23100 25.70700 44.75500
C  54.04300 26.73900 45.17400
C  53.28700 27.93600 45.40900
C  52.02800 27.60900 44.87400
C  52.05900 26.23900 44.47000
C  53.79800 29.07900 46.14000
C  50.69800 28.12600 44.58800
O  50.18900 29.21700 44.81500
C  50.01100 26.88000 43.73900
C  49.55700 27.42100 42.47200
O  50.27800 27.88500 41.60700
O  48.23100 27.36400 42.44100
C  47.51000 28.06300 41.35700
H  51.51000 20.14400 42.72300
H  57.52600 21.48700 44.59800
H  55.97700 27.41900 45.82200
H  48.64400 24.27000 42.85400
H  49.70500 21.88000 41.62800
H  48.63600 21.88300 44.56200
H  49.01900 20.51300 43.56900
H  47.65600 21.35500 43.15300
H  50.40200 23.69700 40.48300
H  50.11800 25.37700 40.86100
H  48.75700 25.04400 39.34700
H  47.61100 24.77400 40.70700
H  53.70300 17.50900 43.77400
H  53.41500 17.97300 42.11200
H  52.17500 18.32800 43.40700
H  58.17200 19.37900 43.40100
H  58.11700 17.98000 44.55500
H  57.71800 19.53700 45.20100
H  58.53000 23.90300 43.81500
H  57.94900 25.81000 46.19800
H  59.48600 23.84800 46.65300
H  59.66900 22.54200 45.41600
H  58.25800 22.66300 46.51200
H  57.75900 27.38000 44.06600
H  58.91000 26.22300 43.25900
H  59.30800 28.31800 45.05000
H  60.57300 27.24100 44.22500
H  59.94900 26.88300 45.77300
H  54.86700 29.29600 46.13900
H  53.58400 29.03400 47.20800
H  53.26300 29.93500 45.72800
H  49.05600 26.72900 44.24100
H  47.95400 27.70500 40.42800
H  47.79500 29.11400 41.39300
H  46.42600 27.94900 41.33700
Mg -4.87600 24.93800 26.44200
C  -3.35400 26.66900 29.10400
C  -5.82000 22.65800 28.75100
C  -6.34700 23.54700 23.90500
C  -3.30700 27.32300 24.18600
N  -4.69000 24.80100 28.68100
C  -4.18000 25.65900 29.53300
C  -4.51500 25.35200 30.96000
C  -4.75800 23.77900 30.95300
C  -5.13500 23.74600 29.39500
C  -3.45200 22.99700 31.23600
C  -5.74100 26.17100 31.50900
C  -5.49400 26.94800 32.83800
H  -4.96000 26.18800 34.03400
N  -5.99200 23.31500 26.28500
C  -6.25900 22.45000 27.38900
C  -7.11300 21.40400 26.88300
C  -7.32200 21.69100 25.46800
C  -6.50500 22.89700 25.15700
C  -7.55000 20.27400 27.70100
C  -8.15300 21.00800 24.38400
O  -8.23900 21.27300 23.20200
C  -9.12000 19.96800 24.88300
N  -4.62400 25.28100 24.33300
C  -5.53700 24.68100 23.56400
C  -5.40200 25.13400 22.09600
C  -4.30600 26.21000 22.11100
C  -4.07800 26.33500 23.64300
C  -5.05500 23.94000 21.15400
C  -4.71700 27.56100 21.43100
C  -3.82600 28.01200 20.27500
N  -3.55400 26.59400 26.57100
C  -3.04900 27.44100 25.58800
C  -2.18700 28.40400 26.22800
C  -2.27100 28.13400 27.59300
C  -3.13700 27.06400 27.72900
C  -1.36300 29.59500 25.71500
C  -1.74400 28.58100 28.92600
O  -0.95700 29.45500 29.27600
C  -2.62300 27.69000 29.90900
C  -1.69000 27.10200 30.91500
O  -0.69900 26.44900 30.65700
O  -1.97300 27.40000 32.17100
C  -1.04600 26.95500 33.20500
H  -6.06400 21.86100 29.45700
H  -6.92400 23.25300 23.02500
H  -2.88800 28.12700 23.57700
H  -3.69800 25.63400 31.62400
H  -5.53800 23.57200 31.68600
H  -3.53400 22.35500 32.11400
H  -2.63100 23.69100 31.41400
H  -3.22800 22.38500 30.36200
H  -6.67500 25.61400 31.58000
H  -5.99500 26.92800 30.76700
H  -6.41900 27.33500 33.26400
H  -4.86600 27.83200 32.73400
H  -8.63900 20.24400 27.73900
H  -7.13700 20.29800 28.70900
H  -7.15300 19.35900 27.26200
H  -8.56500 19.06300 25.13000
H  -9.72600 19.71000 24.01500
H  -9.75000 20.35800 25.68200
H  -6.32000 25.51300 21.64500
H  -3.32200 25.84800 21.81300
H  -5.80100 23.88400 20.36100
H  -5.05400 22.98100 21.67300
H  -4.04700 24.07500 20.76200
H  -4.78200 28.34500 22.18400
H  -5.69100 27.34400 20.99200
H  -2.89500 28.53200 20.50000
H  -4.42300 28.66200 19.63600
H  -3.61400 27.23100 19.54400
H  -1.48300 29.71200 24.63800
H  -0.28400 29.45200 25.76800
H  -1.62000 30.43200 26.36500
H  -3.29000 28.31500 30.50200
H  -0.82200 25.89100 33.12400
H  -1.61500 27.21800 34.09600
H  -0.08900 27.47300 33.25700

