158

Mg 46.79500 16.81600 28.30200
C  45.38100 16.58400 31.51500
C  49.35400 18.62900 29.73000
C  47.69700 17.73700 25.22300
C  43.80700 15.53700 26.95900
N  47.22200 17.57100 30.42900
C  46.67300 17.12500 31.59900
C  47.41400 17.53800 32.84700
C  48.68500 18.22500 32.23100
C  48.37300 18.14900 30.64100
C  49.04600 19.65100 32.72800
C  47.69000 16.26100 33.78000
C  47.24600 16.32400 35.23300
H  46.97400 17.68300 35.88400
N  48.31100 17.95000 27.54300
C  49.29900 18.51100 28.27900
C  50.19100 19.15900 27.36400
C  49.68100 19.01700 26.08200
C  48.46300 18.29600 26.28000
C  51.43300 19.78000 27.84000
C  50.27400 19.53200 24.74500
O  49.89900 19.21900 23.60900
C  51.43800 20.53700 24.75300
N  45.81000 16.73500 26.33700
C  46.53100 17.02600 25.20100
C  45.71800 16.64100 23.97200
C  44.48300 15.89600 24.58700
C  44.70500 16.02900 26.05000
C  45.27000 17.86300 22.99900
C  44.46500 14.40900 24.07000
C  43.38200 14.12300 22.91300
N  44.93600 16.09100 29.04600
C  43.86600 15.61100 28.40000
C  42.84400 15.31900 29.34400
C  43.38000 15.66600 30.62800
C  44.70900 16.11100 30.37300
C  41.55000 14.63800 29.09000
C  43.09300 15.69200 32.00400
O  42.06800 15.36500 32.61600
C  44.42000 16.32400 32.70000
C  43.92700 17.51100 33.49000
O  43.63500 18.62100 33.00300
O  43.66500 17.12800 34.80700
C  42.91700 18.02500 35.62000
H  50.16600 19.13500 30.25500
H  48.10900 17.89800 24.22400
H  42.91900 15.12000 26.47900
H  46.92400 18.36500 33.36000
H  49.55900 17.58500 32.34700
H  48.41000 19.89000 33.58000
H  48.63900 20.30000 31.95300
H  50.11100 19.86500 32.82600
H  48.72600 15.92300 33.81600
H  47.17800 15.43300 33.29000
H  48.05200 15.83400 35.77900
H  46.33600 15.73200 35.33500
H  51.54500 19.67500 28.91900
H  51.34500 20.80100 27.46800
H  52.24500 19.25200 27.33900
H  52.30800 20.03000 25.16800
H  51.23900 21.35700 25.44300
H  51.65800 20.99300 23.78700
H  46.38600 15.96700 23.43600
H  43.57600 16.40800 24.26500
H  44.20200 18.08300 23.00900
H  45.49400 17.53400 21.98500
H  45.75500 18.81200 23.22800
H  44.26600 13.66300 24.83900
H  45.48900 14.18400 23.77300
H  42.68600 14.96100 22.88300
H  42.86100 13.17100 23.02000
H  43.79300 14.26900 21.91400
H  40.95900 15.41900 28.61200
H  41.15100 14.28900 30.04200
H  41.67600 13.76400 28.45000
H  44.93400 15.63500 33.37000
H  42.97300 19.03600 35.21600
H  43.35300 18.08200 36.61800
H  41.87700 17.72000 35.73900
Mg 36.79100 49.03300 25.05200
C  37.05800 46.97800 28.00700
C  34.87900 51.12000 26.85000
C  35.87400 50.26000 22.07900
C  38.17600 46.24900 23.35800
N  36.07100 49.02400 27.20100
C  36.36800 48.22000 28.23700
C  36.01600 48.73000 29.63000
C  35.15400 50.03200 29.11700
C  35.33800 50.00700 27.62700
C  33.62700 50.08500 29.55400
C  37.24400 49.17300 30.44300
C  36.91400 49.19000 31.97400
H  35.47000 48.96300 32.47400
N  35.68700 50.64100 24.56800
C  34.95500 51.41700 25.48200
C  34.51100 52.58900 24.77200
C  34.69400 52.35000 23.36000
C  35.41500 51.07000 23.23600
C  33.86300 53.83900 25.48900
C  34.14300 53.14100 22.20300
O  34.42100 52.71800 21.08400
C  33.31300 54.38400 22.41500
N  37.15900 48.44800 23.03800
C  36.56500 49.08800 21.98400
C  36.80800 48.38900 20.60700
C  37.62800 47.12500 21.03800
C  37.67600 47.28800 22.56300
C  35.60600 48.17300 19.58600
C  39.07800 47.05900 20.45300
C  39.95700 48.24700 20.63800
N  37.53000 47.05800 25.56400
C  38.10400 46.11800 24.73800
C  38.42200 44.95000 25.57000
C  38.06900 45.24200 26.89100
C  37.54300 46.53700 26.82500
C  39.08400 43.61300 25.10800
C  38.00500 44.74000 28.30600
O  38.31800 43.62200 28.76000
C  37.25200 45.95000 29.05500
C  35.98400 45.47200 29.66800
O  34.96000 45.12000 29.10300
O  36.22200 45.27500 31.01000
C  35.25300 44.51900 31.75600
H  34.36400 51.86000 27.46700
H  35.71000 50.63300 21.06600
H  38.48300 45.32900 22.85700
H  35.47800 47.94600 30.16300
H  35.75000 50.90700 29.37800
H  33.04500 49.82000 28.67200
H  33.32300 51.04900 29.96200
H  33.46000 49.36800 30.35800
H  37.54700 50.16100 30.09800
H  38.13600 48.60400 30.18300
H  37.11000 50.21500 32.28600
H  37.63700 48.56500 32.50000
H  34.05900 54.73400 24.89900
H  34.23500 54.00000 26.50000
H  32.78200 53.72700 25.57000
H  33.80400 55.23400 22.88800
H  32.39300 54.07600 22.91300
H  32.91600 54.64900 21.43500
H  37.47100 49.01200 20.00700
H  36.99600 46.25000 20.88300
H  34.74700 48.31900 20.24100
H  35.64000 47.16800 19.16400
H  35.63700 48.80900 18.70200
H  38.95200 46.88300 19.38400
H  39.65600 46.20700 20.81200
H  39.90200 48.89400 19.76200
H  41.00000 47.97900 20.80700
H  39.62200 48.92300 21.42400
H  39.41500 43.61400 24.07000
H  38.34100 42.87600 25.41300
H  40.02800 43.48600 25.63800
H  37.82700 46.39800 29.86500
H  35.75200 44.30800 32.70200
H  35.00100 43.57900 31.26500
H  34.29500 44.97400 32.00900

