158

Mg 8.67400 3.53400 27.86800
C  10.10000 1.56600 30.54400
C  6.83300 5.32500 30.08300
C  7.38000 5.15400 25.29200
C  10.13200 1.08500 25.74600
N  8.37900 3.30400 30.02500
C  9.19800 2.60700 30.93400
C  8.95700 3.19900 32.33700
C  7.62600 4.03100 32.19100
C  7.55700 4.30900 30.65400
C  6.34100 3.30100 32.63200
C  10.17000 3.91600 33.07100
C  9.88000 4.73600 34.29600
H  10.75000 4.57200 35.49900
N  7.26900 4.99000 27.73500
C  6.68900 5.67300 28.76300
C  5.75200 6.68300 28.26300
C  5.92000 6.66100 26.81800
C  6.94300 5.60300 26.52000
C  4.93300 7.64100 29.11400
C  5.14000 7.36100 25.77200
O  5.18400 7.11200 24.53200
C  4.16400 8.41600 26.08100
N  8.66700 3.06200 25.85600
C  8.10200 3.95700 24.99100
C  8.52700 3.60800 23.52300
C  9.09200 2.16900 23.62800
C  9.40100 2.11900 25.16600
C  7.34600 3.76700 22.52300
C  10.28700 1.95900 22.66900
C  10.12300 0.72300 21.76500
N  10.04000 1.78000 28.04800
C  10.49500 0.93400 27.10400
C  11.28400 -0.18700 27.68000
C  11.20800 0.07300 29.06700
C  10.40300 1.25000 29.20500
C  11.95300 -1.37500 27.12300
C  11.64400 -0.37100 30.34200
O  12.34200 -1.36500 30.66500
C  11.06700 0.66500 31.34300
C  10.35900 -0.11600 32.38600
O  9.48700 -0.94400 32.16500
O  10.91000 0.27300 33.57900
C  10.39900 -0.29900 34.76100
H  6.29300 5.99300 30.75600
H  7.00300 5.73400 24.44700
H  10.49000 0.36300 25.00900
H  8.74500 2.36700 33.00800
H  7.70300 4.92500 32.81100
H  6.50300 2.92100 33.64000
H  6.14700 2.49600 31.92200
H  5.59600 4.09500 32.62900
H  10.70000 4.53500 32.34700
H  10.83100 3.10600 33.37900
H  8.84800 4.72700 34.64900
H  10.09800 5.78300 34.08600
H  3.88300 7.54900 28.83600
H  5.21500 8.66000 28.84900
H  5.10800 7.58500 30.18800
H  3.32600 8.11500 26.70900
H  3.67500 8.67700 25.14200
H  4.76600 9.25300 26.43600
H  9.27500 4.34200 23.22400
H  8.31300 1.42200 23.47900
H  6.41000 4.08900 22.98000
H  7.21900 2.79300 22.04900
H  7.54600 4.48400 21.72800
H  11.25800 1.96200 23.16500
H  10.34300 2.87000 22.07300
H  10.99100 0.06400 21.80100
H  10.02900 1.01400 20.71900
H  9.28500 0.10400 22.08400
H  12.99400 -1.29100 26.81000
H  11.30600 -1.71900 26.31700
H  11.99900 -2.13900 27.89900
H  11.86400 1.31200 31.70900
H  10.05500 0.51500 35.39900
H  11.21500 -0.80500 35.27600
H  9.53000 -0.93700 34.60200
Mg 24.18200 -6.87400 46.62800
C  25.85800 -4.20100 45.33700
C  21.50000 -5.98800 44.32600
C  22.68100 -9.85000 47.14900
C  26.85800 -7.84800 48.34700
N  23.75300 -5.27500 44.98800
C  24.63800 -4.25400 44.70600
C  24.03700 -3.35600 43.62400
C  22.51700 -3.80600 43.52600
C  22.58100 -5.08900 44.31900
C  21.45000 -2.73600 43.91800
C  24.86800 -3.48800 42.31100
C  25.14300 -2.20500 41.47900
H  24.65100 -2.17600 40.02200
N  22.25100 -7.82100 45.99300
C  21.32200 -7.30400 45.00200
C  20.16800 -8.15600 45.05000
C  20.46300 -9.21300 45.96600
C  21.81100 -8.99800 46.42000
C  18.93500 -7.91900 44.18200
C  19.49100 -10.33200 46.37200
O  18.40400 -10.45200 45.77300
C  19.84000 -11.32800 47.49600
N  24.66600 -8.59800 47.62200
C  23.83900 -9.62000 47.77300
C  24.42500 -10.63900 48.79000
C  25.82700 -10.05000 49.12600
C  25.77300 -8.72600 48.36000
C  23.53900 -11.01800 49.96200
C  27.13700 -10.92800 48.85700
C  28.03000 -11.16700 50.14500
N  25.99100 -6.26200 46.76300
C  27.05900 -6.70400 47.55300
C  28.10700 -5.71100 47.56800
C  27.68000 -4.74600 46.68500
C  26.37200 -5.11800 46.24000
C  29.31400 -5.76700 48.49200
C  28.02100 -3.43600 46.18500
O  28.90100 -2.62700 46.41800
C  26.85300 -3.06100 45.23500
C  26.35600 -1.79300 45.68400
O  26.87400 -0.71900 45.26900
O  25.17100 -1.90900 46.37300
C  24.73400 -0.68500 47.11300
H  20.61900 -5.77800 43.71500
H  22.28300 -10.84000 47.38200
H  27.68500 -8.09600 49.01500
H  24.01900 -2.29200 43.85700
H  22.27800 -4.07300 42.49700
H  20.88500 -3.11200 44.77000
H  20.73100 -2.58600 43.11300
H  21.84500 -1.80300 44.32100
H  24.37600 -4.18500 41.63300
H  25.80100 -3.99800 42.55200
H  26.22400 -2.27500 41.36400
H  24.99100 -1.29500 42.06100
H  18.83700 -8.78700 43.52900
H  19.02400 -7.11600 43.45100
H  17.98800 -7.82100 44.71300
H  20.40600 -12.07000 46.93200
H  18.94200 -11.79100 47.90600
H  20.40900 -10.78700 48.25300
H  24.55000 -11.59100 48.27600
H  25.75500 -9.81700 50.18900
H  22.73900 -10.28000 50.03200
H  23.99200 -11.05200 50.95200
H  23.13100 -12.00600 49.74900
H  27.82300 -10.52400 48.11300
H  26.70300 -11.86400 48.50500
H  28.00400 -12.23700 50.35300
H  27.66300 -10.66200 51.03800
H  29.05500 -10.82500 50.00100
H  29.35200 -4.83400 49.05500
H  30.21000 -5.87400 47.88100
H  29.12200 -6.56000 49.21400
H  27.18100 -3.02500 44.19600
H  24.07500 -0.07600 46.49400
H  25.59700 -0.06600 47.36000
H  24.28800 -1.00400 48.05500

