158

Mg 23.92600 -6.59900 45.75400
C  26.32900 -4.09600 45.26900
C  21.59900 -4.59800 44.15200
C  21.86400 -9.23300 45.86900
C  26.59500 -8.61100 46.95800
N  23.97800 -4.63600 44.84900
C  25.08000 -3.89600 44.68500
C  24.67400 -2.63200 43.82900
C  23.11600 -2.59900 43.95300
C  22.85700 -4.01600 44.42600
C  22.49800 -1.54700 44.90100
C  25.24500 -2.73300 42.38200
C  25.50500 -1.37600 41.75500
H  24.65200 -1.04900 40.50800
N  21.96600 -6.86600 45.10800
C  21.20300 -5.89200 44.44800
C  19.90700 -6.47700 44.21500
C  19.98900 -7.86100 44.63600
C  21.27900 -8.01700 45.23100
C  18.85300 -5.71500 43.33700
C  18.92800 -8.89600 44.53600
O  18.05000 -8.67400 43.77000
C  19.00000 -10.26300 45.13600
N  24.17400 -8.54500 46.31700
C  23.19800 -9.46300 46.34500
C  23.70300 -10.84800 46.95400
C  25.16100 -10.60600 46.88900
C  25.34300 -9.14000 46.66400
C  23.09900 -11.23400 48.34800
C  25.88400 -11.42100 45.78000
C  26.97700 -12.41100 46.08900
N  26.05400 -6.42200 46.15800
C  26.96400 -7.31600 46.67300
C  28.21500 -6.66500 46.91100
C  28.02300 -5.38100 46.25800
C  26.70500 -5.30900 45.79800
C  29.46100 -7.25800 47.42500
C  28.63400 -4.08400 45.95100
O  29.72700 -3.64400 46.15600
C  27.50800 -3.25900 45.10800
C  27.27300 -1.84200 45.63700
O  27.07700 -1.59500 46.82300
O  27.34700 -0.96600 44.65800
C  27.61100 0.41000 45.00700
H  20.80900 -3.96700 43.73900
H  21.27600 -10.15200 45.81500
H  27.31600 -9.36000 47.29200
H  24.90700 -1.67400 44.29400
H  22.60400 -2.49800 42.99600
H  23.24900 -0.91400 45.37300
H  21.90400 -1.95500 45.71900
H  21.82100 -0.96500 44.27600
H  24.43200 -3.17700 41.80700
H  26.14700 -3.33600 42.27400
H  26.56700 -1.27400 41.53100
H  25.35700 -0.53700 42.43500
H  19.12500 -5.24500 42.39200
H  18.53300 -4.84400 43.91000
H  17.90700 -6.20800 43.11300
H  18.00500 -10.70800 45.10600
H  19.19500 -10.02000 46.18000
H  19.73200 -10.91000 44.65200
H  23.36600 -11.56600 46.20600
H  25.54800 -10.82400 47.88400
H  22.08200 -11.56300 48.12900
H  23.09900 -10.32300 48.94600
H  23.58500 -12.00900 48.94000
H  26.43800 -10.72200 45.15300
H  25.19300 -12.02200 45.18900
H  26.65500 -13.44400 45.95900
H  27.55100 -12.21800 46.99500
H  27.60200 -12.25900 45.20800
H  29.39000 -7.73300 48.40300
H  30.28100 -6.54100 47.38000
H  29.79000 -7.92800 46.63100
H  27.85400 -3.22600 44.07400
H  27.95000 1.05600 44.19700
H  28.27100 0.49600 45.87000
H  26.66100 0.90700 45.20300
Mg 25.43000 1.09200 29.27300
C  27.37300 0.60700 32.23000
C  22.68200 1.71000 31.13900
C  23.78400 1.31700 26.44100
C  28.41300 0.14300 27.43400
N  25.03500 0.89100 31.46300
C  25.99100 0.91000 32.51000
C  25.38100 1.36000 33.82800
C  23.84300 1.51100 33.44300
C  23.84400 1.48500 31.94000
C  22.98000 0.33000 34.14700
C  25.94900 2.73400 34.45000
C  26.44900 2.82800 35.85400
H  25.98700 3.94600 36.77300
N  23.45300 1.29800 28.91700
C  22.46900 1.58100 29.79100
C  21.22700 1.70200 29.06900
C  21.56700 1.59500 27.66200
C  23.03600 1.44100 27.62400
C  19.92800 1.81500 29.70500
C  20.62500 1.65900 26.39700
O  21.01000 1.59200 25.25800
C  19.20400 1.83600 26.65300
N  26.11100 0.80300 27.29600
C  25.19800 1.03100 26.27400
C  25.83600 0.98600 24.86900
C  27.35700 0.61700 25.20100
C  27.33100 0.57500 26.72800
C  25.19300 0.00200 23.80800
C  28.38900 1.65100 24.68900
C  28.46900 2.14000 23.24300
N  27.45400 0.54800 29.71500
C  28.56100 0.24100 28.85600
C  29.71200 -0.07600 29.72500
C  29.32100 0.18500 31.07500
C  27.94600 0.48800 30.97100
C  30.95600 -0.72400 29.18600
C  29.73700 0.17400 32.42300
O  30.83300 -0.20000 32.87600
C  28.49100 0.54000 33.24700
C  28.37900 -0.46300 34.28600
O  27.67100 -1.46600 34.27300
O  29.22600 -0.17400 35.31300
C  29.32700 -1.00400 36.46700
H  21.91000 2.05800 31.82800
H  23.24600 1.44600 25.50000
H  29.32800 0.12800 26.83900
H  25.71700 0.56800 34.49600
H  23.43000 2.43800 33.84000
H  22.89600 0.54800 35.21200
H  23.40100 -0.65000 33.92600
H  22.01500 0.36000 33.64000
H  25.10900 3.42500 34.37300
H  26.75900 3.17300 33.86700
H  27.45500 3.22600 35.71800
H  26.29900 1.86300 36.33900
H  19.99300 1.57100 30.76500
H  19.28200 1.10800 29.18400
H  19.48900 2.80200 29.56100
H  19.09500 2.80100 27.14800
H  18.82400 1.00400 27.24600
H  18.74000 1.73200 25.67200
H  25.79300 1.99900 24.46900
H  27.59500 -0.35200 24.76200
H  24.64100 -0.86600 24.17100
H  26.00500 -0.36100 23.17800
H  24.47300 0.55400 23.20500
H  29.39300 1.25900 24.84600
H  28.26600 2.54200 25.30400
H  29.43100 2.17800 22.73200
H  28.08600 3.14000 23.04300
H  27.93100 1.40600 22.64300
H  31.53900 -0.09600 28.51200
H  30.63300 -1.56000 28.56600
H  31.61400 -1.12900 29.95500
H  28.72800 1.50100 33.70400
H  28.38300 -0.82400 36.98100
H  30.13500 -0.66900 37.11800
H  29.44200 -2.08300 36.36700

