158

Mg 41.25700 9.54900 28.84800
C  43.09000 10.83100 31.52300
C  39.00300 8.27400 31.10000
C  39.48400 8.45600 26.28000
C  43.82500 10.42600 26.66600
N  41.24500 9.37500 31.10200
C  42.00000 10.14200 31.95100
C  41.45300 9.99900 33.37800
C  40.28500 8.96100 33.24600
C  40.15800 8.85300 31.71900
C  40.53500 7.53900 33.75400
C  41.08500 11.34300 34.02200
C  40.62300 11.20100 35.48600
H  40.93800 12.39600 36.38400
N  39.47900 8.57200 28.71600
C  38.68200 8.16600 29.69200
C  37.50500 7.60600 29.15300
C  37.54500 7.67300 27.77500
C  38.85400 8.25900 27.53200
C  36.46900 6.90800 30.11000
C  36.54800 7.22600 26.80400
O  36.66100 7.20400 25.59800
C  35.20900 6.90600 27.31600
N  41.65300 9.46200 26.80600
C  40.76800 8.93300 25.93400
C  41.24600 9.02500 24.47700
C  42.72200 9.63300 24.60900
C  42.73900 9.92800 26.09400
C  41.13400 7.72800 23.67900
C  42.87200 10.88600 23.67700
C  42.30800 12.23100 24.26000
N  43.09100 10.46600 28.94500
C  44.06100 10.70900 28.01500
C  45.17400 11.39700 28.61900
C  44.82000 11.60200 29.98800
C  43.60800 10.88200 30.15000
C  46.43500 11.78700 27.94200
C  45.20300 12.26100 31.32300
O  46.12100 13.04000 31.60500
C  44.05500 11.77000 32.26800
C  44.76600 11.06900 33.37300
O  45.21000 9.88600 33.39900
O  44.64200 11.79100 34.53300
C  44.83300 11.01300 35.77500
H  38.33100 7.83800 31.84300
H  39.00100 8.15300 25.34900
H  44.66700 10.70200 26.02900
H  42.28200 9.70900 34.02400
H  39.38600 9.32300 33.74500
H  41.57900 7.41100 34.04000
H  40.24400 6.75900 33.05100
H  39.94100 7.29900 34.63600
H  40.27700 11.68000 33.37200
H  41.94800 12.00600 33.97100
H  41.03900 10.31000 35.95700
H  39.54000 11.14800 35.37500
H  36.73000 6.77900 31.16100
H  36.31900 5.89100 29.74900
H  35.52500 7.43700 29.98000
H  34.54500 6.75900 26.46400
H  34.82000 7.71600 27.93300
H  35.16700 5.99600 27.91600
H  40.57100 9.74100 24.00900
H  43.45400 8.85800 24.38100
H  40.79500 6.91400 24.32000
H  42.03300 7.26200 23.27500
H  40.50800 7.83700 22.79400
H  42.21100 10.61500 22.85300
H  43.91400 10.82200 23.36300
H  43.16900 12.73600 24.69700
H  41.52000 12.13300 25.00800
H  41.92500 12.80300 23.41500
H  46.75700 10.93800 27.33900
H  47.13100 12.03400 28.74500
H  46.33300 12.66600 27.30600
H  43.39500 12.56500 32.61600
H  44.17300 10.15200 35.88000
H  44.48100 11.60900 36.61700
H  45.90400 10.83600 35.87600
Mg 9.51300 48.05800 25.34600
C  7.68300 48.10800 28.18300
C  12.14400 49.62900 26.84800
C  11.19700 47.97100 22.31700
C  6.72300 46.73500 23.58300
N  9.74700 48.99700 27.17600
C  8.88800 48.81000 28.29900
C  9.42100 49.57200 29.56500
C  10.81600 50.02100 29.01500
C  10.94200 49.61700 27.52100
C  11.13200 51.58300 29.14000
C  9.42100 48.76100 30.86600
C  10.50400 49.09400 31.93800
H  10.08300 49.09600 33.38600
N  11.48800 48.51800 24.76400
C  12.42000 49.13200 25.55400
C  13.65700 49.21900 24.81200
C  13.40400 48.72300 23.51000
C  11.93000 48.41900 23.48700
C  14.89300 49.86400 25.33400
C  14.21900 48.55400 22.27900
O  13.94500 48.19700 21.14000
C  15.64000 48.87000 22.37800
N  9.10200 47.38900 23.29100
C  9.92700 47.48700 22.18900
C  9.30000 46.90600 20.84800
C  7.96200 46.32000 21.36400
C  7.91200 46.75200 22.84600
C  9.27000 47.90700 19.70700
C  7.87900 44.75600 21.24300
C  8.70000 43.86000 22.16400
N  7.55600 47.64300 25.73100
C  6.58700 47.16400 24.91800
C  5.38500 47.04900 25.76300
C  5.77100 47.32100 27.06900
C  7.11200 47.65200 26.98500
C  4.03700 46.43800 25.35600
C  5.44400 47.26200 28.53400
O  4.44300 46.90500 29.14300
C  6.68200 47.76500 29.29000
C  7.06800 46.69200 30.17600
O  7.80400 45.73400 29.92900
O  6.64600 46.92600 31.43700
C  7.00800 45.88600 32.38300
H  12.98300 50.10900 27.35600
H  11.80400 47.80500 21.42500
H  5.88000 46.33800 23.01300
H  8.73400 50.40700 29.70300
H  11.54600 49.42100 29.55800
H  11.36800 51.93800 28.13600
H  12.07700 51.76200 29.65300
H  10.37300 52.21400 29.60300
H  9.53000 47.73200 30.52500
H  8.41600 48.94300 31.24700
H  10.78400 50.12200 31.70600
H  11.43700 48.55500 31.77400
H  15.47500 50.46000 24.63200
H  15.56600 49.05900 25.62900
H  14.67900 50.36900 26.27600
H  16.13200 48.63700 21.43400
H  16.03000 48.17900 23.12600
H  15.85000 49.92800 22.53200
H  9.99800 46.13000 20.53200
H  7.18300 46.80400 20.77400
H  8.77300 48.85000 19.93300
H  8.61300 47.45100 18.96600
H  10.28400 48.02500 19.32400
H  8.27800 44.54000 20.25200
H  6.82000 44.51200 21.15600
H  9.12500 43.02600 21.60500
H  8.01300 43.41800 22.88500
H  9.44800 44.39500 22.74900
H  3.47600 47.05200 24.65200
H  3.47600 46.24600 26.27100
H  4.22300 45.48600 24.85800
H  6.55400 48.59200 29.98800
H  6.15200 45.21100 32.40300
H  7.13600 46.27700 33.39200
H  7.94900 45.42000 32.09100

