158

Mg 52.97300 23.97700 44.52800
C  50.30600 26.15500 43.70000
C  51.19100 21.40800 43.15000
C  55.74100 22.15100 44.52700
C  54.61100 26.71700 45.83900
N  51.10300 23.93100 43.25000
C  50.22200 24.90800 43.08800
C  48.99500 24.29100 42.34500
C  49.04500 22.83700 42.81200
C  50.55600 22.67200 43.06300
C  48.16900 22.43900 43.99300
C  48.93800 24.64700 40.82300
C  50.28400 25.06600 40.21100
H  50.25600 25.81800 38.84400
N  53.36200 21.94800 43.89600
C  52.50300 21.04600 43.44700
C  53.11900 19.72000 43.40800
C  54.48600 19.92000 43.83200
C  54.59500 21.39200 44.07100
C  52.35200 18.46200 43.08300
C  55.54400 18.86600 44.03600
O  55.27400 17.67900 43.83600
C  56.91800 19.14700 44.53100
N  55.00200 24.50600 44.77600
C  55.91000 23.49800 44.89400
C  57.22900 24.09000 45.55800
C  56.95000 25.61400 45.74000
C  55.42600 25.64900 45.35700
C  57.58500 23.47400 46.95000
C  57.75000 26.57000 44.87000
C  58.80300 27.39400 45.69400
N  52.49900 25.97300 44.95100
C  53.24700 26.92100 45.57100
C  52.46300 28.15000 45.69500
C  51.25200 27.86100 44.97800
C  51.33200 26.53500 44.57500
C  52.80700 29.49100 46.24800
C  50.02700 28.45800 44.47800
O  49.63000 29.61600 44.59300
C  49.36100 27.31800 43.72500
C  48.96500 27.74400 42.36000
O  49.72000 28.29100 41.58700
O  47.61400 27.39700 42.17800
C  46.99700 27.77500 40.93400
H  50.55600 20.56800 42.85900
H  56.64300 21.54200 44.61700
H  55.01500 27.62900 46.28400
H  48.07300 24.71000 42.74700
H  48.68600 22.19900 42.00400
H  47.38500 23.19500 43.96800
H  48.68700 22.29700 44.94100
H  47.62800 21.53300 43.71800
H  48.16800 25.39300 40.62900
H  48.77900 23.75500 40.21600
H  50.84400 24.13100 40.19600
H  50.60500 25.82800 40.92100
H  52.96800 18.14300 42.24300
H  51.32500 18.77700 42.89700
H  52.27800 17.72000 43.87900
H  56.75000 19.60300 45.50700
H  57.45000 19.63100 43.71200
H  57.43600 18.19800 44.67400
H  57.95500 23.93600 44.76000
H  56.93700 25.90600 46.79000
H  56.62400 23.05200 47.24600
H  57.95600 24.16800 47.70400
H  58.25400 22.62800 46.79600
H  57.23300 27.31600 44.26600
H  58.41100 26.01300 44.20600
H  58.80400 27.04200 46.72500
H  58.45100 28.41600 45.83400
H  59.82000 27.29700 45.31300
H  52.06400 29.72000 47.01200
H  52.80000 30.25000 45.46600
H  53.82400 29.63200 46.61300
H  48.44100 27.02000 44.22900
H  46.71000 28.82600 40.92100
H  46.04600 27.27200 40.76200
H  47.66800 27.44600 40.14000
Mg 46.50200 16.16400 27.69100
C  44.62000 15.44700 30.62100
C  48.80500 17.87200 29.72100
C  47.73900 17.55200 24.99300
C  43.93000 14.74100 25.82700
N  46.59500 16.72600 29.95400
C  45.75600 16.33000 30.93500
C  46.26000 16.79400 32.33200
C  47.53600 17.67600 31.93800
C  47.69800 17.38600 30.44400
C  47.43700 19.21000 32.33200
C  46.63500 15.53900 33.22400
C  46.20700 15.62000 34.74300
H  45.73600 17.02600 35.24300
N  48.03900 17.51100 27.39300
C  48.89800 17.92500 28.34700
C  50.01100 18.66100 27.62000
C  49.67700 18.67500 26.23400
C  48.49000 17.84300 26.15200
C  51.25700 19.21800 28.38100
C  50.47100 19.24300 25.07400
O  50.11300 19.14800 23.89200
C  51.85600 19.73500 25.45100
N  45.99400 15.98400 25.61100
C  46.68700 16.72100 24.71700
C  46.01900 16.59100 23.31500
C  44.93600 15.43500 23.62200
C  44.94700 15.32400 25.07100
C  45.45100 17.94800 22.76100
C  45.31600 14.06200 22.96900
C  46.38800 13.08400 23.52800
N  44.76400 15.09300 28.09000
C  43.80100 14.63200 27.21300
C  42.66900 14.16800 27.98000
C  42.96700 14.41800 29.34000
C  44.20400 15.03200 29.36300
C  41.44800 13.47100 27.45500
C  42.49200 14.22600 30.70100
O  41.48000 13.67600 31.12600
C  43.56800 14.94800 31.64900
C  42.88200 16.04600 32.36300
O  42.42000 17.06800 31.85700
O  42.58400 15.63200 33.60700
C  41.52200 16.37700 34.25000
H  49.64700 18.16800 30.35000
H  48.14000 17.89300 24.03600
H  43.02300 14.43100 25.30300
H  45.39000 17.27400 32.77900
H  48.45200 17.42100 32.47000
H  48.34400 19.59000 32.80200
H  46.52800 19.36900 32.91300
H  47.28400 19.75200 31.39900
H  47.70100 15.35200 33.35400
H  46.10700 14.66200 32.85000
H  47.04800 15.33100 35.37500
H  45.43800 14.85700 34.86200
H  51.36200 20.26200 28.08600
H  52.16300 18.74600 28.00100
H  51.13600 19.06400 29.45300
H  51.93500 20.63500 26.06100
H  52.38500 20.06900 24.55900
H  52.48700 18.92400 25.81300
H  46.75400 16.18600 22.61900
H  43.98000 15.76400 23.21400
H  44.91700 17.79800 21.82200
H  46.13600 18.79500 22.79600
H  44.64300 18.02500 23.48900
H  45.57700 14.20000 21.91900
H  44.39800 13.47400 22.95100
H  46.94900 12.66400 22.69400
H  45.87000 12.29100 24.06800
H  47.02800 13.62100 24.22800
H  41.64600 12.45500 27.11400
H  41.13500 14.03400 26.57500
H  40.53900 13.50400 28.05400
H  44.04000 14.29100 32.37900
H  40.84600 15.66300 34.72100
H  40.84100 16.96700 33.63600
H  41.89400 16.98300 35.07500

