158

Mg 8.65300 3.51000 27.97500
C  10.11500 2.03300 30.82800
C  6.93600 5.66500 30.11800
C  6.95700 4.89400 25.23400
C  9.99200 1.15500 25.90300
N  8.54800 3.82700 30.18500
C  9.29600 3.12000 31.14400
C  9.09900 3.66500 32.55000
C  7.94600 4.78200 32.33200
C  7.80100 4.76200 30.78000
C  6.63200 4.62100 33.05700
C  10.40800 4.33900 33.13000
C  10.98400 3.77500 34.43700
H  10.88100 4.79400 35.67900
N  7.14800 5.10300 27.69600
C  6.59600 5.88300 28.67600
C  5.65700 6.84300 28.14500
C  5.63900 6.57900 26.71300
C  6.60900 5.47600 26.48300
C  4.85300 7.72700 28.95800
C  4.77400 7.19700 25.64100
O  4.63300 6.78100 24.48500
C  3.97400 8.45200 25.97600
N  8.66400 3.18000 25.91300
C  7.94000 3.83000 25.00800
C  8.23700 3.30300 23.58600
C  9.31400 2.26300 23.76900
C  9.30400 2.16600 25.30500
C  6.95700 2.90200 22.78700
C  10.70800 2.65600 23.15200
C  11.54600 1.48100 22.54800
N  9.78200 1.88300 28.23700
C  10.21400 1.01900 27.27700
C  11.14400 0.13300 27.93100
C  11.18700 0.48500 29.30300
C  10.29400 1.55300 29.45300
C  11.74400 -1.07900 27.21000
C  11.66500 0.14000 30.59400
O  12.40700 -0.79700 30.94400
C  11.17000 1.30500 31.60000
C  10.52600 0.64800 32.76200
O  9.34900 0.22200 32.77600
O  11.42100 0.51900 33.76000
C  11.12200 0.09500 35.09400
H  6.40500 6.38900 30.73900
H  6.46800 5.30500 24.34800
H  10.58100 0.40300 25.37300
H  8.70000 2.88400 33.19800
H  8.30200 5.75100 32.68300
H  6.36200 5.45600 33.70300
H  6.60600 3.63900 33.52900
H  5.91200 4.55700 32.24000
H  10.16000 5.36300 33.41100
H  11.18200 4.32500 32.36200
H  12.00600 3.42000 34.29800
H  10.39600 2.88800 34.67100
H  4.59300 7.31800 29.93400
H  3.89900 7.83900 28.44400
H  5.26100 8.73700 28.98000
H  3.89800 9.13700 25.13200
H  4.60000 9.01700 26.66700
H  3.05400 8.17900 26.49400
H  8.56300 4.16800 23.00800
H  9.15200 1.28600 23.31400
H  6.01900 2.92900 23.34100
H  7.04300 1.87800 22.42500
H  6.66300 3.67600 22.07700
H  11.33500 3.10600 23.92200
H  10.63800 3.34200 22.30800
H  11.84000 1.58200 21.50300
H  11.04900 0.51500 22.63200
H  12.44100 1.35800 23.15900
H  12.56100 -0.72400 26.58200
H  11.02700 -1.56400 26.54900
H  12.08400 -1.85500 27.89600
H  11.95300 1.97900 31.94800
H  10.36500 0.74700 35.52900
H  11.95000 0.06500 35.80200
H  10.62900 -0.87400 35.00900
Mg 52.83400 23.97000 45.01300
C  50.18500 25.96400 43.85000
C  50.89300 21.28100 43.86500
C  55.62500 22.12400 45.03000
C  54.48900 26.72200 45.92400
N  50.88100 23.72600 43.68300
C  49.95800 24.69000 43.35600
C  48.77000 24.09200 42.67300
C  48.95200 22.58900 42.84500
C  50.33600 22.48500 43.44400
C  47.81000 21.80700 43.56500
C  48.76600 24.46200 41.13600
C  50.10200 24.69000 40.34100
H  50.17600 25.31400 38.90600
N  53.19300 21.90800 44.64100
C  52.24100 20.96000 44.27600
C  52.88900 19.66300 44.22800
C  54.28000 19.84900 44.58000
C  54.45500 21.34800 44.79700
C  52.21500 18.34100 43.96800
C  55.29700 18.76600 44.73000
O  54.89200 17.58000 44.54900
C  56.71700 19.08400 45.08700
N  54.81600 24.40700 45.25300
C  55.75900 23.48700 45.31100
C  57.16500 24.08200 45.48900
C  56.83700 25.58400 45.91800
C  55.32300 25.62800 45.66900
C  58.04200 23.44700 46.61600
C  57.61000 26.71500 45.18600
C  58.90000 27.25600 45.80100
N  52.45100 26.04300 44.88500
C  53.16300 26.99000 45.51100
C  52.40500 28.24600 45.57800
C  51.18200 27.85100 44.90500
C  51.26900 26.52700 44.54000
C  52.69900 29.38600 46.34300
C  49.80000 28.26900 44.51200
O  49.18200 29.31500 44.56200
C  49.12000 27.00900 43.79700
C  48.90400 27.51100 42.38800
O  49.80600 27.77300 41.65600
O  47.58100 27.69800 42.07500
C  47.42900 28.50300 40.88200
H  50.27500 20.39200 43.72300
H  56.56300 21.58900 45.18900
H  55.11800 27.51500 46.33300
H  47.88800 24.42400 43.22000
H  48.99000 22.06500 41.89000
H  48.33000 21.29500 44.37400
H  47.32600 21.05400 42.94200
H  47.04400 22.43100 44.02600
H  48.12000 25.33700 41.06700
H  48.18800 23.72600 40.57700
H  50.51500 23.68200 40.29200
H  50.83200 25.26900 40.90700
H  52.59500 17.89100 43.05100
H  51.14400 18.41300 43.78100
H  52.37200 17.69200 44.83000
H  57.27000 18.14900 45.17700
H  56.81100 19.60800 46.03700
H  57.06500 19.64100 44.21700
H  57.74500 23.98500 44.57100
H  56.92600 25.68000 47.00000
H  57.45300 22.93000 47.37400
H  58.55100 24.17800 47.24500
H  58.79700 22.79700 46.17300
H  57.08800 27.65600 45.01000
H  57.84500 26.27700 44.21600
H  59.76100 26.93300 45.21600
H  59.16100 26.94500 46.81300
H  58.83800 28.33000 45.97500
H  53.42800 29.18200 47.12700
H  51.72700 29.55100 46.80800
H  52.96900 30.24000 45.72100
H  48.14600 26.73900 44.20500
H  46.35400 28.54100 40.70800
H  47.72500 27.97100 39.97800
H  47.78100 29.53200 40.95900

