158

Mg 17.64600 -1.67900 28.19100
C  16.69800 0.39400 31.00000
C  19.07300 -3.82800 30.42600
C  18.92000 -3.30700 25.51100
C  16.33500 0.77800 26.02900
N  17.97500 -1.60500 30.56300
C  17.51300 -0.70300 31.45000
C  17.78300 -1.13100 32.85300
C  18.68700 -2.44600 32.62600
C  18.56800 -2.69500 31.11200
C  20.11900 -2.36400 33.15700
C  16.44500 -1.44800 33.69300
C  16.41300 -1.09100 35.21600
H  17.70600 -0.54100 35.87600
N  18.76900 -3.37600 28.08200
C  19.25000 -4.16700 29.12900
C  19.88800 -5.37800 28.47100
C  19.80900 -5.21900 27.02800
C  19.16400 -3.93500 26.83400
C  20.36100 -6.53200 29.32400
C  20.21200 -6.15400 25.94500
O  19.89200 -5.93400 24.80400
C  20.97700 -7.49700 26.29600
N  17.64500 -1.31300 26.10000
C  18.28200 -2.11400 25.23400
C  18.15200 -1.57700 23.84000
C  17.19000 -0.34200 23.93200
C  17.01900 -0.28800 25.42900
C  19.49300 -1.24400 23.12600
C  15.91000 -0.51600 23.06500
C  15.35000 0.73700 22.41300
N  16.63100 0.08700 28.38200
C  16.15500 0.98500 27.44600
C  15.47100 2.09900 28.12400
C  15.65800 1.91900 29.49100
C  16.31300 0.61900 29.57800
C  14.80400 3.16900 27.38500
C  15.36300 2.50200 30.82400
O  14.73100 3.49200 31.05600
C  15.95100 1.51700 31.82200
C  16.89600 2.36900 32.60000
O  18.01400 2.78500 32.25200
O  16.32800 2.70900 33.82800
C  17.20200 3.44500 34.67500
H  19.57800 -4.57900 31.03700
H  19.38600 -3.80000 24.65500
H  15.92100 1.54800 25.37500
H  18.38900 -0.35500 33.32000
H  18.31900 -3.27200 33.23500
H  20.12700 -1.48800 33.80500
H  20.74300 -2.13000 32.29400
H  20.52300 -3.25300 33.64100
H  16.24900 -2.50900 33.53700
H  15.60200 -0.89000 33.28700
H  16.29400 -1.99800 35.80900
H  15.65400 -0.38200 35.54800
H  19.53400 -7.24000 29.37300
H  20.49700 -6.28100 30.37600
H  21.36300 -6.83800 29.02300
H  20.47500 -8.16600 26.99500
H  21.86400 -7.10700 26.79600
H  21.22900 -8.02200 25.37500
H  17.82900 -2.48400 23.32800
H  17.63400 0.60100 23.61600
H  19.61700 -1.90400 22.26700
H  20.28100 -1.45400 23.84900
H  19.55100 -0.27100 22.63800
H  15.15600 -0.95300 23.72100
H  16.07100 -1.20700 22.23800
H  14.26100 0.77500 22.44100
H  15.70500 0.67900 21.38400
H  15.69200 1.59000 22.99800
H  14.13600 3.72300 28.04400
H  14.23100 2.86400 26.50900
H  15.55300 3.92100 27.13800
H  15.15200 1.06800 32.41100
H  18.14800 2.90400 34.69500
H  16.80800 3.33600 35.68500
H  17.28000 4.49400 34.38800
Mg 53.67500 24.31600 45.12600
C  50.65900 25.98200 44.28500
C  52.25000 21.57000 43.69900
C  56.65300 22.76600 45.38800
C  54.95400 27.18400 46.32000
N  51.73000 23.87300 44.01600
C  50.77400 24.76800 43.65500
C  49.71700 24.06300 42.74400
C  49.91600 22.57300 43.20500
C  51.37300 22.66800 43.59500
C  48.91500 22.21900 44.28000
C  50.03500 24.20400 41.22200
C  48.80900 24.48500 40.27900
H  47.97800 23.32800 39.75800
N  54.35600 22.41500 44.63800
C  53.65200 21.46700 43.98500
C  54.42800 20.26300 43.91100
C  55.74100 20.53700 44.42600
C  55.66600 21.94500 44.80200
C  53.89200 18.98300 43.32200
C  56.90900 19.52800 44.52700
O  56.72100 18.34300 44.29400
C  58.25900 20.06900 45.12300
N  55.64500 25.03800 45.41600
C  56.63100 24.16000 45.68500
C  57.83200 24.91400 46.39600
C  57.20200 26.37500 46.57700
C  55.80600 26.15800 46.08600
C  58.48700 24.18400 47.72700
C  57.96500 27.59600 45.92500
C  58.63200 28.53900 46.98400
N  52.93100 26.19800 45.46800
C  53.54700 27.23500 46.10800
C  52.55200 28.30900 46.26600
C  51.43300 27.87800 45.50000
C  51.65400 26.58300 45.04700
C  52.79700 29.61200 46.92200
C  50.01300 28.15600 45.17200
O  49.37500 29.12100 45.51100
C  49.52200 26.92900 44.34700
C  49.20500 27.47500 42.98600
O  50.10800 27.80800 42.17600
O  47.85500 27.51700 42.82000
C  47.41100 28.25800 41.61500
H  51.73300 20.68100 43.33200
H  57.61500 22.32200 45.65000
H  55.32800 28.14600 46.67700
H  48.78600 24.56200 43.01200
H  49.84700 21.90800 42.34400
H  48.14900 21.53400 43.91500
H  48.45000 23.17700 44.51300
H  49.50500 21.75200 45.06800
H  50.48600 23.30200 40.80800
H  50.71500 25.03000 41.00900
H  49.20300 25.10900 39.47600
H  48.14100 25.14500 40.83300
H  53.83600 19.16700 42.24900
H  52.81600 18.83200 43.40700
H  54.43600 18.06700 43.55400
H  58.67900 20.89100 44.54300
H  58.97600 19.25000 45.17800
H  58.07300 20.36200 46.15600
H  58.55700 25.03100 45.59100
H  57.13900 26.45000 47.66300
H  58.91100 24.91400 48.41600
H  59.21400 23.48800 47.30700
H  57.83600 23.51700 48.29200
H  57.31700 28.14000 45.23800
H  58.84400 27.33400 45.33600
H  59.71000 28.49000 46.83300
H  58.42900 28.19400 47.99700
H  58.29500 29.57600 47.01300
H  53.34400 29.51100 47.85800
H  51.86300 30.16800 47.01200
H  53.37800 30.23200 46.23800
H  48.65600 26.53600 44.88000
H  48.17300 28.75600 41.01600
H  46.60100 28.94900 41.85100
H  47.08400 27.44700 40.96400

