158

Mg -0.90500 16.96500 26.86700
C  -1.31200 14.56200 29.46300
C  -1.71800 19.41500 28.94700
C  -0.64700 18.98600 24.23100
C  -0.62900 14.13100 24.63600
N  -1.43700 16.92700 29.06300
C  -1.52800 15.93700 29.95200
C  -1.84500 16.47300 31.39300
C  -1.98000 18.03800 31.14000
C  -1.70100 18.17000 29.64600
C  -3.27300 18.74700 31.52800
C  -0.71100 16.09900 32.41500
C  -0.39800 16.89700 33.73100
H  -0.28200 16.08500 35.10500
N  -1.10200 18.93600 26.64000
C  -1.52300 19.77200 27.61700
C  -1.72900 21.06300 27.05900
C  -1.25100 21.02500 25.72800
C  -0.99100 19.57600 25.48000
C  -2.09700 22.26300 27.87600
C  -1.01900 22.16900 24.75700
O  -0.56500 22.01000 23.64700
C  -1.44800 23.61700 25.17900
N  -0.90100 16.61100 24.70200
C  -0.55900 17.66900 23.90000
C  -0.23200 17.19700 22.43400
C  -0.07900 15.63200 22.59400
C  -0.57000 15.40500 24.03600
C  -1.31800 17.67300 21.38500
C  1.34300 15.11000 22.36700
C  2.37500 15.56400 23.43300
N  -0.99800 14.83200 26.97900
C  -0.91000 13.82800 25.99400
C  -1.00900 12.51500 26.58600
C  -1.20000 12.77100 27.94500
C  -1.13500 14.15000 28.15700
C  -0.89400 11.19400 25.99200
C  -1.45500 12.10800 29.14300
O  -1.57500 10.91000 29.41000
C  -1.53600 13.22800 30.23300
C  -0.55800 12.84300 31.35900
O  0.59700 13.09600 31.33900
O  -1.24200 12.26400 32.38200
C  -0.48400 11.73200 33.50600
H  -2.02000 20.23400 29.60200
H  -0.49000 19.66200 23.38700
H  -0.55900 13.22700 24.02700
H  -2.78500 15.98400 31.65300
H  -1.18300 18.64000 31.57800
H  -3.72900 19.27100 30.68800
H  -3.03400 19.51100 32.26800
H  -3.97100 18.08400 32.03800
H  0.21900 16.02000 31.85300
H  -0.96900 15.12800 32.83700
H  -1.25800 17.56300 33.81000
H  0.46400 17.51300 33.47600
H  -2.89700 22.83200 27.40100
H  -1.19000 22.85600 27.76000
H  -2.27500 22.07400 28.93500
H  -2.52300 23.62900 25.35600
H  -1.33500 24.27000 24.31400
H  -0.82000 23.97200 25.99600
H  0.74300 17.56700 22.11800
H  -0.67500 15.10200 21.85100
H  -0.88000 18.43200 20.73600
H  -2.19400 18.15000 21.82400
H  -1.72900 16.93800 20.69300
H  1.68900 15.45500 21.39200
H  1.32600 14.02200 22.31100
H  3.05900 14.79200 23.78300
H  1.94800 15.84600 24.39600
H  2.97300 16.41100 23.09800
H  -0.67500 10.52400 26.82300
H  -0.07800 11.29700 25.27700
H  -1.77900 10.89300 25.43200
H  -2.59000 13.23800 30.51200
H  -0.54600 10.64400 33.50300
H  -1.08900 11.94000 34.39000
H  0.52100 12.10500 33.70200
Mg 8.98900 2.62000 26.92800
C  10.52000 1.00700 29.70400
C  7.07500 4.49800 29.23700
C  7.68000 4.22900 24.38900
C  10.59900 0.44300 24.81800
N  8.79500 2.66600 29.25800
C  9.60600 1.99000 30.12600
C  9.23000 2.33400 31.58000
C  8.13300 3.55000 31.42100
C  7.86900 3.53600 29.89500
C  6.84600 3.41800 32.26400
C  10.46100 2.76200 32.42500
C  10.32900 3.79200 33.55300
H  11.33800 3.65100 34.70900
N  7.61100 4.20000 26.83200
C  7.04800 4.80800 27.86600
C  6.43500 6.03500 27.36600
C  6.51200 6.04900 25.93900
C  7.23100 4.78700 25.64000
C  5.70200 6.95800 28.36800
C  5.93400 6.96900 24.84800
O  6.12800 6.75300 23.66800
C  5.20300 8.21400 25.21900
N  9.01100 2.26600 24.88400
C  8.35700 3.05100 24.01200
C  8.58800 2.60000 22.53100
C  9.75500 1.58200 22.74900
C  9.71800 1.31000 24.22200
C  7.36700 2.05600 21.77600
C  11.18400 1.98600 22.24300
C  11.28600 2.11300 20.65900
N  10.21400 0.94000 27.19900
C  10.77400 0.13900 26.19000
C  11.65700 -0.72800 26.81800
C  11.56700 -0.43800 28.22500
C  10.66200 0.61500 28.38900
C  12.45500 -1.67200 26.13000
C  12.00000 -0.85800 29.57600
O  12.77800 -1.73900 29.88900
C  11.45000 0.14300 30.50400
C  10.77700 -0.64700 31.56400
O  9.71200 -1.25800 31.46900
O  11.64700 -0.63800 32.68800
C  11.00200 -0.94400 33.98300
H  6.53500 5.14200 29.93500
H  7.40500 4.88300 23.55900
H  11.07700 -0.24400 24.11600
H  8.77200 1.45400 32.03000
H  8.57100 4.51200 31.68700
H  6.88000 2.52700 32.88900
H  5.96800 3.47700 31.62000
H  6.74000 4.33300 32.84800
H  11.27400 2.93100 31.71900
H  10.77500 1.82100 32.87600
H  9.31700 3.79800 33.95700
H  10.70500 4.77200 33.25700
H  6.34300 7.29400 29.18300
H  4.77800 6.57900 28.80600
H  5.63100 7.89800 27.82100
H  4.96500 8.67800 24.26200
H  5.94600 8.78100 25.78000
H  4.31200 7.97700 25.80200
H  8.98400 3.45900 21.98900
H  9.58900 0.66600 22.18100
H  6.57000 2.02700 22.51900
H  7.63400 1.16200 21.21400
H  7.09300 2.74800 20.98000
H  11.92700 1.26300 22.57800
H  11.45200 2.96500 22.63900
H  10.37700 1.97800 20.07300
H  11.90500 1.28300 20.31600
H  11.74900 3.03700 20.31300
H  13.34200 -2.01900 26.66000
H  12.77600 -1.35700 25.13700
H  11.94100 -2.61600 25.94900
H  12.22900 0.76100 30.95000
H  10.59400 -1.94700 33.85900
H  10.15000 -0.28700 34.15800
H  11.85700 -0.78000 34.63900

