158

Mg 26.43700 49.62200 25.89800
C  24.71000 51.24700 28.47100
C  28.68300 48.58400 28.29500
C  28.51100 48.71800 23.45300
C  24.24500 51.05800 23.60300
N  26.79200 50.11200 28.20000
C  25.86800 50.65800 29.01500
C  26.14400 50.28300 30.45400
C  27.61800 49.68100 30.38800
C  27.73700 49.45000 28.87500
C  28.80200 50.29400 31.10300
C  25.01900 49.37900 31.11500
C  24.50200 49.87900 32.48100
H  24.38100 48.86300 33.63400
N  28.28400 48.62400 25.85700
C  29.03500 48.23200 27.03300
C  30.27000 47.61400 26.64200
C  30.22100 47.68300 25.21600
C  28.99000 48.37100 24.75400
C  31.30700 47.08400 27.60700
C  31.31200 47.14900 24.24200
O  31.16200 47.42400 23.04300
C  32.41600 46.29100 24.70000
N  26.38000 49.84200 23.78800
C  27.35300 49.32500 23.02000
C  26.85200 49.37900 21.53100
C  25.47000 50.02200 21.58700
C  25.36600 50.34600 23.08200
C  27.82900 50.10300 20.52400
C  24.34200 49.17600 20.97900
C  24.02600 47.89300 21.80000
N  24.83100 50.94000 25.90400
C  23.96500 51.31500 24.93800
C  22.86500 52.14400 25.41900
C  23.07000 52.06400 26.83300
C  24.34400 51.42600 27.07600
C  21.85100 52.77900 24.62700
C  22.53300 52.40000 28.12000
O  21.49500 53.11000 28.39800
C  23.51100 51.85900 29.26300
C  23.96400 53.09400 30.03100
O  24.89900 53.80300 29.75800
O  23.21100 53.12700 31.18800
C  23.63800 53.96300 32.35300
H  29.28500 48.04000 29.02500
H  29.02500 48.37400 22.55300
H  23.50900 51.41200 22.87800
H  26.28000 51.15500 31.09500
H  27.56000 48.70600 30.87200
H  28.54000 51.23400 31.58900
H  29.56600 50.54400 30.36700
H  29.23800 49.58500 31.80500
H  25.29500 48.32900 31.21700
H  24.19100 49.26300 30.41600
H  23.51200 50.29700 32.30100
H  25.07600 50.74100 32.82000
H  31.48600 47.42400 28.62700
H  32.26600 47.49400 27.28900
H  31.40300 45.99900 27.57000
H  32.95600 46.03000 23.79000
H  31.95400 45.38200 25.08700
H  33.05300 46.91900 25.32300
H  26.68500 48.34200 21.24100
H  25.45600 50.96100 21.03300
H  28.72200 50.41700 21.06500
H  27.42400 50.98200 20.02400
H  28.04900 49.35300 19.76400
H  24.57100 48.87200 19.95800
H  23.44900 49.78500 21.11700
H  22.99300 47.94700 22.14400
H  24.60400 47.73400 22.71000
H  24.15000 47.06600 21.10100
H  20.86800 52.74800 25.09800
H  21.74900 52.38800 23.61500
H  22.23700 53.79600 24.56700
H  22.97400 51.19200 29.93800
H  24.08400 53.15900 32.93900
H  22.66500 54.29400 32.71300
H  24.39300 54.69900 32.07600
Mg 9.53500 48.08100 25.93500
C  7.75200 48.33100 28.93300
C  12.37500 49.17800 27.58900
C  11.31000 47.80100 23.08800
C  6.62300 47.51800 24.17900
N  9.98800 48.69300 27.86500
C  9.15400 48.58500 28.99200
C  9.88300 48.87800 30.29500
C  11.20100 49.63600 29.78600
C  11.19100 49.14100 28.30600
C  11.27100 51.19700 30.00600
C  10.12800 47.65100 31.21500
C  9.66000 47.83600 32.65400
H  10.11500 46.70500 33.60300
N  11.64200 48.38000 25.43600
C  12.62200 48.83500 26.27200
C  13.88500 48.76300 25.61800
C  13.64900 48.21800 24.35000
C  12.16100 48.07100 24.22500
C  15.16500 49.04800 26.31700
C  14.59500 47.86800 23.24300
O  14.22900 47.50800 22.15000
C  16.08300 47.99500 23.42000
N  9.07000 47.73500 23.96100
C  9.93100 47.74400 22.90900
C  9.29800 47.26700 21.62200
C  7.84700 47.65600 21.90000
C  7.81300 47.59000 23.42500
C  9.91000 47.79700 20.28100
C  6.83400 46.71600 21.08600
C  5.80500 47.37000 20.19700
N  7.51500 48.05300 26.38900
C  6.49700 47.71800 25.57000
C  5.26600 47.68900 26.37800
C  5.65900 47.83700 27.73900
C  7.06900 48.08200 27.67900
C  3.83300 47.56000 26.01900
C  5.21600 47.89700 29.11800
O  4.10500 47.82100 29.63800
C  6.56900 48.11100 29.90700
C  6.73800 46.83200 30.67000
O  7.31300 45.83600 30.25500
O  6.21900 46.87600 31.90700
C  6.43700 45.72300 32.88500
H  13.22100 49.54300 28.17500
H  11.88700 47.54400 22.19700
H  5.67000 47.15400 23.79100
H  9.22400 49.53100 30.86600
H  11.98300 49.13300 30.35400
H  12.13800 51.50300 30.59200
H  10.34500 51.58500 30.42900
H  11.48700 51.86300 29.17100
H  11.17300 47.34300 31.18100
H  9.46000 46.87900 30.83300
H  8.57800 47.90000 32.76500
H  10.09600 48.77600 32.99300
H  15.15700 48.97000 27.40400
H  15.57800 49.99800 25.97700
H  15.96000 48.33900 26.08400
H  16.31800 47.18000 24.10500
H  16.54000 48.89700 23.82700
H  16.53100 47.84000 22.43900
H  9.33700 46.17900 21.67200
H  7.62900 48.67100 21.56900
H  10.74200 48.44800 20.55000
H  9.29300 48.45200 19.66400
H  10.35500 46.99300 19.69500
H  6.28000 46.06200 21.75900
H  7.30000 46.00600 20.40300
H  6.04500 47.14000 19.15900
H  5.88100 48.43700 20.40500
H  4.83500 46.96000 20.47700
H  3.67000 46.61600 25.49800
H  3.49700 48.42800 25.45200
H  3.16600 47.60500 26.88000
H  6.42000 49.01000 30.50600
H  5.49700 45.23800 33.14700
H  6.80400 46.14100 33.82300
H  7.20400 45.04200 32.51600

