158

Mg -3.35300 17.43100 26.63800
C  -3.72900 15.10500 29.28200
C  -3.20500 19.93400 28.77500
C  -3.41600 19.55900 23.94800
C  -3.94900 14.74800 24.34600
N  -3.44400 17.48200 28.66300
C  -3.55400 16.44600 29.62100
C  -3.42200 16.95200 31.06200
C  -3.30400 18.49900 30.90000
C  -3.41900 18.64000 29.34400
C  -4.43200 19.39500 31.61500
C  -2.25400 16.35000 31.99600
C  -1.88700 17.07800 33.33600
H  -2.03600 16.38300 34.67100
N  -3.33900 19.51100 26.34200
C  -3.19600 20.35900 27.41200
C  -3.13600 21.73000 26.93900
C  -3.05600 21.62900 25.52100
C  -3.22200 20.20500 25.18000
C  -3.16600 22.98600 27.78300
C  -2.77300 22.64000 24.44100
O  -2.58100 22.32400 23.23400
C  -2.64200 24.06400 24.83000
N  -3.77400 17.20800 24.45700
C  -3.65800 18.24100 23.63100
C  -3.79700 17.74000 22.09000
C  -3.88200 16.27400 22.25400
C  -3.88000 16.05000 23.76600
C  -4.99400 18.38500 21.41000
C  -2.68700 15.42800 21.52400
C  -1.24400 15.71400 22.05400
N  -3.82600 15.41800 26.71000
C  -3.87000 14.43900 25.70600
C  -3.97900 13.11400 26.28500
C  -4.05700 13.33600 27.69200
C  -3.88100 14.69200 27.94100
C  -4.09400 11.87100 25.60200
C  -4.26300 12.71900 28.96100
O  -4.36300 11.52900 29.37400
C  -4.14700 13.82300 30.08600
C  -2.99700 13.29900 30.95200
O  -1.79800 13.41000 30.76300
O  -3.49100 12.50400 31.96700
C  -2.60000 11.76600 32.85500
H  -3.10400 20.77600 29.46200
H  -3.36700 20.21000 23.07300
H  -4.11500 13.89400 23.68600
H  -4.31800 16.74100 31.64500
H  -2.35100 18.81000 31.33000
H  -5.41200 18.92300 31.68200
H  -4.55300 20.32900 31.06600
H  -4.08800 19.71000 32.60000
H  -1.35600 16.31100 31.37900
H  -2.53400 15.34700 32.31800
H  -2.56100 17.93100 33.41500
H  -0.85900 17.43900 33.30900
H  -2.22500 23.53600 27.80200
H  -3.42300 22.76900 28.82000
H  -3.85900 23.74300 27.41700
H  -3.58400 24.26300 25.34000
H  -2.44200 24.72100 23.98400
H  -1.75800 24.03800 25.46800
H  -2.89900 18.04300 21.55300
H  -4.84200 15.90600 21.88900
H  -4.66000 18.80600 20.46200
H  -5.41000 19.17800 22.03000
H  -5.78000 17.67400 21.15300
H  -2.64300 15.70500 20.47100
H  -2.96800 14.37500 21.52000
H  -0.67200 15.93300 21.15100
H  -0.71600 14.82100 22.38800
H  -1.13300 16.48300 22.81800
H  -3.44700 11.12200 26.05800
H  -3.68200 11.88300 24.59300
H  -5.12800 11.53900 25.50700
H  -5.03700 14.03600 30.67800
H  -1.91100 11.08700 32.35300
H  -3.09000 11.13900 33.60000
H  -2.10800 12.55500 33.42500
Mg 5.21700 53.90800 42.41400
C  4.58500 50.33600 41.63000
C  8.30500 53.42700 41.33200
C  5.57300 57.19500 42.74800
C  1.84400 54.06800 43.44600
N  6.24100 52.08900 41.40300
C  5.88700 50.77500 41.32900
C  7.05000 49.98000 40.77200
C  8.30100 50.96700 40.90300
C  7.56100 52.25300 41.16300
C  9.39900 50.64700 41.97900
C  6.88600 49.56200 39.30900
C  6.16000 50.37700 38.17800
H  7.02200 50.62500 36.90700
N  6.81300 55.13600 42.15800
C  8.01800 54.77400 41.76600
C  8.89400 55.83800 41.77100
C  8.08800 56.95400 42.13600
C  6.73300 56.45800 42.33100
C  10.33500 55.79900 41.26800
C  8.62000 58.38400 42.34200
O  9.78200 58.63000 41.94900
C  7.90700 59.49400 43.03100
N  3.81600 55.40400 42.88800
C  4.29200 56.67200 43.07700
C  3.15700 57.58300 43.51500
C  1.95100 56.63300 43.47700
C  2.54200 55.23800 43.29100
C  3.41000 58.34400 44.85900
C  0.76400 56.98800 42.40900
C  -0.06700 58.26500 42.78300
N  3.55800 52.50300 42.48500
C  2.32400 52.78500 43.02500
C  1.53700 51.56700 43.11800
C  2.40600 50.56900 42.56200
C  3.62300 51.20200 42.20800
C  -0.00600 51.57100 43.51000
C  2.53300 49.16700 42.22000
O  1.71800 48.28100 42.31800
C  3.88700 48.98600 41.60300
C  3.89300 48.33100 40.26700
O  3.34300 48.79700 39.29200
O  4.52900 47.12500 40.33600
C  4.62400 46.34000 39.12700
H  9.37800 53.28600 41.19100
H  5.81300 58.21600 43.05100
H  0.81400 54.22900 43.77100
H  7.20500 49.06600 41.34600
H  8.78300 51.16000 39.94500
H  9.05600 49.78400 42.55100
H  9.62500 51.47200 42.65400
H  10.28700 50.38300 41.40500
H  6.28900 48.65700 39.42200
H  7.82200 49.16700 38.91300
H  5.89600 51.35700 38.57500
H  5.24500 49.98200 37.73700
H  11.00400 56.47900 41.79600
H  10.41800 56.00800 40.20200
H  10.82700 54.84800 41.47300
H  8.62600 60.31000 43.09800
H  7.63300 59.23600 44.05400
H  7.03100 59.75100 42.43500
H  3.08200 58.37900 42.77500
H  1.45100 56.55000 44.44300
H  3.96900 59.27100 44.73100
H  3.90400 57.63600 45.52400
H  2.51200 58.60800 45.41700
H  0.18800 56.12600 42.07400
H  1.34500 57.45400 41.61300
H  0.05200 58.48600 43.84400
H  -1.12500 58.06700 42.61100
H  0.28400 59.09700 42.17300
H  -0.35500 50.69400 42.96500
H  -0.58000 52.48000 43.33100
H  -0.12200 51.24400 44.54300
H  4.29800 48.28200 42.32700
H  4.32300 46.84800 38.21100
H  4.00500 45.44300 39.14700
H  5.64400 46.04400 38.88300

