158

Mg 24.59900 -4.83400 46.64700
C  26.29400 -2.06300 45.32000
C  21.84500 -3.98200 44.65500
C  23.29800 -7.90700 47.15600
C  27.61300 -5.99700 48.01800
N  24.22400 -3.22000 45.16400
C  25.02500 -2.16900 44.80400
C  24.32600 -1.26100 43.81000
C  22.79900 -1.58400 44.05500
C  22.94400 -3.05000 44.61700
C  21.95300 -0.67500 45.03000
C  24.81700 -1.58700 42.37300
C  25.36500 -0.52100 41.45300
H  24.85500 -0.60700 39.99400
N  22.76600 -5.74900 46.06700
C  21.75700 -5.18300 45.35300
C  20.71100 -6.10800 45.37200
C  21.11600 -7.28200 46.09800
C  22.44800 -7.04600 46.44600
C  19.39100 -5.82400 44.69800
C  20.18900 -8.51700 46.29400
O  19.08700 -8.61400 45.70000
C  20.55800 -9.78300 47.08800
N  25.30100 -6.75200 47.37400
C  24.59000 -7.86600 47.56600
C  25.25700 -8.81400 48.60100
C  26.73600 -8.33400 48.62000
C  26.59600 -6.95300 47.90500
C  24.62000 -8.95600 50.03300
C  27.72700 -9.26000 47.94800
C  28.70600 -10.00800 48.78900
N  26.60100 -4.15800 46.70800
C  27.67400 -4.70700 47.37600
C  28.79500 -3.69200 47.38200
C  28.34600 -2.65600 46.53500
C  27.01400 -2.98200 46.12800
C  30.08300 -3.77100 48.16300
C  28.68700 -1.33800 45.94600
O  29.72000 -0.67500 46.06100
C  27.37600 -0.90100 45.06400
C  26.86000 0.49900 45.42200
O  27.15300 1.55400 44.87200
O  25.94600 0.32200 46.45400
C  25.30200 1.53600 46.90600
H  21.02200 -3.51300 44.11200
H  22.84400 -8.79400 47.60300
H  28.48800 -6.21500 48.63500
H  24.55400 -0.23900 44.11100
H  22.32800 -1.60800 43.07200
H  21.00200 -0.38900 44.58000
H  22.40100 0.27100 45.33100
H  21.69600 -1.15800 45.97300
H  24.08900 -2.18100 41.82000
H  25.66600 -2.25800 42.50700
H  26.44300 -0.68000 41.47800
H  25.07700 0.47200 41.79700
H  19.20100 -4.77200 44.91200
H  18.54800 -6.38000 45.10900
H  19.36400 -6.05200 43.63300
H  20.75500 -9.43700 48.10300
H  21.42900 -10.32000 46.71300
H  19.66000 -10.39700 47.15300
H  25.16300 -9.80300 48.15300
H  27.13800 -8.27600 49.63100
H  25.10700 -8.36100 50.80600
H  24.35500 -9.96500 50.35000
H  23.74200 -8.33700 49.85200
H  28.34900 -8.62600 47.31600
H  27.22200 -9.90600 47.23000
H  29.68100 -9.52400 48.74000
H  28.75300 -11.04400 48.45200
H  28.45400 -9.92500 49.84600
H  30.89100 -3.16200 47.75700
H  30.35500 -4.78700 48.45100
H  29.88700 -3.23300 49.09100
H  27.58800 -0.78500 44.00200
H  24.78600 2.00000 46.06600
H  25.88300 2.26700 47.47000
H  24.49300 1.30500 47.59800
Mg 40.80800 8.87500 29.44100
C  42.72700 10.01200 32.08900
C  38.62700 7.34200 31.70300
C  39.23800 7.38500 26.85100
C  43.43400 9.67000 27.25400
N  40.68700 8.70400 31.64800
C  41.50000 9.40900 32.54000
C  41.05700 9.22300 33.94700
C  39.85400 8.18400 33.86100
C  39.67400 8.12700 32.28900
C  40.02900 6.87400 34.55600
C  40.80500 10.62000 34.71500
C  41.59500 10.85200 36.10700
H  41.03000 11.87000 37.15400
N  39.17000 7.57500 29.35000
C  38.33400 7.14700 30.32800
C  37.18600 6.44100 29.80400
C  37.40200 6.33900 28.41600
C  38.67200 7.08500 28.13400
C  36.13100 5.85500 30.72300
C  36.58500 5.73100 27.37100
O  36.95300 5.58400 26.23000
C  35.25300 5.20300 27.76400
N  41.26200 8.60600 27.31500
C  40.32800 8.01800 26.46200
C  40.71700 8.29100 24.97100
C  42.17500 8.79000 25.09100
C  42.36400 8.99900 26.64200
C  40.51200 7.12400 24.03300
C  42.64200 10.00100 24.33100
C  42.07700 11.39900 24.82000
N  42.71400 9.78600 29.57900
C  43.64600 10.00200 28.61100
C  44.72300 10.75100 29.21100
C  44.42800 10.69700 30.58000
C  43.20000 10.11800 30.74600
C  45.94800 11.17900 28.56500
C  44.94100 10.93800 31.89400
O  46.01300 11.39000 32.22200
C  43.82700 10.57800 32.90900
C  44.42400 9.77600 34.06200
O  44.64200 8.56300 34.02500
O  44.78200 10.63300 35.12500
C  45.30400 9.95700 36.29300
H  37.97000 6.82800 32.40700
H  38.65400 7.13500 25.96300
H  44.17900 10.00400 26.52900
H  41.90900 8.80500 34.48100
H  38.95400 8.66200 34.24800
H  40.64600 6.20300 33.95800
H  39.06000 6.43500 34.79200
H  40.50100 7.10600 35.51100
H  39.76600 10.84100 34.95900
H  41.06100 11.36300 33.95900
H  42.53300 11.36000 35.88100
H  41.82000 9.95900 36.69100
H  35.88100 6.35600 31.65800
H  36.53600 4.87700 30.98100
H  35.13000 5.82100 30.29300
H  34.77800 4.53800 27.04300
H  34.59500 6.07100 27.82000
H  35.32000 4.61000 28.67600
H  40.02600 9.03700 24.57800
H  42.88700 7.97100 24.98400
H  39.65700 7.17800 23.35900
H  40.49400 6.20000 24.61000
H  41.35800 7.16000 23.34700
H  42.35400 9.91800 23.28300
H  43.73000 10.04600 24.37100
H  41.34900 11.22000 25.61200
H  41.50500 11.76400 23.96700
H  42.86400 12.10000 25.09800
H  46.13900 12.24900 28.64400
H  45.92400 11.01600 27.48700
H  46.75900 10.66500 29.08100
H  43.52100 11.53400 33.33300
H  46.39000 10.04500 36.29500
H  44.90900 8.94200 36.34900
H  44.91400 10.41200 37.20400

