158

Mg 7.92800 3.05500 27.49100
C  9.60300 2.00600 30.32900
C  6.51100 5.60400 29.44000
C  6.30800 4.17800 24.73500
C  9.34200 0.55600 25.60900
N  8.10600 3.76000 29.61500
C  8.70900 3.03800 30.57800
C  8.53800 3.76100 32.00700
C  7.51700 4.84400 31.60500
C  7.33200 4.68700 30.11200
C  6.03600 4.74400 32.31500
C  9.88200 4.42400 32.46500
C  9.76700 5.22800 33.80100
H  10.77000 4.82000 34.97000
N  6.63800 4.64000 27.14500
C  6.14500 5.57200 28.08900
C  5.27700 6.52800 27.39300
C  5.08800 6.00600 26.00100
C  5.99800 4.86000 25.90700
C  4.54000 7.76700 28.09800
C  4.25400 6.55400 24.84900
O  4.26600 6.06600 23.70000
C  3.56500 7.87200 25.05600
N  7.72400 2.30400 25.44000
C  7.02000 3.00200 24.49900
C  7.12300 2.34400 23.07900
C  8.20700 1.21400 23.38800
C  8.48600 1.34800 24.88700
C  5.83100 1.67900 22.49800
C  9.49900 1.03900 22.53600
C  10.75600 1.89900 22.87100
N  9.11600 1.53300 27.86900
C  9.71800 0.61100 26.97900
C  10.59500 -0.22200 27.74000
C  10.64100 0.30500 29.05800
C  9.64400 1.34700 29.09900
C  11.44100 -1.38000 27.16300
C  11.17100 0.07900 30.34300
O  11.96000 -0.74000 30.78500
C  10.47900 1.24400 31.27700
C  9.81600 0.62700 32.49200
O  8.84700 -0.04500 32.55500
O  10.67900 0.89300 33.53900
C  10.33600 0.36900 34.90000
H  6.23900 6.41200 30.12200
H  5.85100 4.56300 23.82200
H  9.63500 -0.26800 24.95500
H  8.12100 3.10900 32.77500
H  7.81700 5.88000 31.76800
H  5.16200 4.96600 31.70300
H  5.93300 5.45000 33.13900
H  5.80300 3.81400 32.83500
H  10.20900 5.07200 31.65100
H  10.65000 3.68700 32.69900
H  8.76900 5.18100 34.23700
H  9.95300 6.25700 33.49400
H  4.96500 8.75200 27.90200
H  4.55400 7.64900 29.18100
H  3.46200 7.73400 27.93900
H  2.68100 7.68000 25.66400
H  3.09200 8.23800 24.14400
H  4.24900 8.59000 25.50800
H  7.57500 3.06000 22.39400
H  7.62300 0.29400 23.38200
H  5.05100 1.60200 23.25500
H  6.04200 0.66000 22.17500
H  5.46300 2.23900 21.63800
H  9.34600 1.34900 21.50200
H  9.76000 -0.01400 22.63600
H  10.44000 2.70800 23.52900
H  11.16500 2.39700 21.99200
H  11.56400 1.26300 23.23300
H  11.05800 -1.85300 26.25900
H  11.41900 -2.18100 27.90100
H  12.47300 -1.08000 26.97800
H  11.32100 1.91300 31.45600
H  9.33800 0.68000 35.20900
H  11.08600 0.75600 35.59000
H  10.42800 -0.71200 34.79200
Mg 16.54400 51.34800 26.23800
C  18.51200 49.74900 28.79400
C  14.30000 52.01700 28.74000
C  14.74300 52.61600 23.91600
C  18.82500 49.91000 23.95100
N  16.45400 50.90400 28.47700
C  17.41400 50.33300 29.30100
C  17.10400 50.66800 30.79400
C  15.61000 51.19400 30.73200
C  15.37800 51.33400 29.18100
C  14.48300 50.35400 31.40300
C  18.04700 51.72900 31.42800
C  18.74400 51.37800 32.73600
H  18.12100 52.01200 33.92000
N  14.68600 52.21500 26.29000
C  13.98100 52.51600 27.43900
C  12.91500 53.43600 26.95200
C  12.96900 53.55000 25.52100
C  14.11700 52.70800 25.18000
C  11.94700 54.07600 27.83100
C  12.16100 54.34000 24.51100
O  12.41700 54.46600 23.32900
C  10.91700 55.05500 25.07000
N  16.76900 51.26500 24.27000
C  15.88800 51.92900 23.51800
C  16.25100 51.81700 22.02900
C  17.54900 50.96900 22.01700
C  17.78800 50.70400 23.46600
C  15.15400 51.19400 21.19400
C  18.71500 51.65600 21.19200
C  19.61500 52.70200 21.95200
N  18.22200 49.99800 26.26500
C  19.06600 49.54800 25.28400
C  20.16900 48.74700 25.86800
C  19.96400 48.84100 27.22400
C  18.81800 49.60800 27.46700
C  21.27800 48.00500 25.09900
C  20.44900 48.42600 28.49600
O  21.45000 47.77700 28.81500
C  19.57200 49.05700 29.56800
C  19.23300 48.05900 30.63100
O  18.45800 47.08500 30.49300
O  19.92000 48.42600 31.73800
C  19.54200 47.70100 32.97200
H  13.50900 52.20500 29.46900
H  14.26900 53.09400 23.05600
H  19.51200 49.51800 23.19700
H  17.21000 49.73200 31.34400
H  15.49300 52.20200 31.13000
H  13.86900 50.86500 32.14500
H  14.98000 49.62500 32.04300
H  13.84000 49.92800 30.63200
H  17.58700 52.71400 31.50200
H  18.85500 51.85300 30.70700
H  19.76200 51.71300 32.53800
H  18.73700 50.33000 33.03500
H  12.05300 55.16100 27.82500
H  12.04900 53.76300 28.87000
H  11.01500 53.65400 27.45500
H  10.32300 55.57300 24.31600
H  11.47600 55.77000 25.67400
H  10.33400 54.37800 25.69400
H  16.59900 52.78400 21.66600
H  17.45600 49.96500 21.60300
H  14.47200 50.84100 21.96800
H  15.37100 50.27800 20.64500
H  14.72200 51.90300 20.48700
H  18.36300 52.15500 20.29000
H  19.32800 50.78300 20.96600
H  20.61600 52.36100 22.21800
H  19.16900 53.14100 22.84400
H  19.74000 53.59700 21.34300
H  20.69000 47.19900 24.66000
H  21.99600 47.64100 25.83500
H  21.67100 48.67100 24.33100
H  20.18800 49.79500 30.08200
H  19.33200 46.66700 32.69800
H  18.72900 48.24800 33.44800
H  20.45100 47.52200 33.54700

