158

Mg 43.85000 4.91500 47.41100
C  42.05600 7.96500 47.46000
C  40.77000 3.27700 47.43900
C  45.46200 2.05700 46.69800
C  46.74900 6.77300 46.59900
N  41.67100 5.57000 47.30200
C  41.21000 6.86900 47.30400
C  39.68900 6.98200 47.51500
C  39.27800 5.44300 47.67100
C  40.58800 4.74300 47.50800
C  38.51000 5.11000 49.04200
C  38.93300 7.57600 46.32400
C  39.61900 8.05300 45.01600
H  39.25200 7.21500 43.79700
N  43.26000 2.92400 47.20300
C  41.95300 2.44400 47.24600
C  42.05100 1.04600 47.04900
C  43.38000 0.65600 46.94200
C  44.11400 1.84700 46.94200
C  40.76800 0.14400 46.88500
C  43.87200 -0.75100 46.89900
O  43.07300 -1.70100 46.90300
C  45.29300 -1.12600 46.81400
N  45.80000 4.43200 46.75900
C  46.28400 3.15500 46.68900
C  47.86900 3.16100 46.31800
C  48.19000 4.71900 46.24400
C  46.81400 5.36400 46.50800
C  48.64000 2.34500 47.38500
C  48.95700 5.20600 44.98100
C  50.46200 5.04100 45.00400
N  44.35300 6.95800 47.11100
C  45.57200 7.51500 46.96900
C  45.42300 8.96600 46.99300
C  44.09900 9.20500 47.31200
C  43.40800 7.99200 47.24700
C  46.61000 9.96800 47.01900
C  43.04800 10.21700 47.55400
O  43.25700 11.43400 47.64300
C  41.65200 9.52900 47.58800
C  40.86700 9.81500 48.86400
O  40.99500 9.19600 49.96000
O  40.20300 10.99800 48.77700
C  39.19400 11.13600 49.82500
H  39.79400 2.78800 47.47400
H  46.08900 1.19600 46.45700
H  47.66000 7.37300 46.56600
H  39.37400 7.51800 48.41000
H  38.78000 5.03400 46.79200
H  38.14000 6.02000 49.51400
H  39.31400 4.70100 49.65500
H  37.74200 4.35600 48.87200
H  38.51400 8.48200 46.76300
H  37.98600 7.03700 46.29800
H  40.70300 8.05300 45.13000
H  39.30500 9.03500 44.66300
H  39.87000 0.75400 46.98000
H  40.65600 -0.69400 47.57300
H  40.80100 -0.29400 45.88700
H  45.73200 -0.52200 47.60800
H  45.65800 -0.85100 45.82400
H  45.54600 -2.17300 46.97900
H  48.00300 2.76200 45.31200
H  48.83000 4.96500 47.09100
H  49.50600 1.84900 46.94700
H  47.93500 1.58900 47.73000
H  49.01500 2.99000 48.18000
H  48.66300 6.16600 44.55800
H  48.56300 4.59000 44.17200
H  50.76200 4.25400 45.69600
H  51.03900 5.94200 45.21500
H  50.78200 4.63800 44.04300
H  47.49200 9.43300 47.36900
H  46.28000 10.81100 47.62700
H  46.73100 10.26400 45.97700
H  41.03500 9.84100 46.74600
H  39.57800 11.43900 50.79900
H  38.58200 10.23500 49.87100
H  38.54300 11.92500 49.45000
Mg 48.96700 35.21600 28.48400
C  46.68000 33.87800 30.95000
C  49.12700 38.01600 30.61800
C  50.15500 37.03700 25.96200
C  48.20800 32.58100 26.44300
N  48.01400 35.78800 30.63000
C  47.24300 35.04200 31.47000
C  47.27900 35.56900 32.89600
C  47.71100 37.08400 32.61200
C  48.37200 36.98700 31.18400
C  46.51100 37.98700 32.61600
C  48.11400 34.66800 33.84600
C  49.09500 35.44700 34.96400
H  48.55500 36.54500 35.85300
N  49.73000 37.13400 28.34800
C  49.70100 38.08700 29.30700
C  50.46500 39.18100 28.88200
C  50.75700 39.01100 27.50900
C  50.16700 37.70800 27.19100
C  50.87300 40.18100 29.86200
C  51.36400 39.80700 26.46400
O  51.45500 39.45800 25.29600
C  52.16400 41.03800 26.85900
N  49.12500 34.90000 26.47400
C  49.70500 35.77100 25.62700
C  49.67200 35.22400 24.14800
C  49.16500 33.72900 24.32900
C  48.80800 33.69000 25.83800
C  48.85700 36.03500 23.06400
C  50.27800 32.64300 24.15800
C  49.98000 31.44300 23.25500
N  47.81800 33.57000 28.62500
C  47.68000 32.54600 27.74700
C  46.90700 31.46000 28.24300
C  46.44900 32.03400 29.41100
C  47.05900 33.29100 29.66600
C  46.52700 30.23000 27.57500
C  45.52400 31.69300 30.53000
O  44.89400 30.71000 30.78200
C  45.53800 32.96600 31.46900
C  45.71700 32.61700 32.91300
O  46.63400 31.95800 33.33500
O  44.65100 33.03100 33.68500
C  44.48600 32.64000 35.07400
H  49.01400 38.93300 31.19900
H  50.58900 37.54500 25.09800
H  48.06400 31.66600 25.86500
H  46.23500 35.69700 33.18400
H  48.42200 37.51200 33.31900
H  45.92200 37.60300 31.78300
H  46.80800 39.03000 32.50300
H  46.09200 37.90800 33.62000
H  48.81500 34.08500 33.24800
H  47.49600 34.12400 34.56100
H  49.95300 35.91800 34.48400
H  49.46400 34.71600 35.68400
H  51.15600 39.64800 30.76900
H  50.08400 40.86900 30.16800
H  51.63200 40.89700 29.54800
H  52.43500 41.78600 26.11400
H  53.02300 40.79000 27.48300
H  51.43300 41.64400 27.39400
H  50.73700 35.26200 23.92000
H  48.21500 33.45200 23.87400
H  49.57200 36.22300 22.26300
H  48.32600 36.93600 23.36900
H  48.20400 35.23700 22.71100
H  50.48700 32.24300 25.15000
H  51.17500 33.05400 23.69500
H  49.08400 31.66400 22.67500
H  49.51300 30.57900 23.72700
H  50.76300 31.26200 22.51900
H  46.67600 29.41400 28.28300
H  47.13900 30.05400 26.69000
H  45.47300 30.42200 27.37200
H  44.60600 33.52900 31.43700
H  44.78100 33.49000 35.68800
H  45.17400 31.82500 35.29800
H  43.45500 32.40400 35.33800

