158

Mg 40.40900 9.74600 29.40500
C  42.41500 10.79400 32.08600
C  38.29300 8.33000 31.76100
C  38.75800 8.55600 26.87800
C  42.94300 10.92400 27.24400
N  40.46900 9.47400 31.67700
C  41.26300 10.24000 32.54400
C  40.76100 10.20100 33.98300
C  39.47300 9.23500 33.89800
C  39.42000 8.99000 32.38000
C  39.53300 7.92900 34.65100
C  40.65500 11.52600 34.64600
C  39.62500 11.74300 35.69600
H  40.07700 12.21900 37.07300
N  38.85300 8.57400 29.30900
C  38.01500 8.16800 30.39800
C  36.87000 7.46300 29.90700
C  36.95700 7.57500 28.52500
C  38.27100 8.13500 28.13800
C  35.80400 6.78600 30.69900
C  35.89900 7.32800 27.51000
O  36.05300 7.44000 26.27900
C  34.43400 7.04600 27.92600
N  40.72800 9.83600 27.38600
C  39.87800 9.29600 26.51700
C  40.27600 9.41100 25.09800
C  41.74200 9.96800 25.25500
C  41.78400 10.36600 26.75200
C  40.14900 8.11900 24.11900
C  42.12300 11.29500 24.44300
C  43.60600 11.37200 23.94700
N  42.33500 10.56100 29.58200
C  43.21000 11.07000 28.60300
C  44.36700 11.67900 29.20400
C  44.03600 11.55200 30.57600
C  42.83000 10.89900 30.79700
C  45.55300 12.32800 28.54300
C  44.51700 11.90000 31.95200
O  45.50500 12.56300 32.24700
C  43.47100 11.38100 32.98700
C  44.05600 10.43300 34.03400
O  44.51900 9.31500 33.80600
O  44.31600 11.14500 35.19900
C  45.16200 10.50200 36.30600
H  37.55400 7.88100 32.42800
H  38.09200 8.46000 26.01800
H  43.72100 11.14900 26.51100
H  41.55800 9.63500 34.46500
H  38.59100 9.73000 34.30300
H  39.09800 7.06600 34.14600
H  38.73100 8.02900 35.38300
H  40.39700 7.60500 35.23100
H  40.73400 12.27400 33.85700
H  41.54800 11.68200 35.25100
H  39.11600 10.79900 35.88800
H  38.78800 12.30600 35.28300
H  36.15800 6.25100 31.58100
H  35.45200 5.94800 30.09800
H  34.89800 7.39000 30.66900
H  34.36500 6.01300 28.26700
H  33.80600 7.12500 27.03800
H  34.03400 7.73200 28.67300
H  39.57500 10.16600 24.74100
H  42.31100 9.05100 25.10800
H  40.96200 8.14700 23.39400
H  39.16600 8.32800 23.69700
H  40.17600 7.18000 24.67200
H  41.81000 12.05700 25.15700
H  41.42200 11.47500 23.62800
H  43.46900 11.69100 22.91400
H  44.10000 10.40000 23.93400
H  44.25300 12.06500 24.48300
H  45.36800 12.37000 27.46900
H  46.49600 11.81000 28.72000
H  45.75400 13.36600 28.80800
H  43.12600 12.28200 33.49500
H  46.12500 11.01000 36.25700
H  45.19200 9.43700 36.07900
H  44.68800 10.82500 37.23400
Mg 37.03700 50.14500 25.46400
C  37.07000 48.06600 28.27700
C  35.09700 52.37200 27.27200
C  36.39600 51.79800 22.61300
C  37.88600 47.35300 23.52200
N  36.26000 50.17700 27.50500
C  36.63800 49.33800 28.54000
C  36.34300 49.94400 29.88700
C  35.38600 51.18600 29.51200
C  35.56400 51.26600 28.01600
C  33.93400 51.15800 30.05200
C  37.67200 50.16000 30.65100
C  37.58700 49.75600 32.07600
H  36.20300 49.64500 32.74000
N  35.97300 51.91400 25.02400
C  35.26100 52.69300 25.87300
C  34.73600 53.84400 25.24100
C  35.11400 53.69600 23.84000
C  35.91300 52.39200 23.77100
C  33.84600 54.90500 25.94500
C  34.85800 54.62200 22.69900
O  35.07900 54.27200 21.55500
C  34.38900 56.04000 22.95900
N  37.39300 49.74000 23.37500
C  36.93800 50.52400 22.36100
C  37.19800 49.98300 20.99500
C  37.91600 48.63100 21.37300
C  37.64400 48.51800 22.86300
C  35.92400 49.88500 20.11100
C  39.36100 48.43300 20.81500
C  40.39600 49.55300 21.05500
N  37.57500 48.10500 25.79300
C  37.85400 47.05500 24.90500
C  38.11500 45.83600 25.65700
C  37.81200 46.19700 27.00400
C  37.51300 47.56900 27.02400
C  38.58300 44.53000 25.06100
C  37.67100 45.62400 28.32200
O  37.74900 44.45500 28.72700
C  37.27600 46.84800 29.21500
C  36.05400 46.40800 29.92800
O  34.96800 46.26100 29.46200
O  36.35400 46.06400 31.25200
C  35.27900 45.37000 32.06100
H  34.45700 53.10100 27.77400
H  36.36300 52.45200 21.73900
H  38.08300 46.59300 22.76300
H  35.58400 49.32500 30.36700
H  35.83400 52.10000 29.90100
H  33.83700 50.21400 30.58800
H  33.27900 51.25900 29.18600
H  33.87800 51.92700 30.82200
H  38.02700 51.18000 30.50300
H  38.49900 49.55900 30.27100
H  38.08600 50.53900 32.64700
H  38.10500 48.81500 32.25800
H  34.59800 55.60600 26.30800
H  33.32300 54.43400 26.77800
H  33.08500 55.31800 25.28300
H  34.74300 56.46300 23.89900
H  33.36700 56.21300 22.62200
H  34.93800 56.59800 22.20000
H  37.97200 50.58300 20.51600
H  37.33800 47.82800 20.91600
H  35.62400 50.89900 19.84700
H  35.14900 49.46600 20.75300
H  36.07400 49.33800 19.18000
H  39.13400 48.28700 19.75900
H  39.87900 47.58500 21.26300
H  40.68300 50.05600 20.13200
H  41.36000 49.14000 21.35100
H  40.05300 50.28000 21.79200
H  38.82500 44.74100 24.02000
H  37.94600 43.67700 25.29400
H  39.59700 44.25300 25.34900
H  38.01200 46.92500 30.01600
H  35.34500 45.60800 33.12300
H  35.56000 44.31900 31.98000
H  34.28600 45.52200 31.63900

