158

Mg 35.48400 1.22300 30.46100
C  33.09900 2.47800 32.79000
C  37.75100 1.01100 33.01300
C  37.65800 0.46100 28.04400
C  33.06100 1.67700 27.98600
N  35.40900 1.61600 32.63900
C  34.32600 2.12300 33.36400
C  34.64100 2.06700 34.87900
C  36.18000 1.91800 34.83500
C  36.45900 1.42500 33.38100
C  36.94500 3.29000 35.09100
C  33.81400 0.99600 35.60700
C  33.16700 1.41000 36.92600
H  33.97800 2.38900 37.76200
N  37.41000 0.78000 30.51800
C  38.17900 0.71300 31.65500
C  39.52100 0.35200 31.28700
C  39.55900 0.36300 29.83300
C  38.14500 0.54300 29.36800
C  40.58700 0.11500 32.24200
C  40.71600 0.00700 28.88600
O  40.64700 0.00900 27.66100
C  42.03300 -0.10300 29.52800
N  35.42900 1.26800 28.27600
C  36.42000 0.78600 27.53500
C  36.05700 0.53700 26.06900
C  34.48700 0.84400 26.11200
C  34.28800 1.31200 27.56500
C  36.97300 1.42900 25.07600
C  33.57100 -0.40900 25.79200
C  32.57400 -0.23600 24.65800
N  33.52000 1.87700 30.33500
C  32.66400 2.12300 29.26300
C  31.44500 2.77700 29.65700
C  31.56000 2.86500 31.02000
C  32.82400 2.34500 31.39800
C  30.23000 3.02100 28.79300
C  30.86200 3.25200 32.24700
O  29.73000 3.61300 32.39500
C  31.87000 3.01800 33.45600
C  32.10700 4.32000 34.11800
O  32.90100 5.20900 33.73700
O  31.47000 4.33700 35.34900
C  31.90200 5.31800 36.33000
H  38.57700 1.08700 33.72300
H  38.36200 0.16300 27.26400
H  32.31100 1.69300 27.19300
H  34.29700 3.01800 35.28600
H  36.61800 1.16200 35.48600
H  37.40700 3.23100 36.07700
H  36.30700 4.16900 34.99800
H  37.73500 3.36500 34.34500
H  34.39600 0.09600 35.80200
H  32.99300 0.61600 34.99900
H  33.13900 0.55300 37.59800
H  32.19700 1.88600 36.78200
H  41.33700 0.89700 32.36100
H  41.18900 -0.75300 31.97400
H  40.09600 -0.06600 33.19900
H  42.79500 -0.08700 28.74900
H  42.09500 -1.13600 29.87100
H  42.28700 0.67500 30.24700
H  36.14200 -0.51400 25.79100
H  34.18300 1.67400 25.47400
H  36.46900 2.33600 24.74100
H  37.49400 1.01400 24.21300
H  37.80600 1.78900 25.68000
H  32.98200 -0.59900 26.68900
H  34.19000 -1.27700 25.56700
H  33.20600 -0.34100 23.77600
H  32.00300 0.69100 24.61300
H  31.75900 -0.95700 24.71800
H  30.43300 3.42700 27.80200
H  29.62100 3.77800 29.28800
H  29.66900 2.08800 28.75700
H  31.53200 2.29400 34.19800
H  31.53100 6.30000 36.03600
H  32.98700 5.41700 36.29500
H  31.61000 5.02800 37.33900
Mg 35.56700 48.47600 24.83600
C  35.84400 46.93500 27.94600
C  34.51900 51.27500 26.27000
C  34.88300 49.65200 21.78300
C  36.77800 45.52600 23.36400
N  35.24200 49.02900 26.97400
C  35.48700 48.30900 28.01100
C  35.07800 49.05000 29.30600
C  34.43100 50.38500 28.76200
C  34.75300 50.27500 27.22800
C  33.02500 50.65600 29.31700
C  36.34200 49.34300 30.25200
C  36.14000 49.13300 31.78500
H  34.66900 49.07800 32.28500
N  34.86000 50.25100 24.14800
C  34.49900 51.31800 24.89800
C  34.06300 52.41900 24.10400
C  34.16400 51.94000 22.76700
C  34.60000 50.52400 22.85000
C  33.67000 53.77000 24.66600
C  33.73600 52.77700 21.41600
O  34.13900 52.47400 20.28900
C  33.20600 54.20400 21.50700
N  35.87900 47.70200 22.82700
C  35.47800 48.40000 21.73700
C  35.98500 47.64600 20.46100
C  36.84600 46.54300 21.11800
C  36.45600 46.58600 22.51400
C  34.84200 47.07400 19.63900
C  38.38000 46.74600 21.03100
C  39.27400 45.50100 20.98100
N  36.10700 46.54300 25.43800
C  36.66700 45.48700 24.78900
C  36.93800 44.39400 25.63000
C  36.56100 44.95800 26.87600
C  36.19300 46.27400 26.73300
C  37.37800 42.97100 25.30000
C  36.49700 44.57000 28.30200
O  36.57100 43.49000 28.91000
C  35.98600 45.90200 29.04200
C  34.71300 45.61200 29.74200
O  33.55600 45.55800 29.27400
O  35.01500 45.31500 31.05300
C  33.91800 44.80800 31.83000
H  34.13300 52.15200 26.79400
H  34.61300 50.09100 20.82000
H  37.17900 44.62800 22.89100
H  34.36600 48.36000 29.76000
H  35.00300 51.18300 29.23500
H  32.69100 49.83000 29.94500
H  32.28600 50.67300 28.51600
H  33.15700 51.57900 29.88300
H  36.83200 50.29800 30.06300
H  37.10000 48.59500 30.01900
H  36.43700 50.09900 32.19500
H  36.69400 48.31700 32.24900
H  34.45400 54.51600 24.53800
H  33.44600 53.88300 25.72700
H  32.85300 54.03600 23.99600
H  32.21100 54.15900 21.94900
H  33.06500 54.54300 20.48100
H  33.93800 54.90300 21.91200
H  36.70400 48.26900 19.92800
H  36.57500 45.53500 20.80500
H  33.89200 47.14400 20.16900
H  35.06100 46.07000 19.27500
H  34.69500 47.59600 18.69300
H  38.65400 47.38700 21.86900
H  38.77200 47.37300 20.23000
H  38.59000 44.65200 20.96800
H  40.04000 45.52900 21.75600
H  39.90600 45.40900 20.09800
H  37.90100 43.03600 24.34600
H  36.55700 42.26200 25.18700
H  38.00500 42.61700 26.11800
H  36.69800 46.27400 29.77900
H  34.32500 44.56000 32.81000
H  33.55100 43.94300 31.27800
H  33.08900 45.46300 32.09900

