158

Mg -2.08900 17.13700 26.71500
C  -2.63100 15.10600 29.50700
C  -2.91700 19.92800 28.76000
C  -1.75500 19.13700 24.12800
C  -2.09500 14.33300 24.63600
N  -2.69200 17.55300 28.89700
C  -2.70800 16.55300 29.84200
C  -2.97700 17.11400 31.24400
C  -3.30800 18.63600 30.93200
C  -2.97500 18.73800 29.42600
C  -4.71500 19.23500 31.15500
C  -1.78200 16.80300 32.17400
C  -2.16200 16.55000 33.64000
H  -1.12800 16.74400 34.76600
N  -2.25800 19.26600 26.48400
C  -2.53700 20.23500 27.42400
C  -2.47000 21.52900 26.75600
C  -2.08200 21.36300 25.46100
C  -2.04900 19.85300 25.27500
C  -2.86800 22.75500 27.48200
C  -1.73200 22.43600 24.48800
O  -1.48300 22.20600 23.32900
C  -1.80800 23.95000 24.88400
N  -2.04200 16.73300 24.68000
C  -1.94500 17.74500 23.77800
C  -1.81300 17.26400 22.36700
C  -1.70100 15.70900 22.54500
C  -1.90200 15.56100 24.04700
C  -2.87100 17.65700 21.29400
C  -0.40500 15.04800 22.12700
C  0.78900 15.37100 23.01800
N  -2.38600 15.11800 26.95900
C  -2.33600 14.10100 26.01500
C  -2.58900 12.85900 26.77700
C  -2.59300 13.18200 28.12700
C  -2.48900 14.58400 28.24200
C  -2.76200 11.48300 26.22300
C  -2.68800 12.63200 29.43100
O  -2.75200 11.44300 29.71600
C  -2.65000 13.86500 30.44700
C  -1.42100 13.57600 31.26100
O  -0.27100 13.61700 30.81400
O  -1.76100 13.24100 32.56500
C  -0.61100 12.95700 33.50900
H  -3.10900 20.78600 29.40800
H  -1.70000 19.75500 23.23000
H  -1.99100 13.43400 24.02400
H  -3.87900 16.58300 31.54900
H  -2.67700 19.33600 31.47900
H  -5.26800 18.36400 31.50600
H  -5.30400 19.65900 30.34200
H  -4.69200 19.97600 31.95400
H  -1.13800 17.67800 32.09500
H  -1.20000 16.06300 31.62400
H  -2.40400 15.48700 33.63000
H  -3.07400 17.11000 33.84500
H  -3.47700 22.44400 28.33000
H  -3.56200 23.37800 26.91800
H  -1.89500 23.20500 27.67600
H  -1.29400 24.43500 24.05400
H  -1.18200 24.09700 25.76300
H  -2.88500 24.09000 24.98400
H  -0.86900 17.70500 22.04900
H  -2.48200 15.13100 22.05000
H  -2.38700 17.60300 20.31900
H  -3.20200 18.68900 21.41000
H  -3.65900 16.90500 21.34700
H  -0.24200 15.41700 21.11400
H  -0.60300 13.97700 22.10200
H  0.58100 16.25500 23.62000
H  1.60700 15.58400 22.33000
H  1.01300 14.51100 23.64900
H  -3.83300 11.34700 26.07700
H  -2.27000 10.76600 26.88100
H  -2.42900 11.23700 25.21500
H  -3.45600 13.90700 31.17900
H  -0.31600 13.75300 34.19300
H  0.28500 12.53000 33.05900
H  -0.89100 12.10700 34.13000
Mg 42.41200 41.85600 26.54600
C  41.57000 44.12200 29.00500
C  43.67600 39.78800 28.97800
C  43.09600 39.66800 24.12100
C  41.36600 44.29700 24.17800
N  42.56200 41.90600 28.75700
C  42.09100 42.88000 29.57400
C  42.40600 42.54900 31.09100
C  43.24200 41.21900 31.02400
C  43.17200 40.99700 29.45700
C  44.72600 41.28300 31.60400
C  41.12900 42.56300 32.02200
C  41.36500 43.21700 33.38000
H  40.49600 42.64300 34.55200
N  43.28400 40.02200 26.62200
C  43.73700 39.34500 27.69700
C  44.23500 38.06000 27.25300
C  44.09300 37.98500 25.84300
C  43.46900 39.22500 25.45400
C  44.75200 37.01300 28.26300
C  44.45000 36.80000 24.91000
O  44.29300 36.79900 23.69800
C  44.95700 35.47000 25.48000
N  42.43300 42.04100 24.43400
C  42.57800 40.89200 23.71900
C  41.95200 41.02700 22.31700
C  41.55100 42.56500 22.22100
C  41.70900 42.98800 23.68100
C  42.79500 40.48800 21.09200
C  40.17400 42.84400 21.71100
C  40.01800 43.97500 20.60100
N  41.81900 43.84600 26.56400
C  41.42300 44.70300 25.53900
C  40.99600 46.00700 26.06000
C  41.04900 45.74300 27.46300
C  41.54800 44.50000 27.67700
C  40.64500 47.27300 25.33700
C  40.71900 46.35900 28.72900
O  40.28500 47.42300 29.02300
C  41.04700 45.29200 29.78200
C  42.05900 45.93000 30.68700
O  43.25600 46.01500 30.59500
O  41.37200 46.49900 31.69200
C  42.05400 47.10800 32.84600
H  43.91000 39.03700 29.73600
H  43.03000 38.91700 23.33100
H  40.88300 45.00800 23.50500
H  43.03600 43.33200 31.51200
H  42.65900 40.47400 31.56500
H  45.06700 42.05300 32.29700
H  45.49000 41.31100 30.82700
H  44.91800 40.30800 32.05200
H  40.93700 41.52000 32.27300
H  40.20400 42.94200 31.58600
H  40.98200 44.21300 33.15600
H  42.43100 43.22400 33.60500
H  43.99400 36.23600 28.37000
H  44.96900 37.34400 29.27900
H  45.67100 36.51800 27.95000
H  45.97900 35.79800 25.66700
H  45.08200 34.72400 24.69400
H  44.44400 35.02100 26.33000
H  40.96700 40.56200 22.34700
H  42.30600 43.12600 21.67100
H  43.09000 41.30000 20.42700
H  42.13200 39.77400 20.60500
H  43.66900 39.88900 21.34900
H  39.51700 43.19300 22.50700
H  39.71400 41.94700 21.29700
H  39.26400 44.68100 20.94700
H  39.79000 43.60200 19.60200
H  40.97000 44.50500 20.56700
H  39.56900 47.31400 25.16500
H  41.12900 47.28600 24.36100
H  40.89400 48.15800 25.92300
H  40.06800 45.09400 30.22000
H  43.02000 47.55700 32.61400
H  42.34100 46.29700 33.51600
H  41.36000 47.71200 33.43100

