158

Mg 5.89300 53.46300 40.84200
C  5.16600 50.10500 40.75400
C  9.11600 52.88300 40.00000
C  6.18800 56.80500 39.99800
C  2.49800 53.97900 41.51000
N  6.89500 51.66700 40.09700
C  6.44400 50.41300 40.36200
C  7.55200 49.35200 40.10900
C  8.83800 50.28800 40.28300
C  8.25900 51.69500 40.10400
C  9.69400 50.15900 41.61200
C  7.39000 48.56900 38.75500
C  6.58500 49.17100 37.56900
H  7.34200 49.88000 36.42500
N  7.47900 54.73500 40.08800
C  8.68500 54.27500 39.90100
C  9.55700 55.37700 39.53700
C  8.77700 56.57700 39.48600
C  7.42600 56.11200 39.86100
C  10.99300 55.05400 39.07300
C  9.23900 57.95300 39.09000
O  10.35000 58.11800 38.64100
C  8.38200 59.19300 39.19800
N  4.48100 55.18000 40.80800
C  4.88400 56.44700 40.40800
C  3.71100 57.47000 40.69600
C  2.53100 56.51600 41.06900
C  3.17300 55.15000 41.06500
C  4.02600 58.67500 41.72900
C  1.26600 56.59900 40.23600
C  0.05900 57.01400 41.05400
N  4.14500 52.29600 41.07300
C  2.89600 52.69300 41.46500
C  2.13600 51.46200 41.91000
C  3.08200 50.43500 41.58100
C  4.11100 51.00000 40.96200
C  0.85100 51.43700 42.68300
C  3.21700 48.98300 41.68500
O  2.54300 48.11900 42.32200
C  4.58100 48.69300 40.98900
C  4.21300 47.85600 39.83900
O  3.57100 48.22700 38.84100
O  4.71700 46.61400 40.08100
C  4.51200 45.71300 38.91400
H  10.15300 52.55400 39.90400
H  6.25300 57.88200 39.83000
H  1.44200 54.19500 41.68200
H  7.63400 48.62700 40.92000
H  9.56400 50.11500 39.48900
H  9.59900 51.08400 42.18000
H  10.75800 49.92200 41.59600
H  9.24400 49.32200 42.14600
H  7.02200 47.56700 38.97600
H  8.42800 48.43300 38.44900
H  5.90200 49.92600 37.95700
H  6.04100 48.39000 37.03700
H  11.08700 54.00800 38.78300
H  11.76600 55.37300 39.77300
H  11.10700 55.55600 38.11200
H  8.93300 60.08800 38.90900
H  8.04100 59.26100 40.23100
H  7.57900 59.12100 38.46400
H  3.55200 57.92800 39.72000
H  2.35100 56.71100 42.12600
H  5.00700 58.41100 42.12400
H  3.28300 58.80400 42.51500
H  4.17800 59.58900 41.15500
H  0.95000 55.67900 39.74300
H  1.37900 57.41600 39.52500
H  0.17800 56.76800 42.10900
H  -0.82600 56.56500 40.60200
H  -0.17900 58.04100 40.77600
H  0.59100 50.55300 43.26600
H  0.00300 51.64400 42.03000
H  1.10100 52.29600 43.30600
H  5.24800 48.09800 41.61200
H  4.64700 46.24500 37.97300
H  3.46400 45.43100 38.81500
H  5.02500 44.76400 39.07200
Mg -6.53600 25.54600 27.14000
C  -4.95000 27.33600 29.71100
C  -8.06400 23.66200 29.55100
C  -7.75300 23.66100 24.67000
C  -4.44800 27.35400 24.83200
N  -6.45700 25.46700 29.32100
C  -5.75500 26.27600 30.18800
C  -6.06500 25.97200 31.67600
C  -6.85900 24.61600 31.60400
C  -7.19500 24.59100 30.07700
C  -5.89500 23.48500 32.01000
C  -6.92300 27.07600 32.29300
C  -6.67900 27.36600 33.79700
H  -6.69700 26.10700 34.76300
N  -7.78300 23.99300 27.08500
C  -8.37500 23.39200 28.19300
C  -9.35100 22.37300 27.76700
C  -9.25900 22.35100 26.35300
C  -8.29800 23.38400 25.95500
C  -10.25800 21.69200 28.69100
C  -10.10800 21.55300 25.29600
O  -9.98500 21.73400 24.08000
C  -11.03000 20.56400 25.79500
N  -6.08300 25.41400 25.08100
C  -6.85600 24.65300 24.25100
C  -6.45300 24.82500 22.79500
C  -5.57300 26.16400 22.83200
C  -5.30100 26.28500 24.35000
C  -5.69700 23.64200 22.08100
C  -6.36700 27.33700 22.18300
C  -7.28900 28.18000 23.08500
N  -5.06200 27.02700 27.14600
C  -4.31000 27.68500 26.19100
C  -3.48900 28.71500 26.75600
C  -3.69500 28.56800 28.12800
C  -4.65300 27.61400 28.37900
C  -2.64800 29.73200 26.06600
C  -3.26800 29.10600 29.42200
O  -2.33600 29.85300 29.69300
C  -4.12100 28.37400 30.49900
C  -3.22100 27.83000 31.57400
O  -2.48900 26.88300 31.41700
O  -3.36700 28.53700 32.75800
C  -2.56300 28.05100 33.90700
H  -8.53000 23.05200 30.32800
H  -8.04500 23.09600 23.78200
H  -3.86900 27.90400 24.08800
H  -5.19900 25.89700 32.33500
H  -7.70000 24.66500 32.29500
H  -5.58400 23.59900 33.04800
H  -5.13600 23.26500 31.25900
H  -6.51200 22.58600 32.02800
H  -7.96200 26.74800 32.26100
H  -6.77700 27.87900 31.57100
H  -7.37900 28.09600 34.20400
H  -5.68900 27.81600 33.87000
H  -11.26900 21.51600 28.32300
H  -10.48000 22.25900 29.59500
H  -9.92700 20.74800 29.12400
H  -10.54700 19.99000 26.58500
H  -11.41600 19.98700 24.95500
H  -11.83600 21.17300 26.20500
H  -7.43200 24.94500 22.33200
H  -4.61600 26.01100 22.33400
H  -5.10700 23.20800 22.88900
H  -5.09500 24.08400 21.28800
H  -6.48400 23.09100 21.56700
H  -6.98800 26.90500 21.39800
H  -5.58400 27.94100 21.72400
H  -7.32800 27.92200 24.14300
H  -8.25600 28.23500 22.58500
H  -6.95200 29.21300 22.99900
H  -2.46600 29.22900 25.11700
H  -1.66000 29.73400 26.52700
H  -3.16900 30.68800 26.11100
H  -4.47700 29.24700 31.04600
H  -1.54000 28.26900 33.59800
H  -2.79000 26.98800 33.98900
H  -2.87400 28.45700 34.86900

