158

Mg 48.15000 15.95100 28.49100
C  46.06300 15.72800 31.32100
C  50.40800 17.61700 30.38300
C  49.71800 16.65100 25.67800
C  45.30500 15.02500 26.58400
N  48.19500 16.70600 30.55100
C  47.29200 16.39900 31.58700
C  47.85700 16.93500 32.91700
C  49.05400 17.84500 32.49300
C  49.23100 17.44600 31.06400
C  48.94100 19.37300 32.84300
C  48.25000 15.79600 33.80300
C  47.83100 15.96400 35.31600
H  47.46300 17.41200 35.80300
N  49.93400 16.87600 28.06200
C  50.79600 17.43700 29.02600
C  52.00500 17.88700 28.28100
C  51.87300 17.44900 26.92100
C  50.44900 16.97700 26.86200
C  53.13000 18.72200 28.92100
C  52.76900 17.39600 25.76200
O  52.48100 16.95100 24.69500
C  54.26200 17.68600 26.01400
N  47.61500 15.70300 26.44700
C  48.48300 16.01600 25.49100
C  47.91000 15.80000 24.08700
C  46.57200 15.10000 24.34500
C  46.48400 15.32200 25.87000
C  47.77300 17.01700 23.03700
C  46.57900 13.56700 24.00600
C  47.43400 12.61000 24.89200
N  46.12300 15.30100 28.81100
C  45.12700 14.98100 28.01100
C  43.98100 14.42900 28.76400
C  44.31700 14.68800 30.07000
C  45.59400 15.29300 30.02300
C  42.86700 13.64700 28.19500
C  43.88700 14.60800 31.43400
O  42.86600 14.11300 31.93100
C  44.94200 15.40900 32.25400
C  44.21300 16.53400 32.94700
O  43.80100 17.55400 32.45700
O  44.08000 16.26400 34.30100
C  43.18700 17.16900 35.01200
H  51.14700 18.10300 31.02400
H  50.09800 16.91300 24.68800
H  44.54800 14.68200 25.87500
H  47.00500 17.49400 33.30400
H  49.99900 17.69900 33.01600
H  49.10700 20.00600 31.97100
H  49.57200 19.59400 33.70400
H  47.90900 19.53600 33.15300
H  49.33900 15.78300 33.77600
H  47.98000 14.86600 33.30300
H  48.69600 15.61800 35.88200
H  47.04700 15.23200 35.51200
H  53.33900 19.53200 28.22200
H  53.95400 18.07000 29.21200
H  52.65000 19.04500 29.84500
H  54.68800 17.44600 26.98800
H  54.33500 18.76200 25.85400
H  54.90900 17.30500 25.22400
H  48.57300 15.10600 23.57000
H  45.74200 15.54300 23.79500
H  48.20100 17.95900 23.38100
H  46.73600 17.19600 22.75200
H  48.26700 16.66400 22.13200
H  47.01500 13.57000 23.00700
H  45.55800 13.20300 23.89100
H  47.86400 11.97700 24.11600
H  46.89200 11.92100 25.54000
H  48.32400 12.94800 25.42300
H  43.35500 12.69700 27.97800
H  42.63600 14.07300 27.21800
H  41.97900 13.44000 28.79300
H  45.48600 14.83500 33.00400
H  42.43700 17.52600 34.30700
H  43.86500 17.90400 35.44600
H  42.66500 16.64200 35.81100
Mg 5.83200 54.51500 41.88800
C  5.31900 51.02700 41.57400
C  8.75200 54.13900 40.37500
C  5.79600 57.84300 41.49500
C  2.44500 54.60500 42.90600
N  6.82600 52.80500 40.93900
C  6.47900 51.46200 40.95400
C  7.52600 50.56800 40.17100
C  8.67900 51.59000 40.15800
C  8.07500 52.92500 40.49700
C  9.66200 51.28600 41.31800
C  7.15400 49.99600 38.71400
C  6.13400 50.68200 37.87000
H  6.68900 51.47600 36.68800
N  7.19100 55.88800 41.12000
C  8.40800 55.46600 40.65700
C  9.21000 56.69600 40.43100
C  8.31400 57.80700 40.64800
C  7.02800 57.24500 41.09600
C  10.70200 56.71100 39.99100
C  8.62300 59.25000 40.52200
O  9.79500 59.53700 40.17800
C  7.69100 60.30500 40.93000
N  4.28300 55.92700 42.05400
C  4.54700 57.29800 41.85100
C  3.35900 58.18300 42.22900
C  2.28800 57.07700 42.59200
C  3.05600 55.77100 42.46100
C  3.66800 59.13800 43.41200
C  0.98700 57.11500 41.73500
C  -0.32400 57.29100 42.56900
N  4.22200 53.08600 42.25300
C  2.99900 53.32200 42.78800
C  2.31200 52.08400 43.03300
C  3.26000 51.18600 42.61000
C  4.37400 51.85600 42.17100
C  1.00900 51.83800 43.56700
C  3.47400 49.75400 42.43700
O  2.79600 48.78000 42.74200
C  4.92500 49.61400 41.89300
C  4.80500 48.77900 40.74900
O  4.37600 49.19800 39.68000
O  5.11500 47.50700 41.08600
C  4.99700 46.55000 39.92900
H  9.76700 54.07600 39.97800
H  5.85200 58.93300 41.48900
H  1.39800 54.67000 43.21100
H  7.66000 49.67600 40.78200
H  9.13000 51.68600 39.17100
H  9.30400 50.54900 42.03700
H  9.95300 52.19100 41.85100
H  10.58900 50.87700 40.91600
H  6.79500 48.97700 38.86200
H  8.12600 49.86900 38.23900
H  5.66900 51.43000 38.51300
H  5.38100 50.01100 37.45800
H  10.83100 57.10200 38.98100
H  10.97900 55.65800 39.94100
H  11.29300 57.22900 40.74600
H  6.86900 60.18600 40.22300
H  8.18700 61.23000 40.63600
H  7.37900 60.24400 41.97200
H  3.17100 58.74700 41.31500
H  1.96300 57.08600 43.63200
H  3.07000 59.07600 44.32100
H  3.53700 60.12400 42.96600
H  4.69100 59.12500 43.78700
H  0.88800 56.25000 41.07800
H  1.13900 57.97700 41.08500
H  -0.68200 56.26800 42.68300
H  -1.03400 57.87500 41.98300
H  -0.01700 57.74800 43.50900
H  0.20200 52.38600 43.08000
H  0.95300 52.25600 44.57300
H  0.76900 50.78000 43.66500
H  5.67600 49.11500 42.50600
H  5.56500 45.63100 40.07100
H  5.35500 47.05800 39.03300
H  3.96800 46.34500 39.63400

