158

Mg -1.40400 17.27800 26.53600
C  -1.84900 15.33000 29.29600
C  -2.08200 20.07900 28.61800
C  -1.30600 19.37800 23.78200
C  -1.09700 14.59100 24.52000
N  -1.99900 17.71300 28.71900
C  -1.93200 16.70200 29.66000
C  -1.90800 17.24600 31.06700
C  -2.18800 18.72500 30.80500
C  -2.14300 18.84700 29.31800
C  -3.49200 19.32800 31.43500
C  -0.66100 16.82500 32.02100
C  -0.41200 17.65000 33.24000
H  -0.42300 16.93100 34.55800
N  -1.65900 19.42400 26.25200
C  -1.83600 20.35500 27.26800
C  -1.77200 21.68000 26.70600
C  -1.60400 21.53900 25.32100
C  -1.45500 20.08700 25.05700
C  -2.03500 23.01300 27.45100
C  -1.70100 22.58700 24.13000
O  -1.88500 22.28700 22.95600
C  -1.64300 24.02100 24.47700
N  -1.47000 17.01900 24.43400
C  -1.30100 18.00700 23.50900
C  -1.28900 17.37600 22.07200
C  -0.89500 15.89100 22.36400
C  -1.08000 15.80400 23.88400
C  -2.51300 17.61800 21.23600
C  0.60000 15.54300 22.05200
C  1.85100 16.26200 22.79500
N  -1.45000 15.38300 26.79900
C  -1.33900 14.34900 25.90000
C  -1.37800 13.08500 26.50100
C  -1.54800 13.43900 27.78100
C  -1.63200 14.82700 27.97700
C  -1.47000 11.82400 25.80500
C  -1.65200 12.83400 29.03100
O  -1.59800 11.62000 29.27500
C  -1.72500 14.02500 30.11900
C  -0.50200 13.83800 31.00000
O  0.66500 14.20300 30.82800
O  -0.91700 13.18400 32.13700
C  0.20100 12.96000 33.07100
H  -2.20600 20.91800 29.30400
H  -1.12300 20.02600 22.92200
H  -1.01900 13.65000 23.97200
H  -2.74000 16.78400 31.59700
H  -1.30700 19.22700 31.20400
H  -4.13600 19.70100 30.63800
H  -3.21800 20.04800 32.20600
H  -4.01800 18.56800 32.01300
H  0.24400 16.74700 31.41900
H  -0.93200 15.83200 32.38000
H  -1.15900 18.44300 33.25800
H  0.59500 18.05000 33.12200
H  -1.12100 23.60600 27.41300
H  -2.47200 22.91100 28.44400
H  -2.67700 23.69100 26.88800
H  -1.17800 24.49200 23.61100
H  -0.88700 24.21200 25.24000
H  -2.57200 24.48100 24.81300
H  -0.53000 17.90700 21.49700
H  -1.55100 15.09500 22.01200
H  -2.26500 17.93800 20.22400
H  -3.07600 18.44800 21.66300
H  -3.19200 16.76700 21.17900
H  0.74200 15.95300 21.05200
H  0.59600 14.45900 21.93400
H  2.53900 15.68200 23.41000
H  1.51900 17.02500 23.49900
H  2.41400 16.67600 21.95700
H  -0.99500 11.84100 24.82400
H  -2.48500 11.45200 25.65900
H  -0.98500 11.05600 26.40800
H  -2.68000 13.97000 30.64100
H  0.30400 13.72200 33.84400
H  1.17200 12.80500 32.60000
H  0.02200 12.04600 33.63700
Mg 47.07100 44.47500 43.52000
C  43.52000 44.13800 43.14400
C  47.19500 41.06900 42.58900
C  50.41400 44.76700 43.25200
C  46.70100 47.92100 43.58600
N  45.53200 42.84600 42.92000
C  44.22000 42.95200 42.88200
C  43.60800 41.60300 42.68200
C  44.72600 40.54000 42.77800
C  45.92500 41.54900 42.75700
C  44.68200 39.44400 43.88400
C  42.61400 41.34500 41.45500
C  42.86600 42.14800 40.15700
H  42.89700 41.44700 38.85100
N  48.66400 43.14400 43.00200
C  48.43300 41.84700 42.54900
C  49.73700 41.25500 42.27600
C  50.71000 42.25200 42.52600
C  49.97000 43.45000 42.96400
C  49.89600 39.75800 42.01300
C  52.16500 42.04000 42.49700
O  52.62200 41.04900 41.92500
C  53.15600 43.05300 43.05500
N  48.44900 46.12800 43.58800
C  49.76000 46.02200 43.51000
C  50.46300 47.34600 43.45600
C  49.26700 48.30200 43.15400
C  48.06200 47.41900 43.44800
C  51.18000 47.62900 44.74000
C  49.26600 48.97600 41.78600
C  49.66700 50.45000 41.77600
N  45.49300 45.83200 43.47900
C  45.44300 47.19100 43.61800
C  44.07300 47.59900 43.94600
C  43.31700 46.43800 43.70100
C  44.16600 45.36000 43.44800
C  43.64300 49.09600 44.25300
C  41.98600 45.93100 43.65100
O  40.94100 46.52000 43.78500
C  42.01300 44.43300 43.26700
C  41.35300 43.58900 44.22600
O  40.71300 42.63200 43.95600
O  41.43100 44.00900 45.49500
C  41.16000 42.99600 46.47100
H  47.12500 40.01400 42.31500
H  51.49800 44.89300 43.21600
H  46.77600 49.00900 43.64300
H  43.06400 41.56400 43.62600
H  44.76500 40.04200 41.80800
H  43.66400 39.40700 44.27300
H  45.33400 39.60100 44.74300
H  44.91000 38.60500 43.22600
H  41.59100 41.47900 41.80700
H  42.74200 40.26700 41.36000
H  43.76800 42.75900 40.16400
H  42.09700 42.91900 40.10900
H  50.00600 39.52800 40.95300
H  49.11400 39.17300 42.49800
H  50.81700 39.48900 42.53000
H  53.33000 43.87000 42.35400
H  54.09000 42.52400 43.24200
H  52.78200 43.38700 44.02300
H  51.16800 47.31600 42.62600
H  49.33500 49.15000 43.83500
H  51.44200 46.73500 45.30500
H  50.72100 48.37100 45.39400
H  52.17500 48.02900 44.55000
H  48.28900 48.88700 41.31000
H  49.91000 48.42400 41.10100
H  50.11400 50.75800 42.72200
H  48.75900 51.04500 41.67000
H  50.35900 50.70200 40.97300
H  43.29100 49.59300 43.34900
H  44.42400 49.73300 44.66800
H  42.78100 49.01900 44.91500
H  41.56300 44.36600 42.27600
H  41.41300 41.97700 46.17900
H  40.08300 42.98800 46.63400
H  41.66700 43.24900 47.40200

