158

Mg -1.51000 16.87200 26.05400
C  -2.15800 14.36700 28.53900
C  -2.76800 19.11100 28.34500
C  -1.58300 19.08500 23.72100
C  -1.35600 14.24400 23.77300
N  -2.12600 16.70600 28.26100
C  -2.15800 15.64400 29.07400
C  -2.45100 16.03000 30.52300
C  -2.91600 17.52900 30.30100
C  -2.58800 17.84900 28.89300
C  -4.34700 17.86900 30.81300
C  -1.30900 15.82400 31.59700
C  -1.35700 16.77200 32.84500
H  -1.26000 16.18700 34.23700
N  -2.10200 18.92700 26.05200
C  -2.55100 19.66600 27.06400
C  -2.68100 20.99200 26.65900
C  -2.33600 21.02000 25.24200
C  -1.98200 19.63400 24.94400
C  -2.96900 22.10200 27.65500
C  -2.23900 22.22100 24.27900
O  -1.69500 22.22500 23.18800
C  -2.76100 23.52300 24.70800
N  -1.41300 16.67000 23.99500
C  -1.34400 17.79500 23.26000
C  -0.99600 17.42300 21.88400
C  -0.72800 15.85100 21.91100
C  -1.16800 15.56100 23.30900
C  -2.17900 17.72000 20.80500
C  0.74000 15.40700 21.62300
C  1.79700 15.34400 22.76700
N  -1.74000 14.74600 26.10000
C  -1.58100 13.82300 25.05000
C  -1.88700 12.50100 25.44500
C  -2.04600 12.64200 26.84600
C  -1.89500 13.99300 27.17800
C  -2.07400 11.31000 24.61200
C  -2.47100 11.96200 28.01000
O  -2.71500 10.74300 28.20100
C  -2.50200 12.97100 29.20200
C  -1.61000 12.46400 30.28400
O  -0.41600 12.76300 30.39000
O  -2.24500 11.67700 31.16100
C  -1.49900 11.41600 32.43000
H  -3.09700 19.78400 29.14000
H  -1.61000 19.88800 22.98100
H  -1.19700 13.45100 23.03900
H  -3.24700 15.44400 30.98200
H  -2.15500 18.19700 30.70500
H  -4.94700 18.48000 30.13900
H  -4.40500 18.38100 31.77300
H  -4.81700 16.89200 30.92500
H  -0.32800 15.98700 31.15000
H  -1.35900 14.79600 31.95500
H  -2.30300 17.31100 32.90300
H  -0.57700 17.52300 32.71600
H  -3.71400 22.74700 27.18700
H  -2.12200 22.73100 27.92700
H  -3.43600 21.72900 28.56600
H  -3.78000 23.19900 24.92000
H  -2.74700 24.16600 23.82900
H  -2.31900 24.06300 25.54600
H  -0.11000 17.99300 21.60400
H  -1.29000 15.24300 21.20200
H  -2.52800 16.76500 20.41100
H  -1.75600 18.32300 20.00200
H  -2.94500 18.28200 21.34000
H  1.22500 16.02500 20.86800
H  0.71900 14.37400 21.27500
H  2.24900 14.35200 22.74400
H  1.24500 15.56300 23.68100
H  2.58900 16.06100 22.55600
H  -2.33900 11.61100 23.59900
H  -2.84000 10.75000 25.14800
H  -1.13300 10.76200 24.65500
H  -3.49600 12.92900 29.64600
H  -0.45100 11.14600 32.30100
H  -2.05800 10.63000 32.93700
H  -1.56300 12.26700 33.10800
Mg 1.06500 -1.79700 44.80000
C  4.47300 -1.39100 44.01900
C  0.41000 0.78100 42.53900
C  -2.23700 -2.61900 44.97000
C  1.87000 -4.78300 46.36000
N  2.32900 -0.62500 43.17900
C  3.68900 -0.57700 43.22800
C  4.21500 0.44000 42.13100
C  2.82800 1.22200 41.78600
C  1.78400 0.47400 42.50800
C  2.96100 2.76000 41.99600
C  4.88700 -0.32100 40.94100
C  6.27300 0.30900 40.55000
H  6.35000 1.50800 39.53100
N  -0.70200 -0.97900 43.88400
C  -0.71200 0.10300 43.08200
C  -2.09300 0.54900 42.89600
C  -3.00400 -0.42500 43.60000
C  -1.99100 -1.38900 44.23200
C  -2.50100 1.79100 42.06600
C  -4.53900 -0.44600 43.69300
O  -5.12300 0.48500 43.12300
C  -5.32000 -1.42500 44.40000
N  0.00700 -3.46600 45.66000
C  -1.36500 -3.52700 45.61600
C  -1.87600 -4.82300 46.35200
C  -0.55900 -5.54900 46.88500
C  0.47300 -4.62900 46.16700
C  -3.00100 -4.48700 47.45100
C  -0.36500 -7.10700 46.75500
C  -1.47200 -8.01500 47.31800
N  2.73800 -2.82900 45.24100
C  2.97800 -4.05600 45.86200
C  4.40200 -4.27600 46.16000
C  4.96900 -3.21400 45.46600
C  3.96900 -2.44300 44.90100
C  5.09700 -5.38700 46.90200
C  6.34000 -2.63600 45.09100
O  7.46800 -3.01200 45.36400
C  5.96200 -1.46900 44.13600
C  6.45100 -0.15200 44.67500
O  6.21300 0.19600 45.80700
O  7.29800 0.45700 43.79000
C  7.90500 1.72000 44.20500
H  0.14200 1.66700 41.95900
H  -3.28600 -2.80300 45.21100
H  2.25000 -5.56500 47.02100
H  4.93100 1.14400 42.55300
H  2.67800 1.18800 40.70700
H  3.89700 2.97200 42.51300
H  2.13500 3.09400 42.62300
H  2.95200 3.38800 41.10500
H  4.19200 -0.28700 40.10200
H  5.11700 -1.37700 41.07600
H  6.76700 -0.58300 40.16400
H  6.77400 0.58500 41.47800
H  -2.81500 1.46500 41.07500
H  -1.77500 2.60100 41.99400
H  -3.38200 2.18000 42.57700
H  -6.39700 -1.36800 44.24000
H  -5.11900 -1.28300 45.46100
H  -5.00200 -2.44600 44.18700
H  -2.26300 -5.49100 45.58200
H  -0.54600 -5.43700 47.96900
H  -3.86700 -5.13100 47.29400
H  -3.26500 -3.43300 47.36500
H  -2.71100 -4.61600 48.49400
H  0.55000 -7.39800 47.27200
H  -0.23200 -7.38700 45.71000
H  -1.83100 -8.60500 46.47500
H  -2.22400 -7.40600 47.81900
H  -1.09000 -8.77300 48.00200
H  5.31800 -6.22200 46.23900
H  4.56200 -5.68400 47.80500
H  6.00300 -4.87400 47.22600
H  6.46700 -1.62800 43.18300
H  8.93100 1.43300 44.43700
H  7.46700 2.03000 45.15300
H  7.73800 2.49500 43.45700

