158

Mg 46.90500 44.50600 42.41100
C  43.41500 44.06700 42.28200
C  47.14500 41.01100 42.31100
C  50.07900 44.81100 41.79800
C  46.32900 47.99000 41.74800
N  45.35400 42.76200 42.20000
C  44.03200 42.80100 42.21700
C  43.45200 41.38300 42.03500
C  44.63900 40.54700 42.59900
C  45.80700 41.48700 42.33400
C  44.60300 40.06500 44.06600
C  42.88300 41.09100 40.60800
C  43.57700 41.81900 39.37200
H  44.41100 41.03700 38.39000
N  48.40000 43.15400 42.17100
C  48.32400 41.75900 42.17500
C  49.68500 41.14300 42.09300
C  50.58300 42.22800 41.80900
C  49.70800 43.49900 42.02000
C  49.96100 39.59800 42.05100
C  52.07200 42.13000 41.53500
O  52.62300 41.01600 41.36700
C  52.96800 43.34300 41.60500
N  48.05700 46.21400 41.84700
C  49.39900 46.01200 41.80700
C  50.03500 47.38500 41.57900
C  48.86700 48.43500 41.53600
C  47.66400 47.51900 41.64100
C  51.16800 47.64300 42.59600
C  48.76900 49.26700 40.28900
C  49.41500 50.65300 40.28700
N  45.21900 45.87300 42.17900
C  45.15900 47.21600 41.93500
C  43.75200 47.58700 41.80500
C  43.01700 46.33200 41.91000
C  43.96400 45.34100 42.16200
C  43.22100 48.98700 41.59400
C  41.72800 45.77800 41.93500
O  40.59400 46.27900 41.99000
C  41.94900 44.19700 42.06600
C  41.21100 43.90000 43.33500
O  40.11600 43.30100 43.39900
O  41.95300 44.13500 44.46400
C  41.42800 43.65400 45.75600
H  47.22000 39.96300 42.60700
H  51.11100 44.97300 41.48000
H  46.15700 49.04700 41.53300
H  42.62300 41.16900 42.71000
H  44.82200 39.70600 41.92900
H  45.18300 40.67800 44.75600
H  45.09400 39.09200 44.04500
H  43.55000 39.89900 44.29200
H  41.80100 41.19200 40.68700
H  43.04600 40.01800 40.50100
H  44.22300 42.64900 39.65600
H  42.81200 42.37000 38.82600
H  49.62800 39.25700 41.07000
H  49.48600 39.00800 42.83400
H  51.04000 39.46700 42.14400
H  52.79200 43.98400 40.74100
H  54.01400 43.05800 41.72300
H  52.66700 43.82900 42.53400
H  50.49000 47.33500 40.58900
H  48.90400 49.10700 42.39400
H  52.11600 47.55800 42.06500
H  51.15100 46.97300 43.45500
H  51.13100 48.63100 43.05600
H  47.80200 49.27700 39.78500
H  49.35200 48.81300 39.48800
H  48.79200 51.40200 39.79700
H  50.39000 50.68500 39.80200
H  49.76400 50.90000 41.28900
H  44.01200 49.72700 41.47000
H  42.54100 49.13100 42.43300
H  42.72100 48.87600 40.63200
H  41.58600 43.67500 41.18100
H  40.92900 42.70600 45.55400
H  40.70800 44.38600 46.12300
H  42.28200 43.60700 46.43100
Mg -1.93400 34.90000 26.85400
C  -3.20400 32.92600 29.50800
C  -0.53300 36.94200 29.17100
C  -1.08900 36.92100 24.29700
C  -3.37800 32.63400 24.62300
N  -2.02600 34.95900 29.11800
C  -2.51700 34.03300 30.02000
C  -2.23200 34.43600 31.52400
C  -1.42000 35.79400 31.33800
C  -1.23100 35.88300 29.78700
C  -1.99800 37.08300 31.89500
C  -1.44400 33.33100 32.37600
C  -2.18300 32.98100 33.66700
H  -1.27700 32.96600 34.90600
N  -1.03300 36.75200 26.75500
C  -0.52200 37.43100 27.81000
C  0.18200 38.61700 27.35100
C  -0.06100 38.68700 25.90500
C  -0.73000 37.39000 25.60500
C  0.75800 39.64400 28.31100
C  0.25900 39.80200 24.90100
O  -0.16600 39.78300 23.76000
C  0.97400 40.99600 25.42100
N  -2.19800 34.69500 24.75100
C  -1.77000 35.73000 23.89300
C  -2.12800 35.29300 22.41800
C  -2.44100 33.81300 22.55300
C  -2.73400 33.68700 24.01700
C  -3.29500 36.12800 21.71200
C  -1.29500 32.80500 22.09400
C  -0.04800 32.76200 22.96500
N  -3.08500 33.19800 26.98900
C  -3.60700 32.38600 25.99100
C  -4.36100 31.33500 26.58000
C  -4.18600 31.51700 27.97400
C  -3.33400 32.58400 28.12400
C  -5.44500 30.54000 25.93500
C  -4.61100 31.01300 29.26600
O  -5.37800 30.11200 29.50900
C  -3.86700 31.87400 30.35100
C  -4.82600 32.56600 31.28800
O  -5.60100 33.42800 30.97200
O  -4.79600 31.93700 32.47800
C  -5.76200 32.26200 33.47900
H  -0.11800 37.63000 29.91100
H  -0.77900 37.56100 23.46800
H  -3.69700 31.81900 23.97000
H  -3.20100 34.72300 31.93300
H  -0.41800 35.67300 31.74900
H  -2.90800 36.98700 32.48800
H  -2.29200 37.72800 31.06800
H  -1.23300 37.61900 32.45700
H  -0.42300 33.64600 32.59200
H  -1.48700 32.42000 31.77900
H  -2.78100 32.08300 33.51800
H  -2.93600 33.75700 33.80700
H  0.09900 40.51200 28.32100
H  1.73900 40.04800 28.06100
H  0.93000 39.23900 29.30800
H  1.00800 41.69700 24.58700
H  2.00900 40.76900 25.67400
H  0.36800 41.33800 26.26100
H  -1.24100 35.34500 21.78600
H  -3.26600 33.56600 21.88400
H  -3.46900 37.01900 22.31500
H  -4.29000 35.70600 21.57900
H  -2.82100 36.38200 20.76300
H  -1.03900 33.11200 21.08000
H  -1.71800 31.80400 22.17300
H  0.83600 33.01900 22.38200
H  0.13600 31.77200 23.38200
H  -0.22100 33.45800 23.78600
H  -5.00600 29.79500 25.27100
H  -6.09700 31.11700 25.27900
H  -6.03300 30.07700 26.72700
H  -3.09700 31.27800 30.84100
H  -6.61000 32.83600 33.10700
H  -5.44300 32.79100 34.37600
H  -6.10200 31.31900 33.90600

