158

Mg 17.47000 -1.47100 27.22000
C  16.33400 0.58300 29.78100
C  19.47900 -3.15200 29.35800
C  18.77600 -2.95300 24.43100
C  15.96000 0.90900 24.93000
N  17.87200 -1.32700 29.34200
C  17.23600 -0.47500 30.18100
C  17.60100 -0.87200 31.65700
C  18.86400 -1.85200 31.50300
C  18.82900 -2.10300 29.99300
C  20.24800 -1.44300 32.02700
C  16.36300 -1.33600 32.47200
C  16.16200 -0.56400 33.70900
H  17.33600 -0.12800 34.63900
N  18.83200 -3.05800 26.92600
C  19.51800 -3.59800 27.99200
C  20.38700 -4.60300 27.33900
C  20.19200 -4.62900 25.96800
C  19.23000 -3.52700 25.71000
C  21.31400 -5.44400 28.22100
C  20.87800 -5.47700 24.95100
O  20.68700 -5.24100 23.74900
C  21.90700 -6.48900 25.36800
N  17.26200 -1.15900 24.86900
C  17.97300 -1.84100 24.04100
C  17.83300 -1.35500 22.58000
C  16.88500 -0.16100 22.79900
C  16.68300 -0.07800 24.31600
C  19.21900 -0.92500 22.00500
C  15.49200 -0.38200 22.10500
C  15.24100 0.52000 20.88800
N  16.22000 0.18900 27.28400
C  15.71400 1.06700 26.31200
C  14.94300 2.10200 26.94600
C  15.20400 1.93700 28.30500
C  15.94100 0.79600 28.47200
C  14.11800 3.22800 26.38100
C  14.88600 2.52500 29.51600
O  14.07700 3.41500 29.84200
C  15.72500 1.70000 30.59100
C  16.69000 2.44900 31.41000
O  17.89600 2.61200 31.13500
O  15.95800 2.99800 32.45500
C  16.70500 3.87600 33.35700
H  20.03400 -3.62300 30.17200
H  19.13700 -3.50100 23.55800
H  15.54200 1.69300 24.29400
H  18.10300 -0.04000 32.15100
H  18.60600 -2.80800 31.95700
H  21.04500 -1.42000 31.28400
H  20.55800 -2.22000 32.72700
H  20.22900 -0.48800 32.55200
H  16.34300 -2.41400 32.63100
H  15.46100 -1.19500 31.87700
H  15.49400 -1.09900 34.38300
H  15.64600 0.31600 33.32400
H  20.95500 -5.33700 29.24400
H  22.37800 -5.23300 28.11600
H  21.20400 -6.50300 27.98500
H  22.76400 -5.88900 25.67700
H  21.99700 -7.07800 24.45600
H  21.54400 -7.19800 26.11100
H  17.47900 -2.07000 21.83800
H  17.27600 0.82200 22.53700
H  19.45500 0.12300 21.82200
H  19.49200 -1.46600 21.09800
H  19.98700 -1.17600 22.73700
H  14.74700 -0.08000 22.84100
H  15.22900 -1.38500 21.76700
H  15.11000 -0.09400 19.99600
H  16.06100 1.17800 20.60100
H  14.36700 1.13500 21.10300
H  14.85800 3.93400 26.00400
H  13.57200 3.71700 27.18800
H  13.41600 2.85300 25.63700
H  14.91500 1.32500 31.21700
H  16.48300 4.91800 33.12500
H  17.78000 3.84500 33.18500
H  16.54500 3.85100 34.43500
Mg 26.63000 50.55400 26.93900
C  24.46100 51.56800 29.49200
C  28.95100 49.59000 29.34700
C  28.81400 49.74500 24.45900
C  24.38000 51.83300 24.61000
N  26.62800 50.57000 29.13000
C  25.63200 51.05900 29.97300
C  25.88500 50.74600 31.47200
C  27.37600 50.38300 31.46900
C  27.68500 50.07100 29.92400
C  28.40400 51.43000 32.03500
C  25.01700 49.57300 32.13700
C  25.49300 48.78700 33.48000
H  25.98300 49.67300 34.61000
N  28.62100 49.82100 26.94000
C  29.34900 49.43300 28.03600
C  30.57200 48.83100 27.50400
C  30.65000 48.97000 26.07900
C  29.32700 49.53900 25.77100
C  31.62100 48.14500 28.34000
C  31.73700 48.45400 25.15200
O  31.67700 48.64200 23.96500
C  32.82600 47.62300 25.61600
N  26.66100 50.83800 24.90700
C  27.53700 50.22600 24.12300
C  27.13800 50.13500 22.63200
C  25.80600 50.95600 22.60000
C  25.57700 51.26700 24.10700
C  28.17200 50.65200 21.66400
C  24.51800 50.19400 21.96700
C  24.74900 49.56800 20.57100
N  24.80900 51.52000 27.00300
C  24.08100 52.02900 25.98900
C  22.85400 52.66300 26.48500
C  22.93900 52.46500 27.88300
C  24.12500 51.79000 28.14400
C  21.84800 53.33300 25.73100
C  22.23700 52.67300 29.17300
O  21.18500 53.24700 29.48700
C  23.22600 52.06100 30.28700
C  23.57100 53.23000 31.19900
O  24.50300 54.05900 31.06600
O  22.73500 53.24500 32.29600
C  23.05300 54.32800 33.25100
H  29.73500 49.28500 30.04300
H  29.37900 49.18500 23.71200
H  23.64900 52.34800 23.98300
H  25.78900 51.64000 32.08800
H  27.49200 49.48700 32.07800
H  27.95300 52.40500 32.22200
H  29.22600 51.59100 31.33700
H  28.76800 51.12900 33.01800
H  25.05700 48.80600 31.36400
H  23.98300 49.88000 32.29500
H  26.25400 48.09200 33.12600
H  24.60600 48.21400 33.75100
H  31.42500 48.19800 29.41100
H  32.62700 48.56400 28.34800
H  31.53000 47.08600 28.10000
H  33.50900 48.28900 26.14300
H  33.39300 47.34700 24.72700
H  32.63400 46.75300 26.24400
H  26.86200 49.10700 22.39800
H  25.94100 51.94000 22.15000
H  27.68300 51.38100 21.01700
H  28.61300 49.82200 21.11300
H  28.94100 51.10200 22.29300
H  23.81200 51.02000 22.05100
H  24.08000 49.42900 22.60700
H  24.43800 48.52700 20.48700
H  25.79700 49.53400 20.27300
H  24.26000 50.16700 19.80200
H  22.23300 54.20000 25.19600
H  21.08800 53.74100 26.39700
H  21.27500 52.75000 25.01000
H  22.78100 51.23600 30.84400
H  23.49500 55.25000 32.87300
H  23.74900 53.90000 33.97200
H  22.16300 54.63000 33.80300

