158

Mg 8.01100 3.47700 28.17000
C  9.36200 1.99500 30.95800
C  6.23900 5.64300 30.33900
C  6.20100 4.69200 25.62400
C  9.26700 0.97700 26.16400
N  7.67600 3.65800 30.43900
C  8.57800 3.06500 31.35100
C  8.40100 3.66200 32.77400
C  7.28200 4.75600 32.50900
C  7.00300 4.67000 30.97100
C  5.98500 4.44500 33.26900
C  9.69400 4.15000 33.45600
C  9.94900 3.61100 34.90900
H  10.25500 4.59200 36.01900
N  6.56200 5.02900 27.95700
C  6.00800 5.73700 28.95600
C  5.09200 6.68400 28.43700
C  5.10200 6.49700 27.04600
C  6.02800 5.42700 26.78300
C  4.08500 7.47800 29.29100
C  4.25600 7.14700 26.01300
O  4.27200 6.82900 24.81500
C  3.31500 8.21000 26.40100
N  7.68200 2.92300 26.23400
C  7.04400 3.65800 25.35100
C  7.17700 3.07700 23.97900
C  8.42600 2.15500 24.11600
C  8.43600 1.94700 25.61300
C  5.87500 2.46800 23.39600
C  9.72500 2.75100 23.59000
C  10.65600 3.49100 24.57100
N  9.20300 1.90700 28.46700
C  9.62300 0.98600 27.58000
C  10.48100 -0.04000 28.23000
C  10.48500 0.35200 29.56400
C  9.61200 1.53500 29.69100
C  11.23700 -1.23000 27.59300
C  10.94000 0.06900 30.92400
O  11.64100 -0.91600 31.31900
C  10.15600 1.05000 31.84900
C  9.20200 0.34300 32.78200
O  8.12100 -0.11900 32.50900
O  9.89000 0.32600 34.04900
C  9.00500 -0.25400 35.09700
H  5.66800 6.33600 30.96000
H  5.66500 5.10600 24.76700
H  9.87100 0.24600 25.62200
H  8.01000 2.86600 33.40800
H  7.70600 5.73800 32.71800
H  5.22100 4.12900 32.55900
H  5.63600 5.45200 33.49600
H  6.05800 3.91700 34.21900
H  9.70300 5.24000 33.47800
H  10.50700 3.88100 32.78100
H  10.81900 2.95600 34.87900
H  9.12100 3.01300 35.28900
H  4.37800 8.50000 29.05200
H  4.04500 7.32300 30.36900
H  3.13300 7.12400 28.89500
H  2.43500 7.71900 26.81500
H  3.07100 8.71800 25.46800
H  3.77400 8.99100 27.00900
H  7.34000 3.96100 23.36300
H  8.27000 1.21800 23.58100
H  5.99800 1.44200 23.05100
H  5.58400 3.10200 22.55800
H  5.12000 2.53700 24.17900
H  9.37100 3.53800 22.92300
H  10.28700 2.06500 22.95700
H  11.54800 2.90800 24.80100
H  10.10000 3.71500 25.48200
H  11.00900 4.43800 24.16400
H  10.47900 -1.91100 27.20500
H  11.85000 -1.72900 28.34300
H  11.90600 -1.01700 26.75900
H  10.92300 1.61400 32.38000
H  9.71400 -0.40900 35.91000
H  8.51400 -1.19200 34.83700
H  8.30600 0.51000 35.43800
Mg 17.33700 52.97000 26.08400
C  19.36700 51.66700 28.68700
C  14.91800 53.68500 28.46700
C  15.38300 54.08500 23.65000
C  19.53400 51.55200 23.80200
N  17.15200 52.63000 28.30200
C  18.16000 52.20500 29.14100
C  17.72700 52.33400 30.67700
C  16.22000 52.60500 30.44700
C  16.06400 53.05200 28.96100
C  15.16900 51.49800 30.75000
C  18.56500 53.45900 31.41300
C  19.07700 53.13900 32.85200
H  18.10200 52.40400 33.71100
N  15.45400 53.74700 26.09900
C  14.68400 54.10800 27.15600
C  13.51200 54.90100 26.76400
C  13.52100 54.82200 25.34600
C  14.86900 54.31600 24.95500
C  12.50900 55.55900 27.77400
C  12.38600 55.26200 24.34200
O  12.41200 55.21500 23.13200
C  11.12400 55.69200 24.93100
N  17.38700 52.75600 24.00900
C  16.46400 53.34300 23.20900
C  16.85800 53.37800 21.75600
C  18.17700 52.45500 21.75300
C  18.39800 52.22300 23.31000
C  15.75600 52.75800 20.82100
C  19.36800 53.13900 20.97600
C  20.31400 53.92500 21.75300
N  19.18100 51.91400 26.11600
C  19.98800 51.42100 25.12100
C  21.14300 50.86500 25.65900
C  20.99700 50.89100 27.09000
C  19.79100 51.52700 27.29600
C  22.22300 50.41500 24.79400
C  21.56000 50.56800 28.38400
O  22.61900 50.10100 28.72500
C  20.50300 51.03100 29.43000
C  20.00400 49.82500 30.17700
O  19.26800 49.04400 29.75700
O  20.43900 49.76900 31.52500
C  19.63300 48.96500 32.36600
H  14.20300 53.99200 29.23300
H  14.80900 54.54100 22.84100
H  20.19700 51.21000 23.00400
H  17.97000 51.39500 31.17500
H  15.93900 53.40600 31.13000
H  14.20700 51.91400 31.05000
H  15.60400 50.83900 31.50100
H  14.92700 50.95400 29.83700
H  18.03200 54.40300 31.52500
H  19.48200 53.57200 30.83400
H  19.28800 54.07500 33.37100
H  20.01900 52.59100 32.82400
H  11.53700 55.90600 27.42400
H  13.10600 56.42400 28.06500
H  12.31800 55.02700 28.70600
H  10.80600 54.90700 25.61700
H  10.40300 55.89200 24.13900
H  11.17200 56.62100 25.49900
H  17.13600 54.36200 21.37700
H  17.95000 51.49200 21.29400
H  15.48000 53.51100 20.08300
H  14.93000 52.47000 21.47300
H  16.13300 51.90300 20.26100
H  19.03900 53.82500 20.19500
H  19.94200 52.31600 20.54900
H  20.44100 54.92800 21.34500
H  21.34600 53.61300 21.59500
H  20.09800 54.11300 22.80400
H  22.34000 50.97800 23.86800
H  21.97800 49.38800 24.52100
H  23.16200 50.44800 25.34500
H  20.89200 51.71400 30.18400
H  19.93100 47.97100 32.03300
H  18.56000 49.00900 32.17700
H  19.77700 49.10800 33.43700

