158

Mg 16.77600 -2.36000 27.93800
C  16.02300 -0.28000 30.61600
C  18.33800 -4.52400 30.04400
C  17.87200 -3.97400 25.20800
C  15.45800 0.12500 25.78700
N  17.21100 -2.34700 30.08100
C  16.81200 -1.38500 31.00300
C  17.43000 -1.73500 32.45100
C  18.26000 -2.99000 32.15200
C  17.76700 -3.37500 30.66300
C  19.80300 -2.90900 32.21500
C  16.19000 -1.97100 33.49900
C  16.61000 -1.79700 35.00900
H  17.91200 -1.05100 35.37600
N  17.85000 -4.01700 27.66200
C  18.36400 -4.81300 28.72300
C  19.06700 -5.86500 28.09700
C  18.92000 -5.84300 26.71700
C  18.19500 -4.56400 26.48900
C  19.81400 -6.90500 28.84100
C  19.36600 -6.84900 25.64300
O  18.98500 -6.66100 24.45500
C  20.19000 -8.08900 25.90000
N  16.85900 -1.90300 25.81300
C  17.31100 -2.76700 24.93900
C  17.15200 -2.25500 23.52600
C  16.20100 -1.01100 23.68400
C  16.15300 -0.89400 25.17400
C  18.52000 -1.91000 22.87700
C  14.78700 -1.23700 23.02000
C  14.76500 -1.24000 21.48400
N  15.80600 -0.51600 28.06200
C  15.24500 0.31900 27.15100
C  14.46600 1.36800 27.83500
C  14.78200 1.20800 29.24400
C  15.65900 0.08100 29.27200
C  13.83500 2.58600 27.30900
C  14.57800 1.71000 30.56200
O  13.89100 2.66700 30.92400
C  15.38700 0.74300 31.55500
C  16.41000 1.64200 32.21500
O  17.47700 1.93900 31.74800
O  15.99300 1.95400 33.43800
C  16.72500 2.98200 34.14000
H  18.70300 -5.29200 30.72900
H  18.32900 -4.41500 24.32000
H  14.81400 0.79200 25.20900
H  18.15600 -0.96000 32.69600
H  17.79700 -3.73900 32.79500
H  20.08700 -1.89100 31.95100
H  20.27100 -3.60000 31.51400
H  20.10900 -3.13700 33.23600
H  15.92300 -3.02800 33.49400
H  15.26100 -1.45000 33.27000
H  16.84400 -2.76300 35.45800
H  15.75000 -1.30100 35.46000
H  20.75900 -7.05200 28.31800
H  19.27600 -7.85200 28.80900
H  20.12700 -6.49800 29.80300
H  19.71400 -8.64000 26.71200
H  21.22600 -7.77900 26.04100
H  19.98900 -8.68500 25.01000
H  16.56400 -2.82200 22.80500
H  16.66800 -0.09700 23.31800
H  18.85800 -0.89400 23.08300
H  18.54100 -2.00900 21.79100
H  19.31600 -2.54900 23.25800
H  14.17600 -0.37900 23.30000
H  14.31500 -2.13400 23.42200
H  15.74800 -1.25000 21.01400
H  14.34300 -0.27600 21.20000
H  14.12100 -2.05400 21.15000
H  12.77400 2.39700 27.14800
H  14.30300 2.89300 26.37400
H  13.98300 3.40800 28.00900
H  14.66400 0.33500 32.26000
H  16.78000 3.88300 33.52900
H  17.70000 2.55900 34.38500
H  16.24300 3.22400 35.08700
Mg 29.41100 59.43000 41.77500
C  26.28300 58.08300 40.76600
C  30.95900 56.52600 40.45000
C  32.46400 60.82400 42.08900
C  27.79800 62.23100 42.79800
N  28.67600 57.60700 40.59100
C  27.40600 57.27200 40.37500
C  27.41500 55.99800 39.61900
C  28.82800 55.41300 39.75300
C  29.53800 56.52300 40.45100
C  28.98400 54.00600 40.26500
C  26.81300 56.07800 38.13500
C  26.11300 54.83300 37.70400
H  26.64600 54.26200 36.38300
N  31.44200 58.79600 41.23100
C  31.92800 57.51400 40.78600
C  33.27000 57.45400 40.63500
C  33.70000 58.77300 40.96600
C  32.52800 59.53600 41.48100
C  33.97300 56.22500 40.08100
C  35.07500 59.22100 40.87600
O  35.95200 58.41200 40.56700
C  35.56400 60.63200 41.14000
N  30.06700 61.29600 42.30100
C  31.38000 61.64300 42.44400
C  31.52700 63.08300 42.95000
C  29.98900 63.54000 43.10900
C  29.22200 62.32400 42.62500
C  32.29800 63.27600 44.29900
C  29.63000 64.85300 42.25400
C  29.10000 65.95700 43.20200
N  27.44000 59.99100 41.91200
C  26.93100 61.20900 42.41100
C  25.45300 61.03300 42.51900
C  25.19600 59.84800 41.82800
C  26.43400 59.30900 41.39900
C  24.54400 62.13100 42.90100
C  24.09800 58.97800 41.31300
O  22.89300 59.00100 41.42200
C  24.83100 57.78400 40.62200
C  24.38300 56.49200 41.17900
O  24.34300 56.26300 42.34900
O  24.00800 55.62300 40.20900
C  23.48400 54.42200 40.89600
H  31.47100 55.64400 40.05900
H  33.40000 61.28800 42.40500
H  27.43200 63.18700 43.17800
H  26.74800 55.40500 40.24500
H  29.24200 55.58800 38.76000
H  29.75800 54.14200 41.02000
H  29.31400 53.43700 39.39600
H  28.01200 53.62600 40.58100
H  27.63300 56.18500 37.42500
H  26.16900 56.93900 37.95400
H  25.06400 55.02100 37.47700
H  26.12100 54.05800 38.47000
H  34.03300 56.34400 39.00000
H  33.61300 55.21400 40.27500
H  34.92800 56.04800 40.57700
H  34.72200 61.28600 40.91600
H  36.44600 60.83100 40.53100
H  35.75300 60.59900 42.21400
H  32.10800 63.55500 42.15700
H  29.89800 63.72300 44.18000
H  31.95700 64.07900 44.95200
H  33.29500 63.44200 43.88900
H  32.27500 62.32800 44.83700
H  28.86100 64.60600 41.52200
H  30.49600 65.15100 41.66300
H  29.51900 66.94500 43.01400
H  29.15600 65.59200 44.22800
H  28.02200 66.07800 43.10000
H  23.62700 61.64500 43.23300
H  24.43100 62.72800 41.99600
H  24.85600 62.70000 43.77700
H  24.54200 57.75500 39.57200
H  24.36500 53.87600 41.23100
H  22.93100 53.80500 40.18800
H  22.75000 54.62200 41.67700

