158

Mg -1.87400 17.52700 25.72100
C  -2.44500 15.35000 28.59400
C  -2.78400 20.13800 27.84600
C  -1.94500 19.40500 23.07100
C  -1.78900 14.62200 23.76000
N  -2.33500 17.67200 28.01700
C  -2.46400 16.71100 29.00600
C  -2.86400 17.34200 30.32400
C  -3.09500 18.84200 30.02700
C  -2.73300 18.92600 28.54700
C  -4.58200 19.19600 30.34800
C  -1.70000 17.16500 31.35900
C  -1.97200 16.31100 32.58100
H  -2.34800 17.10500 33.80900
N  -2.28000 19.51500 25.44300
C  -2.41400 20.41700 26.49300
C  -2.35600 21.74500 25.85100
C  -2.08500 21.59800 24.44400
C  -2.08100 20.17900 24.30500
C  -2.51100 23.00100 26.61200
C  -1.72800 22.62700 23.45500
O  -1.53200 22.35800 22.28400
C  -1.65900 24.05500 23.80600
N  -2.09700 16.99500 23.71200
C  -1.85400 18.01300 22.83100
C  -1.57700 17.50100 21.40900
C  -1.42700 15.96400 21.66100
C  -1.71200 15.85600 23.17900
C  -2.64000 17.78200 20.35000
C  -0.09800 15.24700 21.28100
C  1.02100 15.52300 22.28000
N  -1.99000 15.36700 26.08900
C  -1.87900 14.35500 25.13800
C  -1.98300 13.04400 25.82800
C  -2.23300 13.38800 27.19000
C  -2.23600 14.80300 27.30000
C  -1.98200 11.71400 25.22700
C  -2.55000 12.88600 28.52700
O  -2.61800 11.75100 28.84200
C  -2.73600 14.07700 29.51300
C  -1.73900 13.84500 30.67600
O  -0.57100 14.20200 30.67100
O  -2.31400 13.11100 31.66000
C  -1.57700 12.89200 32.90900
H  -3.03000 21.01000 28.45700
H  -1.91900 20.03000 22.17500
H  -1.70300 13.71400 23.16000
H  -3.78900 16.81400 30.55700
H  -2.49100 19.60000 30.52600
H  -4.84100 18.83800 31.34400
H  -5.35400 18.66600 29.79000
H  -4.72700 20.27500 30.28800
H  -1.26000 18.14400 31.55100
H  -0.89500 16.64000 30.84500
H  -1.04100 15.77600 32.76600
H  -2.76000 15.56400 32.48600
H  -2.34300 22.92300 27.68600
H  -3.40700 23.60800 26.48400
H  -1.81200 23.76800 26.27600
H  -0.87600 24.50900 24.41300
H  -2.60100 24.35800 24.26300
H  -1.79600 24.63600 22.89300
H  -0.63700 17.93400 21.06600
H  -2.20900 15.41400 21.13700
H  -2.85300 18.84100 20.20500
H  -3.59900 17.37000 20.66200
H  -2.42900 17.28400 19.40300
H  0.22500 15.63200 20.31400
H  -0.35400 14.18800 21.24400
H  0.79500 16.32800 22.98000
H  1.94000 15.70800 21.72300
H  1.25000 14.65900 22.90400
H  -1.49800 11.87700 24.26500
H  -2.97300 11.26300 25.18700
H  -1.36900 10.94900 25.70400
H  -3.72700 14.00900 29.96200
H  -2.18500 12.93500 33.81300
H  -0.75700 13.60000 33.03500
H  -1.25900 11.85000 32.89800
Mg -8.35300 40.50200 42.54100
C  -7.42900 37.36100 41.35300
C  -5.79200 41.89300 40.87300
C  -9.99400 43.51600 42.73000
C  -11.27200 38.99000 43.71700
N  -6.90600 39.70400 41.24600
C  -6.56900 38.40300 40.92100
C  -5.22100 38.17800 40.27600
C  -4.57400 39.62100 40.44300
C  -5.84300 40.49700 40.88700
C  -3.47400 39.66400 41.57000
C  -5.29500 37.67000 38.77500
C  -4.48500 36.35100 38.61300
H  -3.23100 36.45500 37.68800
N  -7.83600 42.51500 42.14400
C  -6.71800 42.86700 41.41800
C  -6.55100 44.32300 41.46700
C  -7.77900 44.88600 42.02600
C  -8.62600 43.65000 42.27900
C  -5.25100 44.84100 40.97300
C  -8.10300 46.30100 42.29500
O  -7.32400 47.16200 41.89200
C  -9.33200 46.69300 42.98400
N  -10.44100 41.17200 43.00600
C  -10.76900 42.49200 43.14000
C  -12.20500 42.62000 43.68900
C  -12.48000 41.18100 44.17900
C  -11.40900 40.38900 43.49600
C  -12.40200 43.70400 44.79800
C  -13.91800 40.71400 44.08200
C  -14.25900 39.80100 42.86900
N  -9.24000 38.57500 42.61000
C  -10.40100 38.13000 43.12400
C  -10.40600 36.68200 43.05600
C  -9.26100 36.33100 42.40900
C  -8.60900 37.55600 42.09600
C  -11.45900 35.78400 43.68800
C  -8.41800 35.19900 41.89000
O  -8.57600 34.00700 41.96500
C  -7.22100 35.85700 41.12500
C  -5.96900 35.38500 41.83800
O  -5.56500 35.75200 42.89600
O  -5.40500 34.38600 41.09800
C  -4.10200 33.94800 41.56200
H  -4.85200 42.16600 40.38900
H  -10.54600 44.45600 42.80100
H  -12.03000 38.50600 44.33700
H  -4.69100 37.50200 40.94700
H  -4.16400 40.01400 39.51200
H  -3.85900 39.98900 42.53700
H  -2.74200 40.38400 41.20500
H  -3.07400 38.66800 41.75700
H  -4.85600 38.37300 38.06700
H  -6.32600 37.56200 38.43900
H  -5.23000 35.63500 38.26600
H  -4.12300 36.02100 39.58700
H  -5.22700 44.51900 39.93200
H  -4.35400 44.40600 41.41200
H  -5.16900 45.92800 40.98600
H  -9.09100 47.67400 43.39300
H  -9.51500 46.08600 43.87100
H  -10.13600 46.68100 42.24800
H  -12.88600 42.84400 42.86800
H  -12.35900 41.20300 45.26200
H  -12.67800 43.33700 45.78600
H  -13.28300 44.26100 44.48000
H  -11.48500 44.29200 44.82300
H  -14.57000 41.58600 44.03500
H  -14.27000 40.13600 44.93700
H  -14.43000 38.78300 43.22100
H  -13.41700 39.93000 42.18900
H  -15.16800 40.18700 42.40700
H  -12.29600 35.68400 42.99700
H  -11.65600 36.15300 44.69500
H  -11.08400 34.76500 43.78700
H  -7.30200 35.62400 40.06300
H  -3.44200 34.72800 41.94200
H  -3.53800 33.33500 40.85900
H  -4.24700 33.31200 42.43500

