158

Mg -3.00500 17.02100 25.93200
C  -3.20200 14.59900 28.36600
C  -2.99500 19.40000 28.21200
C  -2.90400 19.19900 23.26300
C  -3.22100 14.30700 23.47800
N  -3.24500 16.99700 28.04900
C  -3.25300 15.87000 28.91500
C  -3.33700 16.39700 30.44600
C  -3.42000 17.94800 30.21300
C  -3.24800 18.15200 28.73100
C  -4.64100 18.64800 30.83600
C  -2.06700 15.97100 31.27800
C  -1.56100 16.76800 32.53600
H  -0.83500 15.85100 33.52800
N  -2.99500 19.04100 25.77200
C  -2.94700 19.87800 26.88300
C  -3.00000 21.22000 26.45200
C  -2.82500 21.15900 24.99700
C  -2.91800 19.75400 24.60800
C  -3.16500 22.38300 27.38500
C  -2.43700 22.33000 23.99300
O  -2.19500 22.13900 22.82800
C  -2.19400 23.70800 24.44900
N  -3.02300 16.71600 23.64100
C  -2.97100 17.82800 22.86800
C  -2.96500 17.44400 21.40100
C  -3.39000 15.92700 21.42200
C  -3.15700 15.61500 22.93500
C  -4.01600 18.27000 20.43100
C  -2.53600 15.06300 20.48600
C  -3.20500 14.56500 19.16000
N  -3.10500 14.94000 25.86000
C  -3.21400 13.95100 24.85000
C  -3.46800 12.69500 25.43300
C  -3.34100 12.92100 26.76700
C  -3.12600 14.23500 27.01700
C  -3.71800 11.42500 24.72200
C  -3.39700 12.23700 27.99700
O  -3.48700 11.01800 28.14800
C  -3.34900 13.28000 29.06500
C  -2.31400 12.91300 29.96100
O  -1.10900 13.19400 29.73300
O  -2.74500 12.27200 31.10600
C  -1.65100 11.67400 31.95700
H  -2.83700 20.17200 28.96700
H  -2.79700 19.89100 22.42500
H  -3.45500 13.61500 22.66700
H  -4.18600 15.92700 30.94100
H  -2.68700 18.48000 30.81900
H  -4.30100 19.27400 31.66000
H  -5.31400 17.92700 31.30100
H  -5.28200 19.28900 30.23100
H  -1.19800 15.94900 30.62100
H  -2.31600 14.98400 31.66800
H  -2.30800 17.35600 33.07000
H  -0.87700 17.50800 32.12100
H  -3.20900 22.11200 28.44000
H  -4.05800 22.88100 27.00500
H  -2.33300 23.06900 27.22600
H  -2.19600 24.34700 23.56600
H  -1.20000 23.81100 24.88400
H  -2.94900 24.17400 25.08200
H  -1.97100 17.56500 20.97000
H  -4.46700 15.75900 21.37900
H  -4.83800 17.74100 19.94900
H  -3.26800 18.68800 19.75800
H  -4.37500 19.10700 21.02900
H  -2.12300 14.30400 21.15000
H  -1.62700 15.52800 20.10400
H  -4.28100 14.70200 19.04900
H  -3.06900 13.48400 19.19300
H  -2.77900 15.09400 18.30700
H  -4.47300 11.05700 25.41500
H  -2.89700 10.71000 24.76700
H  -4.15000 11.44700 23.72100
H  -4.33500 13.23300 29.52800
H  -1.03300 10.84000 31.62900
H  -2.21000 11.30000 32.81500
H  -0.95300 12.39700 32.38000
Mg 48.29700 35.14400 28.18400
C  46.50100 33.54500 30.83000
C  48.31100 37.95000 29.99700
C  49.51700 36.52500 25.50500
C  47.95600 32.07900 26.29100
N  47.65900 35.57600 30.23300
C  47.06800 34.76900 31.15800
C  47.16700 35.35600 32.56200
C  47.41400 36.84800 32.30300
C  47.84400 36.83100 30.74200
C  46.31400 37.84400 32.62800
C  48.24900 34.62300 33.41000
C  48.14300 34.50100 34.98700
H  47.10100 35.40600 35.58600
N  48.90500 36.92900 27.78700
C  48.82100 38.08800 28.65200
C  49.37900 39.24700 28.06100
C  49.91600 38.74200 26.82200
C  49.44000 37.39400 26.62900
C  49.57200 40.57800 28.82500
C  50.80700 39.52900 25.81600
O  51.04400 39.05200 24.73700
C  51.40100 40.89800 26.16200
N  48.78000 34.34900 26.15400
C  49.14600 35.17500 25.21500
C  49.48200 34.62400 23.81700
C  49.38400 33.10100 24.25200
C  48.57700 33.19400 25.61100
C  48.38000 35.04100 22.71100
C  50.68900 32.33800 24.52300
C  51.29900 31.64900 23.32200
N  47.46900 33.18900 28.46300
C  47.34800 32.07500 27.58100
C  46.62100 31.00500 28.23800
C  46.25200 31.56800 29.49300
C  46.76500 32.86100 29.57700
C  46.44600 29.57800 27.84700
C  45.57100 31.18400 30.68300
O  45.06700 30.12100 31.08200
C  45.52900 32.58800 31.52200
C  45.59200 32.39100 33.00600
O  46.53600 31.94400 33.64400
O  44.37800 32.66400 33.53500
C  44.13200 32.21400 34.88700
H  48.41300 38.93700 30.45200
H  50.02500 37.02000 24.67600
H  48.03400 31.11900 25.77600
H  46.23000 35.24600 33.10800
H  48.26000 37.14400 32.92300
H  45.79300 38.21400 31.74500
H  46.63400 38.79900 33.04300
H  45.61700 37.38200 33.32700
H  49.25600 34.97800 33.19000
H  48.35400 33.63300 32.96700
H  49.12400 34.78600 35.36900
H  47.81500 33.47500 35.15100
H  50.59800 40.46500 29.17500
H  48.96000 40.73300 29.71300
H  49.67200 41.50400 28.25800
H  50.59600 41.63400 26.18200
H  52.04500 41.16200 25.32300
H  51.93600 40.86900 27.11200
H  50.50100 34.78200 23.46300
H  48.78900 32.56400 23.51300
H  47.95300 36.01100 22.96300
H  47.52500 34.36800 22.64600
H  48.87900 35.15700 21.74800
H  50.51800 31.67600 25.37300
H  51.39300 33.07200 24.91500
H  50.97700 32.18300 22.42900
H  50.96900 30.61200 23.25500
H  52.37600 31.80000 23.25900
H  46.92800 29.20400 26.94400
H  45.42200 29.23600 27.69700
H  46.94900 29.06100 28.66400
H  44.52500 32.80100 31.15700
H  44.37000 31.17300 35.10400
H  43.10800 32.40700 35.20800
H  44.74600 32.83500 35.53900

