158

Mg 40.84100 7.84200 29.79600
C  42.56300 9.08100 32.58400
C  38.38500 6.63500 31.86600
C  39.38200 6.39600 27.16500
C  43.73900 8.45200 27.83700
N  40.44400 7.83500 32.04600
C  41.19800 8.57400 32.93000
C  40.42100 8.71100 34.26700
C  39.15300 7.71000 34.07900
C  39.30700 7.36000 32.62500
C  39.01000 6.46500 35.06400
C  40.17200 10.18600 34.50200
C  39.83400 10.50300 36.01000
H  40.88000 11.32100 36.80700
N  39.07800 6.81200 29.54100
C  38.18000 6.43700 30.47300
C  37.00500 5.74900 29.91900
C  37.32900 5.59500 28.54500
C  38.64800 6.26200 28.36200
C  35.84100 5.12000 30.69000
C  36.61100 4.79700 27.50400
O  37.12900 4.53100 26.40800
C  35.21800 4.14100 27.74900
N  41.45700 7.41600 27.79600
C  40.69700 6.74300 26.90000
C  41.44600 6.70300 25.55200
C  42.79600 7.27700 25.80300
C  42.67800 7.75600 27.24600
C  41.59000 5.20000 24.91800
C  43.14800 8.44000 24.80100
C  42.29900 9.69300 24.99300
N  42.76300 8.51600 30.10200
C  43.82200 8.81000 29.25600
C  44.95800 9.41000 29.92300
C  44.50200 9.58800 31.18600
C  43.16500 8.94400 31.32200
C  46.26400 9.85200 29.27800
C  44.77700 10.14400 32.51600
O  45.76500 10.68900 32.95100
C  43.59500 9.75100 33.50300
C  44.09300 8.90500 34.66900
O  45.12700 8.25000 34.65400
O  43.20200 8.90200 35.69100
C  43.52500 8.05100 36.84500
H  37.51000 6.38600 32.47000
H  38.91400 6.04800 26.24200
H  44.59100 8.74500 27.22000
H  40.95800 8.24700 35.09500
H  38.19600 8.23000 34.03800
H  38.18100 6.63600 35.75000
H  39.88700 6.26900 35.68200
H  38.83900 5.58700 34.44200
H  39.30500 10.49000 33.91600
H  41.06200 10.74500 34.21500
H  39.72700 9.59800 36.61000
H  38.94900 11.12000 36.16400
H  34.85800 5.13600 30.21900
H  35.65900 5.55100 31.67400
H  36.14700 4.08800 30.86000
H  34.55800 4.90100 28.16800
H  35.37500 3.15300 28.18400
H  34.65300 3.97300 26.83200
H  40.82400 7.27100 24.86000
H  43.63000 6.57800 25.85100
H  41.29500 4.52700 25.72300
H  42.62800 4.96100 24.68800
H  41.06400 5.06200 23.97300
H  42.99800 8.08100 23.78300
H  44.22500 8.59700 24.85900
H  41.71900 9.80600 24.07700
H  42.93400 10.56900 25.12600
H  41.55900 9.59800 25.78800
H  46.49900 9.26500 28.39000
H  46.96300 9.44500 30.00900
H  46.29500 10.93900 29.20400
H  43.24100 10.66800 33.97400
H  43.37100 6.98700 36.67000
H  42.93700 8.39500 37.69600
H  44.55300 8.09600 37.20500
Mg 6.93300 53.92500 40.24600
C  6.49900 50.50300 40.39800
C  10.08200 53.62800 39.13000
C  6.96400 57.27300 39.54800
C  3.29700 54.25100 40.88000
N  8.07800 52.32500 39.67700
C  7.77300 50.96000 39.96200
C  9.01400 50.08200 39.72500
C  10.20500 51.12200 39.77100
C  9.41800 52.43000 39.42000
C  10.99500 51.16400 41.11500
C  9.02800 49.10900 38.53300
C  8.97300 49.78700 37.09300
H  7.59800 49.86000 36.48300
N  8.29600 55.26200 39.40400
C  9.52600 54.90500 38.99000
C  10.12400 56.10100 38.44600
C  9.31700 57.21900 38.65200
C  8.11700 56.60400 39.24100
C  11.51200 55.99300 37.87100
C  9.69900 58.63200 38.41800
O  10.83800 58.92000 38.04600
C  8.72400 59.79200 38.63300
N  5.20100 55.46100 40.01000
C  5.72100 56.78300 39.99200
C  4.53200 57.69400 40.26600
C  3.39300 56.77000 40.58100
C  3.99700 55.42200 40.54200
C  4.79400 58.86700 41.31600
C  2.11800 56.95000 39.67800
C  0.83100 57.51000 40.36100
N  5.17700 52.68300 40.62800
C  3.85800 52.91900 41.04500
C  3.27800 51.65100 41.51600
C  4.29400 50.70000 41.22700
C  5.37900 51.35200 40.68000
C  1.94200 51.49600 41.94400
C  4.62800 49.26100 41.20500
O  3.99300 48.34100 41.62100
C  5.99500 49.11700 40.53000
C  5.74000 48.42200 39.26800
O  5.11000 48.89400 38.36000
O  6.08300 47.12000 39.34800
C  5.98200 46.26400 38.14700
H  11.17300 53.63500 39.17300
H  6.99000 58.36400 39.59100
H  2.22900 54.37500 41.06700
H  9.15800 49.40300 40.56500
H  10.83800 50.74700 38.96700
H  12.06900 51.08400 40.94500
H  10.73600 50.28400 41.70400
H  10.76900 52.02700 41.74200
H  8.19100 48.45000 38.76400
H  9.93300 48.50600 38.60000
H  9.71700 49.19700 36.55800
H  9.29400 50.82100 37.21300
H  11.83500 54.98800 37.59700
H  12.12100 56.37500 38.69000
H  11.61000 56.65600 37.01100
H  7.95500 59.57000 37.89300
H  9.02200 60.80800 38.37100
H  8.48000 59.79700 39.69500
H  4.41300 58.30600 39.37200
H  2.98400 56.92300 41.58000
H  5.73200 58.75200 41.86000
H  3.99100 58.81500 42.05100
H  4.76500 59.85300 40.85200
H  1.95800 56.00900 39.15200
H  2.35000 57.70500 38.92600
H  1.05100 57.97500 41.32200
H  0.08400 56.72200 40.45800
H  0.31700 58.30300 39.81700
H  1.30500 50.94300 41.25400
H  1.43800 52.44300 42.13700
H  2.02900 50.85100 42.81900
H  6.65600 48.56800 41.20100
H  6.72400 45.46600 38.18600
H  6.07400 46.81300 37.21000
H  4.98200 45.83100 38.17600

