158

Mg 35.64300 48.99900 25.72900
C  35.96700 47.05200 28.62700
C  34.42100 51.54400 27.82500
C  35.15300 50.92000 23.18200
C  36.15100 46.21300 23.80100
N  35.03600 49.22500 27.91700
C  35.36000 48.23900 28.86200
C  35.24300 48.90200 30.31000
C  34.43300 50.23200 30.07100
C  34.61100 50.34400 28.52800
C  32.94100 50.28200 30.60300
C  36.71400 49.12800 30.91100
C  36.93100 48.67400 32.35900
H  35.66100 48.49700 33.25200
N  35.08000 50.96900 25.53000
C  34.65700 51.89100 26.50100
C  34.56300 53.17600 25.94100
C  34.80600 53.09900 24.57300
C  35.07400 51.62400 24.33000
C  34.14900 54.41900 26.70900
C  34.74300 54.13800 23.34700
O  34.96400 53.81100 22.18900
C  34.41500 55.60900 23.65000
N  35.40300 48.55500 23.75100
C  35.21400 49.51500 22.90900
C  35.19300 49.00400 21.42300
C  35.66900 47.48100 21.60000
C  35.82800 47.41300 23.18500
C  33.82300 49.09600 20.66800
C  37.00400 47.01500 20.92600
C  36.90000 45.76300 20.04600
N  36.11500 47.02600 26.12400
C  36.26700 46.00900 25.21000
C  36.73000 44.85400 25.97800
C  36.60700 45.18700 27.34500
C  36.19400 46.52000 27.37400
C  37.03200 43.52500 25.36600
C  36.68300 44.63200 28.70100
O  37.04200 43.54600 29.14200
C  36.23100 45.85300 29.59500
C  35.07700 45.45000 30.43700
O  33.89000 45.41400 30.03700
O  35.41800 45.13700 31.69100
C  34.37900 44.54800 32.49300
H  34.11400 52.29100 28.56000
H  34.86400 51.37900 22.23400
H  36.38800 45.35200 23.17200
H  34.61400 48.24900 30.91600
H  34.91200 51.08000 30.55900
H  32.31900 50.63500 29.78000
H  32.80100 50.83800 31.53000
H  32.58100 49.29000 30.87500
H  36.74100 50.21400 30.99300
H  37.42300 48.69800 30.20300
H  37.50600 49.37000 32.96900
H  37.30400 47.65000 32.39300
H  33.10000 54.58600 26.46700
H  34.80000 55.23300 26.38900
H  34.20800 54.25700 27.78500
H  33.38500 55.81000 23.94400
H  34.48300 56.18900 22.73000
H  35.07200 55.91300 24.46400
H  36.03200 49.48000 20.91500
H  34.86700 46.79400 21.32800
H  33.65900 48.20400 20.06200
H  33.82900 49.87600 19.90600
H  33.03600 49.20700 21.41300
H  37.68600 46.61000 21.67400
H  37.37100 47.76100 20.22100
H  37.41200 44.90900 20.48800
H  37.48700 45.92600 19.14200
H  35.83800 45.53100 19.96400
H  36.51700 42.74400 25.92500
H  38.11000 43.40400 25.26400
H  36.71800 43.55700 24.32300
H  37.03000 46.03300 30.31400
H  33.78300 43.85500 31.90000
H  33.67000 45.30300 32.83400
H  34.71100 44.05900 33.40800
Mg -10.02100 17.06000 40.95000
C  -6.48100 17.05000 41.12000
C  -10.00700 20.45600 40.30700
C  -13.35500 16.93500 40.25400
C  -9.93700 13.54100 40.84000
N  -8.42000 18.60000 40.70100
C  -7.03300 18.39600 40.78000
C  -6.31100 19.71600 40.30700
C  -7.45100 20.81800 40.69500
C  -8.68900 19.93600 40.53300
C  -7.24300 21.51500 42.16600
C  -5.74200 19.71100 38.81100
C  -4.25100 19.17200 38.65300
H  -3.92600 17.86400 37.87700
N  -11.51400 18.50700 40.43800
C  -11.26900 19.83200 40.23800
C  -12.50000 20.50800 40.08400
C  -13.54100 19.50200 39.92000
C  -12.82600 18.25800 40.24000
C  -12.53700 22.02200 39.94400
C  -14.93300 19.74500 39.56600
O  -15.32800 20.83800 39.34100
C  -15.94400 18.71000 39.50400
N  -11.40600 15.50100 40.37400
C  -12.79800 15.66000 40.23700
C  -13.64100 14.34000 40.37100
C  -12.50700 13.31700 40.56400
C  -11.15500 14.09200 40.46200
C  -14.86000 14.37800 41.35700
C  -12.54100 12.00300 39.59700
C  -12.62500 10.63100 40.24100
N  -8.56700 15.58800 41.00100
C  -8.69500 14.21300 41.04700
C  -7.43700 13.62700 41.39200
C  -6.60500 14.71700 41.38800
C  -7.27500 15.84600 41.12900
C  -7.01500 12.20700 41.63100
C  -5.19500 15.05000 41.54200
O  -4.19900 14.34000 41.66300
C  -5.07000 16.58700 41.41300
C  -4.52500 17.11900 42.74900
O  -3.72800 18.00000 42.86500
O  -5.12800 16.43500 43.75900
C  -5.05800 17.08800 45.08200
H  -9.90800 21.54300 40.28200
H  -14.42200 16.71600 40.17700
H  -9.74700 12.46700 40.88600
H  -5.42500 19.94200 40.90000
H  -7.34800 21.65500 40.00400
H  -7.54800 22.56100 42.13000
H  -6.25800 21.32500 42.59200
H  -7.95300 21.05100 42.85000
H  -5.70700 20.69900 38.35300
H  -6.49100 19.17500 38.22800
H  -3.76600 19.15200 39.62900
H  -3.65100 19.93800 38.16200
H  -13.33600 22.28600 39.25100
H  -11.65100 22.44700 39.47200
H  -12.69600 22.39300 40.95700
H  -15.67300 18.10800 38.63700
H  -16.83800 19.22800 39.15800
H  -16.08900 18.12600 40.41400
H  -14.01800 14.11900 39.37300
H  -12.58600 13.10500 41.63000
H  -15.72100 13.93900 40.85300
H  -15.07400 15.35500 41.79000
H  -14.63600 13.66300 42.14800
H  -11.68200 12.25400 38.97500
H  -13.48000 12.05400 39.04500
H  -13.52000 10.06100 39.98900
H  -12.49600 10.79000 41.31200
H  -11.77700 10.11000 39.79700
H  -7.85300 11.52200 41.49800
H  -6.83500 12.06100 42.69600
H  -6.11200 11.93300 41.08600
H  -4.46500 16.88700 40.55800
H  -4.71300 18.12100 45.05600
H  -4.41700 16.37800 45.60500
H  -6.00100 16.84900 45.57300

