158

Mg 40.67000 41.33800 27.74900
C  39.74300 43.88300 29.92600
C  41.36100 39.39500 30.64600
C  42.07100 39.02100 25.75600
C  40.58200 43.50700 25.09200
N  40.59400 41.64900 30.00000
C  40.07100 42.74200 30.61800
C  39.96600 42.56100 32.15900
C  40.62800 41.13100 32.36000
C  40.92100 40.68700 30.92800
C  41.69200 41.05700 33.49000
C  38.53200 42.68400 32.61800
C  38.02700 41.86200 33.83700
H  37.31000 42.58500 34.97700
N  41.46500 39.42900 28.15200
C  41.70400 38.83600 29.37100
C  42.19300 37.41100 29.21500
C  42.33400 37.29100 27.75400
C  41.92600 38.54900 27.18400
C  42.41300 36.50900 30.23000
C  42.73300 36.02500 26.98100
O  42.66500 35.98000 25.74200
C  42.98500 34.76000 27.73300
N  41.09000 41.21500 25.67400
C  41.66100 40.11400 25.07800
C  41.67800 40.22200 23.52700
C  41.15600 41.69000 23.41000
C  40.92100 42.19600 24.77500
C  43.07200 39.92800 22.93600
C  39.88800 41.55400 22.50900
C  38.49700 41.15400 23.04800
N  40.26900 43.36700 27.46200
C  40.20700 44.09400 26.30600
C  39.80000 45.41400 26.58900
C  39.63400 45.41600 28.00600
C  39.91400 44.12800 28.49500
C  39.63900 46.54000 25.56700
C  39.31800 46.21600 29.14700
O  39.06800 47.42500 29.26700
C  39.41800 45.29900 30.43000
C  40.47800 45.79800 31.37000
O  41.67600 45.68500 31.18000
O  39.80300 46.34700 32.42200
C  40.63600 46.67600 33.59000
H  41.39600 38.71200 31.49800
H  42.57000 38.31600 25.08700
H  40.56400 44.00300 24.11900
H  40.61200 43.32400 32.59300
H  39.89500 40.41900 32.73800
H  41.41200 40.27700 34.19700
H  41.90800 42.00300 33.98800
H  42.66300 40.75300 33.09700
H  37.95900 42.52200 31.70500
H  38.29300 43.74100 32.74300
H  38.93000 41.46900 34.30300
H  37.36700 41.01100 33.66800
H  42.23400 36.73400 31.28100
H  43.49500 36.40900 30.30800
H  42.02400 35.49800 30.11200
H  42.11200 34.43400 28.30000
H  43.90300 34.86000 28.31200
H  43.18000 33.94300 27.03900
H  40.96900 39.45100 23.22300
H  41.88900 42.25500 22.83400
H  42.97600 39.02600 22.33300
H  43.78900 39.83300 23.75100
H  43.41500 40.79700 22.37500
H  40.16300 40.86400 21.71100
H  39.74700 42.46600 21.92800
H  38.10400 40.22600 22.63200
H  37.87200 41.99600 22.75000
H  38.54700 41.08000 24.13400
H  38.74100 47.12600 25.76100
H  39.73900 46.21600 24.53100
H  40.44600 47.26300 25.68700
H  38.46300 45.39900 30.94600
H  41.24700 45.78600 33.74200
H  39.99900 46.87000 34.45300
H  41.28200 47.53100 33.39100
Mg 25.36900 50.44800 26.87900
C  23.11100 51.15900 29.58900
C  27.64800 49.35700 29.05700
C  27.57700 50.50400 24.32400
C  23.03200 52.04400 24.73300
N  25.34900 50.35400 29.03900
C  24.38100 50.70000 29.98100
C  24.95100 50.48100 31.39300
C  26.28000 49.77800 31.17000
C  26.50700 49.92100 29.66100
C  27.40900 50.25000 31.98900
C  23.95200 49.69600 32.35900
C  24.43800 49.37700 33.81300
H  24.13000 50.28600 34.99500
N  27.27400 50.00600 26.72200
C  28.11200 49.50000 27.73400
C  29.35900 49.11000 27.19200
C  29.35100 49.56900 25.84300
C  28.00900 50.09900 25.62100
C  30.35100 48.25700 28.00300
C  30.52300 49.53200 24.85900
O  30.49500 49.93200 23.70000
C  31.81900 49.05500 25.40200
N  25.24500 51.01500 24.74800
C  26.34200 50.95900 23.90600
C  26.11100 51.79100 22.59900
C  24.56600 51.93900 22.62400
C  24.21400 51.58600 24.06900
C  26.92600 53.05600 22.41200
C  23.77000 51.08100 21.67100
C  23.43500 49.64600 22.15100
N  23.43100 51.34600 27.06200
C  22.62000 51.89700 26.08200
C  21.32500 52.26400 26.65500
C  21.53300 52.09400 27.98500
C  22.77100 51.46000 28.24800
C  20.20000 52.79900 25.89000
C  20.85300 52.33700 29.23000
O  19.79000 52.88800 29.53600
C  21.86900 51.70100 30.31800
C  22.22300 52.78400 31.23200
O  23.12600 53.58200 31.19600
O  21.30300 52.77200 32.27100
C  21.46600 53.95900 33.12000
H  28.28100 48.90400 29.82300
H  28.40600 50.57500 23.61700
H  22.32100 52.50800 24.04600
H  25.24100 51.44100 31.82100
H  26.19800 48.69700 31.28500
H  28.09000 49.47500 32.34100
H  26.99600 50.86500 32.78900
H  28.01700 50.98600 31.46400
H  23.36200 48.96400 31.80700
H  23.22900 50.46200 32.63900
H  25.47200 49.03600 33.85200
H  23.87300 48.50200 34.13500
H  30.36300 47.22500 27.65300
H  30.12400 48.28100 29.06900
H  31.36600 48.65400 27.98500
H  31.87300 48.04500 25.80800
H  31.95400 49.73500 26.24400
H  32.63400 49.16800 24.68800
H  26.34400 51.10600 21.78300
H  24.11100 52.91400 22.45100
H  27.43900 53.22000 23.35900
H  26.39500 53.96900 22.14400
H  27.69600 53.01400 21.64100
H  24.20300 50.99000 20.67500
H  22.80800 51.59300 21.70200
H  24.00300 49.30700 23.01700
H  23.53400 49.01900 21.26500
H  22.37400 49.56900 22.39100
H  20.22200 52.43500 24.86200
H  20.32800 53.87700 25.98600
H  19.35700 52.55200 26.53500
H  21.43000 50.90500 30.92000
H  22.38100 53.87600 33.70700
H  20.61200 53.98600 33.79600
H  21.40400 54.91700 32.60400

