158

Mg 35.89600 1.80000 29.32600
C  33.90200 3.15400 31.81200
C  38.64700 1.99600 31.60400
C  38.07500 1.55900 26.72300
C  33.34000 2.36700 27.06000
N  36.18900 2.39600 31.50400
C  35.18100 2.84200 32.27800
C  35.67700 2.89900 33.74800
C  37.26800 2.80800 33.65800
C  37.37800 2.37300 32.16400
C  38.13400 4.03500 33.99700
C  34.99900 1.88600 34.69300
C  34.27300 2.46200 35.89200
H  35.05200 3.49000 36.67000
N  38.00500 1.49800 29.23100
C  38.92800 1.62000 30.24600
C  40.21000 1.21200 29.72600
C  40.10600 1.21800 28.26900
C  38.67200 1.36800 27.96600
C  41.44400 0.85700 30.56200
C  41.17200 1.13300 27.26300
O  40.92800 1.22100 26.09600
C  42.56000 1.29100 27.62400
N  35.70300 1.81200 27.18900
C  36.77300 1.66100 26.35500
C  36.33900 1.58300 24.89000
C  34.78600 1.56400 25.03000
C  34.54400 1.88100 26.50400
C  36.95400 2.72700 23.98600
C  34.14600 0.24300 24.64500
C  33.24600 0.08400 23.33900
N  34.04600 2.56000 29.38000
C  33.08700 2.70600 28.38900
C  31.90200 3.30700 28.93200
C  32.13800 3.42200 30.29100
C  33.48500 2.96500 30.48800
C  30.62800 3.60900 28.14400
C  31.55700 3.79000 31.54600
O  30.45900 4.27200 31.71700
C  32.69400 3.62800 32.55800
C  32.90500 4.95100 33.26300
O  33.62200 5.84300 32.92600
O  32.04200 5.05000 34.32900
C  32.19800 6.13900 35.26300
H  39.41400 1.87500 32.37200
H  38.58900 1.53600 25.76100
H  32.43500 2.34100 26.45000
H  35.39200 3.92800 33.96500
H  37.60100 2.02200 34.33600
H  37.56500 4.68200 34.66500
H  38.65100 4.47500 33.14300
H  39.00400 3.65900 34.53600
H  35.72200 1.27000 35.22800
H  34.34700 1.21700 34.13300
H  33.93600 1.66500 36.55400
H  33.34500 2.93600 35.57100
H  41.74100 -0.19200 30.56100
H  41.23000 0.99700 31.62100
H  42.28800 1.50700 30.33300
H  42.83700 0.43400 28.23800
H  42.81800 2.21800 28.13600
H  43.14300 1.27500 26.70300
H  36.66000 0.59000 24.57300
H  34.31300 2.37800 24.48000
H  37.95900 2.44400 23.67200
H  37.02100 3.65800 24.54800
H  36.36800 2.96200 23.09700
H  33.44900 -0.08900 25.41400
H  34.94300 -0.49500 24.55600
H  32.20500 0.25200 23.61600
H  33.33300 -0.86900 22.81700
H  33.47200 0.99000 22.77600
H  30.05200 2.71800 27.89400
H  30.79200 4.25700 27.28400
H  30.01900 4.09100 28.90800
H  32.35500 2.84200 33.23300
H  31.26500 6.05300 35.82000
H  32.14700 7.12200 34.79400
H  32.97700 6.02600 36.01700
Mg -11.69900 39.05800 41.79800
C  -9.92000 36.25900 40.64500
C  -9.32700 41.06100 40.50000
C  -13.77200 41.67000 42.45400
C  -14.26300 36.78200 42.71600
N  -10.01300 38.66000 40.47100
C  -9.41100 37.48200 40.18400
C  -8.11700 37.71900 39.36800
C  -7.82800 39.21400 39.59300
C  -9.12600 39.66600 40.26500
C  -6.50100 39.61300 40.21200
C  -8.20800 37.06700 37.96200
C  -6.96700 36.13600 37.65600
H  -6.08000 36.55600 36.58000
N  -11.49100 41.10100 41.59500
C  -10.43300 41.71100 41.05200
C  -10.61900 43.14700 41.27500
C  -11.87000 43.39000 41.87000
C  -12.49900 41.99900 41.97900
C  -9.56600 44.09400 40.81500
C  -12.35000 44.71100 42.30500
O  -11.67500 45.71000 41.97500
C  -13.58600 45.02000 42.99900
N  -13.79900 39.16900 42.20100
C  -14.38300 40.39200 42.50200
C  -15.79500 40.16000 43.01000
C  -16.03400 38.62200 42.74000
C  -14.60200 38.11700 42.52000
C  -16.18400 40.64600 44.46900
C  -17.00100 38.23200 41.62000
C  -18.10100 37.32500 42.09600
N  -12.16900 36.87400 41.65900
C  -13.09100 36.16200 42.32300
C  -12.73200 34.76400 42.34300
C  -11.54000 34.70200 41.64300
C  -11.15600 36.03000 41.28700
C  -13.48700 33.62500 43.04500
C  -10.45900 33.82100 41.14000
O  -10.34500 32.63200 41.12700
C  -9.43400 34.82100 40.36000
C  -8.13600 34.56200 40.99600
O  -7.80200 34.99900 42.11700
O  -7.34700 33.78700 40.10400
C  -6.07000 33.38100 40.60800
H  -8.42400 41.62400 40.25400
H  -14.36300 42.55100 42.71500
H  -14.84000 36.03000 43.25800
H  -7.42600 37.08300 39.92200
H  -7.82400 39.83400 38.69600
H  -6.61200 40.21000 41.11700
H  -5.96500 40.27600 39.53300
H  -5.89000 38.75500 40.49400
H  -8.24300 37.77600 37.13500
H  -9.13700 36.50500 38.06100
H  -7.41300 35.14500 37.57100
H  -6.39400 35.99400 38.57200
H  -8.59100 43.72400 41.13200
H  -9.73100 45.14800 41.03900
H  -9.65500 44.17500 39.73100
H  -14.45300 44.53900 42.54700
H  -13.92500 46.05600 43.00300
H  -13.54300 44.62800 44.01600
H  -16.48100 40.64700 42.31700
H  -16.45300 38.31600 43.69900
H  -15.33700 41.13400 44.95100
H  -16.56400 39.77100 44.99700
H  -17.00400 41.36300 44.42300
H  -16.43500 37.66600 40.88000
H  -17.51000 39.13500 41.28300
H  -19.03900 37.76600 42.43500
H  -17.74500 36.70400 42.91800
H  -18.34500 36.80100 41.17200
H  -13.01300 32.64600 42.96700
H  -14.51900 33.56100 42.69900
H  -13.48900 33.85300 44.11100
H  -9.51000 34.48000 39.32700
H  -5.75600 34.03700 41.41900
H  -5.28800 33.35500 39.84900
H  -6.22700 32.37500 40.99600

