158

Mg 34.87200 3.01000 29.09500
C  32.55100 3.82000 31.57100
C  37.44200 3.48300 31.28600
C  37.12900 2.61100 26.49200
C  32.32300 3.20900 26.69500
N  34.95400 3.56300 31.15300
C  33.90900 3.70300 32.01100
C  34.42900 3.91400 33.45100
C  35.97500 4.10600 33.24800
C  36.12400 3.65400 31.82200
C  36.57800 5.49600 33.61500
C  33.92100 2.74600 34.38400
C  33.67300 3.11700 35.76300
H  34.50800 4.23700 36.38300
N  36.95800 3.02500 28.96900
C  37.79300 3.07100 29.99600
C  39.16900 2.66200 29.65300
C  39.11100 2.49000 28.25100
C  37.68000 2.77900 27.81700
C  40.19500 2.58100 30.73800
C  40.23800 1.97500 27.30400
O  40.04900 1.71700 26.12500
C  41.57800 1.67400 27.92600
N  34.71100 3.02200 26.91400
C  35.78900 2.70200 26.10300
C  35.30300 2.43300 24.58100
C  33.78600 2.49900 24.79400
C  33.62100 3.06600 26.18600
C  35.87000 3.42600 23.51300
C  33.07400 1.13700 24.52200
C  31.78100 1.18900 23.87000
N  32.89500 3.42700 29.05300
C  31.93600 3.44400 28.01400
C  30.59300 3.73500 28.53700
C  30.81800 3.82300 29.95200
C  32.20900 3.68500 30.19600
C  29.39600 3.88300 27.75100
C  30.12300 4.08300 31.15200
O  28.97400 4.42600 31.39900
C  31.24200 4.11000 32.33000
C  31.17400 5.36400 33.04900
O  31.58000 6.44300 32.56600
O  30.58500 5.33800 34.31100
C  30.64200 6.60700 35.05700
H  38.17600 3.57400 32.08900
H  37.83800 2.35400 25.70200
H  31.52300 3.26300 25.95400
H  34.04400 4.82300 33.91500
H  36.47700 3.41400 33.92400
H  37.37300 5.34700 34.34500
H  35.84800 6.22200 33.97500
H  36.91200 5.91600 32.66600
H  34.74700 2.03600 34.40800
H  33.06200 2.28500 33.89600
H  33.64600 2.21900 36.38000
H  32.70400 3.61500 35.72600
H  39.85200 1.79200 31.40700
H  40.08800 3.51300 31.29300
H  41.22600 2.47300 30.40200
H  41.80700 2.64600 28.36400
H  42.26900 1.36400 27.14300
H  41.44500 0.87700 28.65800
H  35.53000 1.37600 24.44200
H  33.38700 3.20700 24.06700
H  36.41400 2.83700 22.77400
H  36.54900 4.13900 23.97900
H  34.97600 3.90400 23.11200
H  33.01200 0.57100 25.45200
H  33.69800 0.41900 23.99000
H  31.91400 0.73300 22.88900
H  31.47900 2.23600 23.84400
H  30.98000 0.62800 24.35400
H  29.22400 2.93200 27.24700
H  29.37900 4.76200 27.10700
H  28.65400 4.01200 28.53900
H  30.94500 3.37000 33.07200
H  30.31100 7.49000 34.50900
H  31.66700 6.80000 35.37500
H  30.01100 6.53300 35.94300
Mg 49.28700 47.09700 42.41700
C  46.09400 47.87900 41.65500
C  48.93100 43.99000 41.21400
C  52.81000 46.51000 42.65800
C  50.01500 50.45600 43.15100
N  47.66100 46.15400 41.34800
C  46.43000 46.55600 41.27000
C  45.56000 45.45100 40.61000
C  46.52500 44.18600 40.62500
C  47.75300 44.76700 41.19200
C  46.05300 42.90800 41.26900
C  45.11900 45.95200 39.10800
C  43.59500 45.82100 38.79800
H  43.13500 45.51900 37.36200
N  50.61600 45.41200 42.05100
C  50.19700 44.23400 41.69900
C  51.35100 43.31400 41.69000
C  52.45300 44.00700 42.22000
C  52.00100 45.35200 42.24400
C  51.28700 41.90100 41.16400
C  53.75500 43.39400 42.43400
O  53.90500 42.15500 42.39400
C  55.00100 44.16200 42.76200
N  51.14500 48.29700 42.46700
C  52.39300 47.79300 42.69900
C  53.39100 48.93300 42.95000
C  52.47300 50.21600 43.13000
C  51.12900 49.60800 42.95000
C  54.36900 48.81100 44.13400
C  52.69900 51.41100 42.11200
C  53.66800 52.60800 42.52700
N  48.22800 48.85600 42.61400
C  48.61700 50.12000 43.03100
C  47.38800 50.93500 43.06600
C  46.39900 50.08300 42.51400
C  46.95800 48.88700 42.22900
C  47.21500 52.37400 43.39400
C  45.06000 50.02300 42.11600
O  44.24600 50.92400 42.25200
C  44.80200 48.60600 41.41900
C  43.70000 47.90800 42.10100
O  43.59600 47.81100 43.33400
O  42.79900 47.48400 41.16200
C  41.61600 46.84900 41.70900
H  48.83400 43.02900 40.70500
H  53.86500 46.36700 42.90200
H  50.20600 51.49700 43.41800
H  44.70600 45.23000 41.25000
H  46.77400 43.94800 39.59100
H  46.57000 42.74300 42.21400
H  46.34400 42.07600 40.62700
H  44.97900 42.88300 41.45100
H  45.63600 45.41300 38.31400
H  45.31000 47.01800 38.98400
H  43.10000 46.77400 38.98200
H  43.22700 45.07100 39.49800
H  51.39600 41.21800 42.00700
H  51.97500 41.82100 40.32200
H  50.28800 41.67800 40.79000
H  55.17700 44.86300 41.94600
H  55.88600 43.52600 42.73300
H  54.98000 44.72100 43.69700
H  54.00900 49.18100 42.08800
H  52.51100 50.64200 44.13300
H  54.29300 47.79700 44.52800
H  54.09900 49.54500 44.89300
H  55.43000 49.01600 43.99300
H  51.74400 51.83000 41.79500
H  53.19500 51.07400 41.20200
H  54.00200 52.44600 43.55100
H  53.10200 53.53600 42.60400
H  54.56400 52.71300 41.91600
H  47.97700 52.72500 44.09000
H  46.23100 52.38900 43.86200
H  47.13700 53.07100 42.55900
H  44.72400 48.57700 40.33200
H  41.20900 47.40400 42.55400
H  41.84300 45.80900 41.94200
H  40.92200 46.90700 40.87000

