158

Mg 23.90000 -5.58400 45.66500
C  26.49300 -3.57100 44.42100
C  21.67100 -3.89400 43.60500
C  21.83800 -8.25800 45.86600
C  26.43700 -7.50000 47.35500
N  24.09300 -3.88000 44.36400
C  25.21800 -3.16600 43.96900
C  24.86100 -2.07200 42.90400
C  23.37900 -1.88600 43.20300
C  23.01400 -3.29300 43.77100
C  23.03500 -0.76400 44.23700
C  25.12900 -2.56800 41.44600
C  25.45900 -1.41000 40.52300
H  24.73600 -1.26400 39.17300
N  21.95500 -5.96000 44.88400
C  21.22800 -5.15400 44.05600
C  19.99000 -5.79600 43.66600
C  20.00800 -7.08400 44.32700
C  21.26600 -7.16300 45.10800
C  19.02500 -5.20000 42.68500
C  18.89300 -8.05100 44.36400
O  17.87000 -7.78800 43.67300
C  18.81300 -9.18900 45.35900
N  24.09400 -7.53500 46.64000
C  23.08500 -8.46900 46.50900
C  23.46200 -9.72900 47.31300
C  24.96200 -9.48200 47.75400
C  25.17600 -8.07700 47.23100
C  22.52500 -10.17200 48.52100
C  25.97700 -10.46400 47.11600
C  25.66600 -11.93100 47.33900
N  25.95700 -5.46200 46.03200
C  26.84700 -6.32700 46.67300
C  28.19900 -5.82300 46.52700
C  28.09900 -4.73300 45.69700
C  26.75000 -4.59100 45.35900
C  29.35900 -6.46600 47.13600
C  28.83500 -3.78000 44.95700
O  30.04900 -3.52500 45.02600
C  27.78300 -2.91300 44.10200
C  27.82400 -1.45400 44.45300
O  27.33600 -0.92300 45.42000
O  28.41300 -0.82200 43.41400
C  28.20600 0.66800 43.43500
H  21.05000 -3.32800 42.90700
H  21.22300 -9.15800 45.93800
H  27.14400 -8.11000 47.92200
H  25.42700 -1.16200 43.10500
H  22.74700 -1.58100 42.37000
H  22.67200 -1.24700 45.14400
H  22.27000 -0.13900 43.77600
H  23.94600 -0.22100 44.48900
H  24.25700 -3.02100 40.97500
H  25.93700 -3.29900 41.43100
H  26.52300 -1.57400 40.34800
H  25.34000 -0.50800 41.12400
H  19.52600 -4.49700 42.01900
H  18.30500 -4.63100 43.27300
H  18.46500 -5.92600 42.09700
H  17.73700 -9.36200 45.36800
H  19.09000 -8.83100 46.35100
H  19.36100 -10.06400 45.01000
H  23.39000 -10.53200 46.58000
H  25.07900 -9.48100 48.83700
H  21.59500 -9.60300 48.52100
H  23.03100 -10.04100 49.47700
H  22.35300 -11.24800 48.55200
H  26.91700 -10.16700 47.58200
H  25.97100 -10.15300 46.07200
H  26.47500 -12.34800 47.93900
H  25.38100 -12.47800 46.44000
H  24.80300 -11.98200 48.00300
H  29.17300 -6.91600 48.11100
H  30.22100 -5.80200 47.21000
H  29.77900 -7.29800 46.56900
H  27.87300 -3.05700 43.02600
H  28.83800 1.05400 44.23500
H  27.14000 0.76100 43.64700
H  28.40800 1.19300 42.50100
Mg 47.38800 25.43600 28.84600
C  48.68800 27.51200 31.42000
C  46.79000 22.93200 31.19500
C  46.53600 23.38700 26.34500
C  48.70700 27.64400 26.58500
N  47.73100 25.25100 31.05800
C  48.07800 26.32200 31.94200
C  47.91400 25.91900 33.42100
C  47.43400 24.39400 33.33100
C  47.33100 24.13400 31.75700
C  48.55200 23.33200 33.92500
C  46.88600 26.81400 34.09000
C  46.67400 26.28100 35.52400
H  46.53200 27.25500 36.76200
N  46.79100 23.35000 28.75300
C  46.52200 22.53100 29.83300
C  45.98600 21.30000 29.30700
C  45.88800 21.45100 27.89000
C  46.46900 22.76900 27.60300
C  45.68100 20.07000 30.11000
C  45.29500 20.53100 26.92400
O  45.45600 20.69700 25.70500
C  44.57800 19.34100 27.32700
N  47.61600 25.46300 26.73400
C  47.06500 24.56300 25.85900
C  46.99800 25.11000 24.40100
C  47.60700 26.52500 24.57100
C  48.02100 26.52400 26.02600
C  47.55700 24.21100 23.26700
C  46.70800 27.70300 24.11500
C  46.46100 27.78400 22.57600
N  48.45700 27.23600 28.87100
C  49.00300 28.04600 27.89500
C  49.74600 29.20600 28.36700
C  49.60700 28.98600 29.78000
C  48.83100 27.85400 30.00400
C  50.33600 30.27000 27.59300
C  49.96500 29.61900 31.08100
O  50.53700 30.65800 31.37600
C  49.17800 28.71100 32.16800
C  50.12600 28.37200 33.24600
O  51.04900 27.60300 33.23600
O  49.84500 29.19400 34.35400
C  50.81000 29.10600 35.46600
H  46.44300 22.14100 31.86300
H  46.03600 22.92400 25.49100
H  49.18500 28.29900 25.85300
H  48.82600 26.09500 33.99200
H  46.56400 24.33600 33.98400
H  49.47800 23.89000 34.06900
H  48.61300 22.40800 33.35000
H  48.28100 23.03900 34.94000
H  45.92300 26.81800 33.58000
H  47.35600 27.79300 34.18700
H  47.46200 25.59300 35.83000
H  45.73100 25.73600 35.49900
H  44.61000 19.90800 29.99100
H  45.98300 20.10600 31.15700
H  46.28200 19.33200 29.57800
H  43.67000 19.53700 27.89800
H  45.27700 18.68700 27.84800
H  44.28200 18.76100 26.45300
H  45.92300 25.27800 24.32800
H  48.55200 26.52500 24.02800
H  48.32500 23.54200 23.65400
H  47.82400 24.74400 22.35500
H  46.71400 23.56000 23.03800
H  47.17900 28.64300 24.40300
H  45.85900 27.48700 24.76300
H  47.33700 27.40100 22.05100
H  46.33000 28.84000 22.34300
H  45.56500 27.27400 22.22300
H  49.95800 31.22000 27.97100
H  50.09700 30.13300 26.53800
H  51.40300 30.33800 27.80500
H  48.43600 29.37500 32.61200
H  51.77200 29.49200 35.12900
H  50.77900 28.10500 35.89800
H  50.46200 29.79800 36.23300

