158

Mg 44.05700 5.32400 47.06500
C  42.23800 8.34400 46.80000
C  41.14500 3.66900 46.28000
C  45.96100 2.61200 46.67200
C  46.99600 7.35500 46.87700
N  41.98800 5.99500 46.43200
C  41.51000 7.24000 46.57700
C  39.93000 7.21100 46.50100
C  39.52900 5.70600 46.54400
C  41.01300 5.09100 46.43400
C  38.89700 5.28100 47.89700
C  39.37100 7.99500 45.29100
C  40.08700 8.00200 43.91000
H  39.25700 7.38300 42.75400
N  43.58400 3.43100 46.62800
C  42.35300 2.93800 46.35000
C  42.46400 1.56600 46.03000
C  43.79000 1.19500 46.23800
C  44.50600 2.44000 46.61200
C  41.28400 0.75900 45.39200
C  44.32000 -0.20600 45.90000
O  43.63000 -1.05600 45.35700
C  45.67000 -0.55800 46.16200
N  46.21300 4.98000 46.77100
C  46.69000 3.78100 46.81600
C  48.21200 3.77500 46.90800
C  48.50900 5.33300 47.09800
C  47.17600 5.92200 46.85900
C  48.82100 2.86200 48.10200
C  49.70300 6.00200 46.19600
C  50.97100 5.32200 46.23600
N  44.61200 7.36500 46.84900
C  45.78800 8.03200 46.93400
C  45.55000 9.44900 47.02900
C  44.23800 9.61400 47.00000
C  43.65100 8.36500 46.88500
C  46.62300 10.47300 47.09600
C  43.20100 10.55500 47.01900
O  43.27800 11.76900 46.98700
C  41.81700 9.82700 46.88500
C  40.96000 9.99800 47.99300
O  40.95400 9.33500 49.02300
O  40.10000 10.99700 47.65300
C  38.96200 11.11500 48.63900
H  40.13200 3.28000 46.15600
H  46.49600 1.69800 46.40700
H  47.95500 7.87500 46.82300
H  39.51700 7.71600 47.37500
H  39.05300 5.45500 45.59600
H  38.83200 5.99200 48.72100
H  39.34200 4.36700 48.29000
H  37.85300 5.13200 47.62200
H  39.13500 9.03900 45.49300
H  38.40300 7.52300 45.12000
H  40.87800 7.25400 43.96100
H  40.46400 8.96500 43.56400
H  41.33100 0.44200 44.35100
H  40.33500 1.22000 45.66800
H  41.36500 -0.18100 45.93700
H  45.69600 -1.63700 46.00800
H  45.89000 -0.38000 47.21500
H  46.22000 0.00200 45.40500
H  48.61400 3.46100 45.94500
H  48.70300 5.56700 48.14400
H  48.07800 2.29600 48.66500
H  49.49700 3.44500 48.72800
H  49.39700 2.10000 47.57600
H  49.93300 7.04600 46.40500
H  49.41600 5.86600 45.15300
H  51.84800 5.77300 46.70100
H  51.24800 5.08000 45.21000
H  50.85800 4.30200 46.60400
H  47.30100 10.18700 47.90000
H  46.24200 11.44900 47.39400
H  47.21100 10.50900 46.17900
H  41.28100 10.28700 46.05500
H  38.43400 12.05000 48.44500
H  39.38400 11.17300 49.64300
H  38.34200 10.22700 48.52100
Mg 40.19400 9.61700 29.55200
C  42.33000 11.23400 31.95000
C  38.17700 8.75000 31.95800
C  38.35600 8.35200 27.08000
C  42.64900 10.38000 27.11200
N  40.43100 9.77300 31.86700
C  41.21700 10.57700 32.55300
C  40.69000 10.81900 33.98900
C  39.51400 9.74000 34.06600
C  39.29900 9.30700 32.55500
C  39.72000 8.50500 35.02200
C  40.22600 12.26100 34.28000
C  39.60700 12.47000 35.64100
H  40.38200 13.32900 36.75200
N  38.50700 8.58000 29.53300
C  37.76400 8.35000 30.67500
C  36.58200 7.62400 30.29500
C  36.68600 7.39700 28.86500
C  37.84300 8.21300 28.42200
C  35.51600 7.22000 31.24800
C  35.83000 6.58800 27.94600
O  35.92400 6.64000 26.73600
C  34.69100 5.80100 28.61400
N  40.54700 9.27400 27.36700
C  39.55900 8.78900 26.55200
C  39.85300 8.98300 25.05600
C  41.33500 9.37800 25.13100
C  41.57400 9.71900 26.60700
C  39.40100 7.76500 24.05200
C  41.72500 10.52300 24.17500
C  41.33400 11.88600 24.63600
N  42.11000 10.53700 29.46600
C  42.93700 10.75900 28.40300
C  44.17300 11.47900 28.91200
C  43.88800 11.68200 30.27900
C  42.62400 11.14000 30.54600
C  45.36700 11.97700 28.15200
C  44.45800 12.29500 31.44400
O  45.53400 12.88600 31.44100
C  43.46700 12.02100 32.63100
C  44.18100 11.32000 33.74800
O  44.78400 10.22000 33.65300
O  43.98700 12.02700 34.92900
C  44.56500 11.31600 36.11700
H  37.36300 8.77800 32.68500
H  37.67900 8.01500 26.29200
H  43.47700 10.50700 26.41200
H  41.52200 10.54000 34.63500
H  38.56800 10.16000 34.40500
H  39.63100 7.59200 34.43300
H  38.93000 8.68300 35.75200
H  40.71600 8.49300 35.46400
H  39.67600 12.63400 33.41700
H  41.15200 12.83100 34.36400
H  39.56200 11.44400 36.00600
H  38.59500 12.84500 35.49100
H  34.56700 7.63300 30.90500
H  35.83500 7.45700 32.26300
H  35.27900 6.15900 31.33600
H  35.08900 5.12300 29.36900
H  34.29300 5.26500 27.75300
H  33.97600 6.46800 29.09400
H  39.27300 9.88200 24.84700
H  41.96200 8.52100 24.88700
H  39.00700 6.87500 24.54200
H  40.24900 7.56000 23.39900
H  38.57600 8.09500 23.42100
H  41.22600 10.38900 23.21500
H  42.79700 10.62700 24.00700
H  40.55400 11.83500 25.39700
H  41.03500 12.49100 23.78000
H  42.26200 12.25200 25.07500
H  45.28700 11.55800 27.14900
H  46.22700 11.45500 28.57100
H  45.52200 13.05600 28.10900
H  43.04900 12.97300 32.95700
H  45.63900 11.45700 36.23700
H  44.42000 10.24100 36.00800
H  44.15400 11.72600 37.03900

