158

Mg 17.24500 -2.81200 27.35600
C  16.47100 -0.80900 30.22000
C  19.38500 -4.66900 29.59400
C  18.39800 -4.48900 24.78800
C  15.75900 -0.51400 25.35300
N  17.97700 -2.63900 29.66500
C  17.44100 -1.78900 30.56700
C  17.85900 -2.17900 32.03300
C  18.86200 -3.40500 31.74000
C  18.67200 -3.59200 30.24200
C  20.35700 -3.20700 32.26100
C  16.65300 -2.49300 32.95100
C  16.56800 -1.70700 34.24400
H  17.80900 -1.24800 35.08900
N  18.61900 -4.40700 27.20000
C  19.37300 -4.96500 28.20600
C  20.18300 -6.10700 27.64800
C  19.94700 -6.02500 26.23000
C  18.93800 -4.99100 26.01100
C  21.13700 -6.95000 28.49800
C  20.47500 -6.89400 25.13400
O  20.19600 -6.81300 23.97500
C  21.32900 -8.06600 25.54200
N  17.11900 -2.52800 25.39200
C  17.63200 -3.37700 24.54700
C  17.45700 -2.92600 23.13500
C  16.37900 -1.68200 23.25700
C  16.45800 -1.51400 24.73800
C  18.84200 -2.51700 22.52700
C  14.95200 -2.04200 22.78800
C  14.17000 -0.92200 22.11800
N  16.21900 -1.03700 27.69100
C  15.66500 -0.24900 26.71900
C  14.87800 0.78500 27.38500
C  15.10600 0.54200 28.81300
C  16.00800 -0.53200 28.91700
C  14.07900 1.84100 26.71700
C  14.83000 1.09500 30.19100
O  14.11800 2.02800 30.58100
C  15.80100 0.25800 31.12700
C  16.60200 1.33200 31.73100
O  17.71300 1.64300 31.35100
O  15.93700 2.00300 32.72600
C  16.66000 2.94900 33.60400
H  20.01500 -5.28500 30.23900
H  18.61200 -5.14000 23.93700
H  15.20000 0.15000 24.69000
H  18.40700 -1.28500 32.33200
H  18.41700 -4.27100 32.23000
H  20.49500 -2.39900 32.98000
H  20.95300 -2.98400 31.37600
H  20.64500 -4.10600 32.80500
H  16.45400 -3.54300 33.16200
H  15.74600 -2.19600 32.42300
H  15.98300 -2.27600 34.96700
H  16.11900 -0.72300 34.11300
H  22.13000 -6.97300 28.04900
H  20.86700 -8.00400 28.56100
H  21.26400 -6.76100 29.56400
H  20.87100 -8.76500 26.24100
H  22.24500 -7.68200 25.99000
H  21.65600 -8.66900 24.69500
H  16.91300 -3.73100 22.64000
H  16.72000 -0.79000 22.73100
H  19.61400 -2.79400 23.24500
H  18.89900 -1.44100 22.35800
H  19.03000 -2.97700 21.55700
H  14.34300 -2.38500 23.62500
H  15.06700 -2.93600 22.17600
H  14.77200 -0.01500 22.06400
H  13.22100 -0.74900 22.62600
H  13.98200 -1.06400 21.05400
H  13.92100 2.65300 27.42700
H  13.09100 1.39900 26.58800
H  14.40600 2.17800 25.73300
H  15.18200 -0.11000 31.94600
H  17.66100 2.56600 33.80200
H  16.08200 3.31200 34.45300
H  16.79600 3.89500 33.08100
Mg -2.37600 34.13500 26.71600
C  -3.49700 32.38900 29.71600
C  -0.79600 36.32000 28.73400
C  -2.22200 36.12400 24.06000
C  -4.26700 31.75600 24.94400
N  -2.25900 34.36300 29.01000
C  -2.59000 33.46600 29.98000
C  -2.01100 33.86300 31.38200
C  -1.35800 35.23900 31.07600
C  -1.39700 35.29900 29.51400
C  -1.81100 36.52000 31.80600
C  -1.06700 32.79900 32.03800
C  -1.54000 32.23100 33.38400
H  -0.62400 32.41800 34.60300
N  -1.51200 35.92100 26.39900
C  -0.89400 36.63800 27.35100
C  -0.43200 37.86900 26.74800
C  -0.86200 37.94000 25.38600
C  -1.59500 36.62900 25.23000
C  0.44600 38.89700 27.46800
C  -0.59500 39.10600 24.33000
O  -1.05200 39.06200 23.17200
C  0.19100 40.33800 24.71700
N  -3.11400 33.95700 24.78600
C  -2.85800 34.91700 23.81700
C  -3.34500 34.49400 22.43900
C  -3.89700 33.02600 22.79200
C  -3.75800 32.86100 24.31000
C  -4.32500 35.52300 21.91200
C  -3.16400 31.83300 22.08300
C  -3.89000 31.08400 20.97900
N  -3.67500 32.46600 27.17300
C  -4.31900 31.55200 26.31100
C  -5.01900 30.52300 27.06600
C  -4.73500 30.81400 28.40700
C  -3.94200 32.00600 28.41500
C  -5.67100 29.31300 26.49500
C  -4.91200 30.35000 29.68100
O  -5.46600 29.36700 30.15500
C  -4.08200 31.30000 30.62500
C  -5.06600 31.79600 31.67700
O  -6.00300 32.58500 31.45200
O  -4.86700 31.23700 32.91000
C  -5.69700 31.60200 34.03800
H  -0.15600 36.93300 29.37100
H  -2.16400 36.89200 23.28700
H  -4.77800 30.96200 24.39600
H  -2.93200 34.05900 31.93100
H  -0.31200 35.20400 31.37900
H  -2.59400 36.17900 32.48400
H  -2.15300 37.20800 31.03300
H  -1.09200 37.02900 32.44800
H  -0.06300 33.17800 32.22800
H  -1.02200 32.02300 31.27400
H  -1.69900 31.15600 33.29900
H  -2.53600 32.65400 33.51800
H  1.50900 38.89000 27.22600
H  0.37000 38.82500 28.55300
H  0.02400 39.88600 27.28500
H  -0.42800 41.02500 25.29400
H  0.56100 40.71200 23.76200
H  1.05700 40.19000 25.36200
H  -2.51900 34.37800 21.73700
H  -4.97000 32.97800 22.61100
H  -5.33300 35.19300 22.16600
H  -4.15500 35.64600 20.84200
H  -4.18500 36.52500 22.31600
H  -3.04800 31.05200 22.83500
H  -2.15000 32.10400 21.79100
H  -4.20000 30.12800 21.40000
H  -3.18900 30.88700 20.16700
H  -4.80700 31.58300 20.66800
H  -5.38300 29.03000 25.48200
H  -6.74800 29.47000 26.44900
H  -5.46000 28.62500 27.31400
H  -3.25800 30.81200 31.14500
H  -5.23900 32.50000 34.45200
H  -5.68400 30.78300 34.75700
H  -6.71500 31.89600 33.78200

