158

Mg 50.20700 45.10100 43.47600
C  46.76900 45.23500 42.42500
C  50.18700 41.77800 42.89900
C  53.61600 45.27100 43.56200
C  50.10900 48.58300 43.53400
N  48.71000 43.70200 42.46900
C  47.29700 43.92700 42.38100
C  46.58200 42.58400 42.17500
C  47.60600 41.47300 42.68100
C  48.92900 42.34800 42.75500
C  47.44500 40.95700 44.14700
C  46.14300 42.31400 40.69000
C  46.73300 43.34100 39.63300
H  46.74800 42.81000 38.22000
N  51.71600 43.65700 43.29000
C  51.46800 42.33100 43.03800
C  52.71500 41.68700 43.08700
C  53.76600 42.67100 43.25300
C  53.10200 43.97400 43.37400
C  52.87700 40.18800 42.95400
C  55.32400 42.44300 43.21500
O  55.73900 41.30500 43.11100
C  56.36500 43.46700 43.15900
N  51.67600 46.67500 43.55200
C  52.99800 46.52500 43.68300
C  53.77800 47.86200 43.77700
C  52.59400 48.89800 43.70800
C  51.42900 47.99400 43.56600
C  54.59600 47.95700 45.04500
C  52.67100 49.90400 42.47900
C  52.39700 51.40200 42.90700
N  48.72600 46.61500 43.25900
C  48.90900 47.97000 43.22500
C  47.72600 48.63200 42.90000
C  46.81000 47.65300 42.61800
C  47.51500 46.44400 42.73200
C  47.47800 50.14500 42.86300
C  45.50500 47.30600 42.27800
O  44.56600 48.01800 42.01300
C  45.34500 45.74400 42.12100
C  44.38500 45.25800 43.13100
O  44.62200 45.16100 44.32500
O  43.17400 44.88100 42.56000
C  42.14500 44.57600 43.51900
H  50.20500 40.68900 42.97500
H  54.69400 45.38100 43.69700
H  49.98700 49.66600 43.60800
H  45.72200 42.75400 42.82300
H  47.64600 40.69700 41.91600
H  46.42400 41.10400 44.49900
H  48.00100 41.61400 44.81600
H  47.78000 39.92500 44.25300
H  45.06200 42.43200 40.61400
H  46.37400 41.28900 40.39800
H  47.75900 43.61100 39.88400
H  46.05100 44.19000 39.58500
H  53.89700 39.90900 42.68900
H  52.13500 39.83500 42.23700
H  52.60500 39.67700 43.87700
H  56.27400 43.97800 44.11700
H  56.14900 44.22700 42.40800
H  57.35700 43.10300 42.89200
H  54.47500 48.03300 42.95700
H  52.52000 49.43000 44.65700
H  55.62600 47.84000 44.70900
H  54.48400 47.16800 45.78800
H  54.44500 48.94600 45.47900
H  51.81300 49.66600 41.85000
H  53.63600 49.73000 42.00400
H  51.66900 51.79200 42.19500
H  53.37800 51.81500 42.67100
H  52.17500 51.66300 43.94100
H  47.70700 50.70700 43.76800
H  46.50300 50.46800 42.50000
H  48.11000 50.70300 42.17200
H  44.79900 45.50200 41.21000
H  42.46800 43.90400 44.31400
H  41.28400 44.20100 42.96500
H  41.87300 45.53900 43.95100
Mg 27.08000 50.00900 26.63100
C  25.05400 51.14500 29.23900
C  29.27800 49.11800 28.85000
C  29.30300 49.67000 23.97100
C  24.98900 51.83300 24.33300
N  27.06300 50.13600 28.79600
C  26.15600 50.47700 29.75600
C  26.66500 50.29000 31.17900
C  28.13300 50.01100 30.91000
C  28.16500 49.76800 29.37100
C  29.03200 51.23800 31.27300
C  25.85200 49.25800 32.00100
C  25.11600 49.81300 33.19500
H  25.87400 50.08500 34.52200
N  28.98500 49.32400 26.49100
C  29.70100 48.86300 27.49700
C  30.96500 48.34700 26.99200
C  31.03300 48.57000 25.58100
C  29.75400 49.24300 25.29500
C  31.99700 47.67200 27.85700
C  32.11400 48.06000 24.64300
O  31.97200 48.31700 23.42000
C  33.35200 47.28200 25.18800
N  27.12400 50.64600 24.42000
C  28.09800 50.25900 23.53400
C  27.73600 50.44600 22.03000
C  26.36700 51.18600 22.25400
C  26.09300 51.18400 23.73800
C  28.69700 51.17800 21.13300
C  25.15300 50.68000 21.44100
C  24.37800 49.48800 22.00800
N  25.35000 51.16000 26.71500
C  24.58700 51.77900 25.68100
C  23.45600 52.54800 26.33200
C  23.60100 52.26500 27.68100
C  24.79300 51.47700 27.87500
C  22.42500 53.31100 25.59100
C  22.98400 52.51500 28.95800
O  21.96700 53.07400 29.21300
C  24.01400 51.90100 30.02700
C  24.66600 53.10200 30.66600
O  25.84100 53.46800 30.49400
O  23.90500 53.48000 31.71600
C  24.62200 54.47400 32.59600
H  29.94800 48.70600 29.60700
H  29.98400 49.46300 23.14300
H  24.29500 52.13700 23.54700
H  26.56300 51.23400 31.71300
H  28.52000 49.11300 31.39000
H  29.10300 51.94800 30.44900
H  30.01600 51.03700 31.69600
H  28.52600 51.78700 32.06700
H  26.53000 48.47900 32.35000
H  25.15800 48.73500 31.34300
H  24.32700 49.09900 33.42800
H  24.55100 50.72700 33.01500
H  32.01300 46.65200 27.47300
H  31.79900 47.58800 28.92500
H  32.87000 48.31700 27.76200
H  33.99700 47.20900 24.31300
H  32.93100 46.34600 25.55500
H  33.82400 47.91800 25.93700
H  27.58200 49.44500 21.62700
H  26.37700 52.25700 22.05500
H  28.32000 52.10500 20.70200
H  28.76300 50.59400 20.21500
H  29.60400 51.40100 21.69500
H  25.52600 50.51800 20.43000
H  24.37000 51.42900 21.32000
H  24.96800 48.94800 22.74900
H  24.28600 48.84700 21.13100
H  23.46600 49.86800 22.46800
H  22.28600 54.33700 25.93400
H  21.52700 52.69800 25.66700
H  22.70200 53.36400 24.53800
H  23.46600 51.46400 30.86200
H  25.50100 53.98500 33.01700
H  23.92800 54.85500 33.34500
H  24.93200 55.31700 31.98000

