158

Mg 46.77000 25.05900 27.23500
C  48.00800 27.31400 29.69500
C  46.15600 22.80800 29.74600
C  46.01300 22.91000 24.85400
C  48.28400 27.20000 24.70500
N  47.22600 25.06300 29.54500
C  47.58000 26.15300 30.29300
C  47.24500 25.90500 31.75400
C  46.93400 24.30700 31.76700
C  46.80300 24.00000 30.24100
C  48.02800 23.35600 32.35900
C  46.18100 26.87400 32.35500
C  45.90700 26.53300 33.84900
H  46.32700 27.59200 34.87200
N  46.15000 23.16200 27.31100
C  45.89600 22.42800 28.47800
C  45.42200 21.11600 28.02900
C  45.38700 21.08600 26.61800
C  45.90400 22.42900 26.17100
C  45.00600 19.99600 28.99500
C  44.89400 20.00300 25.67800
O  45.09700 20.05200 24.46000
C  44.20100 18.74600 26.20300
N  47.18100 25.02500 24.98200
C  46.53500 24.10800 24.31300
C  46.75700 24.25300 22.82900
C  47.35600 25.75700 22.79600
C  47.68300 26.00700 24.23100
C  47.60200 23.10500 22.24400
C  46.47400 26.87200 22.07800
C  46.99200 27.45700 20.84100
N  47.94000 26.76700 27.18400
C  48.44200 27.54100 26.07200
C  49.09500 28.78300 26.56500
C  48.90500 28.70100 28.00300
C  48.16800 27.51600 28.24900
C  49.78100 29.85100 25.76300
C  49.23000 29.39600 29.19500
O  49.84400 30.46000 29.35600
C  48.54200 28.60400 30.27700
C  49.42700 28.49700 31.52900
O  50.48200 28.00900 31.59800
O  48.71600 29.12100 32.55600
C  49.37500 29.06500 33.83400
H  46.00000 22.07000 30.53700
H  45.67700 22.18600 24.10800
H  48.53100 27.87800 23.88500
H  48.12600 26.05300 32.37900
H  45.95100 24.16600 32.21500
H  48.47000 23.95900 33.15200
H  48.78300 23.08500 31.62000
H  47.53900 22.47200 32.76800
H  45.18400 26.65600 31.97100
H  46.38800 27.93200 32.19300
H  46.32500 25.55500 34.08800
H  44.84400 26.38300 34.03600
H  45.54900 20.12900 29.93100
H  45.31600 19.10500 28.44900
H  43.93300 20.09100 29.16100
H  43.48100 19.08800 26.94700
H  45.01600 18.15700 26.62200
H  43.83900 18.12300 25.38400
H  45.83500 24.21800 22.24900
H  48.32900 25.83500 22.31000
H  48.43700 22.91800 22.91900
H  48.14700 23.23800 21.30900
H  47.05000 22.17800 22.09400
H  46.32000 27.75000 22.70600
H  45.44700 26.53100 21.95000
H  46.96500 26.83400 19.94700
H  48.03000 27.69100 21.08000
H  46.54600 28.39800 20.52000
H  49.05800 30.33800 25.10800
H  50.62900 29.41200 25.23700
H  50.05400 30.72700 26.35100
H  47.59200 29.09400 30.48800
H  50.43800 29.29900 33.77200
H  49.29800 28.10400 34.34300
H  49.07000 29.87600 34.49700
Mg 30.34700 57.85100 40.08600
C  27.77900 55.69800 38.69000
C  32.60300 55.58900 38.91300
C  32.62800 60.14000 40.45300
C  27.78900 60.31600 40.41100
N  30.18300 55.84000 38.96700
C  29.08900 55.19500 38.48300
C  29.51600 53.82100 38.01100
C  31.02800 53.75200 38.24400
C  31.32200 55.17800 38.68200
C  31.39100 52.64800 39.21600
C  29.03700 53.56100 36.50200
C  29.58800 54.60900 35.49500
H  28.75700 55.41600 34.39000
N  32.37600 57.83200 39.91400
C  33.16900 56.85200 39.38700
C  34.52000 57.23700 39.39500
C  34.57100 58.55900 39.89600
C  33.17400 58.91900 40.07800
C  35.63500 56.20700 39.08000
C  35.86400 59.36400 40.16900
O  36.88000 58.89800 39.80100
C  35.90900 60.72500 40.82900
N  30.22000 59.96000 40.19400
C  31.36100 60.65000 40.56400
C  31.06900 62.18400 40.68900
C  29.49900 62.21500 40.86600
C  29.13500 60.75900 40.45500
C  31.84400 62.96400 41.72900
C  28.79600 63.27200 39.98900
C  28.32200 64.53500 40.68600
N  28.24300 57.93100 39.81100
C  27.31100 58.99100 40.07100
C  25.92600 58.51300 39.81300
C  26.12800 57.27700 39.28500
C  27.49600 56.98900 39.20900
C  24.61900 59.20500 40.12500
C  25.38900 56.11900 38.81400
O  24.20400 56.03100 38.68200
C  26.39500 54.97100 38.57800
C  26.20800 53.87300 39.55700
O  27.05000 53.23100 40.17400
O  24.90700 53.55400 39.60100
C  24.59100 52.43000 40.52000
H  33.41000 54.88000 38.71600
H  33.37400 60.93100 40.55800
H  26.92600 60.97300 40.53500
H  29.02200 53.04800 38.60000
H  31.51300 53.50000 37.30100
H  31.50200 52.97100 40.25100
H  32.36500 52.24100 38.94400
H  30.72500 51.79500 39.08700
H  27.95200 53.47000 36.46300
H  29.45900 52.61200 36.17100
H  30.35700 54.09700 34.91600
H  30.10200 55.36400 36.09000
H  36.02300 56.33000 38.06900
H  35.29500 55.17900 39.20000
H  36.44900 56.28000 39.80200
H  36.91300 61.07200 41.07300
H  35.33200 60.61300 41.74700
H  35.49800 61.42300 40.10000
H  31.23000 62.60500 39.69700
H  29.30300 62.35900 41.92800
H  32.49500 62.25600 42.24200
H  31.13000 63.46800 42.38100
H  32.46500 63.68200 41.19500
H  27.97300 62.76700 39.48200
H  29.43200 63.56000 39.15200
H  28.25200 64.31800 41.75200
H  27.38200 64.98600 40.36600
H  29.13700 65.25500 40.60600
H  23.93800 58.46400 40.54400
H  24.03000 59.58200 39.28900
H  24.83600 59.86800 40.96200
H  26.27600 54.69500 37.53100
H  23.60700 51.98400 40.37800
H  24.62300 52.88400 41.51000
H  25.32700 51.62800 40.57800

