158

Mg 41.13500 7.86700 28.67600
C  42.83200 9.23200 31.51600
C  38.79200 6.44700 30.69700
C  39.88300 6.33000 25.97100
C  43.96700 8.77700 26.74800
N  40.87800 7.85100 30.88100
C  41.62000 8.57400 31.83700
C  40.97800 8.42100 33.23800
C  39.72100 7.55200 32.95100
C  39.72500 7.30800 31.37700
C  39.68800 6.13500 33.65200
C  40.55100 9.81800 33.79400
C  39.93100 9.88100 35.19600
H  40.60500 10.59800 36.39300
N  39.52700 6.71100 28.41000
C  38.61400 6.25700 29.31700
C  37.57600 5.49100 28.65100
C  37.79900 5.66300 27.20300
C  39.13400 6.24700 27.13700
C  36.46000 4.71900 29.29600
C  37.01200 5.12300 25.99500
O  37.30400 5.26100 24.81200
C  35.65600 4.43600 26.26000
N  41.87700 7.53600 26.66400
C  41.16500 6.82100 25.72700
C  41.88300 6.77000 24.43800
C  43.27700 7.51100 24.70500
C  43.01100 8.05900 26.10000
C  42.08200 5.35200 23.80400
C  43.61600 8.60300 23.64100
C  43.94200 8.08900 22.24900
N  42.89400 8.89800 28.95600
C  43.89700 9.20500 28.08400
C  45.00400 9.98900 28.80300
C  44.57900 9.95200 30.14000
C  43.37400 9.21000 30.19800
C  46.27200 10.56300 28.24600
C  44.88600 10.34800 31.47600
O  45.88500 10.88300 31.88200
C  43.80200 9.90100 32.42200
C  44.33500 9.03100 33.48900
O  44.86500 7.94000 33.29700
O  44.01500 9.50000 34.73800
C  44.64600 8.72400 35.84800
H  38.10400 5.88200 31.33000
H  39.40800 5.76000 25.17000
H  44.77000 9.17000 26.12200
H  41.70700 7.92000 33.87400
H  38.82400 8.09500 33.25000
H  40.57500 6.03800 34.27800
H  39.71300 5.26500 32.99700
H  38.83000 5.93100 34.29200
H  39.84500 10.23100 33.07400
H  41.32200 10.58400 33.88000
H  39.83800 8.84200 35.51300
H  38.92200 10.29300 35.20500
H  36.41600 4.90700 30.36900
H  36.60400 3.66200 29.07200
H  35.63300 5.20100 28.77700
H  35.87600 3.67800 27.01200
H  35.30300 4.10000 25.28500
H  35.04600 5.27900 26.58700
H  41.34600 7.38400 23.71500
H  44.18300 6.90900 24.77800
H  41.51300 4.51100 24.20200
H  43.13900 5.08700 23.81700
H  41.64100 5.44100 22.81100
H  44.33600 9.37400 23.91400
H  42.77700 9.26500 23.42500
H  43.27000 8.54200 21.52000
H  43.82400 7.00600 22.26000
H  44.97800 8.36800 22.05400
H  46.98000 10.94700 28.98100
H  45.97300 11.30200 27.50200
H  46.86400 9.90300 27.61200
H  43.38300 10.77400 32.92100
H  44.40600 7.66100 35.83300
H  44.53400 9.11600 36.85900
H  45.71400 8.72800 35.63300
Mg 47.09500 34.86800 28.28700
C  45.27200 32.94500 30.56300
C  47.43700 37.27800 30.73600
C  48.41300 37.05500 25.97200
C  46.20300 32.69100 25.70700
N  46.49400 34.95900 30.45100
C  45.75600 34.09100 31.17100
C  45.83300 34.60400 32.62300
C  46.02900 36.17100 32.46700
C  46.68400 36.16700 31.13600
C  44.63000 36.93600 32.46000
C  47.12400 34.02400 33.37500
C  47.01300 34.02300 34.94900
H  46.07600 35.03900 35.63400
N  47.91100 36.86100 28.32700
C  47.97400 37.68400 29.44400
C  48.76700 38.83300 29.12600
C  49.05000 38.79500 27.75100
C  48.52900 37.49400 27.26400
C  49.10600 39.89300 30.09900
C  49.70000 39.83500 26.91100
O  50.03300 39.57700 25.75600
C  50.06900 41.22200 27.35200
N  47.20700 34.86300 26.19100
C  47.76100 35.90000 25.48200
C  47.57200 35.71500 24.06200
C  47.05500 34.23500 23.90700
C  46.83500 33.87100 25.38400
C  46.60100 36.83800 23.48000
C  48.00200 33.23400 23.14600
C  49.32200 33.00300 23.80800
N  46.10100 33.11900 28.15300
C  45.83600 32.32900 27.03100
C  44.99000 31.23300 27.47800
C  44.75300 31.42600 28.86800
C  45.44300 32.63000 29.20300
C  44.31100 30.12000 26.63000
C  44.08800 30.94300 30.04000
O  43.31500 29.99000 30.26600
C  44.27100 31.96100 31.11500
C  44.37900 31.51100 32.53400
O  45.09500 30.60600 32.88900
O  43.35800 32.05100 33.27000
C  43.08200 31.63200 34.58100
H  47.55200 37.97600 31.56800
H  48.94500 37.65100 25.22700
H  45.93400 32.05400 24.86300
H  44.91900 34.26900 33.11300
H  46.77300 36.50800 33.18900
H  44.58700 37.51900 31.54100
H  44.71400 37.62600 33.30000
H  43.86500 36.16300 32.54100
H  47.98800 34.66100 33.18300
H  47.30900 33.01200 33.01500
H  48.01800 34.27400 35.28600
H  46.84700 33.02900 35.36400
H  48.36700 40.69300 30.06300
H  50.07800 40.35700 29.93500
H  49.15400 39.51600 31.12100
H  49.32200 41.60000 28.05000
H  50.18200 42.03300 26.63200
H  51.00500 41.17100 27.90700
H  48.47000 35.89600 23.47100
H  46.04600 34.18300 23.49800
H  46.24200 37.42400 24.32600
H  45.64500 36.52000 23.06500
H  47.02300 37.54300 22.76400
H  48.21700 33.62700 22.15200
H  47.45200 32.29600 23.08100
H  49.67500 33.85200 24.39400
H  50.06400 32.88700 23.01800
H  49.27200 32.14700 24.48100
H  43.38300 30.57900 26.28800
H  44.05500 29.25100 27.23600
H  44.94800 29.95500 25.76000
H  43.27100 32.39200 31.12900
H  43.63000 30.73600 34.87600
H  42.03700 31.50100 34.86300
H  43.29000 32.45000 35.27000

