158

Mg 48.75100 45.31500 42.62800
C  45.34200 45.52700 42.13700
C  48.65600 42.00700 42.35200
C  52.15700 45.45700 42.70400
C  48.74100 48.84100 42.91900
N  47.23600 43.96700 42.20400
C  45.88700 44.21600 42.10500
C  45.10300 42.94400 41.70800
C  46.07500 41.86600 42.22200
C  47.42600 42.64100 42.24600
C  45.75400 41.00200 43.49100
C  44.56800 42.84200 40.23800
C  45.33800 43.48700 39.15400
H  45.19100 43.06000 37.60500
N  50.19800 43.90100 42.58600
C  49.97400 42.57200 42.44300
C  51.28800 41.89600 42.47100
C  52.29400 42.88100 42.41800
C  51.58600 44.15500 42.64900
C  51.50500 40.35600 42.39900
C  53.82100 42.61900 42.38700
O  54.18600 41.43600 42.35400
C  54.89300 43.72800 42.46300
N  50.27800 46.95300 42.47600
C  51.59500 46.72400 42.61100
C  52.44400 48.00700 42.85000
C  51.26100 49.10100 42.88200
C  49.99100 48.25800 42.77800
C  53.53900 47.96500 43.99600
C  51.22100 50.17300 41.69000
C  51.35800 51.61600 42.18200
N  47.35000 46.94000 42.67800
C  47.45400 48.26100 42.77900
C  46.21600 48.87600 42.58500
C  45.30500 47.86700 42.33600
C  46.04200 46.69600 42.44200
C  46.01300 50.35700 42.54800
C  43.95400 47.56500 42.04000
O  42.99900 48.25000 41.84300
C  43.87900 45.99900 41.86700
C  42.82400 45.35700 42.76200
O  42.07000 44.46300 42.39800
O  42.75500 46.05500 43.91500
C  41.55600 45.87500 44.72800
H  48.70600 40.91600 42.34600
H  53.22700 45.65600 42.79500
H  48.83600 49.90900 43.12600
H  44.21600 42.92500 42.34100
H  46.08700 41.17300 41.38100
H  44.91200 41.55900 43.90300
H  46.58100 40.84000 44.18200
H  45.31800 40.04400 43.20700
H  43.58600 43.30400 40.34600
H  44.44000 41.77900 40.03600
H  46.35700 43.26400 39.46900
H  45.25000 44.57300 39.13000
H  51.70900 40.00200 41.38800
H  50.55500 39.84600 42.55800
H  52.25600 39.93700 43.06900
H  54.64600 44.14800 43.43800
H  54.76900 44.35200 41.57800
H  55.88700 43.28300 42.51400
H  52.93500 48.14500 41.88700
H  51.27600 49.55300 43.87300
H  54.52500 48.11700 43.55700
H  53.47100 46.96100 44.41500
H  53.36300 48.77000 44.70900
H  50.32600 50.04700 41.08100
H  52.15100 49.98000 41.15500
H  50.87800 52.36700 41.55500
H  52.39000 51.91200 42.37100
H  50.89400 51.75600 43.15800
H  46.87400 50.83300 42.07900
H  46.11800 50.58400 43.60900
H  45.02100 50.64300 42.20000
H  43.49800 45.72400 40.88300
H  41.14200 46.86900 44.89400
H  41.95600 45.45700 45.65200
H  40.72400 45.27900 44.35500
Mg 36.90000 48.87600 24.13200
C  37.22900 47.18700 27.26300
C  35.57600 51.48600 25.61300
C  36.13100 49.88300 21.06100
C  38.23400 45.90500 22.61000
N  36.43100 49.23100 26.20800
C  36.71000 48.45000 27.34600
C  36.36900 49.30300 28.61200
C  35.75000 50.67200 28.07500
C  35.90500 50.47600 26.57600
C  34.28200 50.91500 28.57400
C  37.57200 49.47800 29.55400
C  37.36000 49.20100 31.06000
H  35.92200 49.05400 31.68900
N  35.93900 50.41100 23.47200
C  35.54000 51.43000 24.19500
C  35.10000 52.49300 23.27200
C  35.24600 52.10300 21.93800
C  35.77700 50.76800 22.13100
C  34.66500 53.87100 23.71500
C  34.80300 52.73000 20.62100
O  34.74900 52.13900 19.59000
C  34.33400 54.24300 20.56400
N  36.82000 47.86700 22.04900
C  36.66000 48.62400 21.02400
C  36.87700 47.77800 19.70200
C  37.89000 46.70500 20.22600
C  37.61100 46.76200 21.69800
C  35.54200 47.13800 19.17200
C  39.36700 47.01300 19.84700
C  40.13500 45.83000 19.24400
N  37.63300 46.96100 24.77600
C  38.02800 45.83500 24.02400
C  38.39900 44.71300 24.95100
C  38.08200 45.24800 26.18600
C  37.64400 46.58200 26.06500
C  39.04900 43.37700 24.48700
C  38.06800 44.86000 27.56200
O  38.42000 43.80700 28.01300
C  37.48800 46.13900 28.35200
C  36.24800 45.71500 29.05500
O  35.09100 45.88600 28.64400
O  36.55700 44.97800 30.15000
C  35.46000 44.46000 30.93300
H  35.35400 52.44300 26.08900
H  35.84600 50.20600 20.05800
H  38.62600 44.98000 22.18300
H  35.55900 48.77000 29.11000
H  36.35600 51.45800 28.52500
H  33.58400 50.82000 27.74200
H  34.34000 51.90800 29.01900
H  34.02100 50.29500 29.43200
H  37.95200 50.49900 29.52800
H  38.33800 48.74600 29.29500
H  37.89500 50.04500 31.49500
H  37.81200 48.26500 31.38700
H  34.99000 54.61300 22.98700
H  35.18700 54.23000 24.60200
H  33.57600 53.89300 23.76500
H  33.63900 54.46500 21.37400
H  33.80800 54.37200 19.61800
H  35.22000 54.87500 20.61900
H  37.11400 48.46700 18.89200
H  37.60000 45.76100 19.76400
H  35.32600 46.20100 19.68500
H  35.80700 46.86800 18.15000
H  34.67500 47.79300 19.08300
H  39.76300 47.39100 20.79000
H  39.35200 47.86400 19.16600
H  41.11100 45.69700 19.71000
H  40.40200 46.01700 18.20400
H  39.63700 44.87200 19.39300
H  39.55900 43.48900 23.53000
H  38.34500 42.55400 24.36300
H  39.75600 43.14100 25.28300
H  38.17800 46.52300 29.10400
H  35.06600 45.30900 31.49200
H  35.84800 43.64100 31.53900
H  34.61400 44.04300 30.38800

