158

Mg 48.13200 15.54800 28.79500
C  45.91000 15.41300 31.58400
C  50.08100 17.66400 30.69800
C  50.01300 15.92700 26.21400
C  45.54500 14.10800 26.90400
N  47.97400 16.28600 30.91000
C  47.09000 16.11600 31.84200
C  47.47900 16.80200 33.17600
C  48.59000 17.75500 32.71800
C  48.92800 17.19500 31.30200
C  48.19300 19.22500 32.91800
C  47.91400 15.61000 34.10800
C  47.68000 15.86600 35.64200
H  47.65200 17.21800 36.38700
N  49.88900 16.50700 28.53500
C  50.59300 17.22600 29.40400
C  51.80400 17.72600 28.76600
C  51.86900 17.09500 27.46900
C  50.54900 16.42600 27.37200
C  52.77100 18.69800 29.44300
C  53.00100 17.24500 26.43900
O  52.96100 16.61100 25.35600
C  54.27900 17.85900 26.83800
N  47.74000 15.24900 26.80900
C  48.74700 15.36700 25.96000
C  48.42900 14.82300 24.51300
C  46.96200 14.40100 24.70300
C  46.69700 14.54400 26.19300
C  48.56700 15.88800 23.43800
C  46.87800 13.01800 24.07500
C  47.50200 11.84400 24.87600
N  46.14400 14.88000 29.12100
C  45.28500 14.20400 28.26800
C  44.05200 13.91300 28.96400
C  44.29100 14.28600 30.27400
C  45.56000 14.91400 30.34600
C  42.76400 13.26100 28.40700
C  43.70400 14.27100 31.58300
O  42.58500 13.90900 31.92800
C  44.75000 14.99900 32.47200
C  44.10700 16.11800 33.16200
O  43.77900 17.16000 32.61800
O  43.81900 15.72000 34.43100
C  42.86100 16.60100 35.12100
H  50.60300 18.45600 31.23900
H  50.70000 15.87100 25.36700
H  44.84000 13.49200 26.34200
H  46.60700 17.29500 33.60500
H  49.55400 17.61700 33.20800
H  47.17600 19.29600 33.30300
H  48.20000 19.74500 31.96000
H  48.89100 19.72100 33.59200
H  48.96900 15.45200 33.88400
H  47.47000 14.65100 33.84000
H  48.46900 15.30600 36.14400
H  46.76900 15.46000 36.08200
H  53.02000 19.46600 28.71100
H  53.54700 17.95600 29.63200
H  52.45200 19.01800 30.43500
H  55.03500 17.77900 26.05700
H  54.66700 17.24000 27.64700
H  54.32400 18.90400 27.14600
H  49.16900 14.05900 24.27300
H  46.21000 15.04300 24.24300
H  49.63800 16.07700 23.37300
H  48.17700 16.88100 23.66500
H  48.10800 15.49000 22.53300
H  47.35300 13.01100 23.09400
H  45.81000 12.89800 23.89300
H  46.74100 11.09700 25.10300
H  47.95500 12.17300 25.81100
H  48.30000 11.40400 24.27800
H  42.31400 12.82400 29.29800
H  43.02500 12.50500 27.66600
H  42.10900 14.05400 28.04500
H  45.08400 14.21500 33.15200
H  43.40200 17.31700 35.74000
H  42.40000 15.95600 35.86900
H  42.02800 17.04400 34.57600
Mg 9.30900 48.24700 25.34500
C  6.98500 48.80500 27.86600
C  11.70100 49.46500 27.44000
C  11.46100 47.64800 22.96800
C  6.67200 47.70000 22.98800
N  9.27800 49.20400 27.40000
C  8.28300 49.05500 28.35000
C  8.81800 49.13700 29.83200
C  10.21500 49.83500 29.60200
C  10.42800 49.47400 28.02300
C  10.15700 51.34300 29.82700
C  8.80600 47.75600 30.52400
C  9.37600 47.75700 31.96000
H  8.46000 47.21600 33.06100
N  11.34000 48.39000 25.25500
C  12.14800 48.90400 26.25200
C  13.50900 48.71900 25.78200
C  13.52000 48.21600 24.51400
C  12.05500 48.08700 24.18400
C  14.66000 49.15200 26.71600
C  14.58300 47.90800 23.57400
O  14.38600 47.35600 22.50000
C  15.96700 48.10200 23.99600
N  9.07200 47.81300 23.23600
C  10.18100 47.60200 22.57300
C  9.86500 46.99000 21.16000
C  8.29500 47.01700 21.13800
C  7.97200 47.61500 22.47700
C  10.67700 47.51000 19.93700
C  7.60600 45.67000 20.78800
C  6.59400 45.75600 19.54200
N  7.25800 48.33100 25.37600
C  6.28400 48.09200 24.30600
C  4.98400 48.18200 24.90900
C  5.25700 48.41800 26.34000
C  6.59000 48.52500 26.50700
C  3.62800 48.18300 24.17600
C  4.58800 48.66500 27.59900
O  3.36000 48.60700 27.88300
C  5.70100 48.85900 28.65100
C  5.39500 47.74800 29.66100
O  5.74900 46.60100 29.59600
O  4.60200 48.23000 30.65900
C  4.06900 47.26200 31.63700
H  12.46900 49.69000 28.18300
H  12.11900 47.31300 22.16400
H  5.87000 47.53400 22.26700
H  8.16000 49.77200 30.42500
H  11.05600 49.35900 30.10600
H  9.26000 51.61300 30.38300
H  10.18700 51.88500 28.88100
H  11.01300 51.60800 30.44800
H  9.23700 46.91900 29.97700
H  7.75500 47.52200 30.69300
H  9.72300 48.78000 32.10900
H  10.23500 47.08700 31.92400
H  14.42900 49.36600 27.75900
H  15.03900 50.12400 26.40000
H  15.44800 48.40000 26.67200
H  16.12500 47.31300 24.73100
H  16.01300 49.05400 24.52400
H  16.60700 48.05500 23.11500
H  10.25500 45.97200 21.13900
H  7.94100 47.86300 20.54900
H  10.08800 48.19400 19.32700
H  11.14300 46.77800 19.27700
H  11.49900 48.06200 20.39300
H  7.14800 45.14300 21.62500
H  8.37700 44.93900 20.54800
H  5.78600 45.04900 19.73300
H  7.07300 45.67600 18.56600
H  6.10900 46.72500 19.65500
H  3.84300 48.10200 23.11100
H  2.99700 49.04400 24.39900
H  3.10500 47.35500 24.65500
H  5.67300 49.83300 29.14000
H  3.44600 47.92100 32.24100
H  4.89500 46.97800 32.28900
H  3.57600 46.37700 31.23500

