158

Mg 46.87600 25.79200 28.55300
C  47.80500 27.82200 31.27000
C  45.62200 23.52300 30.83800
C  46.24500 23.76800 25.95700
C  48.52900 28.00500 26.35700
N  46.75300 25.70600 30.79200
C  47.13300 26.69300 31.71800
C  46.80900 26.18500 33.17300
C  46.13400 24.84100 32.95000
C  46.16800 24.66900 31.41900
C  46.80800 23.65600 33.74500
C  45.97900 27.32100 33.98500
C  46.59200 27.98900 35.13500
H  45.69400 28.52900 36.26100
N  46.08600 23.87200 28.45500
C  45.54600 23.15700 29.45500
C  44.93500 21.92100 28.93500
C  45.11300 21.94600 27.55700
C  45.85700 23.23900 27.21000
C  44.08200 20.93300 29.67900
C  44.52000 21.05900 26.50400
O  44.73400 21.18300 25.33800
C  43.75600 19.86000 26.86400
N  47.39200 25.84800 26.47600
C  46.94700 24.86900 25.64200
C  47.24300 25.20300 24.12900
C  47.74300 26.71800 24.24900
C  48.00000 26.83700 25.76100
C  48.25100 24.24100 23.43500
C  46.62800 27.75000 23.79000
C  47.04600 28.66500 22.60800
N  47.88100 27.56900 28.70800
C  48.53900 28.30500 27.74700
C  49.15600 29.38600 28.35600
C  48.85800 29.29000 29.70300
C  48.14300 28.09200 29.87900
C  50.10200 30.34400 27.69000
C  49.04400 29.91500 30.94800
O  49.51000 31.03400 31.22100
C  48.47900 28.92500 32.12000
C  49.59800 28.44300 32.98900
O  50.52500 27.74500 32.61500
O  49.59400 29.02000 34.23100
C  50.55200 28.54600 35.23700
H  45.20800 22.83900 31.58200
H  46.03500 23.18500 25.05800
H  48.95300 28.75300 25.68400
H  47.78500 25.98900 33.61600
H  45.08800 24.83800 33.25700
H  47.45400 23.94600 34.57300
H  47.29700 22.91200 33.11600
H  46.02000 23.02200 34.15200
H  45.07800 26.83400 34.36000
H  45.73900 28.19200 33.37500
H  47.05100 28.91400 34.78500
H  47.47600 27.49500 35.53800
H  43.07700 21.09600 29.29000
H  44.06200 21.32900 30.69500
H  44.45300 19.91100 29.60400
H  44.39100 19.37800 27.60700
H  43.51500 19.22000 26.01500
H  42.84000 20.22100 27.33300
H  46.25400 25.09900 23.68300
H  48.65600 26.99600 23.72300
H  48.24600 23.31200 24.00500
H  49.22400 24.65600 23.17300
H  47.85900 23.91000 22.47400
H  46.39400 28.44900 24.59300
H  45.66400 27.24900 23.70100
H  46.46800 28.57200 21.68800
H  48.08400 28.52200 22.30800
H  46.92200 29.71400 22.87900
H  50.79800 29.89800 26.98000
H  50.63100 30.83300 28.50800
H  49.51400 31.13500 27.22500
H  47.87000 29.57300 32.75000
H  51.18600 27.71300 34.93300
H  49.97800 28.24700 36.11500
H  51.26000 29.31900 35.53600
Mg 1.05400 41.84100 25.78300
C  2.52300 42.15400 28.99200
C  -1.78900 40.72100 27.29800
C  -0.11400 41.06700 22.78800
C  4.07100 42.97800 24.44200
N  0.48000 41.54300 27.88900
C  1.19500 41.74300 29.05400
C  0.30300 41.77500 30.29900
C  -1.06200 41.12900 29.81800
C  -0.80900 41.10600 28.24400
C  -1.46900 39.75800 30.49600
C  0.16100 43.15500 30.90800
C  0.42700 43.30800 32.40000
H  0.03600 42.10000 33.20200
N  -0.76400 41.03800 25.10600
C  -1.76900 40.61500 25.87900
C  -2.81500 40.11500 24.98500
C  -2.35700 40.34600 23.61300
C  -1.02400 40.88500 23.79900
C  -4.08300 39.29900 25.41600
C  -2.98500 39.96600 22.36800
O  -2.42800 40.00100 21.29300
C  -4.50500 39.62200 22.32900
N  1.83100 42.01800 23.93200
C  1.20300 41.43300 22.88900
C  2.00100 41.44200 21.59100
C  3.19100 42.50000 21.97700
C  3.06900 42.52100 23.57100
C  2.60600 40.02300 21.22900
C  3.00300 43.89400 21.31000
C  4.24300 44.52300 20.63800
N  2.88100 42.50300 26.50600
C  4.02200 42.89400 25.83500
C  5.09700 43.17100 26.75900
C  4.50900 42.90800 27.97400
C  3.20700 42.51600 27.81000
C  6.56900 43.53600 26.49200
C  4.81900 42.75200 29.40700
O  5.90200 42.83800 29.98200
C  3.49900 42.39200 30.10900
C  3.70000 41.15900 30.97200
O  3.31800 40.01800 30.55100
O  4.06500 41.46800 32.26900
C  4.22900 40.32100 33.25800
H  -2.66900 40.29800 27.78800
H  -0.44600 40.90800 21.76000
H  4.85800 43.45100 23.85000
H  0.84000 41.06100 30.92300
H  -1.92600 41.78300 29.93700
H  -1.20600 38.89000 29.89100
H  -2.54600 39.65100 30.62600
H  -1.04300 39.43000 31.44400
H  -0.84200 43.57000 30.80800
H  0.92100 43.73100 30.38000
H  -0.11300 44.18600 32.75500
H  1.51100 43.40700 32.44700
H  -4.01500 38.94700 26.44600
H  -4.23400 38.38700 24.83800
H  -4.91900 39.90200 25.06200
H  -4.71800 38.56800 22.50400
H  -4.81700 39.89300 21.32100
H  -4.95500 40.32900 23.02700
H  1.31800 41.80700 20.82300
H  4.21500 42.15900 21.82900
H  2.65500 39.27900 22.02400
H  3.61600 40.15800 20.84200
H  2.00000 39.58200 20.43700
H  2.69000 44.66100 22.01800
H  2.25200 43.83000 20.52200
H  4.54900 45.35100 21.27700
H  4.01800 44.88400 19.63500
H  5.07700 43.82400 20.57900
H  6.82300 44.53300 26.85400
H  6.75300 43.30300 25.44300
H  7.18200 42.81300 27.03000
H  3.32500 43.25100 30.75600
H  4.17100 40.61300 34.30600
H  5.24600 39.98600 33.05300
H  3.58700 39.47500 33.01300

