158

Mg 7.73000 2.70800 28.76600
C  9.23400 1.33000 31.77100
C  5.63900 4.42900 30.89000
C  6.01900 3.61700 26.08300
C  9.36100 0.09800 26.97200
N  7.62700 2.95400 31.13300
C  8.27700 2.29900 32.11200
C  7.85400 2.82000 33.56100
C  6.70300 3.80000 33.22500
C  6.57400 3.69900 31.67700
C  5.35800 3.42600 33.94800
C  8.98800 3.56100 34.37200
C  8.63000 4.08600 35.77200
H  8.88800 3.27100 37.07700
N  6.17900 3.87400 28.48900
C  5.43300 4.47400 29.49000
C  4.40700 5.34800 28.87900
C  4.52900 5.17900 27.44700
C  5.57200 4.19200 27.32000
C  3.49900 6.21500 29.65600
C  3.87100 5.86800 26.29300
O  4.12100 5.65700 25.10000
C  2.65600 6.71400 26.51700
N  7.71400 1.97200 26.78700
C  7.07800 2.67800 25.82300
C  7.43100 2.13700 24.44000
C  8.63100 1.08100 24.70500
C  8.59000 1.04400 26.27200
C  6.16800 1.61700 23.80500
C  10.02500 1.50000 24.12600
C  11.10800 2.16600 25.03900
N  9.14300 1.08700 29.15400
C  9.64100 0.09600 28.36100
C  10.58900 -0.64300 29.14800
C  10.46500 -0.26200 30.44800
C  9.56000 0.84900 30.47500
C  11.37800 -1.85300 28.60900
C  10.91500 -0.51900 31.80700
O  11.67400 -1.35700 32.25700
C  10.15100 0.50100 32.69500
C  9.38000 -0.28800 33.64400
O  8.47900 -1.02400 33.39200
O  9.86000 -0.16600 34.97100
C  9.27200 -0.98400 36.02100
H  5.02400 5.12000 31.47100
H  5.52200 3.86000 25.14200
H  9.81800 -0.71700 26.40800
H  7.42600 2.03600 34.18600
H  6.93200 4.84000 33.46000
H  4.59000 2.94600 33.34100
H  4.89200 4.32400 34.35300
H  5.43400 2.60700 34.66300
H  9.46900 4.36800 33.81900
H  9.84000 2.90700 34.55400
H  7.54700 3.99300 35.85300
H  8.91400 5.12500 35.93900
H  3.74200 6.37300 30.70700
H  2.58800 5.65500 29.86400
H  3.42200 7.17600 29.14600
H  2.22600 6.93100 25.53900
H  2.95000 7.69600 26.89000
H  1.99200 6.21200 27.22100
H  7.87700 2.95700 23.87700
H  8.34700 0.08400 24.36700
H  5.34100 1.54800 24.51200
H  6.30600 0.63400 23.35600
H  5.88400 2.34800 23.04800
H  9.91300 2.30500 23.39900
H  10.58600 0.67400 23.68900
H  10.72600 2.29300 26.05200
H  11.30900 3.19200 24.73100
H  11.98500 1.51900 25.01800
H  12.18000 -1.97400 29.33600
H  11.73100 -1.76200 27.58200
H  10.71300 -2.70700 28.74400
H  10.88300 1.15400 33.17100
H  9.33700 -0.41900 36.95100
H  9.59600 -2.02200 36.09700
H  8.18800 -0.99700 35.90900
Mg 41.72300 41.14500 27.30500
C  41.50600 43.80900 29.67900
C  42.60400 39.16100 29.84100
C  42.35400 38.86100 25.05900
C  41.61900 43.59500 24.79600
N  42.03100 41.51600 29.49200
C  41.79300 42.59700 30.29200
C  41.68400 42.22900 31.74200
C  42.24800 40.75600 31.71700
C  42.24800 40.43500 30.26100
C  43.59400 40.66700 32.40000
C  40.22400 42.37400 32.27800
C  40.13400 42.77400 33.72800
H  39.56500 41.69700 34.69000
N  42.25200 39.26100 27.48000
C  42.66400 38.56600 28.59300
C  43.03200 37.18100 28.26100
C  42.88500 37.07200 26.82200
C  42.44400 38.47200 26.40800
C  43.43700 36.06100 29.30100
C  43.13900 35.97900 25.94200
O  42.75100 35.95100 24.79400
C  43.69900 34.61800 26.41100
N  42.02400 41.22800 25.24300
C  42.15000 40.08300 24.51100
C  42.09200 40.34600 22.99300
C  41.70800 41.93000 22.96200
C  41.85200 42.28900 24.38700
C  43.52400 40.14700 22.31100
C  40.30000 42.25300 22.42100
C  39.17600 41.52500 23.08900
N  41.55700 43.27400 27.16400
C  41.45500 44.06900 26.05700
C  41.15700 45.42100 26.52400
C  41.12400 45.38600 27.89500
C  41.45000 44.05900 28.24200
C  40.96500 46.61000 25.70100
C  40.81100 46.11300 29.09100
O  40.33200 47.24200 29.14000
C  41.03400 45.19700 30.33300
C  41.90000 45.77700 31.38700
O  43.09800 45.99700 31.24000
O  41.16900 45.82200 32.60500
C  42.06900 46.13300 33.71600
H  43.04600 38.45400 30.54600
H  42.43800 38.13400 24.24800
H  41.48200 44.37700 24.04600
H  42.37300 42.78300 32.37900
H  41.57000 40.05300 32.20100
H  44.22300 39.87800 31.98900
H  43.27100 40.44100 33.41600
H  44.17800 41.58300 32.49000
H  39.70700 41.43500 32.08200
H  39.70700 43.08100 31.63000
H  39.46500 43.63400 33.74700
H  41.03800 43.13300 34.22100
H  44.36300 35.52000 29.10400
H  42.63100 35.33200 29.38800
H  43.65600 36.47500 30.28500
H  42.93000 34.18500 27.05100
H  44.55800 34.81000 27.05400
H  44.06900 33.95200 25.63100
H  41.36300 39.82100 22.37500
H  42.40600 42.57000 22.42300
H  43.85800 41.13900 22.00500
H  43.50300 39.42000 21.49900
H  44.15800 39.69100 23.07200
H  40.17300 42.03200 21.36100
H  40.11000 43.32700 22.40500
H  38.37200 42.21000 23.35900
H  39.39200 40.96900 24.00100
H  38.71200 40.83900 22.38000
H  40.98000 46.53300 24.61400
H  41.80800 47.26700 25.91800
H  40.06500 47.13700 26.01500
H  40.02400 45.05700 30.71800
H  43.07600 46.47000 33.47100
H  41.96500 45.29500 34.40700
H  41.62900 47.01600 34.17900

