158

Mg 0.06800 8.14200 26.77400
C  0.97900 10.23300 29.41000
C  -0.52300 5.69400 29.00600
C  -0.38900 6.15500 24.21600
C  0.65500 10.87700 24.61400
N  0.37000 7.93400 28.98700
C  0.61600 8.96900 29.86100
C  0.30600 8.59800 31.38100
C  0.16000 6.99600 31.17300
C  -0.16800 6.90400 29.64200
C  1.41200 6.25200 31.61700
C  -0.96900 9.28200 32.06900
C  -0.98700 9.56100 33.54700
H  0.17300 9.06000 34.37500
N  -0.22500 6.17300 26.58400
C  -0.48400 5.33800 27.59800
C  -0.91900 3.98600 27.07600
C  -0.94400 4.12700 25.65700
C  -0.53200 5.51100 25.43800
C  -1.40300 2.83400 27.90100
C  -1.26000 3.06700 24.62100
O  -1.17400 3.37000 23.41400
C  -1.55700 1.59800 25.04200
N  0.25400 8.43400 24.69000
C  -0.00100 7.41500 23.81500
C  -0.05200 7.92300 22.34600
C  -0.08100 9.47000 22.59700
C  0.40800 9.59500 24.04700
C  1.10300 7.44100 21.41900
C  -1.45900 10.11700 22.34400
C  -1.44500 11.20700 21.27900
N  0.86000 10.13500 26.88900
C  0.98600 11.12100 25.94000
C  1.48500 12.35500 26.52200
C  1.53900 12.08100 27.86100
C  1.09000 10.71300 28.08400
C  1.65500 13.67700 25.87100
C  1.77500 12.61400 29.19400
O  2.03100 13.69600 29.63600
C  1.37200 11.44900 30.21400
C  2.49600 11.16500 31.15000
O  3.49000 10.46400 30.86400
O  2.45300 12.03500 32.19700
C  3.65200 12.08500 33.06500
H  -0.75500 4.90500 29.72400
H  -0.68600 5.56200 23.34800
H  0.54900 11.72800 23.93700
H  1.20600 8.94700 31.88800
H  -0.58200 6.55700 31.83900
H  2.04500 6.83600 32.28500
H  1.97200 6.02000 30.71100
H  1.15500 5.36600 32.19600
H  -1.83600 8.64700 31.88900
H  -1.19200 10.11400 31.40100
H  -1.92700 9.19800 33.96300
H  -0.88100 10.62500 33.75900
H  -0.80100 2.01700 27.50300
H  -2.45400 2.62700 27.70000
H  -1.16800 3.02500 28.94800
H  -1.92700 1.00000 24.20900
H  -2.32800 1.64600 25.81200
H  -0.71500 1.04000 25.45300
H  -1.04300 7.51500 22.14800
H  0.66400 9.95500 21.96600
H  0.67400 6.63900 20.81800
H  1.85100 7.12800 22.14800
H  1.45300 8.15900 20.67800
H  -1.85300 10.64100 23.21500
H  -2.14800 9.34900 21.99200
H  -1.98000 10.78100 20.43100
H  -0.42600 11.42000 20.95300
H  -1.93100 12.12400 21.61200
H  0.83100 14.33300 26.15000
H  1.80800 13.64300 24.79200
H  2.59000 14.02200 26.31200
H  0.59800 11.78700 30.90300
H  4.40500 12.32200 32.31300
H  3.94900 11.12000 33.47600
H  3.65000 12.79800 33.89000
Mg 17.33700 52.97000 26.08400
C  19.36700 51.66700 28.68700
C  14.91800 53.68500 28.46700
C  15.38300 54.08500 23.65000
C  19.53400 51.55200 23.80200
N  17.15200 52.63000 28.30200
C  18.16000 52.20500 29.14100
C  17.72700 52.33400 30.67700
C  16.22000 52.60500 30.44700
C  16.06400 53.05200 28.96100
C  15.16900 51.49800 30.75000
C  18.56500 53.45900 31.41300
C  19.07700 53.13900 32.85200
H  18.10200 52.40400 33.71100
N  15.45400 53.74700 26.09900
C  14.68400 54.10800 27.15600
C  13.51200 54.90100 26.76400
C  13.52100 54.82200 25.34600
C  14.86900 54.31600 24.95500
C  12.50900 55.55900 27.77400
C  12.38600 55.26200 24.34200
O  12.41200 55.21500 23.13200
C  11.12400 55.69200 24.93100
N  17.38700 52.75600 24.00900
C  16.46400 53.34300 23.20900
C  16.85800 53.37800 21.75600
C  18.17700 52.45500 21.75300
C  18.39800 52.22300 23.31000
C  15.75600 52.75800 20.82100
C  19.36800 53.13900 20.97600
C  20.31400 53.92500 21.75300
N  19.18100 51.91400 26.11600
C  19.98800 51.42100 25.12100
C  21.14300 50.86500 25.65900
C  20.99700 50.89100 27.09000
C  19.79100 51.52700 27.29600
C  22.22300 50.41500 24.79400
C  21.56000 50.56800 28.38400
O  22.61900 50.10100 28.72500
C  20.50300 51.03100 29.43000
C  20.00400 49.82500 30.17700
O  19.26800 49.04400 29.75700
O  20.43900 49.76900 31.52500
C  19.63300 48.96500 32.36600
H  14.20300 53.99200 29.23300
H  14.80900 54.54100 22.84100
H  20.19700 51.21000 23.00400
H  17.97000 51.39500 31.17500
H  15.93900 53.40600 31.13000
H  14.20700 51.91400 31.05000
H  15.60400 50.83900 31.50100
H  14.92700 50.95400 29.83700
H  18.03200 54.40300 31.52500
H  19.48200 53.57200 30.83400
H  19.28800 54.07500 33.37100
H  20.01900 52.59100 32.82400
H  11.53700 55.90600 27.42400
H  13.10600 56.42400 28.06500
H  12.31800 55.02700 28.70600
H  10.80600 54.90700 25.61700
H  10.40300 55.89200 24.13900
H  11.17200 56.62100 25.49900
H  17.13600 54.36200 21.37700
H  17.95000 51.49200 21.29400
H  15.48000 53.51100 20.08300
H  14.93000 52.47000 21.47300
H  16.13300 51.90300 20.26100
H  19.03900 53.82500 20.19500
H  19.94200 52.31600 20.54900
H  20.44100 54.92800 21.34500
H  21.34600 53.61300 21.59500
H  20.09800 54.11300 22.80400
H  22.34000 50.97800 23.86800
H  21.97800 49.38800 24.52100
H  23.16200 50.44800 25.34500
H  20.89200 51.71400 30.18400
H  19.93100 47.97100 32.03300
H  18.56000 49.00900 32.17700
H  19.77700 49.10800 33.43700

