158

Mg 48.26200 16.60400 28.33200
C  46.10100 16.57300 31.19900
C  50.44300 18.62400 30.14300
C  50.11300 16.78100 25.52400
C  45.68700 15.09900 26.59000
N  48.24900 17.52900 30.42100
C  47.36400 17.21700 31.45400
C  47.89200 17.67300 32.81200
C  49.13200 18.58100 32.37600
C  49.31100 18.17400 30.88900
C  48.97700 20.15200 32.56400
C  48.46900 16.46700 33.62000
C  48.03000 16.36400 35.10800
H  47.57000 17.65200 35.80000
N  50.10800 17.58100 27.87500
C  50.86400 18.35700 28.78400
C  52.05700 18.73400 28.07700
C  51.99400 18.16500 26.75100
C  50.67900 17.53300 26.61400
C  53.09000 19.44100 28.76900
C  53.08100 18.14000 25.63700
O  52.87400 17.63400 24.53400
C  54.44700 18.61000 25.99600
N  47.91700 16.10700 26.34700
C  48.92000 16.10400 25.46400
C  48.52100 15.44400 24.14000
C  47.06000 15.03100 24.37300
C  46.85500 15.40800 25.87000
C  48.49700 16.55300 23.04400
C  46.68700 13.51700 23.92900
C  45.47000 13.43900 22.95500
N  46.36600 15.90000 28.77200
C  45.39300 15.29100 27.98900
C  44.20200 15.00700 28.68700
C  44.44300 15.44000 29.98800
C  45.73100 15.98900 29.99900
C  43.01400 14.30500 28.05200
C  43.95600 15.51300 31.32900
O  42.93300 15.05700 31.74900
C  45.04200 16.36100 32.23200
C  44.46400 17.61500 32.85700
O  44.43800 18.70000 32.28500
O  43.99400 17.27100 34.02800
C  42.71600 17.80700 34.50400
H  51.19000 19.13400 30.75400
H  50.77100 16.66400 24.66000
H  44.99600 14.48800 26.00600
H  47.11500 18.20600 33.36000
H  50.11600 18.41700 32.81500
H  49.68900 20.68200 33.19500
H  47.99400 20.37200 32.98000
H  48.99300 20.61700 31.57800
H  49.55600 16.51000 33.55700
H  48.01800 15.55100 33.23900
H  48.91100 16.10300 35.69400
H  47.28200 15.57100 35.08800
H  53.97400 18.82000 28.91300
H  52.85100 19.92500 29.71700
H  53.42600 20.14900 28.01200
H  54.45600 19.69900 26.04000
H  55.01200 18.45600 25.07700
H  54.92700 18.17800 26.87500
H  49.17000 14.58000 23.99200
H  46.32700 15.63600 23.83900
H  48.89300 17.54300 23.27000
H  47.53600 16.66200 22.54200
H  49.12400 16.08600 22.28500
H  46.43200 12.91200 24.79900
H  47.56700 13.05000 23.48700
H  45.80000 13.52500 21.92000
H  44.72100 14.19300 23.20000
H  45.02100 12.44700 22.99200
H  43.55100 13.40200 27.76200
H  42.74200 14.75000 27.09500
H  42.15400 14.17400 28.70800
H  45.38600 15.72200 33.04600
H  42.94200 18.49800 35.31500
H  42.03400 17.03400 34.85900
H  42.16100 18.29100 33.70100
Mg 31.24900 57.51400 38.63000
C  28.47400 55.45600 37.60700
C  33.24900 54.70900 38.00400
C  33.88400 59.50000 38.91800
C  29.12800 60.19000 38.73100
N  30.87300 55.35300 37.67200
C  29.68700 54.73200 37.56700
C  29.79300 53.24900 37.25900
C  31.32800 53.00400 37.56700
C  31.83400 54.41100 37.82000
C  31.62400 51.98900 38.64500
C  29.28000 52.70400 35.93100
C  29.68700 53.52000 34.67500
H  28.63000 54.08500 33.76900
N  33.33000 57.12600 38.62700
C  33.91200 55.96600 38.31000
C  35.35300 56.20000 38.11400
C  35.62500 57.59900 38.34600
C  34.25700 58.15300 38.63800
C  36.41800 55.14300 37.84500
C  36.96700 58.31100 38.22600
O  38.03700 57.77700 37.81300
C  37.11900 59.71800 38.78800
N  31.39800 59.53700 38.79200
C  32.66400 60.13300 38.96000
C  32.48000 61.61200 39.23600
C  30.91100 61.90600 39.26400
C  30.39700 60.48000 38.90900
C  33.30400 62.42000 40.32700
C  30.46100 63.00300 38.31900
C  29.78600 64.18700 38.97300
N  29.21200 57.85600 38.23200
C  28.46500 58.99000 38.45200
C  27.04500 58.73700 38.30000
C  27.05400 57.36300 37.96900
C  28.37400 56.88100 37.88100
C  25.87100 59.59700 38.54100
C  26.17500 56.27200 37.59500
O  24.99600 56.32900 37.41600
C  27.07000 54.99600 37.48200
C  26.55200 54.06700 38.48800
O  27.24000 53.74800 39.41800
O  25.44900 53.43900 37.95800
C  25.02800 52.18600 38.59200
H  33.96500 53.89500 37.87400
H  34.70400 60.21900 38.86600
H  28.46000 61.03600 38.90300
H  29.26200 52.77200 38.08300
H  31.79600 52.67800 36.63900
H  32.01100 52.51500 39.51800
H  32.34300 51.30700 38.19000
H  30.70200 51.47900 38.92700
H  28.20600 52.79000 36.09700
H  29.62600 51.67300 35.86300
H  30.25700 52.84700 34.03600
H  30.22600 54.43300 34.93000
H  37.12800 55.40000 37.05900
H  35.96400 54.24900 37.41700
H  37.02400 54.90000 38.71800
H  36.55300 59.81000 39.71500
H  36.71600 60.29600 37.95600
H  38.13900 60.01600 39.02900
H  32.95900 61.97800 38.32700
H  30.67800 62.04600 40.31900
H  33.76300 63.32000 39.91800
H  34.11300 61.85500 40.78900
H  32.62000 62.85500 41.05700
H  29.79800 62.45000 37.65300
H  31.33000 63.38700 37.78500
H  30.53800 64.97100 38.88000
H  29.58800 64.06800 40.03800
H  28.86600 64.37300 38.41900
H  24.96500 58.99200 38.54200
H  25.86500 60.48000 37.90100
H  26.10900 60.03100 39.51200
H  26.92400 54.59100 36.48100
H  25.19200 52.06200 39.66200
H  25.34400 51.33200 37.99300
H  23.96600 52.02900 38.40400

