158

Mg 30.53000 57.11200 40.10200
C  27.75200 54.98700 39.33300
C  32.61900 54.52700 38.99700
C  33.07800 59.27700 40.12300
C  28.22300 59.74800 40.69100
N  30.20000 55.05700 39.11900
C  29.01300 54.34000 39.05700
C  29.26100 52.86700 38.60400
C  30.82300 52.70400 38.77500
C  31.26100 54.17800 38.96500
C  31.23600 51.81700 39.96400
C  28.79100 52.60800 37.14100
C  28.46500 53.74900 36.13300
H  28.56400 53.34800 34.62000
N  32.57300 56.87800 39.72400
C  33.18700 55.78100 39.26900
C  34.64000 56.00700 39.13400
C  34.85800 57.25400 39.67000
C  33.46800 57.88600 39.84400
C  35.68600 54.84200 38.85000
C  36.18300 57.85800 39.96600
O  37.18700 57.24700 39.70000
C  36.40900 59.21500 40.48900
N  30.63200 59.27400 40.29200
C  31.83500 59.92100 40.32200
C  31.64800 61.39600 40.59500
C  30.07200 61.59800 40.85200
C  29.58400 60.10300 40.56700
C  32.55100 61.93600 41.70800
C  29.27500 62.69100 39.97900
C  29.52600 64.09500 40.48500
N  28.44800 57.46700 39.96700
C  27.70600 58.54200 40.22900
C  26.29200 58.22200 40.00100
C  26.27200 56.74700 39.68000
C  27.68000 56.38700 39.67300
C  25.12900 59.23400 40.21300
C  25.40100 55.66200 39.46300
O  24.14800 55.61800 39.55100
C  26.29700 54.39200 39.23400
C  25.93400 53.28400 40.13500
O  26.47800 52.93800 41.15900
O  24.94400 52.51100 39.52000
C  24.68900 51.19500 40.07500
H  33.22900 53.64200 38.80400
H  33.94500 59.94100 40.14500
H  27.53300 60.56200 40.92400
H  28.74200 52.24400 39.33200
H  31.23500 52.27600 37.86100
H  31.94100 51.02800 39.70400
H  30.39200 51.33500 40.45900
H  31.67500 52.43100 40.75000
H  27.94200 51.93000 37.22400
H  29.60400 51.99600 36.75100
H  29.23500 54.48500 36.36700
H  27.47600 54.15500 36.34200
H  36.58500 55.16700 38.32600
H  35.12400 54.10200 38.28100
H  36.06600 54.32000 39.72900
H  35.75800 59.34000 41.35400
H  36.35700 60.05100 39.79100
H  37.45700 59.26200 40.78400
H  31.89700 61.92000 39.67200
H  29.90700 61.75300 41.91800
H  33.49200 61.39200 41.63900
H  32.05800 61.80400 42.67100
H  32.92500 62.94000 41.50800
H  28.20000 62.53000 40.05600
H  29.58100 62.71300 38.93300
H  30.33100 64.05800 41.21800
H  28.61100 64.62400 40.75300
H  30.11500 64.67900 39.77800
H  24.32200 59.00000 39.51900
H  25.54200 60.22100 40.00400
H  24.75100 59.34200 41.23000
H  26.03600 54.16800 38.20000
H  23.73300 51.29900 40.58700
H  25.42100 50.86800 40.81300
H  24.74300 50.54600 39.20100
Mg -11.12000 38.82500 42.53600
C  -9.22500 36.32800 41.19500
C  -9.17100 41.21600 40.85100
C  -13.25900 41.27700 43.45300
C  -13.42200 36.49600 43.54100
N  -9.52300 38.78600 41.07800
C  -8.82000 37.63600 40.72800
C  -7.72300 37.93200 39.71100
C  -7.58700 39.46900 39.81600
C  -8.83800 39.85200 40.58100
C  -6.27500 39.87200 40.52600
C  -7.80200 37.34000 38.31200
C  -6.52200 36.60400 37.74400
H  -5.75800 37.42000 36.64700
N  -11.14600 40.99300 42.32000
C  -10.28800 41.77100 41.52800
C  -10.70900 43.08700 41.61400
C  -11.78400 43.22600 42.48600
C  -12.06300 41.81800 42.83000
C  -10.04800 44.13700 40.71800
C  -12.56600 44.49700 42.80900
O  -12.13100 45.53000 42.33300
C  -13.81800 44.57600 43.58000
N  -13.08200 38.90000 43.55700
C  -13.73100 40.00900 43.77200
C  -15.18800 39.68700 44.09500
C  -15.28000 38.21900 44.10000
C  -13.82000 37.84700 43.72200
C  -15.77600 40.25200 45.44700
C  -16.30200 37.57700 43.11400
C  -17.30200 36.61700 43.76300
N  -11.27000 36.79200 42.37200
C  -12.19100 36.01300 43.03400
C  -11.78800 34.64200 42.98000
C  -10.66200 34.66500 42.15400
C  -10.35900 36.01000 41.90500
C  -12.51100 33.37600 43.59900
C  -9.68100 33.90200 41.43800
O  -9.64100 32.69100 41.27700
C  -8.67000 34.89500 40.84100
C  -7.26400 34.66300 41.31700
O  -6.61600 35.29900 42.06500
O  -6.75600 33.55900 40.63600
C  -5.28900 33.42600 40.76400
H  -8.61900 41.90500 40.20900
H  -13.99500 42.01800 43.77100
H  -14.06700 35.63500 43.73100
H  -6.81600 37.48800 40.12400
H  -7.44600 39.88700 38.82000
H  -5.48300 39.17700 40.24500
H  -6.41800 39.89100 41.60600
H  -5.90000 40.86700 40.28500
H  -7.94500 38.13300 37.57800
H  -8.65900 36.66700 38.35600
H  -6.95900 35.70500 37.30900
H  -5.84700 36.27600 38.53500
H  -10.74400 44.86000 40.29200
H  -9.48600 43.76700 39.86000
H  -9.35800 44.73100 41.31700
H  -14.50000 44.11500 42.86600
H  -13.98800 45.63600 43.76500
H  -13.79800 44.05700 44.53900
H  -15.75600 40.22700 43.33700
H  -15.45000 37.89300 45.12600
H  -15.98400 41.31700 45.34800
H  -14.95700 40.17600 46.16300
H  -16.66300 39.72500 45.79800
H  -15.83800 37.03600 42.29000
H  -16.90600 38.35300 42.64500
H  -18.33700 36.95400 43.70800
H  -17.15000 36.33100 44.80400
H  -17.11200 35.65400 43.28900
H  -11.98100 32.42600 43.53200
H  -13.52500 33.38700 43.20000
H  -12.48400 33.84600 44.58200
H  -8.56100 34.74300 39.76800
H  -4.85100 34.41600 40.63500
H  -5.04100 32.79100 39.91400
H  -4.90700 33.01100 41.69600

