158

Mg 16.50700 -1.80400 28.12700
C  15.16200 0.21000 30.78700
C  18.46100 -3.58100 30.33300
C  18.06800 -3.29700 25.46700
C  14.98600 0.54100 25.92000
N  16.85300 -1.59600 30.30600
C  16.19800 -0.74800 31.18800
C  16.49700 -1.14700 32.61100
C  17.53900 -2.28200 32.40400
C  17.65600 -2.46600 30.95900
C  18.84700 -2.05700 33.14100
C  15.13800 -1.47600 33.37800
C  15.09200 -1.03300 34.86900
H  16.31500 -0.51800 35.62600
N  17.97100 -3.25500 27.91200
C  18.57100 -3.95900 28.95000
C  19.27700 -5.11200 28.42900
C  19.22500 -5.01100 26.99200
C  18.42500 -3.78200 26.75000
C  20.21700 -5.98300 29.28700
C  19.75000 -5.91900 25.99000
O  19.48700 -5.83400 24.78500
C  20.47100 -7.18400 26.41500
N  16.61600 -1.37000 26.02600
C  17.21300 -2.20600 25.13300
C  16.81800 -1.89100 23.71100
C  15.72000 -0.81300 23.95000
C  15.74300 -0.52100 25.42300
C  17.98200 -1.34800 22.83100
C  14.26700 -1.30400 23.66400
C  13.87000 -1.44100 22.17600
N  15.10500 -0.11100 28.23800
C  14.71900 0.74000 27.23000
C  13.86700 1.75700 27.87400
C  14.01900 1.55800 29.19400
C  14.80000 0.47400 29.40800
C  13.12600 2.82100 27.16900
C  13.68100 2.09900 30.46400
O  13.00600 3.04900 30.74400
C  14.49700 1.26300 31.60400
C  15.37100 2.21800 32.33100
O  16.54300 2.43000 32.11900
O  14.75800 2.68800 33.46100
C  15.56100 3.31500 34.45300
H  19.06400 -4.14800 31.04500
H  18.47500 -3.78800 24.58100
H  14.63300 1.34500 25.27100
H  17.00100 -0.30500 33.08500
H  17.13000 -3.19200 32.84200
H  19.21200 -3.03000 33.47100
H  18.69200 -1.46900 34.04500
H  19.60400 -1.70000 32.44200
H  14.97400 -2.55200 33.42700
H  14.23100 -1.18600 32.84600
H  14.50100 -1.63200 35.56200
H  14.44700 -0.16100 34.76400
H  20.07600 -5.82200 30.35600
H  21.21000 -5.64700 28.98700
H  20.24800 -7.06800 29.18800
H  19.68000 -7.75700 26.90000
H  21.31800 -6.82900 27.00200
H  20.84000 -7.73900 25.55300
H  16.37000 -2.76200 23.23200
H  15.84900 0.12800 23.41600
H  17.75600 -0.31400 22.56800
H  18.03900 -1.89400 21.88900
H  18.93700 -1.25300 23.34700
H  13.58200 -0.58400 24.11200
H  14.19600 -2.25800 24.18500
H  14.33400 -0.71200 21.51000
H  12.78400 -1.50800 22.24100
H  14.09300 -2.44000 21.80200
H  12.13100 2.60000 26.78300
H  13.70100 3.16800 26.31000
H  12.96000 3.59000 27.92300
H  13.71700 0.84500 32.23900
H  15.26300 4.36300 34.47700
H  16.64800 3.28500 34.37200
H  15.32700 2.96300 35.45800
Mg 17.40800 51.01000 26.20700
C  19.03500 49.61000 28.89600
C  14.99800 52.14100 28.26800
C  15.60300 52.04900 23.43100
C  19.71400 49.51100 24.07900
N  17.00100 50.75500 28.34600
C  17.87800 50.28400 29.26800
C  17.38300 50.71800 30.62900
C  15.99000 51.27900 30.34900
C  15.99500 51.42200 28.92900
C  14.81300 50.53600 30.99400
C  18.46500 51.73300 31.27100
C  18.18900 52.28100 32.69800
H  17.28800 51.39300 33.60000
N  15.68000 52.09000 25.93000
C  14.82900 52.38900 26.92700
C  13.71000 53.21700 26.38100
C  13.86800 53.15200 24.96600
C  15.11400 52.41900 24.72700
C  12.58800 53.79800 27.20900
C  12.79600 53.68000 23.87500
O  12.96900 53.63300 22.64200
C  11.55100 54.28100 24.33800
N  17.58200 50.89100 24.05400
C  16.73100 51.33100 23.16500
C  17.17600 51.10800 21.74100
C  18.57300 50.34900 21.96200
C  18.64800 50.25700 23.49900
C  16.25600 50.25300 20.87700
C  19.83700 51.07100 21.33200
C  20.70200 52.03700 22.15600
N  19.07700 49.82700 26.40200
C  19.93100 49.28300 25.44800
C  20.94100 48.49300 26.05900
C  20.66300 48.57900 27.45800
C  19.50800 49.40400 27.58100
C  21.89900 47.63400 25.31600
C  21.01600 48.16300 28.79300
O  21.82000 47.37100 29.22200
C  20.08500 48.95200 29.75700
C  19.52200 48.12600 30.77800
O  18.62300 47.28000 30.70800
O  20.03400 48.44500 31.94700
C  19.58500 47.71700 33.09600
H  14.25900 52.51000 28.98200
H  14.95400 52.24000 22.57400
H  20.51500 49.09000 23.46800
H  17.26500 49.79500 31.19700
H  16.01900 52.33800 30.60700
H  14.97900 50.47200 32.06900
H  14.65700 49.52500 30.61900
H  13.87600 51.09300 30.97300
H  18.44700 52.58500 30.59100
H  19.46700 51.33900 31.10400
H  17.90700 53.31600 32.50400
H  19.16900 52.31500 33.17300
H  12.66200 53.66300 28.28800
H  11.58600 53.44700 26.96500
H  12.65600 54.84500 26.91400
H  11.85700 55.06200 25.03300
H  11.02200 53.54800 24.94600
H  10.95200 54.59500 23.48300
H  17.33400 52.08200 21.27700
H  18.48700 49.30700 21.65400
H  16.78400 49.60100 20.18100
H  15.51500 50.90400 20.41300
H  15.92200 49.56500 21.65300
H  19.38700 51.54000 20.45600
H  20.57300 50.36800 20.94200
H  20.99500 52.87900 21.53000
H  21.51000 51.51500 22.66900
H  20.11500 52.55100 22.91800
H  21.48700 47.04300 24.49700
H  22.44000 46.88100 25.89000
H  22.51600 48.43800 24.91500
H  20.58900 49.74300 30.31100
H  19.79500 46.65800 32.94500
H  18.52000 47.78300 33.31600
H  20.11700 48.07100 33.97900

