158

Mg 2.07400 -0.97500 44.73800
C  5.50100 -0.32800 43.81200
C  1.10900 1.46000 42.61100
C  -1.01200 -2.51400 44.53300
C  3.38000 -4.15900 45.90800
N  3.27100 0.46600 43.42100
C  4.61500 0.58000 43.19300
C  4.80200 1.72700 42.24800
C  3.39100 2.47800 42.01400
C  2.50000 1.40800 42.68200
C  3.41200 3.92800 42.64700
C  5.50800 1.17600 40.97900
C  6.76900 1.87500 40.49000
H  6.76000 2.39500 39.03700
N  0.27500 -0.35100 44.00100
C  0.04200 0.67900 43.14900
C  -1.35900 0.72600 42.89500
C  -1.96900 -0.37500 43.49100
C  -0.89300 -1.17600 44.06200
C  -2.07600 1.79900 42.22200
C  -3.44800 -0.64100 43.56000
O  -4.22800 0.10200 42.99200
C  -4.13300 -1.78200 44.29100
N  1.30500 -3.04500 45.21700
C  -0.03300 -3.37200 45.00600
C  -0.36200 -4.74800 45.62900
C  1.10900 -5.35100 45.94600
C  1.99000 -4.15800 45.63600
C  -1.34000 -4.70200 46.87100
C  1.45900 -6.71300 45.27800
C  2.32800 -7.64900 46.16300
N  4.05300 -1.98600 45.02100
C  4.35100 -3.21500 45.62900
C  5.75900 -3.41700 45.68200
C  6.31200 -2.28600 45.00400
C  5.20000 -1.50500 44.61200
C  6.50100 -4.60500 46.33200
C  7.53500 -1.61900 44.49500
O  8.69400 -1.86000 44.64100
C  7.02500 -0.26800 43.74500
C  7.62600 0.83600 44.60400
O  7.42300 0.97900 45.85300
O  8.34900 1.70300 43.76100
C  8.24000 3.13600 43.94300
H  0.79200 2.23200 41.90800
H  -1.97300 -2.99200 44.73600
H  3.84100 -5.04000 46.36100
H  5.48500 2.37300 42.79900
H  3.10400 2.51000 40.96200
H  3.29700 4.74100 41.93000
H  4.24400 4.12700 43.32300
H  2.57000 3.99900 43.33600
H  4.84600 1.10600 40.11600
H  5.76700 0.14200 41.20300
H  7.57100 1.13800 40.52700
H  7.00400 2.67700 41.18900
H  -1.52300 2.47000 41.56500
H  -2.71700 2.43000 42.83800
H  -2.74200 1.30000 41.51800
H  -5.19300 -1.53200 44.31500
H  -3.85300 -1.85600 45.34200
H  -3.95900 -2.76600 43.85600
H  -0.69300 -5.41200 44.83000
H  1.28700 -5.48200 47.01400
H  -1.60500 -3.72100 47.26400
H  -1.03900 -5.31500 47.72100
H  -2.18200 -5.29500 46.51300
H  1.79100 -6.43400 44.27800
H  0.53700 -7.22200 44.99900
H  3.18600 -7.97800 45.57700
H  1.71200 -8.48700 46.48900
H  2.75500 -7.18300 47.05200
H  6.55800 -4.47200 47.41300
H  7.54100 -4.62200 46.00700
H  6.01300 -5.56300 46.15400
H  7.33600 -0.17900 42.70400
H  7.65900 3.39800 44.82700
H  7.69700 3.54800 43.09200
H  9.20200 3.64800 43.92200
Mg -1.24000 34.35000 25.77200
C  -2.97100 32.76900 28.33800
C  -0.19000 36.71100 27.98900
C  0.01900 36.01000 23.14100
C  -2.76100 32.06300 23.48700
N  -1.61600 34.71000 27.87700
C  -2.17900 33.84600 28.74400
C  -1.95700 34.29300 30.22300
C  -1.07900 35.61500 30.08400
C  -0.94200 35.67600 28.52200
C  -1.67700 36.86800 30.76100
C  -1.32800 33.33900 31.25700
C  -1.95900 33.31000 32.62700
H  -1.19000 32.57700 33.72300
N  -0.03000 36.01600 25.64000
C  0.18700 36.93300 26.61900
C  0.91700 38.02300 26.06200
C  1.09600 37.76100 24.64800
C  0.36700 36.51300 24.44300
C  1.53100 39.14600 26.91000
C  1.71400 38.64400 23.55900
O  1.62100 38.45800 22.39100
C  2.37000 39.88700 23.95400
N  -1.35300 34.08500 23.56700
C  -0.66700 34.85600 22.78500
C  -0.87300 34.39800 21.28500
C  -1.41900 32.94500 21.47300
C  -1.86700 32.99300 22.93200
C  -1.70800 35.24700 20.33500
C  -0.39300 31.71300 21.20500
C  0.26400 31.10300 22.51800
N  -2.57200 32.79300 25.86200
C  -3.04000 31.91500 24.87100
C  -3.91000 30.90800 25.39300
C  -3.90100 31.24700 26.75000
C  -3.01000 32.30900 26.97400
C  -4.80700 29.92800 24.65900
C  -4.52100 30.94700 27.97800
O  -5.34700 30.07200 28.21800
C  -3.86400 31.86000 29.10400
C  -4.91900 32.52000 29.96800
O  -5.53700 33.46700 29.56500
O  -5.04200 31.99100 31.23000
C  -5.97500 32.62300 32.16600
H  0.21100 37.42300 28.71400
H  0.44500 36.50200 22.26400
H  -3.11200 31.21700 22.89300
H  -2.92900 34.43500 30.69600
H  -0.03300 35.66100 30.38400
H  -2.32400 36.59900 31.59600
H  -2.14900 37.58200 30.08600
H  -0.93600 37.48700 31.26700
H  -0.29800 33.59700 31.50600
H  -1.22200 32.32600 30.87100
H  -2.91000 32.79500 32.49100
H  -2.12200 34.30500 33.04300
H  2.61600 39.09700 26.82000
H  1.34400 38.91000 27.95800
H  1.09300 40.10800 26.64500
H  1.63300 40.49200 24.48200
H  2.59800 40.47900 23.06700
H  3.31800 39.71100 24.46200
H  0.11000 34.35300 20.81700
H  -2.19700 32.87300 20.71300
H  -2.73800 34.91900 20.19500
H  -1.31500 35.37800 19.32700
H  -1.86400 36.24600 20.74300
H  0.34800 32.11300 20.51300
H  -0.87000 30.87900 20.69100
H  -0.02500 31.65900 23.41000
H  1.34800 31.21700 22.50200
H  0.04300 30.03600 22.52900
H  -4.32900 29.68400 23.71100
H  -5.71400 30.46000 24.37500
H  -4.93400 28.98700 25.19500
H  -3.13100 31.34200 29.72300
H  -6.64900 33.33300 31.68600
H  -5.45500 33.06100 33.01800
H  -6.52200 31.74100 32.49800

