158

Mg 8.73500 3.41000 28.21700
C  9.94900 1.86800 31.10200
C  7.03500 5.61600 30.03200
C  7.26100 4.39100 25.30600
C  10.01300 0.54600 26.37300
N  8.66100 3.78200 30.37200
C  9.17700 3.06400 31.37500
C  8.81600 3.56200 32.77700
C  7.61900 4.57900 32.37700
C  7.81900 4.74900 30.87100
C  6.08200 4.18600 32.76300
C  10.03100 4.29700 33.53500
C  10.41600 3.82100 35.07100
H  9.26700 3.70600 36.03100
N  7.43700 4.84300 27.69900
C  6.88000 5.71700 28.62700
C  6.06600 6.74100 27.93100
C  6.07200 6.37900 26.56200
C  6.98100 5.15400 26.46900
C  5.31400 7.79700 28.74200
C  5.39700 7.08000 25.43900
O  5.40600 6.71500 24.28800
C  4.71000 8.32900 25.71100
N  8.46700 2.46900 26.10400
C  8.00000 3.26200 25.13200
C  8.49200 2.70000 23.72900
C  9.29800 1.36200 24.10900
C  9.18800 1.40700 25.63500
C  7.47500 2.74200 22.58300
C  10.73400 1.22400 23.46500
C  11.08100 -0.19800 23.01900
N  9.93200 1.66300 28.62700
C  10.35800 0.60200 27.77300
C  11.14900 -0.34800 28.52600
C  11.02500 0.08300 29.88900
C  10.21100 1.28300 29.83300
C  11.84000 -1.52400 28.00400
C  11.30300 -0.23900 31.27900
O  12.01600 -1.06800 31.80500
C  10.52800 0.84900 32.10200
C  9.49900 0.17700 32.89600
O  8.65000 -0.61300 32.47700
O  9.72200 0.41000 34.21700
C  8.91300 -0.24500 35.28900
H  6.47300 6.27400 30.69800
H  6.83900 4.83000 24.40000
H  10.52500 -0.27600 25.86700
H  8.43200 2.77500 33.42500
H  7.75700 5.55600 32.83900
H  5.62500 4.72700 33.59100
H  6.14200 3.12100 32.98900
H  5.33600 4.26300 31.97200
H  9.80800 5.36100 33.61300
H  10.92900 4.06800 32.96100
H  11.03500 4.63800 35.44300
H  11.03500 2.92300 35.06000
H  5.81200 8.73200 28.48400
H  5.37200 7.76400 29.83000
H  4.28300 7.69400 28.40200
H  5.41000 9.01700 26.18500
H  3.84800 8.15500 26.35400
H  4.32900 8.76300 24.78700
H  9.34400 3.35500 23.55000
H  8.69800 0.51100 23.78700
H  6.56400 3.12200 23.04500
H  7.33700 1.78700 22.07700
H  7.69400 3.57100 21.91000
H  11.56400 1.52200 24.10600
H  10.81000 1.91300 22.62300
H  12.01300 -0.06100 22.47100
H  10.23900 -0.50200 22.39700
H  11.15200 -0.85400 23.88600
H  12.69300 -1.20100 27.40600
H  11.20300 -2.24000 27.48400
H  12.30600 -1.96000 28.88700
H  11.25900 1.32600 32.75500
H  9.47300 -1.00400 35.83500
H  8.00100 -0.69300 34.89400
H  8.51400 0.50500 35.97200
Mg 17.16400 51.52900 25.74100
C  18.90800 50.60300 28.49000
C  14.57100 52.66800 27.80600
C  15.29700 51.93600 23.03500
C  19.74900 50.56600 23.71000
N  16.82400 51.68000 27.95900
C  17.70000 51.25300 28.91400
C  17.21700 51.50500 30.28900
C  15.80200 52.14200 30.06600
C  15.67900 52.18200 28.50900
C  14.60900 51.39600 30.74600
C  18.14700 52.30700 31.21800
C  18.23200 51.73000 32.61100
H  17.08000 50.90000 33.20200
N  15.27100 52.28600 25.39100
C  14.35500 52.73600 26.37900
C  13.08200 53.08600 25.74800
C  13.30900 52.96600 24.32200
C  14.62200 52.35600 24.14500
C  11.86300 53.60300 26.53000
C  12.43700 53.39700 23.19400
O  12.77900 53.34000 22.01400
C  11.04500 53.87300 23.47200
N  17.52400 51.46300 23.64800
C  16.56800 51.46300 22.79600
C  16.97800 51.09600 21.36600
C  18.50700 50.88800 21.53200
C  18.64200 51.03900 23.05900
C  16.03400 50.05400 20.72900
C  19.56100 51.92800 20.89500
C  20.80500 51.15800 20.26000
N  18.90000 50.70800 26.00800
C  19.89100 50.40100 25.10200
C  20.98000 49.76700 25.80200
C  20.65300 49.84200 27.10900
C  19.42700 50.48800 27.24400
C  22.05900 48.97000 25.17100
C  20.94800 49.33800 28.39100
O  21.98000 48.75400 28.76700
C  19.79900 49.79400 29.42200
C  19.14100 48.62800 30.04400
O  18.18000 48.00600 29.55900
O  19.79600 48.24500 31.21700
C  19.15300 47.22100 32.11300
H  13.79400 53.04200 28.47600
H  14.70200 52.03900 22.12500
H  20.61500 50.19700 23.15600
H  17.13100 50.50700 30.71700
H  15.70900 53.13100 30.51600
H  13.95000 51.12800 29.91900
H  14.06800 52.08000 31.40000
H  15.03600 50.58600 31.33700
H  17.78500 53.33500 31.20700
H  19.14200 52.28300 30.77300
H  18.34800 52.60000 33.25700
H  19.15600 51.15900 32.70000
H  11.54300 54.61700 26.28900
H  12.08600 53.63700 27.59600
H  11.11600 52.82900 26.35100
H  10.59600 53.96900 22.48400
H  10.96700 54.74600 24.12000
H  10.53900 53.09000 24.03600
H  16.82900 52.02600 20.81700
H  18.70300 49.85900 21.23100
H  15.41600 49.62800 21.52000
H  16.59800 49.24000 20.27400
H  15.38800 50.44600 19.94300
H  19.93500 52.62300 21.64700
H  19.09400 52.57100 20.15000
H  21.69800 51.14400 20.88400
H  21.06900 51.58400 19.29200
H  20.61600 50.14400 19.90800
H  22.35000 49.47900 24.25200
H  21.79200 47.91600 25.10800
H  22.86900 49.03300 25.89700
H  20.12400 50.27800 30.34300
H  18.65600 47.75700 32.92100
H  19.93300 46.61600 32.57700
H  18.51600 46.48200 31.62800

