158

Mg 8.02600 2.43200 27.93200
C  9.34000 1.24300 31.00500
C  6.21800 4.68700 29.77000
C  6.66100 3.27300 25.10300
C  9.79600 -0.10900 26.29500
N  7.46100 2.72400 30.26400
C  8.35800 2.29800 31.26100
C  8.07300 2.98600 32.62000
C  6.84400 3.93400 32.28300
C  6.80200 3.83000 30.67700
C  5.38700 3.63000 32.92200
C  9.30800 3.77500 33.09100
C  9.13000 4.74500 34.22900
H  10.09800 4.60100 35.42300
N  6.59900 3.79700 27.48400
C  5.95500 4.64900 28.37900
C  4.98100 5.44100 27.60000
C  5.16900 5.08400 26.20900
C  6.15500 3.97200 26.21700
C  4.13400 6.47000 28.28100
C  4.48200 5.57300 24.95800
O  4.70000 5.25100 23.78800
C  3.34800 6.54300 25.13400
N  8.13500 1.66400 25.88700
C  7.48300 2.20100 24.89700
C  7.77400 1.55500 23.53800
C  9.04500 0.68900 23.82000
C  9.04500 0.75800 25.44000
C  6.49200 0.78900 23.20100
C  10.37000 1.27800 23.20400
C  11.24600 2.14100 24.11700
N  9.23400 0.90800 28.45400
C  9.89100 -0.02600 27.67700
C  10.88500 -0.78200 28.46600
C  10.71500 -0.31900 29.78700
C  9.67600 0.65800 29.73500
C  11.86500 -1.84600 27.96300
C  11.14900 -0.46300 31.06200
O  11.95500 -1.28600 31.48500
C  10.28700 0.53600 31.97300
C  9.78000 -0.21800 33.15200
O  9.36700 -1.36100 33.14100
O  9.78100 0.57800 34.26700
C  9.04000 0.02800 35.42300
H  5.87700 5.55700 30.33500
H  6.31100 3.58600 24.11700
H  10.53500 -0.76800 25.83700
H  7.72800 2.22100 33.31600
H  7.12100 4.97600 32.43800
H  4.71400 3.34000 32.11600
H  5.07000 4.42900 33.59200
H  5.43000 2.88900 33.72000
H  9.75300 4.33100 32.26500
H  10.19600 3.20500 33.36500
H  8.11100 4.67300 34.61100
H  9.20700 5.67600 33.66900
H  4.31400 7.42800 27.79400
H  4.29600 6.50900 29.35800
H  3.07700 6.25900 28.12300
H  2.75300 6.59400 24.22200
H  3.66600 7.56200 25.35200
H  2.75000 6.14200 25.95200
H  7.86300 2.27100 22.72200
H  8.84200 -0.27500 23.35400
H  5.77400 0.90200 24.01300
H  6.48100 -0.28100 22.99600
H  6.10100 1.32100 22.33400
H  10.08700 2.00600 22.44400
H  10.93000 0.48900 22.70200
H  11.60000 2.89900 23.41800
H  12.07400 1.50400 24.42900
H  10.78400 2.46900 25.04800
H  11.28100 -2.66600 27.54500
H  12.50000 -2.21500 28.76900
H  12.53900 -1.55600 27.15800
H  11.00900 1.24600 32.37700
H  7.95200 0.08900 35.40100
H  9.55900 0.62900 36.16900
H  9.39400 -1.00100 35.48400
Mg 34.75900 2.50600 29.29900
C  32.87400 3.50800 31.94500
C  37.46700 1.89800 31.48600
C  36.86800 1.88700 26.68000
C  32.33200 3.60200 27.06100
N  35.13800 2.76300 31.51200
C  34.17400 3.20900 32.42300
C  34.82000 3.11000 33.82900
C  36.33200 2.67200 33.57800
C  36.36800 2.44700 32.11900
C  37.40900 3.61800 34.14400
C  34.04600 2.20700 34.77700
C  33.93700 2.72400 36.21500
H  35.04600 3.76300 36.73100
N  36.87400 1.81600 29.14300
C  37.73800 1.70800 30.18800
C  38.98900 1.23800 29.57400
C  38.86200 1.21500 28.15800
C  37.48000 1.64500 27.94300
C  40.22300 1.18500 30.37500
C  39.89000 0.70600 27.10600
O  39.61900 0.63400 25.92300
C  41.25800 0.20900 27.54400
N  34.56900 2.57500 27.17400
C  35.57800 2.28500 26.33100
C  35.15900 2.74300 24.90100
C  33.65200 3.14000 24.99100
C  33.47200 3.14400 26.49000
C  36.05000 3.83700 24.34000
C  32.58300 2.19100 24.34700
C  32.10600 0.87500 25.04800
N  32.96700 3.33800 29.43900
C  31.99000 3.62500 28.43400
C  30.77800 4.07900 29.05800
C  31.04500 4.04900 30.42200
C  32.40400 3.63100 30.67100
C  29.51200 4.49400 28.41700
C  30.51600 4.29400 31.78800
O  29.36500 4.54700 32.15600
C  31.64800 4.00800 32.79900
C  31.97200 5.31000 33.46900
O  32.64800 6.22600 32.95100
O  31.45800 5.27100 34.73400
C  31.51200 6.55500 35.51100
H  38.19500 1.53600 32.21600
H  37.50900 1.64500 25.83000
H  31.47000 3.85900 26.44200
H  34.76200 4.16500 34.10000
H  36.51000 1.70300 34.04500
H  37.99400 4.03900 33.32600
H  38.02800 3.04400 34.83400
H  37.07400 4.52500 34.64700
H  34.48100 1.22900 34.57200
H  33.07700 2.01000 34.31900
H  34.05600 1.88800 36.90400
H  32.96800 3.19500 36.37800
H  40.95900 1.78900 29.84400
H  40.60500 0.16500 30.34100
H  40.07000 1.63300 31.35700
H  41.17500 -0.68300 28.16500
H  41.92100 0.95200 27.98700
H  41.76300 0.09400 26.58500
H  35.07900 1.89900 24.21600
H  33.40100 4.09700 24.53400
H  36.95800 4.00600 24.91900
H  35.56500 4.81000 24.25600
H  36.50700 3.58200 23.38400
H  32.95900 1.86700 23.37700
H  31.69000 2.71900 24.01300
H  32.89500 0.35400 25.59100
H  31.83900 0.16700 24.26400
H  31.27300 1.01800 25.73700
H  29.71300 5.03500 27.49200
H  29.08300 5.22300 29.10500
H  28.87100 3.63100 28.23700
H  31.45100 3.27300 33.57900
H  31.57900 6.20800 36.54200
H  30.56800 7.03000 35.24600
H  32.43600 7.10800 35.34200

