158

Mg 24.21100 -5.85200 45.68200
C  26.39900 -3.40600 44.23200
C  21.74100 -4.31900 43.77200
C  22.35200 -8.64400 46.14100
C  27.02900 -7.35000 47.19600
N  24.12100 -4.02600 44.24600
C  25.09800 -3.22700 43.75400
C  24.61500 -2.27800 42.69900
C  23.07100 -2.35000 42.92200
C  22.93200 -3.69200 43.69200
C  22.50600 -1.08700 43.61900
C  25.08600 -2.79200 41.32300
C  25.60900 -1.65800 40.39300
H  25.22800 -1.92700 38.89800
N  22.23600 -6.34100 45.20000
C  21.38300 -5.54600 44.47700
C  20.10000 -6.15800 44.32600
C  20.19700 -7.43500 45.01700
C  21.57400 -7.55700 45.56100
C  18.95900 -5.59500 43.56700
C  19.13700 -8.51200 45.12900
O  18.04200 -8.38900 44.58400
C  19.33200 -9.77500 45.98400
N  24.56000 -7.70600 46.63000
C  23.66100 -8.66600 46.64700
C  24.19900 -9.84300 47.48300
C  25.58300 -9.42100 48.06500
C  25.78900 -8.11700 47.27100
C  23.23300 -10.53000 48.51500
C  26.73300 -10.53300 48.04500
C  27.32600 -11.01700 49.33700
N  26.25300 -5.38200 45.89800
C  27.23700 -6.11200 46.53100
C  28.47700 -5.42000 46.35700
C  28.24900 -4.29800 45.50400
C  26.84200 -4.40100 45.18800
C  29.81200 -5.88800 46.86300
C  28.87800 -3.23100 44.76400
O  30.04100 -2.84100 44.66800
C  27.66300 -2.62000 43.98300
C  27.57900 -1.16200 44.16800
O  27.42900 -0.54900 45.23500
O  27.91600 -0.55900 42.99400
C  27.89600 0.87400 42.91600
H  21.01900 -3.74700 43.18500
H  21.91100 -9.64200 46.12800
H  27.98100 -7.68200 47.61400
H  25.10300 -1.36400 43.03800
H  22.57900 -2.57400 41.97500
H  23.13000 -0.19600 43.68900
H  22.19500 -1.32600 44.63600
H  21.55600 -0.91100 43.11300
H  24.24100 -3.28900 40.84700
H  25.79900 -3.61600 41.34300
H  26.68500 -1.54300 40.52300
H  25.17300 -0.73500 40.77600
H  18.93100 -6.14700 42.62800
H  19.00900 -4.52300 43.37600
H  18.04300 -5.79500 44.12400
H  18.32400 -10.07800 46.26600
H  19.89400 -9.60700 46.90200
H  19.66100 -10.56400 45.30800
H  24.32900 -10.71500 46.84200
H  25.36200 -9.17300 49.10300
H  22.43000 -9.84400 48.78500
H  23.79600 -10.75300 49.42100
H  22.87100 -11.51700 48.22800
H  27.55700 -10.13800 47.45000
H  26.45800 -11.40400 47.45100
H  26.93400 -10.39200 50.14000
H  28.39300 -10.79500 49.31400
H  27.20000 -12.08300 49.52400
H  30.10200 -6.78200 46.31100
H  29.79100 -5.95800 47.95000
H  30.45600 -5.04000 46.62900
H  27.89900 -2.75000 42.92700
H  27.04600 1.30500 43.44600
H  28.03500 1.29000 41.91900
H  28.84300 1.10800 43.40200
Mg 34.94800 2.72800 30.00100
C  32.77000 3.61800 32.57900
C  37.49700 2.94100 32.13200
C  36.89200 2.57600 27.29800
C  32.17800 3.14900 27.80500
N  35.08000 3.33200 32.10600
C  34.10700 3.43900 33.02500
C  34.69300 3.44500 34.45600
C  36.21500 3.51600 34.25800
C  36.28300 3.18700 32.71600
C  36.91300 4.84800 34.55200
C  34.19400 2.13500 35.16900
C  34.04800 2.24600 36.71200
H  34.86600 3.37200 37.36300
N  37.02100 2.68300 29.80500
C  37.87400 2.70400 30.78100
C  39.20800 2.36700 30.18300
C  39.00000 2.26500 28.78900
C  37.54700 2.47200 28.53300
C  40.42000 2.28900 31.07000
C  40.13600 2.15700 27.65100
O  39.88500 2.31600 26.46200
C  41.60200 1.82000 28.05700
N  34.52100 2.97700 27.88300
C  35.56700 2.80800 26.95300
C  34.98400 2.85600 25.52300
C  33.42500 2.68500 25.70800
C  33.34100 2.93700 27.22700
C  35.35000 4.11300 24.65300
C  32.96900 1.28800 25.35400
C  32.83000 0.10900 26.38700
N  32.88500 3.25000 30.13600
C  31.95200 3.32000 29.15400
C  30.67400 3.63900 29.73000
C  30.86000 3.79900 31.10900
C  32.26100 3.52600 31.27100
C  29.35500 4.00700 29.07600
C  30.32700 4.10200 32.44400
O  29.17000 4.44700 32.69800
C  31.49100 3.81000 33.44000
C  31.66200 4.98600 34.35200
O  32.19300 6.01800 34.00300
O  31.13900 4.83000 35.62100
C  31.29800 5.93800 36.60800
H  38.34700 3.02000 32.81300
H  37.58800 2.42100 26.47200
H  31.30500 3.25000 27.15600
H  34.28700 4.35500 34.90000
H  36.61100 2.66300 34.80800
H  37.62300 4.84700 35.37900
H  36.11400 5.58400 34.63900
H  37.37900 5.25000 33.65200
H  34.85800 1.34100 34.82800
H  33.23300 1.80700 34.77400
H  34.41500 1.34000 37.19500
H  33.01300 2.41000 37.01100
H  40.17400 2.59200 32.08700
H  41.19000 2.96000 30.68900
H  40.69700 1.23600 31.12100
H  41.59500 0.88400 28.61400
H  42.19500 2.62300 28.49500
H  41.98500 1.60300 27.06000
H  35.52100 2.00600 25.10100
H  32.83600 3.47000 25.23200
H  35.92400 3.88100 23.75600
H  36.03500 4.78000 25.17600
H  34.49900 4.66300 24.25100
H  33.67500 0.93700 24.60300
H  31.98500 1.28900 24.88600
H  33.49800 0.28300 27.23100
H  32.99400 -0.84100 25.87800
H  31.80600 0.11000 26.76000
H  28.95200 4.80600 29.69900
H  28.78700 3.09900 28.87600
H  29.46200 4.45200 28.08600
H  31.24000 2.97100 34.08800
H  31.72800 6.88000 36.27000
H  31.97300 5.46400 37.32100
H  30.39300 6.13200 37.18500

