158

Mg 1.64100 8.18500 25.52600
C  2.33500 10.29200 28.41000
C  1.54300 5.56800 27.56700
C  0.81100 6.33100 22.82500
C  1.82900 11.05700 23.53600
N  2.16000 7.94500 27.65800
C  2.20500 8.92200 28.71800
C  2.24700 8.25300 30.07900
C  2.30000 6.72000 29.66200
C  1.98700 6.73000 28.18700
C  3.60700 5.92900 30.01500
C  1.11700 8.72500 30.98900
C  1.33000 8.81400 32.42900
H  2.38000 7.91000 33.12500
N  1.07300 6.22900 25.24800
C  1.16400 5.33000 26.26700
C  0.69600 4.03700 25.70300
C  0.35300 4.30100 24.32500
C  0.77900 5.65700 24.08200
C  0.51500 2.69100 26.57400
C  -0.23400 3.33400 23.31600
O  -0.52600 3.73400 22.22900
C  -0.67300 1.88800 23.69800
N  1.53500 8.65300 23.53600
C  1.10900 7.67600 22.62200
C  0.84000 8.34500 21.21100
C  0.75700 9.84400 21.60100
C  1.49100 9.84900 22.98900
C  1.90800 8.10300 20.15200
C  -0.62600 10.35600 21.65700
C  -1.04900 10.98700 20.28300
N  2.01000 10.21200 25.89000
C  2.07200 11.24800 24.94000
C  2.36900 12.49800 25.63900
C  2.39300 12.17000 26.99600
C  2.29100 10.76400 27.09300
C  2.40300 13.89900 25.00900
C  2.64400 12.72000 28.29300
O  2.95200 13.85100 28.59100
C  2.52800 11.52600 29.28600
C  3.66700 11.50700 30.25600
O  4.72600 10.95500 29.96000
O  3.41700 12.17000 31.40300
C  4.39000 11.97700 32.46100
H  1.56300 4.65800 28.17000
H  0.58800 5.83100 21.88100
H  1.70000 11.95200 22.92400
H  3.26700 8.51900 30.35300
H  1.44800 6.18800 30.08700
H  4.40500 6.51200 30.47400
H  3.95300 5.34300 29.16300
H  3.33900 5.22300 30.80100
H  0.45600 7.86000 30.93900
H  0.68800 9.65200 30.60800
H  0.36300 8.71000 32.92000
H  1.68700 9.81000 32.68900
H  1.47100 2.18500 26.70200
H  -0.29900 2.07100 26.19700
H  0.28200 3.02200 27.58700
H  -1.61100 2.04100 24.23200
H  0.05300 1.29700 24.25600
H  -0.79000 1.35800 22.75300
H  -0.14400 7.95500 20.94800
H  1.45200 10.40000 20.97200
H  2.86800 8.20400 20.65800
H  1.68000 8.90100 19.44500
H  1.79900 7.13100 19.67000
H  -0.64300 11.03300 22.51100
H  -1.31600 9.57500 21.97600
H  -0.23400 10.86300 19.57000
H  -1.14900 12.06900 20.36500
H  -1.92700 10.50000 19.85700
H  1.36800 14.15700 24.78300
H  2.99200 13.80600 24.09700
H  2.73800 14.65900 25.71500
H  1.67400 11.68300 29.94600
H  5.42900 12.17900 32.19700
H  4.42000 10.96600 32.86600
H  4.08600 12.61100 33.29400
Mg 52.72500 24.27100 45.77500
C  50.29300 26.13700 44.41500
C  51.93700 21.60500 43.82700
C  55.88100 22.89500 46.34600
C  54.15300 27.37500 46.95100
N  51.26900 23.94500 44.36300
C  50.41900 24.80800 43.88200
C  49.58300 24.25700 42.71500
C  49.90700 22.77900 42.71600
C  51.12300 22.75300 43.65300
C  48.65000 21.82800 43.17600
C  49.98100 25.01500 41.42400
C  48.97800 25.04300 40.28800
H  49.39900 24.28000 38.89700
N  53.64000 22.39700 45.31400
C  53.09700 21.38200 44.55200
C  53.91000 20.24000 44.66300
C  55.09200 20.57800 45.38700
C  54.93700 22.03200 45.73800
C  53.39900 18.92400 44.12200
C  56.16300 19.58300 45.82000
O  56.05200 18.39300 45.48300
C  57.14100 19.92400 46.82000
N  54.74900 25.07800 46.56600
C  55.78500 24.28300 46.68300
C  56.91600 25.07900 47.49900
C  56.52100 26.55200 47.45500
C  55.04300 26.35700 47.00400
C  57.00900 24.47500 48.89100
C  57.32400 27.42700 46.45600
C  58.37000 28.29800 47.13100
N  52.19800 26.21400 46.03500
C  52.79800 27.33900 46.59300
C  51.90600 28.53800 46.46800
C  50.92100 28.00100 45.65700
C  51.14300 26.65600 45.39400
C  52.11900 29.97600 47.00600
C  49.79100 28.49200 44.94100
O  49.22300 29.57200 44.81600
C  49.28700 27.29600 44.10100
C  49.21900 27.88100 42.67600
O  50.17200 28.21600 42.02200
O  47.89300 27.99500 42.38800
C  47.34400 28.48100 41.08500
H  51.54800 20.75300 43.26600
H  56.87900 22.49700 46.54100
H  54.63500 28.31900 47.21700
H  48.51100 24.40600 42.84100
H  50.32900 22.45100 41.76600
H  48.76700 20.87100 42.66600
H  47.71400 22.26800 42.83200
H  48.63100 21.60500 44.24300
H  50.83100 24.48000 41.00000
H  50.41200 25.97200 41.72100
H  48.78400 26.11100 40.19000
H  48.06300 24.49400 40.51000
H  54.02600 18.60900 43.28800
H  52.32900 18.90100 43.91500
H  53.45000 18.05100 44.77300
H  58.08200 20.18100 46.33300
H  57.32800 19.08300 47.48900
H  56.90000 20.76700 47.46800
H  57.75900 24.77400 46.87900
H  56.58400 26.96900 48.46000
H  58.00400 24.76000 49.23300
H  56.94700 23.38800 48.84100
H  56.19800 24.83400 49.52500
H  56.61400 28.04800 45.90900
H  57.92700 26.77000 45.82900
H  58.45300 29.28400 46.67500
H  59.35700 27.83400 47.15300
H  58.02200 28.49700 48.14500
H  52.59700 30.65000 46.29500
H  52.94300 30.00600 47.71900
H  51.31100 30.38000 47.61600
H  48.30400 27.05600 44.50500
H  47.51700 28.00600 40.11900
H  47.91200 29.39100 40.89200
H  46.26000 28.54600 41.17800

