158

Mg 54.54000 24.23300 44.04200
C  51.94000 26.50600 43.12500
C  52.67000 21.70900 42.58300
C  57.27800 22.33500 43.81500
C  56.37400 26.86900 45.14300
N  52.54800 24.21300 42.88900
C  51.66900 25.20100 42.68900
C  50.46000 24.67500 41.94600
C  50.50800 23.13600 42.15400
C  52.00200 22.98400 42.49100
C  49.60400 22.57900 43.25900
C  50.36500 25.08500 40.37900
C  51.68600 25.27800 39.61000
H  51.46500 25.93500 38.20700
N  54.94900 22.19200 43.49000
C  53.98500 21.35200 42.91600
C  54.57200 20.05900 42.81000
C  55.96400 20.19600 43.24600
C  56.12700 21.60700 43.58000
C  53.72700 18.83500 42.45900
C  56.86100 19.03300 43.34800
O  56.52000 17.93600 42.91600
C  58.21900 19.12900 43.99300
N  56.55700 24.60800 44.23600
C  57.55600 23.68400 44.18100
C  58.98600 24.29400 44.46100
C  58.59900 25.70500 44.99300
C  57.09700 25.72400 44.80100
C  59.69800 23.34500 45.51300
C  59.30500 26.90800 44.29500
C  59.64500 28.12100 45.18800
N  54.22100 26.27900 44.31300
C  55.04600 27.19500 44.85100
C  54.38700 28.48600 44.90900
C  53.09900 28.25500 44.31100
C  53.09400 26.93000 43.90000
C  54.81000 29.69800 45.61900
C  51.86700 28.86100 43.93700
O  51.45100 29.98500 44.13800
C  51.04500 27.77600 43.23200
C  50.50500 28.16700 41.97200
O  51.15400 28.22400 40.88300
O  49.15100 28.46700 42.07600
C  48.38300 28.53700 40.80100
H  51.98700 20.90400 42.30300
H  58.15300 21.70800 43.63200
H  56.92600 27.79000 45.34300
H  49.59700 25.17900 42.38100
H  50.22000 22.57800 41.26400
H  49.08300 23.45000 43.65700
H  50.09700 22.05900 44.08000
H  49.00500 21.86900 42.68800
H  49.69100 25.93400 40.26900
H  49.93200 24.22700 39.86500
H  52.18600 24.31200 39.53400
H  52.49700 25.82500 40.09000
H  52.64700 18.97600 42.51100
H  53.85200 17.97700 43.12000
H  54.08700 18.48400 41.49200
H  58.26400 19.83700 44.82100
H  58.88900 19.41600 43.18200
H  58.39700 18.12000 44.36600
H  59.59600 24.39400 43.56300
H  58.51900 25.88300 46.06600
H  59.04600 22.53600 45.84400
H  59.91700 23.93000 46.40700
H  60.61800 22.91700 45.11500
H  58.66600 27.20700 43.46400
H  60.29000 26.51500 44.04000
H  59.29200 28.02200 46.21500
H  59.44400 29.10200 44.75700
H  60.72400 28.14000 45.34200
H  54.80200 29.38600 46.66300
H  54.11400 30.53700 45.58300
H  55.79300 30.13700 45.45000
H  50.18200 27.45500 43.81600
H  47.90600 29.51500 40.74800
H  47.70800 27.68300 40.85000
H  48.92600 28.47400 39.85700
Mg 47.32400 15.87000 28.06200
C  45.27900 15.26400 30.95100
C  49.34500 17.66600 29.95100
C  48.92300 16.92200 25.26600
C  44.72900 14.62100 26.09900
N  47.27100 16.46600 30.18800
C  46.46600 16.06000 31.15400
C  46.81900 16.65900 32.51400
C  48.13100 17.42400 32.27000
C  48.21400 17.25000 30.68200
C  48.27700 18.84400 32.77000
C  47.09600 15.49100 33.58700
C  47.68100 15.99900 34.91400
H  47.08400 17.34000 35.49600
N  49.07700 16.86600 27.69200
C  49.73300 17.54200 28.62900
C  50.96100 17.99300 28.10700
C  50.96400 17.66800 26.74300
C  49.60300 17.11900 26.47200
C  52.02000 18.55400 29.00800
C  52.09600 17.77300 25.76400
O  51.86400 17.81100 24.54400
C  53.49800 18.00000 26.35100
N  47.07800 15.54200 25.87900
C  47.74600 16.22800 24.96200
C  46.97300 16.32200 23.59200
C  45.72500 15.43000 23.95600
C  45.82500 15.18600 25.43800
C  46.51600 17.83000 23.22400
C  45.60900 14.12600 23.02200
C  44.51500 14.05600 21.93600
N  45.42400 14.97500 28.41500
C  44.48300 14.57300 27.49000
C  43.32600 14.06600 28.12200
C  43.55500 14.25000 29.49100
C  44.83600 14.85600 29.63800
C  42.03600 13.57700 27.47400
C  43.03600 14.09200 30.79800
O  41.91300 13.72200 31.18200
C  44.14200 14.72100 31.83900
C  43.41500 15.73100 32.58600
O  42.94300 16.81100 32.08800
O  43.24800 15.28100 33.84500
C  42.21300 15.95700 34.64800
H  50.01500 18.27500 30.56100
H  49.40300 17.29400 24.35800
H  43.79000 14.55000 25.54700
H  46.03200 17.34200 32.83300
H  48.95700 16.82000 32.64500
H  48.04100 19.54400 31.96900
H  49.31200 18.93300 33.10100
H  47.63200 19.12800 33.60200
H  47.89000 14.87300 33.16700
H  46.14900 14.95300 33.60400
H  48.76000 16.14900 34.88000
H  47.43400 15.25600 35.67200
H  52.36100 19.43800 28.46900
H  52.78300 17.79400 29.17900
H  51.70100 19.00800 29.94600
H  54.15900 18.07600 25.48700
H  53.81800 17.20400 27.02400
H  53.42900 18.92600 26.92200
H  47.57500 15.95000 22.76300
H  44.76300 15.89700 23.74100
H  45.44300 17.96600 23.35600
H  46.73000 18.04100 22.17600
H  47.00900 18.52600 23.90300
H  45.58600 13.24300 23.66100
H  46.55300 14.18600 22.47900
H  43.72500 14.80600 21.95900
H  43.85100 13.20700 22.09700
H  45.05700 13.89800 21.00300
H  41.96800 12.53000 27.17900
H  41.95200 14.27600 26.64100
H  41.14300 13.71400 28.08400
H  44.41400 13.94400 32.55300
H  42.85100 16.67600 35.16200
H  41.96600 15.05400 35.20700
H  41.39500 16.31100 34.02100

