158

Mg 35.60300 49.06500 25.28400
C  35.96000 47.08500 28.01500
C  34.29600 51.63000 27.02700
C  34.98400 50.82600 22.28100
C  36.94000 46.52500 23.28600
N  35.01400 49.30800 27.25100
C  35.31000 48.35200 28.26800
C  35.17600 49.07600 29.65300
C  34.48300 50.46500 29.34800
C  34.65700 50.53400 27.81400
C  33.07400 50.65900 29.81000
C  36.59700 49.29500 30.32600
C  36.59800 48.71600 31.76700
H  35.21400 48.53900 32.39000
N  34.81700 50.97100 24.74400
C  34.35000 51.84500 25.63900
C  33.98000 53.09500 25.02100
C  34.03400 52.81400 23.58400
C  34.54900 51.48500 23.46100
C  33.66300 54.35800 25.84400
C  33.64600 53.75200 22.45200
O  33.87500 53.45800 21.31200
C  32.99400 55.06200 22.62900
N  36.06900 48.75500 23.06000
C  35.66400 49.55300 22.14200
C  36.01100 48.91500 20.73000
C  36.82600 47.63400 21.03800
C  36.51500 47.59200 22.57100
C  34.76300 48.77600 19.88100
C  38.34900 47.85100 20.82400
C  39.12600 46.62600 20.33900
N  36.27600 47.16400 25.49400
C  36.76400 46.27800 24.63600
C  37.16800 45.10100 25.34500
C  36.80500 45.29800 26.65800
C  36.34000 46.60700 26.75000
C  37.76200 43.89800 24.68400
C  36.72100 44.66500 27.95300
O  36.98800 43.54800 28.36800
C  36.24200 45.84700 28.92200
C  35.07100 45.40100 29.66400
O  33.90900 45.39500 29.30400
O  35.51800 45.01500 30.89500
C  34.58700 44.18600 31.62800
H  33.98800 52.51800 27.58200
H  34.79800 51.31600 21.32300
H  37.30700 45.73100 22.63200
H  34.53600 48.36900 30.18200
H  35.10800 51.22800 29.81300
H  33.01100 51.63600 30.29000
H  32.69700 49.91200 30.50800
H  32.33500 50.66800 29.00900
H  36.76900 50.36300 30.45600
H  37.32500 48.81900 29.66900
H  37.10400 49.43400 32.41300
H  37.06200 47.73100 31.83700
H  33.60100 55.28500 25.27400
H  34.43400 54.45500 26.60800
H  32.70900 54.15100 26.33000
H  32.36900 55.23500 23.50500
H  32.41700 55.14000 21.70800
H  33.84800 55.72600 22.49500
H  36.51200 49.64800 20.09700
H  36.38900 46.73200 20.60900
H  33.84600 48.54800 20.42600
H  34.94000 47.93400 19.21200
H  34.49700 49.71100 19.38800
H  38.74100 48.18600 21.78400
H  38.47900 48.73500 20.20000
H  38.46900 45.80500 20.05300
H  39.77900 46.31000 21.15200
H  39.68600 46.99600 19.48000
H  37.27900 43.68200 23.73100
H  37.54900 42.97000 25.21400
H  38.83300 44.02400 24.52400
H  37.00600 46.11700 29.65100
H  35.15600 43.66700 32.39900
H  34.15400 43.43400 30.96900
H  33.62300 44.56300 31.97000
Mg 26.67100 49.48800 26.29800
C  24.85000 50.56800 29.11000
C  29.22500 48.56300 28.51800
C  28.59300 48.73400 23.62900
C  24.18200 50.90200 24.25300
N  26.94700 49.46200 28.60800
C  25.98300 49.80500 29.48400
C  26.36600 49.48900 30.88700
C  27.92000 49.13300 30.67700
C  28.08000 49.04100 29.18400
C  28.85700 50.13700 31.39500
C  25.39300 48.58100 31.64800
C  24.91600 48.82000 33.08500
H  25.84900 49.36500 34.13700
N  28.62000 48.75300 26.10600
C  29.44900 48.42100 27.11300
C  30.70600 48.06900 26.57900
C  30.58400 48.11800 25.16400
C  29.20100 48.52200 24.92400
C  31.85800 47.70200 27.35600
C  31.60300 47.87800 24.09700
O  31.33600 47.96000 22.91000
C  32.96100 47.68700 24.56400
N  26.53100 49.93400 24.26800
C  27.41200 49.37300 23.35400
C  26.84700 49.49200 21.91300
C  25.40800 50.07300 22.19000
C  25.37500 50.31500 23.59800
C  27.78000 50.40300 21.01300
C  24.32000 49.15400 21.64200
C  22.96500 49.84600 21.17600
N  24.86500 50.54400 26.54200
C  23.97800 51.08100 25.64600
C  22.88800 51.72000 26.32700
C  23.15500 51.47900 27.65200
C  24.43000 50.80400 27.74400
C  21.73500 52.41500 25.68700
C  22.69700 51.78300 28.99300
O  21.67400 52.36400 29.38100
C  23.75400 51.21300 30.04400
C  24.16100 52.38900 30.94300
O  24.96200 53.23200 30.63400
O  23.46300 52.26500 32.09500
C  23.98700 53.06200 33.21200
H  30.02300 48.32800 29.22500
H  29.17000 48.54500 22.72100
H  23.37200 51.17100 23.57200
H  26.22500 50.43100 31.41600
H  28.04700 48.16500 31.16100
H  29.78600 50.17600 30.82800
H  29.17000 49.79600 32.38200
H  28.38900 51.11400 31.51800
H  25.76100 47.56400 31.51100
H  24.45600 48.66100 31.09800
H  24.56500 47.85100 33.44000
H  24.04000 49.46200 32.98800
H  31.72200 47.66300 28.43700
H  32.70300 48.37900 27.23000
H  32.08700 46.71100 26.96700
H  33.74400 47.59800 23.81100
H  33.02400 46.71700 25.05600
H  33.29800 48.49400 25.21500
H  26.86500 48.53600 21.39000
H  25.35600 51.05700 21.72400
H  28.42000 49.82500 20.34600
H  28.50500 51.00200 21.56400
H  27.13600 51.06900 20.43800
H  24.29600 48.43100 22.45800
H  24.70000 48.64000 20.75900
H  23.08500 50.87900 20.85000
H  22.28000 49.80800 22.02300
H  22.47700 49.25100 20.40400
H  20.98700 52.43900 26.47900
H  21.38500 52.01200 24.73700
H  21.95100 53.47400 25.54300
H  23.18700 50.41800 30.52900
H  24.09900 54.11800 32.96900
H  24.94800 52.65600 33.52900
H  23.32700 52.98600 34.07600

