158

Mg 35.40300 2.69400 30.09800
C  33.05600 3.71300 32.60100
C  37.74600 2.42300 32.52100
C  37.51200 2.47800 27.69200
C  32.78500 3.21000 27.73600
N  35.39500 3.16800 32.27800
C  34.38800 3.50600 33.09800
C  34.79800 3.38900 34.60100
C  36.28000 3.16500 34.53700
C  36.51300 2.88400 32.99100
C  37.01800 4.39300 35.19900
C  34.02900 2.22300 35.36300
C  33.96400 2.29400 36.86400
H  34.66800 3.41200 37.67500
N  37.31500 2.51300 30.12600
C  38.10900 2.29800 31.20500
C  39.51900 2.02600 30.78500
C  39.47200 1.96900 29.38700
C  38.06300 2.33900 29.05300
C  40.66300 1.65900 31.79200
C  40.57600 1.72200 28.35700
O  40.58800 1.73800 27.11900
C  42.01500 1.48800 28.96400
N  35.18800 3.09700 27.94000
C  36.19000 2.66100 27.20100
C  35.78100 2.56500 25.73500
C  34.25700 2.80800 25.79200
C  34.03500 3.05700 27.23500
C  36.59000 3.67400 24.94900
C  33.39700 1.68300 25.26800
C  33.43600 0.36500 26.03900
N  33.34100 3.34400 30.10500
C  32.47400 3.47900 29.07200
C  31.18600 4.04600 29.58300
C  31.43600 4.14300 31.01000
C  32.71200 3.63600 31.26500
C  29.96900 4.33900 28.70600
C  30.80400 4.48000 32.26300
O  29.68000 4.94700 32.38500
C  31.80800 4.15100 33.34300
C  32.01400 5.39700 34.09600
O  32.48000 6.44700 33.75600
O  31.33000 5.19300 35.26800
C  31.22100 6.45900 36.06100
H  38.40300 2.01500 33.29200
H  38.24400 2.21700 26.92500
H  31.92400 3.33000 27.07600
H  34.56700 4.35700 35.04600
H  36.45800 2.26800 35.12900
H  37.40400 5.03800 34.40900
H  37.82200 4.02000 35.83200
H  36.39300 5.09500 35.75100
H  34.44500 1.27500 35.02000
H  33.04000 2.16200 34.90900
H  34.41300 1.35100 37.17400
H  32.93300 2.19800 37.20400
H  41.01700 2.62300 32.15600
H  41.44400 1.05500 31.33000
H  40.30900 1.09100 32.65200
H  42.77100 1.71300 28.21100
H  42.14500 0.49700 29.39700
H  42.16200 2.22200 29.75800
H  35.87800 1.57100 25.29700
H  33.96500 3.65700 25.17400
H  37.06300 3.32200 24.03200
H  37.41600 4.08600 25.52800
H  35.96900 4.54300 24.73100
H  33.60800 1.38000 24.24200
H  32.38600 2.08900 25.24900
H  32.42200 -0.00600 26.18400
H  33.84400 0.63900 27.01200
H  34.11100 -0.34600 25.56200
H  30.27300 5.21500 28.13400
H  29.21200 4.63100 29.43400
H  29.65000 3.54700 28.02900
H  31.26900 3.38100 33.89500
H  32.12700 6.99700 36.34200
H  30.64100 6.27000 36.96400
H  30.62000 7.13100 35.44900
Mg -11.80100 16.24500 41.76200
C  -8.83700 14.44500 41.38100
C  -10.09200 18.96000 40.22400
C  -14.68800 17.86000 41.36300
C  -13.39800 13.33500 42.73300
N  -9.68500 16.62400 40.99300
C  -8.66900 15.71000 40.79800
C  -7.38200 16.24600 40.08700
C  -7.81600 17.75700 39.91800
C  -9.29000 17.82600 40.43000
C  -6.88500 18.88000 40.46600
C  -7.04300 15.47100 38.76700
C  -5.49700 15.12200 38.49100
H  -4.93000 15.85600 37.26700
N  -12.35500 18.26400 41.06000
C  -11.55100 19.12300 40.45400
C  -12.31400 20.33500 40.18700
C  -13.67400 20.00800 40.42800
C  -13.59300 18.70700 41.00900
C  -11.65800 21.55900 39.61600
C  -14.90000 20.90100 40.15700
O  -14.76900 21.97500 39.55400
C  -16.29700 20.54000 40.60100
N  -13.80200 15.68400 42.08300
C  -14.79600 16.54100 41.74200
C  -16.17100 15.84700 41.97500
C  -15.75700 14.34900 42.50300
C  -14.27500 14.39900 42.46800
C  -17.24900 16.56700 42.89800
C  -16.33900 13.23000 41.60100
C  -17.36200 12.24800 42.16400
N  -11.31200 14.32000 42.07300
C  -12.02600 13.24400 42.55300
C  -11.13100 12.09600 42.68100
C  -9.87000 12.49000 42.22600
C  -10.05600 13.84200 41.85700
C  -11.43300 10.71600 43.32800
C  -8.49500 12.04900 41.93700
O  -7.94300 10.99800 42.10600
C  -7.75200 13.34200 41.43200
C  -6.69200 13.74100 42.46000
O  -6.88400 13.87600 43.63600
O  -5.46100 13.92500 41.88300
C  -4.40200 14.36700 42.76500
H  -9.65500 19.77500 39.64300
H  -15.65400 18.37000 41.36000
H  -13.86300 12.47900 43.22600
H  -6.45900 16.28500 40.66600
H  -7.81800 17.98600 38.85200
H  -6.07300 18.43100 41.03900
H  -7.47300 19.53100 41.11200
H  -6.39700 19.27500 39.57500
H  -7.29900 16.20800 38.00600
H  -7.71100 14.62500 38.60800
H  -5.38400 14.04500 38.36700
H  -4.77000 15.40600 39.25200
H  -10.63300 21.72400 39.94700
H  -12.26000 22.39900 39.96300
H  -11.63200 21.61100 38.52800
H  -16.93900 21.33700 40.22300
H  -16.37200 20.44500 41.68400
H  -16.67700 19.68200 40.04700
H  -16.52400 15.62600 40.96800
H  -15.91100 14.18700 43.56900
H  -17.76400 17.29000 42.26600
H  -16.68900 17.10000 43.66600
H  -17.84500 15.75800 43.32200
H  -15.60400 12.50200 41.25600
H  -16.78300 13.55400 40.66000
H  -17.81800 12.84500 42.95300
H  -16.78900 11.49600 42.70700
H  -17.97700 11.94900 41.31600
H  -10.69000 9.97400 43.03500
H  -12.43800 10.53300 42.94800
H  -11.61600 10.81700 44.39800
H  -7.23400 13.20500 40.48300
H  -3.89200 13.65100 43.41100
H  -4.68900 15.25700 43.32400
H  -3.62100 14.70800 42.08700

