158

Mg 41.24400 40.32200 26.93700
C  40.51700 42.48600 29.49500
C  42.32500 37.98400 29.37100
C  42.26200 38.22100 24.40300
C  40.92900 42.83300 24.65100
N  41.53400 40.31000 29.33300
C  40.97100 41.25900 30.10800
C  40.98600 40.77200 31.55700
C  41.73800 39.36600 31.55400
C  41.86200 39.20500 30.04100
C  43.00100 39.10400 32.54800
C  39.54300 40.92600 32.30800
C  39.41300 40.14300 33.61800
H  38.92100 40.84300 34.90700
N  42.16300 38.38500 26.89500
C  42.55500 37.57400 28.01300
C  43.00000 36.31200 27.51400
C  42.96100 36.36200 26.07800
C  42.34700 37.65700 25.72900
C  43.45100 35.17800 28.44700
C  43.42600 35.26100 25.01700
O  43.34700 35.48100 23.82600
C  43.91200 33.93500 25.50300
N  41.68800 40.53300 24.74900
C  41.91200 39.44800 23.94100
C  41.82600 39.84600 22.48300
C  41.19700 41.26400 22.66000
C  41.23600 41.59400 24.06500
C  43.20100 39.76000 21.81500
C  39.72200 41.34100 22.21700
C  38.70100 40.30700 22.63800
N  40.79100 42.12200 26.96400
C  40.74800 43.12400 25.98800
C  40.61300 44.36300 26.53800
C  40.33200 44.13700 27.93400
C  40.50500 42.79800 28.10500
C  40.77800 45.57000 25.73200
C  39.95000 44.82000 29.14500
O  39.76100 45.98500 29.30200
C  40.05000 43.77600 30.31200
C  41.06400 44.20700 31.41500
O  42.23100 44.29400 31.25400
O  40.42800 44.52000 32.58300
C  41.22300 45.16800 33.55600
H  42.38900 37.08200 29.98400
H  42.33200 37.44400 23.63900
H  40.72800 43.64000 23.94300
H  41.66500 41.40500 32.12700
H  41.06600 38.56200 31.85500
H  43.94700 39.37200 32.07600
H  43.14200 38.06400 32.84000
H  42.80500 39.66300 33.46300
H  38.84200 40.52700 31.57400
H  39.29800 41.98200 32.42400
H  40.44300 40.02000 33.95200
H  39.02800 39.13800 33.43900
H  42.72500 34.36400 28.43500
H  43.50900 35.37700 29.51700
H  44.43500 34.80000 28.17300
H  43.10500 33.53500 26.11600
H  44.78000 34.05000 26.15300
H  44.18800 33.31000 24.65300
H  41.19900 39.21400 21.85400
H  41.85600 41.93100 22.10400
H  43.11600 38.80700 21.29400
H  44.06900 39.67900 22.47000
H  43.15100 40.43100 20.95800
H  39.59100 41.35800 21.13500
H  39.54700 42.38500 22.47600
H  38.99600 39.52800 23.34100
H  38.46100 39.80000 21.70300
H  37.73200 40.73300 22.90100
H  40.37700 46.40300 26.30900
H  40.32500 45.54300 24.74100
H  41.84200 45.72500 25.55300
H  39.02800 43.55800 30.62400
H  41.63400 46.11300 33.20200
H  42.07500 44.58700 33.90900
H  40.68600 45.53300 34.43100
Mg 26.04700 50.04300 26.71000
C  24.20700 51.35800 29.32300
C  28.41100 48.98600 29.07800
C  28.21900 49.20200 24.24500
C  23.73200 51.08500 24.38500
N  26.36800 50.22800 28.89600
C  25.39300 50.70400 29.73000
C  25.69100 50.30900 31.28300
C  27.07200 49.71900 31.15400
C  27.36000 49.64600 29.62300
C  28.30600 50.32800 31.90300
C  24.63200 49.46600 31.92900
C  23.97400 50.13000 33.16000
H  23.66700 49.19300 34.32900
N  28.04000 49.13900 26.65800
C  28.79600 48.72200 27.74200
C  30.01800 48.08800 27.25600
C  30.00700 48.24300 25.79900
C  28.67900 48.90100 25.52900
C  31.11200 47.52000 28.10400
C  31.10700 47.87100 24.74100
O  30.98000 48.11500 23.56500
C  32.33200 47.13500 25.22700
N  26.05300 50.24000 24.58400
C  27.04900 49.79400 23.82000
C  26.67400 49.69500 22.32200
C  25.20500 50.20400 22.42500
C  24.89500 50.47400 23.87700
C  27.71000 50.32400 21.31700
C  24.22500 49.26400 21.62900
C  23.83400 47.90700 22.34100
N  24.25500 51.01300 26.78200
C  23.47400 51.40300 25.76100
C  22.37500 52.05300 26.30500
C  22.57300 52.11800 27.72800
C  23.76300 51.41400 28.01900
C  21.24100 52.68300 25.57800
C  22.08900 52.55400 28.97500
O  21.02300 53.13400 29.21000
C  23.15200 52.06800 30.14200
C  23.66800 53.21100 30.92400
O  24.70000 53.80700 30.71600
O  23.02800 53.18800 32.14400
C  23.59500 54.09400 33.11000
H  29.17600 48.60600 29.75900
H  28.80900 48.84700 23.39700
H  22.96200 51.38900 23.67400
H  25.82100 51.19800 31.89900
H  27.02900 48.65900 31.40600
H  29.07100 50.66600 31.20300
H  28.80200 49.64200 32.58900
H  28.09200 51.22500 32.48400
H  24.99000 48.47000 32.19100
H  23.93600 49.26200 31.11600
H  22.97100 50.41400 32.84100
H  24.48500 51.04500 33.46000
H  32.00900 48.12500 27.97200
H  31.24700 46.44300 28.00400
H  30.95800 47.66300 29.17300
H  33.02200 47.77600 25.77500
H  32.76400 46.84500 24.26900
H  31.99200 46.29500 25.83400
H  26.65200 48.60600 22.28600
H  25.29000 51.18300 21.95400
H  28.55400 50.80300 21.81400
H  27.06700 50.98300 20.73300
H  28.05600 49.52700 20.65800
H  24.70500 48.86100 20.73700
H  23.29000 49.80100 21.46900
H  24.18200 47.08000 21.72300
H  22.75600 47.74700 22.37700
H  24.11900 47.76000 23.38300
H  21.17400 52.38400 24.53200
H  21.49200 53.73800 25.69000
H  20.31400 52.56900 26.14000
H  22.51200 51.38000 30.69500
H  24.05700 54.98800 32.69000
H  24.25100 53.50300 33.75000
H  22.74300 54.37800 33.72800

