158

Mg 46.72900 25.48500 28.36300
C  47.36700 27.62400 31.06200
C  46.25900 22.89300 30.65900
C  46.16200 23.26300 25.89000
C  47.65300 27.91200 26.06500
N  46.85900 25.32800 30.60000
C  47.00400 26.38100 31.52800
C  46.89500 25.89100 32.96000
C  46.67400 24.32200 32.74200
C  46.66800 24.13300 31.26200
C  47.62700 23.30800 33.54400
C  45.77900 26.67100 33.88100
C  46.25000 26.71100 35.33400
H  45.40800 27.60100 36.30300
N  46.18100 23.45900 28.33500
C  46.08800 22.53700 29.38100
C  45.70900 21.21500 28.86900
C  45.60700 21.37100 27.45700
C  45.98300 22.78200 27.13600
C  45.66000 19.99700 29.70500
C  45.21300 20.27600 26.40300
O  45.18900 20.36800 25.20300
C  44.94700 18.96000 26.87000
N  47.03500 25.57100 26.28300
C  46.58000 24.50100 25.50800
C  46.77000 24.90000 24.02200
C  47.08100 26.42800 24.02900
C  47.27300 26.68800 25.53800
C  47.83800 24.03800 23.20200
C  45.85900 27.35500 23.54700
C  46.20200 28.55500 22.58400
N  47.43000 27.32000 28.45800
C  47.79400 28.21700 27.40300
C  48.23700 29.48800 28.04000
C  48.12300 29.26300 29.47900
C  47.68000 27.92500 29.64800
C  49.06300 30.44700 27.34900
C  48.42200 29.80500 30.72000
O  49.09600 30.79400 30.98600
C  47.78900 28.91400 31.72500
C  48.85900 28.72800 32.77800
O  49.93100 28.26400 32.66100
O  48.31600 29.18900 33.97400
C  49.06300 29.40000 35.15800
H  46.07700 22.12900 31.41800
H  45.98400 22.47400 25.15700
H  47.77600 28.66700 25.28500
H  47.85800 25.90400 33.47100
H  45.65500 24.16300 33.09400
H  48.29300 23.80000 34.25300
H  48.14000 22.70000 32.79900
H  46.99900 22.65800 34.15300
H  44.82300 26.14800 33.90900
H  45.53600 27.62600 33.41500
H  47.23600 27.17200 35.27400
H  46.25200 25.67000 35.65700
H  44.60500 19.74500 29.81000
H  46.11800 20.03200 30.69400
H  46.02800 19.01100 29.42100
H  44.12200 19.07400 27.57300
H  45.79200 18.51900 27.39900
H  44.60300 18.28500 26.08500
H  45.85200 24.74300 23.45500
H  47.98700 26.73600 23.50800
H  48.04800 23.05800 23.62900
H  48.70600 24.67000 23.01500
H  47.36600 23.87900 22.23300
H  45.29200 27.63000 24.43600
H  45.20500 26.71300 22.95600
H  47.26900 28.75900 22.49200
H  45.62800 29.44600 22.84000
H  45.87600 28.48700 21.54600
H  50.08400 30.07600 27.26000
H  48.98600 31.42200 27.83200
H  48.69900 30.56500 26.32800
H  46.90700 29.41800 32.12000
H  48.92500 30.38200 35.61100
H  50.11200 29.10600 35.13100
H  48.54100 28.76900 35.87800
Mg 17.11700 52.40000 26.38800
C  19.10900 50.81500 28.79100
C  14.93300 53.37200 28.92400
C  15.07300 53.79700 24.07400
C  19.19700 51.06500 23.85000
N  17.02600 52.09600 28.52900
C  18.00500 51.55100 29.32200
C  17.78400 51.78100 30.86700
C  16.28400 52.13100 30.84500
C  16.02700 52.56300 29.34300
C  15.39100 51.06700 31.32700
C  18.62900 52.94600 31.39400
C  19.28400 52.65100 32.75900
H  18.36200 52.07100 33.91800
N  15.32300 53.48800 26.47800
C  14.66400 53.80500 27.60500
C  13.50800 54.62700 27.37800
C  13.61500 54.87500 25.95900
C  14.69100 54.03600 25.39500
C  12.53800 55.23800 28.37900
C  12.78800 55.84300 25.25800
O  12.77800 55.94500 24.04900
C  11.88500 56.84800 25.95400
N  17.11600 52.34800 24.35300
C  16.23200 53.06600 23.57600
C  16.38200 52.94300 22.08400
C  17.82000 52.25100 22.04000
C  18.10900 51.92300 23.52200
C  15.25500 52.15200 21.34100
C  18.99900 53.15000 21.30800
C  20.03200 52.45400 20.40800
N  18.84800 51.15700 26.26600
C  19.56300 50.71300 25.18600
C  20.66400 49.90600 25.72600
C  20.53100 49.89600 27.12400
C  19.39400 50.64400 27.39300
C  21.81600 49.21200 24.93200
C  21.13800 49.50100 28.34800
O  22.17400 48.95000 28.62600
C  20.24500 50.21200 29.49100
C  19.81800 49.22400 30.48100
O  18.82600 48.44600 30.38300
O  20.53700 49.44000 31.63700
C  20.00200 48.63000 32.79800
H  14.35200 53.70000 29.78800
H  14.51300 54.36000 23.32500
H  19.70900 50.67400 22.96800
H  17.96000 50.87700 31.45100
H  16.11300 52.96500 31.52600
H  14.61300 51.38700 32.02000
H  16.02900 50.48500 31.99100
H  14.96200 50.47300 30.52100
H  17.95400 53.80100 31.37900
H  19.52700 53.10300 30.79600
H  19.70100 53.60200 33.08900
H  20.10100 51.93400 32.67400
H  12.91800 56.23600 28.59800
H  12.48700 54.62200 29.27600
H  11.48200 55.24100 28.10600
H  10.98600 56.30500 26.24700
H  11.67800 57.58500 25.17700
H  12.41200 57.36300 26.75700
H  16.27400 53.93900 21.65500
H  17.62100 51.28500 21.57600
H  15.73300 51.71600 20.46500
H  14.56300 52.96900 21.13200
H  14.67100 51.46700 21.95600
H  19.57400 53.65900 22.08100
H  18.54300 53.91700 20.68200
H  19.77100 52.40800 19.35100
H  20.24200 51.49500 20.88000
H  21.04000 52.85200 20.52300
H  21.61900 49.39500 23.87600
H  21.74700 48.14800 25.16200
H  22.75400 49.69600 25.20200
H  20.92400 50.91700 29.97100
H  20.25000 47.60100 32.53800
H  18.92800 48.68200 32.97700
H  20.59100 48.92200 33.66700

