158

Mg -1.61700 17.07000 27.27000
C  -2.16600 14.79600 29.86700
C  -1.95100 19.61400 29.26400
C  -1.63300 19.09300 24.50800
C  -1.36600 14.31400 25.00100
N  -2.08700 17.15600 29.25100
C  -2.31500 16.14100 30.25200
C  -2.61200 16.75000 31.63600
C  -2.47200 18.28100 31.35000
C  -2.08600 18.37800 29.84800
C  -3.70700 19.08500 31.88400
C  -1.59100 16.32900 32.81400
C  -1.63200 17.12500 34.18400
H  -1.54200 16.19600 35.44600
N  -1.67400 19.03600 26.96100
C  -1.78500 19.95600 27.92900
C  -1.77000 21.32200 27.35400
C  -1.72300 21.14700 25.93300
C  -1.66600 19.69600 25.71900
C  -1.87000 22.61800 28.23000
C  -1.82200 22.23400 24.83800
O  -1.77900 21.94700 23.62000
C  -1.82500 23.71100 25.22000
N  -1.48000 16.71300 25.07700
C  -1.54200 17.74300 24.16000
C  -1.41700 17.25400 22.69600
C  -1.14000 15.74800 22.90500
C  -1.31000 15.57900 24.42700
C  -2.53300 17.62100 21.69700
C  0.15700 15.28800 22.26100
C  1.42700 16.05200 22.85300
N  -1.71000 14.99600 27.35700
C  -1.57900 13.98900 26.39400
C  -1.84000 12.73700 26.92800
C  -1.95800 12.96800 28.36700
C  -1.89100 14.34400 28.55400
C  -1.77400 11.40600 26.27600
C  -2.20500 12.29600 29.63800
O  -2.31300 11.10000 29.94500
C  -2.26500 13.46500 30.66200
C  -1.03500 13.34900 31.39500
O  0.02400 13.78000 31.10100
O  -1.28500 12.80300 32.62900
C  -0.17000 12.76500 33.60700
H  -2.04100 20.33700 30.07800
H  -1.61300 19.67200 23.58200
H  -1.10700 13.43800 24.40300
H  -3.55900 16.39100 32.04000
H  -1.58200 18.67500 31.84100
H  -4.13600 18.50600 32.70200
H  -4.47900 19.45700 31.21000
H  -3.16900 19.89900 32.37000
H  -0.55600 16.18800 32.50000
H  -1.87800 15.32600 33.13100
H  -2.49400 17.78200 34.29200
H  -0.76200 17.77800 34.24200
H  -2.88100 22.98500 28.05200
H  -1.24300 23.47100 27.97200
H  -1.83100 22.27700 29.26500
H  -0.86100 23.91300 25.68700
H  -2.59500 24.01600 25.92900
H  -1.95100 24.38300 24.37100
H  -0.55600 17.72900 22.22700
H  -2.01800 15.29500 22.44500
H  -3.13200 18.42200 22.12900
H  -3.28900 16.87800 21.44100
H  -2.13700 17.90300 20.72100
H  0.14000 15.30100 21.17100
H  0.36100 14.28800 22.64300
H  1.14200 16.83800 23.55300
H  2.08300 16.47200 22.09000
H  2.00900 15.36800 23.47000
H  -1.08900 10.78600 26.85400
H  -1.49100 11.50600 25.22800
H  -2.77000 10.96500 26.27600
H  -3.06100 13.41200 31.40500
H  0.30500 13.74400 33.56000
H  0.60600 12.01100 33.47400
H  -0.63900 12.66700 34.58600
Mg 42.41000 41.19200 26.35100
C  41.55100 43.78700 28.53000
C  43.38300 39.34300 29.20600
C  43.44400 38.84100 24.31100
C  41.87500 43.30700 23.58800
N  42.45500 41.57300 28.69000
C  41.95300 42.69200 29.28800
C  41.85000 42.58100 30.78800
C  42.44700 41.10200 31.02600
C  42.74600 40.60300 29.59700
C  43.69300 41.02400 32.00300
C  40.34300 42.50600 31.25000
C  40.01800 43.23300 32.56600
H  39.34700 42.52500 33.70700
N  43.43300 39.40700 26.72800
C  43.72400 38.81400 27.94500
C  44.32500 37.48000 27.65000
C  44.20000 37.25900 26.27300
C  43.70600 38.50000 25.70000
C  44.78200 36.52100 28.71400
C  44.43000 35.97500 25.42500
O  44.30900 35.93500 24.21400
C  44.82400 34.69700 26.12200
N  42.65600 41.16900 24.24600
C  43.01400 40.00600 23.65700
C  42.92700 40.12500 22.16700
C  42.56000 41.53400 21.88400
C  42.37000 42.10300 23.36800
C  44.23900 39.70100 21.39200
C  41.30700 41.72700 21.02200
C  41.21900 42.84500 19.94600
N  41.61400 43.00700 26.08600
C  41.56600 43.78900 24.93000
C  41.06600 45.15200 25.25600
C  41.02300 45.14400 26.67800
C  41.42100 43.87300 27.11400
C  40.87700 46.23500 24.26200
C  40.87200 46.05200 27.79400
O  40.69600 47.27000 27.79200
C  41.07300 45.12400 29.07500
C  42.13200 45.87300 29.88400
O  43.30300 45.89300 29.67300
O  41.45000 46.50500 30.92800
C  42.21700 46.94000 32.05400
H  43.50300 38.65000 30.04200
H  43.76300 38.07100 23.60700
H  41.64700 44.00500 22.77900
H  42.44800 43.41100 31.16300
H  41.67500 40.43900 31.41700
H  43.51800 40.20000 32.69500
H  43.92800 41.86400 32.65700
H  44.65100 40.73700 31.56900
H  40.12100 41.43900 31.22100
H  39.66300 42.80800 30.45400
H  39.34200 43.99800 32.18300
H  40.88300 43.68900 33.04900
H  44.06100 35.70400 28.75100
H  44.92400 37.08100 29.63900
H  45.72300 36.13500 28.32300
H  44.21700 34.46300 26.99600
H  45.89200 34.72500 26.33900
H  44.58200 33.91500 25.40300
H  42.18900 39.44500 21.74100
H  43.39200 42.05200 21.40700
H  44.65000 40.43700 20.70000
H  43.90700 38.91500 20.71400
H  44.99500 39.23000 22.02100
H  40.43500 41.90800 21.65100
H  41.04900 40.89100 20.37100
H  42.22100 43.16100 19.65700
H  40.64700 43.63200 20.43700
H  40.79500 42.40300 19.04400
H  40.70400 45.77600 23.28800
H  41.75200 46.87600 24.15500
H  39.97800 46.79700 24.51300
H  40.18100 45.05500 29.69800
H  43.28000 47.15300 31.93800
H  42.02800 46.19400 32.82600
H  41.71700 47.83900 32.41400

