158

Mg 43.78100 4.03300 47.68900
C  41.52300 6.74000 47.05300
C  41.22300 1.90600 47.75900
C  45.99300 1.51200 47.15600
C  46.37200 6.46000 46.81300
N  41.64300 4.31300 47.15600
C  40.89000 5.44900 47.05600
C  39.38700 5.19500 47.00300
C  39.33000 3.76800 47.70100
C  40.85400 3.27900 47.68500
C  38.75600 3.79500 49.19200
C  38.88200 5.29300 45.47900
C  37.67600 6.28200 45.25000
H  37.08400 6.50900 43.90300
N  43.71000 2.04000 47.58100
C  42.48200 1.39100 47.57300
C  42.75400 -0.06300 47.54500
C  44.13400 -0.24500 47.21600
C  44.69800 1.08500 47.33000
C  41.77100 -1.21800 47.58500
C  44.74200 -1.58700 46.82100
O  44.15000 -2.65900 46.79600
C  46.18900 -1.61900 46.21300
N  45.84700 3.97300 47.15500
C  46.56500 2.79600 47.12300
C  48.02800 3.05200 46.77900
C  48.16400 4.61900 46.72600
C  46.72300 5.08300 46.87300
C  49.03500 2.34500 47.72700
C  48.83300 5.17700 45.55000
C  49.71900 6.40600 45.76400
N  43.96800 6.15900 47.34700
C  45.06900 6.96300 47.02000
C  44.65300 8.36100 46.99800
C  43.26200 8.28200 47.05000
C  42.87100 6.93900 47.16200
C  45.49600 9.49900 46.88500
C  42.04600 9.11600 47.04000
O  41.85700 10.27400 46.75100
C  40.90900 8.11800 47.02800
C  40.04500 8.32300 48.20000
O  40.13600 8.08700 49.40300
O  38.86900 8.83200 47.61700
C  37.61500 8.94600 48.47700
H  40.36100 1.23600 47.77700
H  46.77800 0.75400 47.13600
H  47.22000 7.10700 46.57600
H  38.90200 5.99800 47.55800
H  38.67600 3.25700 46.99500
H  38.62700 4.82700 49.52000
H  39.49600 3.39200 49.88300
H  37.79600 3.29200 49.07400
H  38.52500 4.36600 45.03000
H  39.68400 5.75200 44.90200
H  38.10600 7.23800 45.55100
H  37.01800 5.93200 46.04500
H  41.83400 -1.64500 46.58400
H  40.76700 -0.93800 47.90300
H  42.02800 -1.95300 48.34800
H  46.87800 -1.34300 47.01100
H  46.33100 -0.78900 45.52100
H  46.44000 -2.55600 45.71600
H  48.06400 2.68800 45.75200
H  48.60600 4.96700 47.66000
H  48.67600 1.83900 48.62300
H  49.67800 3.04600 48.25700
H  49.74200 1.70500 47.20000
H  48.08100 5.52200 44.84100
H  49.37600 4.34300 45.10500
H  50.69700 6.10300 45.38900
H  49.77000 6.70700 46.81000
H  49.39700 7.24400 45.14700
H  45.24200 10.12100 47.74300
H  45.33400 10.09400 45.98600
H  46.53700 9.17600 46.86900
H  40.27200 8.09900 46.14400
H  36.73100 8.77800 47.86200
H  37.54100 9.95700 48.87900
H  37.62600 8.19900 49.27100
Mg -1.37300 34.64100 26.79800
C  -3.14500 33.06700 29.19900
C  -0.42600 37.06300 29.10700
C  -0.45600 36.70700 24.27600
C  -2.66900 32.28700 24.49700
N  -1.80000 35.05600 28.87500
C  -2.45300 34.14800 29.69500
C  -2.30000 34.54300 31.20600
C  -1.66000 35.92500 31.13500
C  -1.28300 36.00600 29.63900
C  -2.62400 37.14900 31.60000
C  -1.44200 33.50200 32.01000
C  -2.21700 32.73200 33.10800
H  -1.34400 32.62900 34.47200
N  -0.49500 36.55500 26.75300
C  -0.05000 37.34900 27.76700
C  0.64100 38.42400 27.26500
C  0.61300 38.45300 25.84200
C  -0.14000 37.16900 25.54000
C  1.38100 39.37600 28.25200
C  1.05700 39.45600 24.84300
O  0.99700 39.40900 23.62100
C  1.70400 40.65700 25.41100
N  -1.51900 34.52700 24.71000
C  -0.98500 35.44600 23.82600
C  -1.05600 34.96600 22.32600
C  -1.57600 33.42900 22.48100
C  -2.03200 33.41100 23.97200
C  -1.99900 35.98700 21.52100
C  -0.56600 32.29500 22.05500
C  0.50100 31.95600 23.02100
N  -2.54800 32.97700 26.82400
C  -3.02100 32.11600 25.80300
C  -3.83500 31.06600 26.34200
C  -3.90700 31.34100 27.72800
C  -3.18400 32.59800 27.92500
C  -4.60500 30.07000 25.54800
C  -4.41300 31.02400 28.97500
O  -5.04300 29.98000 29.27300
C  -3.99600 32.07200 29.94200
C  -5.17100 32.66300 30.68800
O  -5.91900 33.51200 30.26200
O  -5.30300 32.11600 31.91500
C  -6.53100 32.39800 32.65400
H  -0.07500 37.75400 29.87600
H  -0.06500 37.21000 23.38900
H  -3.18200 31.64100 23.78200
H  -3.29800 34.62000 31.63800
H  -0.79900 36.04400 31.79300
H  -3.67800 36.97700 31.81800
H  -2.58300 37.93300 30.84300
H  -2.19700 37.64900 32.46900
H  -0.52500 33.85900 32.47900
H  -1.01700 32.71800 31.38300
H  -2.43600 31.69200 32.86500
H  -3.13400 33.28900 33.29600
H  2.32000 39.66200 27.77700
H  1.58000 39.14800 29.30000
H  0.77300 40.27900 28.28300
H  1.64900 41.34800 24.57000
H  2.72600 40.33400 25.61300
H  1.15400 40.96700 26.30000
H  -0.09800 35.08300 21.82000
H  -2.43500 33.27900 21.82700
H  -2.90900 35.39400 21.43600
H  -1.57400 36.09300 20.52300
H  -2.21800 36.90600 22.06700
H  -0.11200 32.70300 21.15200
H  -1.13700 31.39000 21.84500
H  0.38000 32.50700 23.95400
H  1.43600 32.29000 22.57200
H  0.55000 30.88200 23.19700
H  -4.13000 29.76100 24.61700
H  -5.52800 30.55700 25.23500
H  -4.88100 29.24400 26.20300
H  -3.34300 31.70800 30.73500
H  -6.28400 32.94100 33.56600
H  -6.97700 31.53900 33.15500
H  -7.31300 32.78000 31.99700

