158

Mg 0.62700 8.84000 26.23700
C  1.65700 10.40700 29.08600
C  0.09100 5.91200 28.11400
C  0.02200 7.09000 23.39900
C  1.75200 11.45100 24.27900
N  1.06500 8.10600 28.33500
C  1.20200 9.13000 29.33900
C  1.04800 8.53500 30.70900
C  0.85000 6.98100 30.42100
C  0.55700 6.98200 28.84700
C  2.02300 6.03600 30.82200
C  -0.15600 9.08200 31.45900
C  -0.05500 9.26700 32.98700
H  1.24400 8.97100 33.73000
N  0.05400 6.77200 25.79000
C  -0.12200 5.78900 26.73900
C  -0.72000 4.66900 26.07900
C  -0.84700 4.91300 24.68500
C  -0.22000 6.32100 24.57100
C  -1.06700 3.42200 26.85200
C  -1.52300 4.07400 23.61200
O  -1.61500 4.53500 22.46500
C  -1.91100 2.69800 23.86600
N  0.98500 9.13500 24.18400
C  0.62700 8.28500 23.14700
C  1.01100 8.76200 21.72600
C  1.35700 10.26200 22.04300
C  1.39100 10.28900 23.56700
C  2.26900 8.06600 21.21200
C  0.35900 11.34100 21.37800
C  -0.78300 11.77600 22.33700
N  1.50600 10.65400 26.53300
C  1.86900 11.67600 25.69000
C  2.30700 12.81800 26.43600
C  2.31700 12.35500 27.77200
C  1.81500 11.01300 27.78400
C  2.63800 14.15400 25.92500
C  2.57900 12.71700 29.13600
O  3.02700 13.77800 29.61400
C  2.23000 11.47200 30.06100
C  3.50800 11.05900 30.68500
O  4.34600 10.36900 30.17600
O  3.49100 11.49000 32.00300
C  4.53100 10.97300 32.95400
H  -0.21800 5.11800 28.79700
H  -0.32200 6.43800 22.59400
H  2.15800 12.22200 23.62000
H  1.94300 8.63000 31.32300
H  -0.04200 6.60900 30.92500
H  1.65800 5.35900 31.59500
H  2.87900 6.58100 31.21900
H  2.39400 5.58700 29.90100
H  -1.03600 8.46300 31.28400
H  -0.39500 10.03400 30.98400
H  -0.87900 8.73400 33.46000
H  -0.26600 10.28100 33.32600
H  -0.57600 2.57800 26.36800
H  -2.14500 3.26500 26.82300
H  -0.77800 3.57500 27.89200
H  -2.72500 2.33900 23.23600
H  -2.24600 2.45200 24.87400
H  -1.00300 2.10100 23.78300
H  0.08900 8.57900 21.17400
H  2.37900 10.46800 21.72700
H  2.29400 8.24800 20.13800
H  2.05600 7.01000 21.38100
H  3.20900 8.29500 21.71500
H  -0.03200 10.93400 20.44600
H  1.04600 12.12100 21.04900
H  -0.82400 11.17700 23.24700
H  -1.72000 11.71400 21.78200
H  -0.61800 12.77900 22.73100
H  1.73500 14.69900 25.65000
H  3.28500 14.06300 25.05300
H  3.10400 14.84200 26.63000
H  1.50600 11.77000 30.81900
H  5.47700 11.24700 32.48600
H  4.47500 9.89800 33.12600
H  4.59500 11.42000 33.94600
Mg 41.39700 41.23000 27.27100
C  40.49900 43.71000 29.60500
C  42.56800 39.33200 29.81300
C  42.31700 38.91400 25.04000
C  40.88700 43.54300 24.70300
N  41.53600 41.49000 29.46600
C  40.98500 42.51500 30.23900
C  41.06800 42.23000 31.77900
C  41.87500 40.92800 31.81600
C  42.08800 40.55700 30.27800
C  43.18200 40.76100 32.68200
C  39.65200 42.10500 32.49400
C  39.48500 43.03800 33.76400
H  38.76800 42.35600 34.97200
N  42.27300 39.38000 27.43900
C  42.62800 38.74500 28.57500
C  42.91000 37.40100 28.29900
C  42.88600 37.20500 26.90100
C  42.44700 38.49000 26.38400
C  43.14800 36.42500 29.38900
C  43.29900 35.96200 26.10300
O  43.44700 35.98100 24.86000
C  43.76100 34.66600 26.78300
N  41.53400 41.15800 25.10300
C  41.81400 40.07500 24.40600
C  41.59100 40.39300 22.94000
C  41.07000 41.82200 22.93000
C  41.11000 42.22000 24.35600
C  42.75500 40.01100 21.94500
C  39.61500 41.99100 22.30100
C  38.43900 41.28500 23.03800
N  40.83700 43.21400 27.10000
C  40.78700 44.00800 25.99800
C  40.36200 45.35000 26.43900
C  40.24600 45.26000 27.86900
C  40.57300 43.94900 28.20600
C  40.12400 46.52300 25.53900
C  40.02000 46.02000 29.09100
O  39.80700 47.17300 29.29900
C  40.10400 44.94700 30.23700
C  41.09200 45.42800 31.19500
O  42.29200 45.42200 31.06800
O  40.45000 45.72100 32.34000
C  41.33000 46.25300 33.36500
H  42.69400 38.72900 30.71400
H  42.53600 38.07800 24.37300
H  40.73100 44.23500 23.87200
H  41.64000 43.00100 32.29500
H  41.15400 40.19800 32.18400
H  42.94400 40.14300 33.54800
H  43.40600 41.75000 33.08200
H  44.03600 40.33700 32.15400
H  39.44300 41.08700 32.82200
H  38.94100 42.48100 31.75800
H  38.96900 43.90400 33.34700
H  40.44900 43.39900 34.12100
H  42.51800 35.54200 29.28200
H  43.03900 36.75300 30.42300
H  44.13400 36.00500 29.19400
H  43.02800 34.28300 27.49300
H  44.74800 34.64500 27.24500
H  43.55800 33.97400 25.96600
H  40.71400 39.75900 22.81100
H  41.76900 42.42700 22.35300
H  43.71400 39.90600 22.45300
H  42.82000 40.64200 21.05900
H  42.48900 39.06300 21.47700
H  39.62900 41.57800 21.29300
H  39.51000 43.06400 22.13900
H  38.82800 41.04300 24.02700
H  38.10200 40.36600 22.55900
H  37.52300 41.82600 23.27400
H  40.63700 46.39500 24.58600
H  40.50300 47.38300 26.09100
H  39.06900 46.74000 25.37100
H  39.15800 44.77000 30.74900
H  42.28000 46.62700 32.98400
H  41.51600 45.50100 34.13300
H  40.74500 47.05400 33.81700

