158

Mg 8.94600 2.85300 27.91100
C  10.17800 1.14300 30.71100
C  7.15400 4.78200 29.95800
C  7.82700 4.43600 25.16500
C  10.44200 0.48500 25.87300
N  8.64200 2.84700 30.14900
C  9.26800 2.14200 31.09000
C  8.95500 2.73000 32.49200
C  8.07000 3.89100 32.17600
C  7.83500 3.81700 30.67000
C  6.81400 4.03300 33.02300
C  10.31400 3.24100 33.11600
C  10.17500 4.05900 34.46100
H  10.96300 3.69300 35.68200
N  7.55100 4.33200 27.57900
C  6.93800 5.02700 28.56800
C  6.28200 6.21000 28.03500
C  6.58100 6.19600 26.65800
C  7.33800 4.93600 26.40100
C  5.45300 7.21700 28.86900
C  6.12700 7.26700 25.60000
O  6.35300 7.04200 24.40300
C  5.29800 8.39300 26.04500
N  9.15300 2.52500 25.82900
C  8.57100 3.28300 24.91900
C  8.75000 2.85400 23.44200
C  9.67800 1.64000 23.60700
C  9.79300 1.51900 25.19800
C  7.43100 2.74900 22.59700
C  11.06200 1.72700 22.80300
C  11.16100 0.69900 21.66700
N  10.07800 1.15600 28.24200
C  10.62500 0.33400 27.27000
C  11.34200 -0.71100 27.98400
C  11.23200 -0.35700 29.30100
C  10.46800 0.78500 29.39500
C  12.11500 -1.87400 27.43100
C  11.69400 -0.77200 30.57500
O  12.24600 -1.74000 30.97600
C  11.08000 0.30600 31.54000
C  10.49200 -0.34600 32.76400
O  9.38500 -0.89200 32.85700
O  11.44700 -0.28200 33.84500
C  11.08200 -0.82300 35.15700
H  6.63600 5.46400 30.63600
H  7.60100 4.93200 24.21900
H  10.86300 -0.27700 25.21300
H  8.52100 2.06000 33.23500
H  8.58500 4.80000 32.48900
H  6.87500 5.08000 33.31900
H  6.65200 3.28200 33.79600
H  5.91800 3.92100 32.41200
H  10.80700 3.86900 32.37400
H  10.89600 2.37100 33.42200
H  9.12200 3.87500 34.67500
H  10.36200 5.12200 34.30700
H  4.44400 7.45200 28.52900
H  5.98300 8.14700 29.07300
H  5.30400 6.86100 29.88800
H  5.75600 8.83500 26.93000
H  4.32200 7.93700 26.20900
H  5.18600 9.12600 25.24600
H  9.41300 3.60400 23.01100
H  9.10800 0.81300 23.18300
H  7.28600 3.69000 22.06500
H  6.54600 2.68600 23.23000
H  7.48500 1.82200 22.02600
H  11.86000 1.48700 23.50600
H  11.22400 2.75500 22.48000
H  11.69800 1.15000 20.83400
H  10.14900 0.40500 21.38600
H  11.74000 -0.17700 21.96000
H  12.13900 -2.48400 28.33500
H  13.09800 -1.61600 27.03700
H  11.52100 -2.44800 26.72000
H  11.92000 0.90100 31.89800
H  12.03100 -1.20800 35.53000
H  10.32100 -1.60200 35.20200
H  10.80500 -0.03000 35.85300
Mg 30.64300 59.17600 39.11800
C  27.61200 57.51700 37.95700
C  32.36700 56.61900 37.91300
C  33.23400 61.23700 39.27800
C  28.48000 62.15600 39.52200
N  30.03800 57.41800 37.96800
C  28.78800 56.91100 37.66000
C  28.87800 55.46500 37.09100
C  30.41900 55.11800 37.42900
C  30.94700 56.42800 37.89800
C  30.67600 53.98900 38.43700
C  28.70600 55.43000 35.56500
C  27.69100 54.38000 34.99600
H  26.78700 54.84400 33.81300
N  32.57400 58.90800 38.92200
C  33.15000 57.77500 38.35400
C  34.58200 57.94600 38.47800
C  34.80400 59.23600 39.03800
C  33.50600 59.87900 39.10500
C  35.63500 57.00800 38.06200
C  36.19100 59.75100 39.45900
O  37.20400 59.14900 39.23200
C  36.36600 61.08500 40.17200
N  30.81000 61.45600 39.37800
C  32.08100 62.04600 39.43700
C  31.98400 63.55200 39.57300
C  30.48300 63.71800 40.00800
C  29.83200 62.37300 39.60400
C  33.11900 64.24400 40.38800
C  29.88600 65.01400 39.45600
C  28.88400 65.80200 40.39200
N  28.45200 59.70000 38.96500
C  27.81700 60.87600 39.22500
C  26.43200 60.74300 38.89200
C  26.31000 59.36500 38.46100
C  27.55300 58.79400 38.45500
C  25.34700 61.81300 38.86100
C  25.28900 58.34200 37.99300
O  24.06200 58.35300 37.79500
C  26.11500 57.08600 37.71400
C  25.61100 56.11500 38.68900
O  25.98500 55.95000 39.90000
O  24.80400 55.23400 38.02300
C  24.33200 54.06100 38.83400
H  33.03100 55.79400 37.64600
H  34.06400 61.94600 39.28100
H  27.84600 63.04400 39.53000
H  28.24600 54.71000 37.55700
H  31.06700 54.92700 36.57400
H  30.94000 54.45500 39.38600
H  31.46700 53.28300 38.18500
H  29.78500 53.38700 38.61500
H  29.64300 55.32700 35.01800
H  28.30200 56.34800 35.13700
H  27.00900 54.13600 35.81000
H  28.17800 53.45400 34.69200
H  36.46100 56.76800 38.73100
H  36.11100 57.43800 37.18100
H  35.27600 56.04200 37.70800
H  37.26900 61.22500 40.76700
H  35.46400 61.19700 40.77300
H  36.30500 61.86900 39.41700
H  32.19000 63.76200 38.52300
H  30.35800 63.75000 41.09100
H  32.66800 64.87600 41.15300
H  33.81800 64.75600 39.72700
H  33.74200 63.54200 40.94200
H  29.35200 64.61800 38.59100
H  30.62900 65.64800 38.97200
H  29.04000 65.61400 41.45400
H  27.83500 65.92500 40.12500
H  29.31300 66.78800 40.21300
H  25.60900 62.71500 38.30900
H  25.11100 62.12700 39.87800
H  24.50200 61.40900 38.30200
H  25.88400 56.70700 36.71900
H  25.06200 53.70700 39.56100
H  24.11900 53.21700 38.17700
H  23.43100 54.23200 39.42300

