158

Mg 43.83300 3.73600 47.59000
C  41.52700 6.33800 47.38100
C  41.10400 1.48000 47.44000
C  46.00900 1.34300 47.02000
C  46.42600 6.19700 47.03000
N  41.57700 3.85700 47.24200
C  40.88200 5.04900 47.40800
C  39.33900 4.79200 47.70700
C  39.32500 3.24100 47.85300
C  40.74400 2.82200 47.55900
C  38.86000 2.76200 49.22500
C  38.39200 5.36800 46.56200
C  38.84100 5.01500 45.10500
H  39.17500 6.14300 44.19900
N  43.58400 1.67600 47.30800
C  42.40400 0.93500 47.35600
C  42.74900 -0.37300 47.00400
C  44.16500 -0.52100 47.08100
C  44.62500 0.86700 47.13300
C  41.68800 -1.40600 46.57200
C  44.96300 -1.80800 46.88400
O  44.36400 -2.84100 46.66600
C  46.47700 -1.86500 46.99400
N  45.92200 3.74200 47.06200
C  46.57700 2.61100 47.07400
C  48.09500 2.82100 47.00100
C  48.22400 4.39900 47.07400
C  46.77100 4.82000 46.96100
C  49.01900 2.01300 48.01400
C  49.18800 5.09900 46.07200
C  50.44700 5.65600 46.71300
N  44.05800 5.91000 47.37600
C  45.14900 6.71900 47.21000
C  44.64700 8.08400 47.30000
C  43.26000 8.03200 47.32900
C  42.97300 6.62200 47.31400
C  45.52300 9.31700 47.47400
C  41.96900 8.72300 47.35800
O  41.76200 9.93800 47.38800
C  40.83600 7.68300 47.42200
C  39.93800 7.93000 48.63300
O  40.12800 7.46200 49.71000
O  38.82800 8.68000 48.32600
C  37.88600 8.91300 49.40300
H  40.26900 0.79300 47.58900
H  46.75100 0.55100 46.89500
H  47.23400 6.93100 46.99500
H  39.06300 5.31200 48.62400
H  38.74100 2.79500 47.04700
H  39.66800 2.47800 49.90000
H  38.16000 1.94700 49.03800
H  38.30500 3.52700 49.76700
H  38.32300 6.45500 46.61300
H  37.41200 4.93700 46.76500
H  38.03300 4.44800 44.64500
H  39.73200 4.39000 45.04800
H  42.01400 -1.80900 45.61300
H  40.74700 -0.86200 46.49500
H  41.73700 -2.14000 47.37700
H  46.66900 -1.39600 47.96000
H  46.89500 -1.44300 46.08000
H  46.68300 -2.92700 46.86300
H  48.41800 2.58200 45.98700
H  48.53000 4.69900 48.07600
H  49.53100 1.22200 47.46500
H  48.37300 1.59600 48.78700
H  49.69100 2.77100 48.41600
H  48.69800 5.83700 45.43700
H  49.56700 4.29000 45.44800
H  51.31100 5.28900 46.16000
H  50.54100 5.37800 47.76300
H  50.39500 6.73500 46.57200
H  45.26000 9.96600 46.64000
H  46.55400 9.01400 47.28700
H  45.35100 9.79900 48.43700
H  40.21900 7.89700 46.54900
H  38.46900 9.35400 50.21100
H  37.52600 7.97900 49.83500
H  37.00500 9.45400 49.05800
Mg 16.85700 52.71500 26.83400
C  18.74300 51.31900 29.14100
C  14.51900 53.79200 29.25500
C  15.08000 54.28400 24.40200
C  18.94400 51.45600 24.33900
N  16.60600 52.55200 29.00200
C  17.55000 51.97700 29.70600
C  17.29600 52.20700 31.24500
C  15.80200 52.59300 31.17700
C  15.60100 53.07300 29.72000
C  14.90900 51.36000 31.52400
C  18.23800 53.27700 31.87800
C  18.60200 52.93100 33.31600
H  17.63900 52.11900 34.14800
N  15.04500 53.80800 26.88400
C  14.28000 54.23900 27.95400
C  13.07300 54.94800 27.42500
C  13.26400 55.14300 26.01300
C  14.51900 54.35600 25.73100
C  12.04000 55.44900 28.31300
C  12.35600 55.86400 24.98500
O  12.51800 55.83400 23.74200
C  11.15400 56.67800 25.47600
N  16.95100 52.74600 24.61300
C  16.18600 53.54500 23.90300
C  16.61300 53.48100 22.42000
C  17.68400 52.48300 22.35400
C  17.86900 52.15600 23.88300
C  15.43300 53.31300 21.37300
C  18.94000 53.02500 21.56300
C  19.91100 53.98500 22.28000
N  18.53500 51.52900 26.68700
C  19.31100 51.14300 25.70300
C  20.45600 50.43300 26.17600
C  20.24900 50.43500 27.55300
C  19.09600 51.09300 27.81400
C  21.49600 49.82600 25.34100
C  20.77800 49.97300 28.78500
O  21.61500 49.07600 29.00600
C  19.85500 50.67000 29.91100
C  19.46800 49.58700 30.81600
O  18.48800 48.81400 30.68700
O  20.24700 49.59400 31.90300
C  20.10400 48.59400 32.92300
H  13.80400 53.91700 30.07000
H  14.68200 54.89500 23.58900
H  19.69000 51.18500 23.58900
H  17.40700 51.26400 31.78000
H  15.44300 53.50100 31.66200
H  15.56000 50.49300 31.63700
H  14.10700 51.20500 30.80200
H  14.38000 51.52400 32.46300
H  17.85100 54.29500 31.83400
H  19.12200 53.26900 31.24100
H  18.60600 53.89400 33.82600
H  19.60700 52.50900 33.28800
H  11.13800 55.07900 27.82500
H  11.99200 56.53700 28.30300
H  11.97900 55.06300 29.33000
H  10.38800 55.94000 25.71500
H  10.60900 57.11800 24.64100
H  11.38400 57.42100 26.24000
H  16.99800 54.49500 22.30900
H  17.37700 51.56400 21.85500
H  15.53700 52.49200 20.66300
H  15.22100 54.22400 20.81500
H  14.53600 53.11400 21.95900
H  18.45900 53.66300 20.82200
H  19.47700 52.20400 21.08800
H  20.86700 53.46700 22.35600
H  19.49600 54.05900 23.28500
H  20.07300 54.93000 21.76200
H  22.29000 49.52100 26.02200
H  21.75500 50.34500 24.41800
H  21.12200 48.87900 24.95100
H  20.49700 51.36100 30.45700
H  19.81000 47.64900 32.46600
H  19.32300 48.84700 33.64000
H  21.10300 48.61200 33.35800

