158

Mg -1.45700 34.55800 26.51000
C  -3.16300 33.03200 28.93700
C  -0.24400 36.81400 28.75900
C  -0.35400 36.58600 23.83800
C  -3.06400 32.57100 24.10900
N  -1.75700 34.91300 28.55500
C  -2.37100 34.07400 29.45300
C  -1.99300 34.33200 30.91300
C  -1.11800 35.62500 30.83800
C  -0.99500 35.79000 29.26900
C  -1.62600 37.02500 31.56500
C  -1.38600 33.07100 31.57800
C  -2.00700 32.70000 32.98300
H  -1.07300 32.53500 34.16200
N  -0.44500 36.44100 26.33300
C  -0.05700 37.17000 27.39100
C  0.69700 38.32500 26.92000
C  0.85000 38.23700 25.54300
C  -0.03600 37.04300 25.16500
C  1.24500 39.37900 27.93300
C  1.60800 39.18300 24.68500
O  1.54900 39.18800 23.45100
C  2.55600 40.26700 25.29900
N  -1.75500 34.68600 24.25800
C  -1.11600 35.47300 23.40900
C  -1.33600 35.13700 21.92900
C  -2.05800 33.74400 22.06900
C  -2.36000 33.61800 23.59600
C  -2.14000 36.24000 21.17800
C  -1.31000 32.58000 21.55200
C  0.10300 32.38300 22.15600
N  -2.79900 33.07800 26.46400
C  -3.34300 32.34400 25.47300
C  -4.27700 31.34800 25.98900
C  -4.18200 31.53100 27.39400
C  -3.35400 32.63600 27.58400
C  -4.99200 30.47800 25.12500
C  -4.62600 31.04100 28.65000
O  -5.52300 30.19700 28.88000
C  -3.87200 31.86900 29.74500
C  -4.77400 32.30600 30.82100
O  -5.51500 33.29200 30.79200
O  -4.79100 31.31000 31.73700
C  -5.78900 31.56400 32.83700
H  0.26700 37.56200 29.36800
H  0.18800 37.11200 23.04900
H  -3.37000 31.83800 23.35900
H  -2.80100 34.72700 31.52900
H  -0.09400 35.39100 31.12800
H  -2.41800 36.91500 32.30500
H  -1.92200 37.82300 30.88500
H  -0.77100 37.45200 32.08900
H  -0.34500 33.25900 31.84300
H  -1.52000 32.22800 30.90000
H  -2.41100 31.69500 32.86500
H  -2.90400 33.28300 33.19300
H  0.79500 39.33600 28.92500
H  0.99900 40.39600 27.62700
H  2.33300 39.31500 27.94800
H  3.25200 39.74100 25.95200
H  1.90900 40.99700 25.78500
H  3.06700 40.82500 24.51300
H  -0.34400 34.95700 21.51400
H  -3.00900 33.71700 21.53700
H  -2.85600 35.87100 20.44300
H  -1.57000 36.78000 20.42100
H  -2.60700 36.99000 21.81600
H  -1.33100 32.88500 20.50600
H  -1.90300 31.66500 21.57000
H  0.18800 31.30100 22.25300
H  0.17800 32.83600 23.14500
H  0.81500 32.78500 21.43500
H  -4.21500 30.06200 24.48400
H  -5.70700 31.01500 24.50200
H  -5.43800 29.64500 25.66800
H  -3.17800 31.12500 30.13500
H  -6.63600 32.02600 32.33000
H  -5.34300 32.29200 33.51600
H  -6.13300 30.65600 33.33000
Mg -5.44600 25.92400 25.39700
C  -3.70400 27.06700 28.26600
C  -7.27700 23.80200 27.41800
C  -6.80600 24.76600 22.64600
C  -3.33200 27.85700 23.41900
N  -5.50000 25.49000 27.67100
C  -4.75700 26.14800 28.65900
C  -5.38200 25.89100 30.05200
C  -6.28200 24.61200 29.74100
C  -6.35000 24.61200 28.17000
C  -5.71300 23.30200 30.37800
C  -6.12400 27.11000 30.69100
C  -5.79400 27.34400 32.15400
H  -5.41000 26.17000 33.10500
N  -6.85200 24.41900 25.08200
C  -7.48000 23.63100 26.03400
C  -8.42900 22.76000 25.40200
C  -8.35300 23.02000 23.99000
C  -7.28600 24.09500 23.81200
C  -9.19300 21.62900 26.22900
C  -9.08200 22.31100 22.84300
O  -8.99200 22.74500 21.67900
C  -9.98900 21.15300 23.21700
N  -5.04800 26.19100 23.30300
C  -5.75000 25.58800 22.38000
C  -5.43300 25.96200 20.97000
C  -4.45300 27.21100 21.20500
C  -4.26200 27.06300 22.72700
C  -4.82400 24.78900 20.15500
C  -5.17000 28.57900 20.84400
C  -5.83700 28.84700 19.48400
N  -3.76400 27.14000 25.73900
C  -3.04100 27.83800 24.85100
C  -2.08400 28.65100 25.63500
C  -2.34700 28.39800 26.93200
C  -3.34800 27.46900 26.95000
C  -0.99200 29.72000 25.13000
C  -2.02400 28.85200 28.31000
O  -1.31100 29.76300 28.64700
C  -2.85300 27.83900 29.27000
C  -1.90200 27.03500 30.10700
O  -0.84100 26.53000 29.73800
O  -2.30600 27.19800 31.40300
C  -1.46600 26.52600 32.40500
H  -8.07100 23.33300 28.00300
H  -7.37400 24.39700 21.78900
H  -2.72700 28.55300 22.83400
H  -4.60600 25.66200 30.78300
H  -7.27900 24.81100 30.13300
H  -4.74000 23.30800 30.86900
H  -5.51400 22.62500 29.54700
H  -6.42600 22.83400 31.05700
H  -7.20100 26.99100 30.57700
H  -5.87200 27.93600 30.02600
H  -6.65400 27.82300 32.62200
H  -5.01700 28.10400 32.06400
H  -10.20500 21.47900 25.85200
H  -9.17400 21.78200 27.30800
H  -8.70700 20.66400 26.09100
H  -10.33900 20.54100 22.38600
H  -10.85400 21.49900 23.78300
H  -9.43000 20.48400 23.87100
H  -6.37200 26.23200 20.48600
H  -3.51000 26.99700 20.70100
H  -4.74400 23.85500 20.71100
H  -3.88700 24.98900 19.63500
H  -5.54200 24.48800 19.39200
H  -4.43900 29.38500 20.90400
H  -5.83900 28.75900 21.68500
H  -5.87600 27.94200 18.87700
H  -5.49600 29.69400 18.88700
H  -6.84600 29.15400 19.75700
H  -1.08500 30.60400 25.76000
H  -1.11800 29.98800 24.08100
H  0.01200 29.30300 25.21500
H  -3.48400 28.42500 29.93800
H  -1.11100 25.58700 31.98000
H  -1.99700 26.27900 33.32500
H  -0.59300 27.10800 32.69900

