158

Mg 2.10500 -1.84600 44.69800
C  5.38100 -0.66600 44.38500
C  0.99000 0.92100 43.03000
C  -0.82300 -3.45600 44.16300
C  3.48200 -4.94400 45.79400
N  3.10500 -0.22500 43.72500
C  4.39400 0.15600 43.80000
C  4.54900 1.59900 43.31800
C  3.15900 2.12000 43.35100
C  2.37400 0.84500 43.31600
C  2.65400 2.91400 44.55800
C  5.35500 1.71400 41.96200
C  6.88800 2.06900 41.99100
H  7.82300 1.40500 41.08200
N  0.32200 -1.38000 43.69800
C  0.05300 -0.10600 43.11600
C  -1.23900 -0.11200 42.54700
C  -1.78700 -1.41200 42.87100
C  -0.74200 -2.15100 43.58500
C  -1.74600 1.09500 41.77600
C  -3.25200 -1.81000 42.59200
O  -3.98300 -1.14900 41.86300
C  -3.92000 -2.96400 43.27000
N  1.39300 -4.05800 44.72400
C  0.12300 -4.37400 44.65200
C  -0.09200 -5.87100 45.03200
C  1.32000 -6.36300 45.53100
C  2.11000 -5.01400 45.35300
C  -1.09500 -6.11300 46.14100
C  1.86600 -7.54100 44.73800
C  2.53700 -8.75600 45.41600
N  4.03500 -2.60400 45.26700
C  4.41800 -3.86000 45.65400
C  5.89500 -3.90300 45.86800
C  6.30700 -2.57800 45.46900
C  5.15100 -1.93500 44.98000
C  6.70500 -5.03700 46.21400
C  7.44400 -1.63800 45.28200
O  8.63800 -1.80100 45.48200
C  6.81300 -0.37400 44.72200
C  7.01000 0.74000 45.85300
O  6.15600 1.09800 46.66700
O  8.08500 1.40900 45.47500
C  8.16200 2.78500 46.05500
H  0.60900 1.86400 42.63300
H  -1.76100 -3.99700 44.02100
H  3.86900 -5.92000 46.09700
H  5.11500 2.05600 44.13000
H  3.05000 2.65100 42.40500
H  1.79400 3.51700 44.26600
H  3.43300 3.56400 44.95500
H  2.33400 2.23600 45.34900
H  4.88600 2.57300 41.48200
H  5.21500 0.74700 41.47700
H  7.30100 1.96400 42.99400
H  7.02600 3.12400 41.75200
H  -1.35400 1.01300 40.76200
H  -1.50400 2.03400 42.27400
H  -2.83200 1.07900 41.68700
H  -3.62100 -3.87000 42.74200
H  -5.00500 -2.87300 43.22700
H  -3.61100 -2.93400 44.31500
H  -0.39600 -6.39500 44.12600
H  1.29100 -6.59600 46.59500
H  -0.74800 -6.93700 46.76300
H  -2.02500 -6.47000 45.69900
H  -1.22600 -5.15600 46.64600
H  2.61100 -7.17200 44.03300
H  1.06000 -7.92700 44.11400
H  2.08400 -8.83000 46.40400
H  3.62700 -8.73300 45.43800
H  2.25600 -9.66400 44.88100
H  6.57900 -5.72100 45.37400
H  6.25500 -5.35200 47.15500
H  7.77600 -4.85600 46.30700
H  7.36000 0.02600 43.86700
H  9.20800 3.01700 45.85400
H  7.82000 3.00900 47.06600
H  7.53000 3.32800 45.35300
Mg 36.12100 49.34200 24.99800
C  36.51900 47.47600 28.04100
C  35.29200 52.09600 26.93100
C  35.57900 51.19600 22.16500
C  37.03200 46.51700 23.15900
N  35.73700 49.62300 27.28300
C  36.07900 48.81100 28.29400
C  36.01500 49.60500 29.62500
C  35.59000 51.03000 29.20000
C  35.53000 50.92800 27.68400
C  34.20000 51.46500 29.83000
C  37.37000 49.52400 30.43400
C  37.28000 48.82000 31.81100
H  35.94200 48.87000 32.51900
N  35.54300 51.39600 24.63200
C  35.27200 52.31500 25.54300
C  34.97600 53.56200 24.90100
C  35.08700 53.33600 23.51200
C  35.39200 51.89600 23.35200
C  34.68900 54.81200 25.65300
C  34.95900 54.33100 22.35400
O  35.15600 54.03200 21.15400
C  34.62700 55.86300 22.70300
N  36.12100 48.78000 23.03800
C  36.02800 49.79700 22.01400
C  36.18800 49.16300 20.57600
C  36.72700 47.73900 20.98800
C  36.66500 47.62400 22.46200
C  34.97200 49.11200 19.62000
C  37.97900 47.25700 20.30100
C  39.21300 47.84300 20.95900
N  36.70100 47.43800 25.42100
C  37.06600 46.36000 24.58100
C  37.49700 45.20400 25.35400
C  37.15400 45.56000 26.68800
C  36.79600 46.97300 26.73100
C  38.09200 43.89500 24.66000
C  37.11400 45.06000 28.11800
O  37.43600 44.01500 28.67500
C  36.77700 46.32400 29.00500
C  35.52900 46.01100 29.85400
O  34.44300 46.57600 29.69400
O  35.82900 45.13700 30.85500
C  34.70200 44.58000 31.61100
H  35.08800 52.91500 27.62300
H  35.53300 51.81800 21.26900
H  37.47100 45.78000 22.48200
H  35.25800 49.10600 30.23100
H  36.39200 51.76600 29.25500
H  34.17300 52.51300 30.12600
H  34.01100 50.96500 30.78000
H  33.29000 51.17300 29.30500
H  37.80400 50.52200 30.50100
H  38.14400 49.03000 29.84600
H  38.10900 49.15400 32.43500
H  37.38500 47.75100 31.62500
H  35.54500 55.46900 25.80100
H  34.15700 54.63300 26.58700
H  33.92500 55.43000 25.18100
H  35.40000 56.21800 23.38400
H  33.65500 55.93800 23.19100
H  34.71900 56.36600 21.74000
H  36.95000 49.71100 20.02100
H  36.00200 47.01500 20.61700
H  33.99900 49.11800 20.11200
H  35.01200 48.16500 19.08100
H  35.02300 49.90400 18.87300
H  38.07000 47.67400 19.29700
H  37.96700 46.17000 20.22900
H  39.91400 48.33100 20.28200
H  39.67400 46.91400 21.29500
H  39.04000 48.43300 21.85900
H  37.44500 43.48500 23.88400
H  38.35400 43.18700 25.44600
H  39.09700 44.11000 24.29600
H  37.68600 46.58300 29.54700
H  34.26700 43.78200 31.01000
H  33.95200 45.32800 31.86900
H  35.04100 44.27100 32.60000

