158

Mg 37.18200 50.38700 25.50000
C  37.27900 48.23300 28.53500
C  36.12600 52.83400 27.63700
C  36.53300 52.14200 22.82600
C  37.88800 47.43200 23.68700
N  36.65400 50.48200 27.79500
C  36.94500 49.55000 28.79500
C  36.85900 50.13400 30.15600
C  36.04000 51.47300 29.89500
C  36.27800 51.61300 28.34900
C  34.57300 51.35300 30.29800
C  38.11100 50.08500 30.98200
C  38.04700 49.47500 32.36100
H  36.72900 49.48000 33.22500
N  36.55800 52.27800 25.24500
C  36.12600 53.14500 26.21500
C  35.77200 54.40800 25.49900
C  35.90500 54.20700 24.12800
C  36.29300 52.88200 24.02600
C  35.40500 55.63700 26.24300
C  35.48400 55.17300 22.95800
O  35.45700 54.73500 21.77300
C  35.13000 56.60600 23.18800
N  37.06000 49.83000 23.56600
C  36.90500 50.83100 22.59200
C  37.14400 50.22100 21.23000
C  37.75100 48.82100 21.53100
C  37.58200 48.65400 22.99700
C  35.83300 50.08800 20.43800
C  39.18500 48.58900 21.05000
C  39.42800 47.22500 20.35700
N  37.56600 48.27400 25.95800
C  37.93700 47.24400 25.01600
C  38.44200 46.12400 25.81400
C  38.12600 46.41600 27.15400
C  37.63400 47.74000 27.22000
C  38.95100 44.78500 25.38300
C  38.10400 45.91600 28.55200
O  38.44900 44.83200 28.91700
C  37.57100 47.07400 29.43600
C  36.40500 46.51700 30.15700
O  35.24300 46.51400 29.74200
O  36.75000 46.07400 31.43400
C  35.60700 45.71200 32.25700
H  35.78900 53.67800 28.24400
H  36.55000 52.57700 21.82400
H  38.25800 46.61600 23.06300
H  36.15000 49.46800 30.64800
H  36.59200 52.20400 30.48600
H  34.38300 52.17500 30.98800
H  34.37200 50.39400 30.77600
H  33.90000 51.52200 29.45700
H  38.34500 51.14100 31.12000
H  38.94200 49.74300 30.36500
H  38.79700 50.03000 32.92400
H  38.36600 48.43300 32.32900
H  36.34800 56.11600 26.50600
H  34.90300 55.38000 27.17600
H  34.73800 56.34200 25.74700
H  34.17200 56.53500 23.70300
H  34.96000 56.91700 22.15800
H  35.96400 57.17600 23.59800
H  37.89800 50.82000 20.72000
H  37.15700 48.02200 21.08800
H  34.99000 50.61200 20.88700
H  35.58000 49.05200 20.21400
H  35.92500 50.57400 19.46700
H  39.74800 48.46900 21.97600
H  39.55300 49.47900 20.54000
H  40.01500 46.58600 21.01700
H  40.00100 47.37200 19.44200
H  38.49000 46.77100 20.04000
H  38.51700 43.91800 25.88100
H  40.00900 44.91600 25.61100
H  38.89500 44.47700 24.33900
H  38.35600 47.28600 30.16200
H  35.10800 44.75100 32.13400
H  34.78400 46.42600 32.21400
H  35.78400 45.54000 33.31800
Mg 17.32400 51.42600 26.62700
C  19.01000 50.02200 29.35500
C  14.82100 52.26900 28.79300
C  15.50600 52.31000 23.87200
C  19.82300 50.30900 24.53400
N  16.98900 51.31000 28.87700
C  17.84000 50.71300 29.78700
C  17.48000 51.08900 31.21500
C  15.99700 51.52400 31.02100
C  15.95500 51.76200 29.46700
C  14.97200 50.45500 31.48500
C  18.36300 52.30600 31.68700
C  18.41100 52.59400 33.23700
H  17.58700 51.78600 34.24700
N  15.44200 52.22300 26.33500
C  14.57700 52.50700 27.34800
C  13.30400 53.01100 26.77400
C  13.44500 52.97500 25.34300
C  14.87300 52.51800 25.11100
C  12.20800 53.48100 27.61700
C  12.40900 53.15300 24.32000
O  12.68800 52.89100 23.14300
C  11.07000 53.75900 24.72600
N  17.62300 51.40800 24.59600
C  16.79900 51.84400 23.63700
C  17.40500 51.76000 22.20900
C  18.86400 51.33400 22.43200
C  18.82700 51.05500 23.95000
C  16.60500 50.80000 21.29700
C  19.91400 52.43600 22.00600
C  21.32400 51.93500 21.63900
N  19.06300 50.40300 26.84300
C  20.02400 50.06500 25.87000
C  21.13200 49.38700 26.51500
C  20.73900 49.29800 27.86000
C  19.49200 49.94600 27.97600
C  22.38100 48.85900 25.87100
C  21.07400 48.84700 29.16600
O  22.06600 48.18300 29.49600
C  19.98600 49.30700 30.20900
C  19.49400 48.18800 31.13000
O  18.48900 47.52800 30.92600
O  20.26600 48.21300 32.29200
C  19.84700 47.17700 33.24700
H  14.03800 52.41800 29.53900
H  14.96900 52.58200 22.96100
H  20.65600 49.95300 23.92500
H  17.66800 50.23900 31.87000
H  15.73300 52.43500 31.55700
H  15.29500 49.80100 32.29500
H  14.55200 49.90100 30.64500
H  14.17600 51.10200 31.85200
H  17.96900 53.06400 31.00900
H  19.36400 52.00600 31.37600
H  18.26200 53.67200 33.28300
H  19.44200 52.48700 33.57400
H  11.90500 54.50900 27.41600
H  12.27600 53.31400 28.69200
H  11.31500 52.90400 27.37500
H  10.36900 53.06200 25.18500
H  10.59200 54.13500 23.82200
H  11.15700 54.61800 25.39300
H  17.32000 52.73800 21.73500
H  19.15200 50.42500 21.90400
H  16.56000 51.36300 20.36500
H  15.62900 50.62500 21.75100
H  17.20500 49.91700 21.07900
H  20.00200 53.18900 22.78900
H  19.48300 52.98300 21.16800
H  22.04000 52.25500 22.39600
H  21.76200 52.25700 20.69500
H  21.31500 50.85300 21.50800
H  22.40300 49.00200 24.79100
H  22.38900 47.80800 26.15900
H  23.29100 49.31500 26.26000
H  20.33800 50.04700 30.92800
H  20.77300 46.97600 33.78500
H  19.53400 46.26100 32.74600
H  19.03500 47.61300 33.82900

