158

Mg 26.02300 0.92800 29.15300
C  27.94600 0.97200 32.04000
C  23.17800 1.49400 31.01300
C  24.22300 0.97900 26.26100
C  28.89700 0.15800 27.26100
N  25.63500 1.19100 31.23800
C  26.54200 1.23900 32.21300
C  25.84500 1.28200 33.61700
C  24.33300 1.24300 33.32600
C  24.40400 1.36500 31.75000
C  23.42300 0.01100 33.85200
C  26.37800 2.48500 34.41100
C  26.75000 2.30900 35.83700
H  26.48100 3.47600 36.87600
N  23.99400 1.05000 28.72400
C  22.96000 1.30100 29.61000
C  21.71000 1.32900 28.86600
C  22.05500 1.31900 27.51400
C  23.49400 1.04500 27.45300
C  20.32600 1.39800 29.55600
C  21.04200 1.47700 26.31500
O  21.35800 1.42000 25.15100
C  19.59000 1.76400 26.63500
N  26.51000 0.67500 27.02200
C  25.63100 0.86700 26.02700
C  26.34800 0.68500 24.69800
C  27.84400 0.54500 25.03500
C  27.77600 0.45200 26.50300
C  25.73100 -0.51300 23.75800
C  28.75700 1.68200 24.51900
C  30.04600 1.28500 23.79400
N  28.04200 0.65600 29.51000
C  29.07600 0.25600 28.67300
C  30.22100 -0.10700 29.47800
C  29.85900 0.19500 30.79900
C  28.53100 0.66700 30.77800
C  31.54900 -0.62300 29.05400
C  30.24900 0.19200 32.16900
O  31.32900 -0.14600 32.64400
C  29.01200 0.70100 33.03700
C  28.80100 -0.34800 34.05700
O  28.11000 -1.33800 33.90300
O  29.51000 -0.03200 35.17100
C  29.40700 -0.99200 36.27200
H  22.36700 1.66300 31.72400
H  23.69000 1.18800 25.33200
H  29.79800 -0.10800 26.70400
H  26.10600 0.34200 34.10400
H  23.95200 2.23700 33.56200
H  23.97600 -0.67400 34.49400
H  23.10700 -0.64800 33.04300
H  22.47700 0.31700 34.30000
H  25.67000 3.30800 34.31200
H  27.29200 2.71700 33.86500
H  27.80900 2.10000 35.98700
H  26.27800 1.37300 36.13700
H  19.89900 2.39000 29.40800
H  20.38500 1.18500 30.62300
H  19.61700 0.68000 29.14200
H  19.58100 2.59900 27.33500
H  19.10300 0.90200 27.09000
H  19.13100 1.98400 25.67100
H  26.03100 1.62100 24.23900
H  28.19800 -0.40000 24.62200
H  26.55700 -1.04400 23.28500
H  25.03300 -0.23200 22.97000
H  25.15500 -1.10700 24.46800
H  28.97700 2.33300 25.36500
H  28.22600 2.32100 23.81300
H  30.86300 1.76100 24.33700
H  30.06000 1.55200 22.73700
H  30.23000 0.21800 23.92700
H  31.73700 -0.31200 28.02700
H  31.49100 -1.70700 29.15400
H  32.28300 -0.30500 29.79400
H  29.41100 1.59300 33.52000
H  30.24600 -0.69800 36.90400
H  29.40600 -2.03700 35.96400
H  28.52200 -0.71100 36.84300
Mg 55.87700 25.16100 45.31200
C  52.84400 26.55000 44.14100
C  54.50700 22.02000 44.62900
C  58.88300 23.88000 45.82600
C  57.00000 28.31400 46.18600
N  53.96500 24.49800 44.35500
C  52.86700 25.15500 44.06400
C  51.73700 24.25800 43.63900
C  52.13500 22.88700 44.29600
C  53.61800 23.12400 44.51900
C  51.30500 22.56200 45.66900
C  51.37100 24.26400 42.18700
C  49.84700 24.11400 42.00500
H  49.45100 22.95600 41.07400
N  56.63900 23.16100 45.15200
C  55.91300 22.03300 44.91300
C  56.71400 20.88100 45.06800
C  58.00600 21.40200 45.37500
C  57.89500 22.89900 45.53300
C  56.25000 19.53100 45.00600
C  59.24000 20.54800 45.58200
O  59.16700 19.34200 45.44800
C  60.61800 21.06200 45.88900
N  57.74000 26.03700 45.61500
C  58.80100 25.26000 45.84500
C  59.91000 26.07300 46.60800
C  59.30000 27.46600 46.55200
C  57.92400 27.29400 46.09500
C  60.24000 25.52300 48.04400
C  60.16300 28.52600 45.76800
C  59.65300 29.14900 44.39000
N  55.16100 27.17500 45.12000
C  55.68300 28.28900 45.71800
C  54.64700 29.36000 45.65100
C  53.53200 28.75200 44.95900
C  53.87200 27.41200 44.63300
C  54.85100 30.67100 46.34800
C  52.13300 28.86100 44.47700
O  51.43700 29.85500 44.50700
C  51.66700 27.49000 43.77100
C  51.40600 27.82800 42.32900
O  52.26400 27.89500 41.45500
O  50.03600 27.93400 42.09900
C  49.71000 28.11000 40.73300
H  54.05200 21.03600 44.49400
H  59.90100 23.50900 45.96700
H  57.32700 29.25600 46.63100
H  50.90300 24.63100 44.23300
H  51.96300 22.03100 43.64300
H  50.88000 23.48300 46.06800
H  52.12300 22.41400 46.37500
H  50.62900 21.71100 45.59200
H  51.74800 23.37300 41.68700
H  51.73000 25.13700 41.64100
H  49.30800 25.03900 41.80200
H  49.42300 23.72900 42.93300
H  55.17500 19.35300 44.96200
H  56.53800 19.08200 45.95700
H  56.83200 19.16000 44.16200
H  60.73700 21.86000 45.15600
H  61.33100 20.24400 45.78500
H  60.62000 21.43400 46.91300
H  60.80700 25.94200 46.00500
H  59.23200 27.80400 47.58600
H  61.21700 25.06300 48.19100
H  59.47800 24.77300 48.25600
H  60.23200 26.24200 48.86400
H  61.16500 28.16700 45.53100
H  60.31900 29.34700 46.46800
H  60.50600 28.82000 43.79700
H  59.41800 30.21400 44.38800
H  58.79400 28.61400 43.98600
H  54.89300 30.41600 47.40700
H  54.00200 31.34800 46.25200
H  55.70000 31.16000 45.87200
H  50.74900 27.29200 44.32400
H  50.43500 28.52900 40.03500
H  48.77500 28.67100 40.71200
H  49.35400 27.19800 40.25400

