158

Mg 49.80200 45.24300 43.28700
C  46.48400 45.57800 42.32400
C  49.64900 42.00000 42.26000
C  53.04900 45.12500 44.01200
C  49.79600 48.77800 43.81700
N  48.16800 43.93000 42.50000
C  46.89200 44.24700 42.19200
C  46.09400 43.02700 41.62700
C  47.11600 41.91300 41.89400
C  48.40400 42.62600 42.20500
C  46.64000 40.92900 42.95100
C  45.73500 43.28900 40.09100
C  47.06300 43.52000 39.23800
H  47.17900 42.87100 37.87300
N  51.21700 43.78800 43.13800
C  50.95700 42.51700 42.68400
C  52.20700 41.77600 42.61500
C  53.21600 42.67900 43.11400
C  52.53700 43.96700 43.49900
C  52.24300 40.21500 42.32400
C  54.67000 42.30800 43.23200
O  55.06500 41.24100 42.79900
C  55.65500 43.23100 43.82200
N  51.23300 46.76200 43.76000
C  52.51500 46.37800 44.17200
C  53.35400 47.63300 44.36000
C  52.32000 48.85300 44.31400
C  51.00600 48.08300 43.95000
C  54.33900 47.71400 45.54700
C  52.69400 49.86300 43.18500
C  52.69900 51.32000 43.55700
N  48.42000 46.85100 43.35500
C  48.56200 48.25200 43.50500
C  47.35000 48.95400 43.25900
C  46.50200 47.91400 42.83500
C  47.24100 46.68500 42.83000
C  47.12700 50.45000 43.36700
C  45.19200 47.73700 42.23300
O  44.32900 48.51000 41.95200
C  45.13300 46.24100 41.88200
C  43.91500 45.67700 42.46700
O  42.75600 45.74400 42.06600
O  44.28500 45.00100 43.61800
C  43.22000 44.29900 44.36400
H  49.79400 40.96700 41.93500
H  54.11500 45.20000 44.23800
H  49.84200 49.86000 43.95500
H  45.15600 42.92900 42.17300
H  47.20000 41.31600 40.98600
H  47.30700 40.94300 43.81300
H  46.59600 39.93800 42.50000
H  45.67400 41.22800 43.35900
H  45.05900 44.14400 40.12400
H  45.39700 42.34300 39.66700
H  47.98200 43.32500 39.79100
H  46.95500 44.58600 39.03900
H  51.70200 39.96900 41.41000
H  51.82200 39.72300 43.20100
H  53.20300 39.70900 42.22100
H  55.76900 44.10600 43.18000
H  56.59800 42.68600 43.77100
H  55.32700 43.41400 44.84500
H  53.88800 47.60000 43.41000
H  52.22700 49.39100 45.25700
H  54.34300 46.93000 46.30400
H  54.31200 48.57200 46.21800
H  55.31700 47.58200 45.08300
H  52.13700 49.75100 42.25500
H  53.73400 49.69000 42.91000
H  53.62500 51.78900 43.22600
H  52.41800 51.49600 44.59600
H  51.87300 51.77200 43.00900
H  46.16000 50.70500 42.93500
H  47.92500 51.08200 42.97800
H  46.98200 50.69000 44.42000
H  44.91100 46.31300 40.81800
H  42.46300 43.83700 43.72900
H  42.72900 45.11900 44.88800
H  43.61700 43.60600 45.10500
Mg 43.10400 42.14200 26.97900
C  41.77900 44.37500 29.26100
C  44.41200 40.25900 29.39200
C  44.16100 40.03900 24.50000
C  42.11900 44.42300 24.32900
N  43.15300 42.36900 29.07900
C  42.34700 43.22500 29.82500
C  42.46800 42.90300 31.31800
C  43.59200 41.82700 31.33500
C  43.72000 41.39600 29.83500
C  44.89000 42.30000 32.01500
C  41.10500 42.47400 31.91400
C  40.70000 42.84500 33.37600
H  41.74000 43.33000 34.32900
N  44.11400 40.39100 26.95700
C  44.61700 39.74600 28.08000
C  45.22400 38.53900 27.65500
C  44.92500 38.33300 26.30100
C  44.45400 39.63600 25.82800
C  45.83400 37.56800 28.61800
C  45.17400 37.11800 25.37700
O  44.99400 37.15900 24.14300
C  45.57400 35.86900 26.00400
N  43.18000 42.24500 24.70400
C  43.59200 41.20000 24.00300
C  43.47600 41.38300 22.48400
C  42.80500 42.83000 22.42900
C  42.68600 43.20800 23.91600
C  44.78900 41.26300 21.66400
C  41.38400 42.74000 21.72400
C  40.33500 41.77100 22.21800
N  42.16400 43.94500 26.77000
C  41.89800 44.84500 25.69600
C  41.24600 46.05600 26.16300
C  41.19100 45.84500 27.56600
C  41.74400 44.57200 27.86500
C  40.75800 47.20600 25.30400
C  40.75600 46.49800 28.78900
O  40.27500 47.59600 28.91100
C  41.03100 45.54900 29.90200
C  41.80500 46.24000 30.92900
O  42.92700 46.71000 30.80300
O  40.95500 46.45200 31.93800
C  41.44800 47.24600 33.03800
H  44.80800 39.68300 30.23100
H  44.32400 39.32700 23.68900
H  41.78900 45.05400 23.50100
H  42.78100 43.78600 31.87500
H  43.27700 40.94200 31.88700
H  45.09000 41.72300 32.91900
H  44.81900 43.36700 32.22500
H  45.67400 42.13500 31.27700
H  41.01400 41.38900 31.87500
H  40.37300 42.80000 31.17500
H  40.31900 41.92900 33.82700
H  39.96300 43.64300 33.28800
H  45.73200 37.92000 29.64400
H  46.88300 37.44000 28.34800
H  45.36700 36.58700 28.53100
H  45.64900 35.04100 25.29900
H  44.82000 35.60200 26.74400
H  46.60600 35.87300 26.35600
H  42.77300 40.70800 21.99400
H  43.49400 43.49600 21.91000
H  44.82000 41.97900 20.84300
H  44.87900 40.23300 21.31600
H  45.73600 41.39000 22.18800
H  41.64200 42.56900 20.67900
H  40.89200 43.71000 21.65200
H  40.80500 41.28800 23.07500
H  40.10000 41.11300 21.38200
H  39.44800 42.32500 22.52500
H  40.22200 46.97400 24.38300
H  41.61700 47.84500 25.10100
H  40.12900 47.75200 26.00800
H  40.09600 45.11900 30.26100
H  41.94300 46.67000 33.81900
H  40.63900 47.85500 33.44200
H  42.12100 48.04700 32.73000

