158

Mg 39.73300 9.68900 30.47400
C  41.78500 10.90800 33.02200
C  37.52900 8.93500 32.99100
C  37.94100 8.20900 28.17300
C  42.30800 10.25200 28.18900
N  39.72600 9.88200 32.83000
C  40.65000 10.50600 33.61400
C  40.11200 10.76400 35.06300
C  38.73900 9.92300 35.02600
C  38.67400 9.49500 33.55800
C  38.54800 8.63800 35.97800
C  39.86000 12.19000 35.57900
C  40.57900 12.62400 36.93000
H  39.64800 13.16700 38.02400
N  37.94400 8.74200 30.56400
C  37.18200 8.44800 31.73800
C  36.00500 7.69200 31.32400
C  36.05400 7.62000 29.90000
C  37.31500 8.19500 29.46100
C  34.92800 7.22500 32.30100
C  35.01200 7.02400 28.90400
O  35.06000 7.09500 27.69100
C  33.69100 6.48500 29.48700
N  40.08500 9.14300 28.47000
C  39.12100 8.71100 27.64200
C  39.45900 8.74500 26.13900
C  40.95200 9.30000 26.27000
C  41.08900 9.70000 27.72300
C  39.35100 7.33300 25.50500
C  41.23400 10.40400 25.15600
C  40.61400 11.81500 25.50400
N  41.60700 10.46800 30.54500
C  42.55900 10.60800 29.54100
C  43.74500 11.30500 30.00500
C  43.43800 11.45300 31.37400
C  42.14400 10.84600 31.64900
C  44.82300 11.89600 29.25500
C  43.94500 12.14100 32.63400
O  44.99900 12.72200 32.90800
C  42.83100 11.75100 33.73400
C  43.46300 10.83800 34.81100
O  43.98600 9.78400 34.57000
O  43.53400 11.36700 36.06900
C  44.39800 10.60200 36.99100
H  36.91600 8.60900 33.83400
H  37.31000 7.78700 27.38700
H  42.94300 10.64800 27.39400
H  40.74500 10.21900 35.76300
H  37.87000 10.57000 35.14600
H  38.22300 7.68300 35.56500
H  37.80100 8.91400 36.72200
H  39.43700 8.43400 36.57600
H  38.82600 12.53000 35.63600
H  40.21600 12.66600 34.66500
H  41.30800 13.37800 36.63300
H  40.98700 11.71100 37.36400
H  34.71200 6.16800 32.15100
H  33.96700 7.73400 32.21400
H  35.26700 7.33800 33.33100
H  33.25600 6.10900 28.56000
H  33.18700 7.30500 29.99800
H  33.82200 5.65000 30.17600
H  38.85400 9.52300 25.67200
H  41.72600 8.56500 26.04500
H  38.98600 6.68100 26.29900
H  40.27600 6.92400 25.09900
H  38.59600 7.35200 24.72000
H  40.74500 10.09200 24.23400
H  42.29000 10.47500 24.89300
H  40.12400 12.15100 24.59100
H  41.41800 12.53100 25.67400
H  39.83600 11.83200 26.26700
H  44.67200 12.90100 28.85900
H  45.10900 11.24100 28.43300
H  45.61900 11.78400 29.99100
H  42.46000 12.69300 34.13700
H  44.06500 9.61000 37.29800
H  44.79900 11.15400 37.84100
H  45.31400 10.36500 36.45000
Mg -10.77500 37.27200 42.01800
C  -8.51500 34.73500 41.47300
C  -8.89500 39.45200 40.13800
C  -13.25800 39.46000 42.31400
C  -12.83800 34.86500 43.54600
N  -9.00900 37.01900 40.81600
C  -8.23800 35.87300 40.66400
C  -6.93700 36.16000 39.94500
C  -7.06600 37.70400 39.61800
C  -8.44700 38.10800 40.20300
C  -5.90700 38.58700 40.12100
C  -6.72700 35.14400 38.78900
C  -5.25000 34.84200 38.66600
H  -4.36200 35.33200 37.52800
N  -11.06300 39.25200 41.29400
C  -10.15400 39.92300 40.56600
C  -10.67900 41.25100 40.40600
C  -11.91700 41.34200 41.08900
C  -12.12800 39.99900 41.60000
C  -9.99000 42.40000 39.77400
C  -12.66400 42.57300 41.37900
O  -12.23000 43.61300 40.95000
C  -13.92900 42.59000 42.09100
N  -12.87200 37.12700 42.60100
C  -13.69100 38.20200 42.72700
C  -15.01700 37.92400 43.37300
C  -14.88900 36.38900 43.60900
C  -13.40400 36.09900 43.21600
C  -15.24800 38.74000 44.63900
C  -15.96900 35.47700 42.83100
C  -16.86000 34.50300 43.65000
N  -10.73000 35.21500 42.51000
C  -11.57600 34.39800 43.25100
C  -10.94100 33.09800 43.54800
C  -9.75300 33.21700 42.77300
C  -9.65000 34.50800 42.29800
C  -11.54500 31.93900 44.25600
C  -8.45700 32.56100 42.45800
O  -7.98200 31.52500 42.84300
C  -7.65400 33.49500 41.60500
C  -6.25300 33.60000 42.09400
O  -5.33600 32.78400 41.88700
O  -6.17900 34.78800 42.86600
C  -4.79400 35.04800 43.33600
H  -8.40000 40.12100 39.43000
H  -14.06100 40.19500 42.39700
H  -13.39500 34.07300 44.05200
H  -6.12000 36.01100 40.65000
H  -7.16000 37.83500 38.54000
H  -5.36300 39.04700 39.29600
H  -5.13200 38.01400 40.63000
H  -6.43800 39.23400 40.82000
H  -7.08400 35.58600 37.85900
H  -7.39400 34.28400 38.84800
H  -5.21700 33.75500 38.58700
H  -4.70600 35.24000 39.52300
H  -8.98600 42.20000 39.39800
H  -9.72100 43.04500 40.61000
H  -10.58700 43.01800 39.10400
H  -14.29700 43.61600 42.10700
H  -13.75300 42.30400 43.12800
H  -14.64100 41.93100 41.59400
H  -15.86200 38.12800 42.71500
H  -14.94500 36.06500 44.64800
H  -14.35600 39.19900 45.06500
H  -15.90400 38.13400 45.26400
H  -15.89000 39.59400 44.42500
H  -15.51100 34.79400 42.11600
H  -16.65900 36.15800 42.33300
H  -17.87900 34.87800 43.54900
H  -16.55200 34.49400 44.69500
H  -16.76700 33.48700 43.26500
H  -12.45100 32.24900 44.77800
H  -10.87300 31.50500 44.99500
H  -11.83600 31.17000 43.54000
H  -7.61400 32.83700 40.73600
H  -4.79800 35.91100 44.00100
H  -4.21400 35.15600 42.41900
H  -4.51200 34.30200 44.07900

