158

Mg -0.99200 34.05000 27.01000
C  -2.66600 32.45800 29.72700
C  0.36900 36.26200 29.21500
C  0.27800 35.79100 24.32600
C  -2.77500 32.05400 24.81500
N  -1.22600 34.38000 29.14500
C  -1.87000 33.57200 30.07900
C  -1.40800 33.93100 31.49500
C  -0.60500 35.29000 31.31000
C  -0.45600 35.32200 29.79800
C  -1.28300 36.50100 31.95600
C  -0.76600 32.80100 32.39600
C  -0.62800 33.11300 33.86000
H  -1.65200 32.39600 34.76300
N  0.28800 35.60400 26.84000
C  0.71600 36.43700 27.85000
C  1.60900 37.43000 27.34400
C  1.52600 37.38800 25.93100
C  0.69900 36.19700 25.64200
C  2.45600 38.37000 28.32700
C  2.23400 38.27900 24.88600
O  2.09100 38.14200 23.63800
C  3.23600 39.30100 25.41600
N  -1.17500 33.97200 24.87600
C  -0.60400 34.77600 23.96200
C  -0.93700 34.37100 22.56500
C  -1.47500 32.85800 22.75200
C  -1.87600 32.93800 24.25500
C  -1.92500 35.32900 21.84700
C  -0.51700 31.67500 22.39900
C  0.43600 30.98400 23.46600
N  -2.52300 32.66400 27.13600
C  -3.17600 31.96000 26.19800
C  -4.06800 31.02000 26.81400
C  -3.90300 31.23400 28.19600
C  -2.95900 32.19200 28.39600
C  -4.90900 29.93200 26.16900
C  -4.40700 30.76100 29.49700
O  -5.30000 30.00000 29.76500
C  -3.53400 31.55200 30.50800
C  -4.51600 32.25700 31.45800
O  -5.21300 33.17600 31.17600
O  -4.58300 31.63200 32.67600
C  -5.45900 32.26300 33.65600
H  1.00000 36.76400 29.95100
H  0.55700 36.34200 23.42500
H  -3.21700 31.27500 24.19000
H  -2.30000 34.19600 32.06400
H  0.31200 35.11600 31.87200
H  -2.30800 36.38600 32.30900
H  -1.38100 37.26000 31.17900
H  -0.63100 37.01700 32.66100
H  0.27600 32.70400 32.09000
H  -1.37700 31.90900 32.25700
H  -0.87800 34.15800 34.04200
H  0.33200 32.99500 34.36300
H  2.31900 38.21600 29.39700
H  2.09100 39.38000 28.14000
H  3.52600 38.29900 28.13400
H  3.63000 39.89400 24.59000
H  4.04200 38.75500 25.90500
H  2.67300 39.84800 26.17300
H  0.05200 34.37100 22.10800
H  -2.41500 32.75200 22.21000
H  -2.69500 34.77300 21.31200
H  -1.35900 35.92700 21.13300
H  -2.37500 35.93300 22.63500
H  0.15600 32.14100 21.67800
H  -1.14100 30.95500 21.86900
H  0.23200 31.40800 24.44900
H  1.50700 31.01100 23.26600
H  0.10300 29.94900 23.54000
H  -4.93800 29.93500 25.08000
H  -5.96100 30.02900 26.43600
H  -4.63400 28.96600 26.59400
H  -2.89800 30.85400 31.05200
H  -5.01200 32.05500 34.62800
H  -6.49300 31.92400 33.60300
H  -5.44500 33.34200 33.49800
Mg -12.64400 17.00100 42.32200
C  -9.72700 15.14200 41.83600
C  -10.95800 19.62900 40.98900
C  -15.65900 18.62700 41.88600
C  -14.27700 13.99400 43.08300
N  -10.60400 17.22700 41.26400
C  -9.60600 16.36800 41.26400
C  -8.28900 17.06000 40.71800
C  -8.62300 18.60700 40.80400
C  -10.11900 18.49300 40.99800
C  -7.88000 19.42300 41.85400
C  -7.85800 16.54500 39.32700
C  -6.47900 15.86900 39.41400
H  -6.02500 14.82200 38.40200
N  -13.23900 18.87100 41.75500
C  -12.32300 19.83000 41.26000
C  -13.07900 20.98200 40.97700
C  -14.47600 20.72300 41.15500
C  -14.53500 19.37000 41.64500
C  -12.41300 22.25500 40.41900
C  -15.55900 21.72800 40.76900
O  -15.32300 22.83700 40.44600
C  -17.03400 21.43100 41.01700
N  -14.71400 16.38500 42.25200
C  -15.73100 17.23500 42.21300
C  -17.01900 16.51500 42.59800
C  -16.53700 15.13700 43.12400
C  -15.05800 15.12900 42.81400
C  -17.95000 17.34300 43.50000
C  -17.32800 13.86500 42.60800
C  -17.91100 12.80800 43.65900
N  -12.18000 14.96600 42.46400
C  -12.84500 13.84500 42.91300
C  -12.03500 12.72400 43.13500
C  -10.78400 13.14400 42.72600
C  -10.89700 14.51500 42.30400
C  -12.50600 11.41000 43.61500
C  -9.48800 12.71500 42.57900
O  -9.03200 11.60300 42.79600
C  -8.63900 14.03100 41.99600
C  -7.60400 14.40800 42.99500
O  -7.85700 14.70600 44.18700
O  -6.37500 14.23800 42.49000
C  -5.28700 14.66300 43.41400
H  -10.48700 20.51100 40.54900
H  -16.64200 19.10100 41.91000
H  -14.86300 13.16600 43.48700
H  -7.43500 16.87200 41.36900
H  -8.31500 19.06400 39.86400
H  -7.27300 18.75600 42.46600
H  -8.50500 19.96100 42.56700
H  -7.23100 20.16400 41.38800
H  -7.83300 17.31300 38.55400
H  -8.68000 15.91600 38.98400
H  -6.26200 15.37900 40.36300
H  -5.83800 16.74900 39.36800
H  -13.05100 23.12900 40.54600
H  -11.90600 22.16900 39.45800
H  -11.55000 22.34100 41.07800
H  -17.17200 21.30600 42.09100
H  -17.23400 20.50000 40.48600
H  -17.72800 22.17900 40.63200
H  -17.64300 16.22200 41.75500
H  -16.49000 14.97900 44.20200
H  -17.41200 18.19300 43.92000
H  -18.41700 16.70200 44.24700
H  -18.65500 17.81500 42.81500
H  -16.60800 13.34300 41.97800
H  -18.11100 14.17600 41.91800
H  -17.91700 13.13100 44.70000
H  -17.28900 11.94300 43.43100
H  -18.92800 12.54600 43.36600
H  -13.18400 11.57700 44.45200
H  -11.56100 10.97700 43.94300
H  -12.95200 10.84000 42.79900
H  -8.21100 13.84600 41.01100
H  -4.35100 14.14100 43.21400
H  -5.44400 14.37500 44.45300
H  -5.18600 15.74800 43.42100

