158

Mg 45.36400 4.76800 48.28600
C  43.25300 7.57400 48.17400
C  42.68900 2.83100 47.33700
C  47.47500 2.23600 48.01600
C  48.04900 7.02000 48.39600
N  43.25900 5.17400 47.83100
C  42.57700 6.34400 47.96100
C  41.15000 6.28800 47.47300
C  40.89100 4.73300 47.50300
C  42.37300 4.22900 47.49500
C  39.96200 4.30600 48.60300
C  41.09100 7.11100 46.07400
C  39.71000 7.71600 45.78800
H  39.00100 7.27700 44.47400
N  45.08600 2.73900 47.87500
C  43.90600 2.11900 47.52000
C  44.10000 0.71900 47.45400
C  45.50400 0.48900 47.75600
C  46.11400 1.86700 47.86400
C  42.96700 -0.28800 47.16100
C  46.14000 -0.91500 47.91800
O  45.56300 -1.90800 47.46500
C  47.31100 -1.14900 48.67000
N  47.47800 4.64100 48.01600
C  48.10900 3.47400 48.06600
C  49.62000 3.69000 48.17100
C  49.75900 5.25400 48.17700
C  48.34800 5.68500 48.21100
C  50.32600 3.01000 49.28800
C  50.51400 5.81100 46.92000
C  51.68900 6.68400 47.37300
N  45.67000 6.79900 48.41300
C  46.79700 7.60600 48.43100
C  46.46500 8.96500 48.45100
C  45.09900 8.99700 48.47100
C  44.65600 7.70600 48.33300
C  47.34600 10.12100 48.32900
C  43.95600 9.86200 48.49200
O  43.98200 11.04400 48.51200
C  42.69600 9.03400 48.17500
C  41.61800 9.26600 49.23700
O  41.50500 8.55000 50.21100
O  40.79700 10.30800 48.89100
C  39.96500 10.76000 49.96300
H  41.75000 2.33200 47.09000
H  48.17700 1.41000 47.88300
H  48.92800 7.64700 48.56300
H  40.58200 6.78400 48.26000
H  40.43900 4.33000 46.59700
H  39.61700 5.18600 49.14500
H  40.41900 3.68600 49.37400
H  39.15500 3.69900 48.19200
H  41.17100 6.30700 45.34200
H  41.85100 7.85800 45.84300
H  39.86700 8.78700 45.66000
H  39.06900 7.48900 46.63900
H  42.52600 -0.53200 48.12700
H  43.30700 -1.13400 46.56300
H  42.22400 0.27200 46.59300
H  47.21600 -1.88000 49.47300
H  47.62800 -0.31300 49.29400
H  48.10900 -1.37000 47.96100
H  49.96700 3.17300 47.27600
H  50.26200 5.50600 49.11000
H  50.65000 2.05500 48.87500
H  49.73900 2.83400 50.18900
H  51.23600 3.53900 49.57300
H  49.75800 6.41000 46.41300
H  50.86800 4.96200 46.33600
H  51.99900 6.32200 48.35300
H  51.36800 7.72400 47.43600
H  52.47200 6.55000 46.62600
H  46.77200 10.89400 47.81800
H  48.23100 9.93200 47.72100
H  47.75500 10.37800 49.30600
H  42.25800 9.23300 47.19600
H  39.36100 11.61000 49.64600
H  40.67300 11.25300 50.63000
H  39.40100 9.94800 50.42200
Mg 30.73100 58.52600 39.37800
C  28.06000 56.46300 38.50600
C  32.87200 55.89900 38.60200
C  33.30300 60.78800 39.43200
C  28.46800 61.30700 39.51200
N  30.50000 56.50200 38.60200
C  29.34600 55.90200 38.31200
C  29.46700 54.45200 37.76100
C  31.02400 54.15600 38.11400
C  31.52400 55.55300 38.51700
C  31.23500 53.19100 39.39200
C  29.18600 54.44600 36.21100
C  29.46000 55.76400 35.37600
H  28.37500 56.27200 34.38900
N  32.82500 58.35400 38.98600
C  33.50600 57.13900 38.67900
C  34.86100 57.44800 38.59100
C  35.04500 58.88900 38.88500
C  33.72800 59.43000 39.09300
C  35.96000 56.39500 38.39100
C  36.38600 59.51600 38.99700
O  37.46400 58.94100 38.79200
C  36.46100 61.02500 39.15300
N  30.81900 60.68800 39.43700
C  32.04200 61.34400 39.53400
C  31.89500 62.80100 39.80900
C  30.33100 62.96600 39.89200
C  29.79200 61.63700 39.53400
C  32.65500 63.29400 41.20400
C  29.71500 64.10900 39.03200
C  28.48500 64.75300 39.61100
N  28.63500 58.86200 39.11600
C  27.90300 60.05100 39.22900
C  26.49100 59.65200 39.03400
C  26.54200 58.26500 38.69200
C  27.84200 57.83600 38.87100
C  25.22900 60.52500 38.99400
C  25.74700 57.06900 38.27500
O  24.51400 56.96300 38.15700
C  26.65000 55.86400 38.24900
C  26.11300 54.89300 39.30500
O  26.26300 55.05200 40.48900
O  25.25000 54.03000 38.78600
C  24.35100 53.28100 39.70100
H  33.49000 55.06400 38.26600
H  34.05000 61.57900 39.51400
H  27.68900 62.07200 39.51500
H  28.72500 53.82400 38.25400
H  31.61300 53.73500 37.30000
H  31.71000 52.32100 38.93900
H  30.29700 52.72600 39.69500
H  31.68400 53.53300 40.32400
H  28.15300 54.10200 36.15100
H  29.86500 53.68400 35.82800
H  30.33100 55.54700 34.75800
H  29.70900 56.61600 36.00900
H  35.64300 55.46700 37.91600
H  36.43100 56.30600 39.37000
H  36.65500 56.78200 37.64500
H  35.85600 61.25300 40.03100
H  36.15700 61.53900 38.24100
H  37.49300 61.35100 39.27600
H  32.31300 63.31600 38.94400
H  29.99700 63.17400 40.90800
H  32.90300 62.45500 41.85400
H  32.08500 63.96200 41.85000
H  33.60800 63.75600 40.94400
H  29.49100 63.79000 38.01400
H  30.40500 64.95100 38.98600
H  27.82200 64.91700 38.76200
H  28.81900 65.67200 40.09300
H  28.04000 64.03900 40.30300
H  25.19700 60.91100 40.01300
H  24.35900 59.93700 38.70400
H  25.38000 61.38300 38.33800
H  26.58100 55.36500 37.28200
H  24.86200 53.13900 40.65300
H  24.12900 52.32500 39.22600
H  23.36100 53.73500 39.73800

