158

Mg 15.98800 -2.08400 28.68400
C  14.84500 0.06200 31.20900
C  18.08700 -3.52300 31.16700
C  17.81500 -3.60700 26.33200
C  14.20400 -0.25300 26.32000
N  16.43000 -1.69900 30.79500
C  15.81800 -0.82100 31.63300
C  16.23600 -1.01900 33.07100
C  17.38800 -1.94500 32.98400
C  17.29100 -2.46400 31.57400
C  18.85600 -1.37400 33.41000
C  15.08800 -1.37800 33.99400
C  15.06900 -0.81800 35.46100
H  16.34600 -0.12700 36.00300
N  17.65500 -3.48500 28.78100
C  18.33900 -3.94400 29.81400
C  19.33000 -4.97000 29.46000
C  19.15600 -5.12100 28.00000
C  18.21200 -4.05000 27.65000
C  20.17400 -5.71500 30.43600
C  19.88000 -6.13900 27.07000
O  19.60700 -6.02900 25.91500
C  20.92700 -7.10200 27.54400
N  15.96000 -1.98900 26.71000
C  16.83400 -2.72100 25.90200
C  16.63300 -2.36500 24.36000
C  15.40000 -1.40600 24.38900
C  15.14700 -1.23800 25.93000
C  17.90600 -1.81400 23.68900
C  14.18800 -1.98100 23.58700
C  13.49800 -0.93400 22.68600
N  14.62100 -0.51100 28.66200
C  13.95300 0.13700 27.66400
C  13.19600 1.24800 28.20800
C  13.44800 1.20400 29.60800
C  14.37100 0.18200 29.83900
C  12.39900 2.20300 27.41000
C  13.13200 1.85800 30.93400
O  12.36300 2.77700 31.17200
C  14.05400 1.13700 32.03400
C  14.86400 2.18000 32.78600
O  16.03200 2.42500 32.61200
O  14.04800 2.76400 33.72100
C  14.68300 3.86900 34.51700
H  18.69700 -3.94100 31.97100
H  18.28700 -4.10700 25.48300
H  13.72800 0.32200 25.52300
H  16.55700 -0.03300 33.40900
H  17.31600 -2.80000 33.65500
H  19.05500 -1.90500 34.34100
H  18.71300 -0.32500 33.67000
H  19.60700 -1.45600 32.62500
H  14.89200 -2.45000 33.97300
H  14.15000 -0.97600 33.61200
H  14.88700 -1.62600 36.16900
H  14.16900 -0.23000 35.64000
H  21.11500 -6.00700 29.96900
H  19.65100 -6.63100 30.70800
H  20.41000 -5.12500 31.32100
H  20.52500 -7.86000 28.21500
H  21.74600 -6.58000 28.03900
H  21.34000 -7.64800 26.69600
H  16.32900 -3.30700 23.90400
H  15.78400 -0.44000 24.06100
H  18.63100 -1.49300 24.43600
H  17.59900 -1.07000 22.95300
H  18.34300 -2.65600 23.15200
H  13.42100 -2.43400 24.21600
H  14.44200 -2.87600 23.01900
H  13.41300 -1.44000 21.72500
H  14.18700 -0.09100 22.62700
H  12.57300 -0.58600 23.14700
H  11.66500 1.74500 26.74800
H  13.00500 2.79700 26.72600
H  11.86600 2.72300 28.20600
H  13.29200 0.79200 32.73300
H  15.19200 4.55900 33.84500
H  15.35800 3.50600 35.29200
H  13.88200 4.35500 35.07500
Mg 41.96700 41.91100 27.76100
C  40.52200 44.39300 29.97300
C  42.82100 40.07400 30.52100
C  43.75000 39.96900 25.71800
C  42.11800 44.50300 25.41000
N  41.75300 42.30900 29.92000
C  40.91900 43.20100 30.58200
C  40.74800 42.79700 32.05100
C  41.63000 41.58200 32.24700
C  42.12900 41.30600 30.78900
C  42.71100 41.86500 33.33800
C  39.26600 42.68600 32.61600
C  38.98700 43.30800 33.99800
H  38.75000 42.37700 35.16300
N  43.07600 40.14900 27.97800
C  43.18300 39.51300 29.24000
C  43.88600 38.24100 28.98100
C  44.15800 38.19100 27.53400
C  43.69400 39.43400 27.00500
C  44.17400 37.16700 30.06700
C  44.79200 37.15400 26.68800
O  44.86400 37.27100 25.45100
C  45.35800 35.94800 27.34100
N  42.88300 42.20400 25.91000
C  43.37200 41.18700 25.21400
C  43.56100 41.62700 23.71100
C  42.93400 42.95400 23.62600
C  42.64200 43.26000 25.05700
C  45.06000 41.61500 23.18900
C  41.65400 42.98000 22.68100
C  40.23500 42.69600 23.33100
N  41.32100 44.03800 27.57200
C  41.45500 44.96800 26.52800
C  40.96700 46.27400 26.87100
C  40.56600 46.10100 28.22800
C  40.80200 44.72600 28.60000
C  40.91800 47.48300 25.97400
C  40.09700 46.75200 29.42900
O  39.86100 47.95900 29.61800
C  40.03800 45.71800 30.59700
C  40.90400 46.24400 31.68000
O  42.11100 46.51800 31.55000
O  40.08300 46.59500 32.84400
C  40.87900 47.35000 33.90700
H  42.97100 39.49100 31.43200
H  44.00300 39.31900 24.87700
H  42.03900 45.21600 24.58700
H  41.17200 43.67200 32.54400
H  40.99300 40.77800 32.61400
H  42.14800 41.95500 34.26700
H  43.17500 42.84300 33.21800
H  43.51600 41.13000 33.32200
H  38.95100 41.64400 32.67700
H  38.57600 43.13100 31.89900
H  38.09500 43.89700 33.78300
H  39.84900 43.92800 34.24400
H  45.23400 36.91700 30.02800
H  43.68800 36.21800 29.84300
H  44.00600 37.43600 31.11000
H  44.67700 35.36100 27.95800
H  46.12400 36.40300 27.96800
H  45.80300 35.25700 26.62500
H  42.94100 40.91900 23.16000
H  43.67700 43.68800 23.31400
H  45.32000 42.45000 22.53900
H  45.16800 40.71200 22.58700
H  45.81900 41.53800 23.96800
H  41.82000 42.56500 21.68700
H  41.46600 44.01400 22.39200
H  40.36100 42.37100 24.36300
H  39.75400 41.95400 22.69400
H  39.50100 43.50100 23.29400
H  40.43000 47.39300 25.00300
H  41.93800 47.79900 25.75500
H  40.47300 48.28500 26.56300
H  38.98800 45.64100 30.88100
H  41.27500 48.32700 33.62900
H  41.60600 46.71900 34.41800
H  40.20100 47.66000 34.70300

