158

Mg 41.80000 8.86200 29.64500
C  43.62300 10.02800 32.39200
C  39.52800 7.40000 31.76500
C  40.08700 7.82200 27.03700
C  44.19700 10.26900 27.55700
N  41.60500 8.66300 31.84600
C  42.43000 9.31500 32.76600
C  41.94500 8.93800 34.21000
C  40.81300 7.95000 33.94600
C  40.64000 7.94400 32.40400
C  41.13100 6.45200 34.45400
C  41.51300 10.32600 34.93100
C  40.91400 10.11900 36.36000
H  41.15300 11.32900 37.31000
N  40.05100 7.68400 29.37100
C  39.23700 7.25200 30.38000
C  38.12300 6.54800 29.80500
C  38.19900 6.76400 28.37200
C  39.49500 7.39600 28.21900
C  37.07000 5.80100 30.56600
C  37.16000 6.31700 27.30200
O  37.44800 6.39600 26.11600
C  35.71700 5.70200 27.65400
N  42.12700 9.05900 27.51800
C  41.22300 8.54100 26.64200
C  41.78600 8.67100 25.18100
C  42.90900 9.71600 25.37700
C  43.08100 9.82400 26.92200
C  42.33500 7.37100 24.63300
C  42.61100 11.10400 24.69000
C  41.33200 11.77600 25.03400
N  43.58700 9.92100 29.87200
C  44.48100 10.45200 28.89600
C  45.56200 11.20800 29.56000
C  45.26700 10.93700 30.93400
C  44.11200 10.17200 31.10200
C  46.72900 11.96600 29.00300
C  45.79300 11.19700 32.30700
O  46.84400 11.74100 32.73600
C  44.62800 10.68100 33.28200
C  45.27300 9.66500 34.15800
O  45.97400 8.70700 33.81700
O  44.79700 9.84100 35.50100
C  45.20000 8.87600 36.50700
H  38.89400 6.98700 32.55300
H  39.51900 7.47000 26.17300
H  44.97500 10.64800 26.89100
H  42.70600 8.50800 34.86000
H  39.87900 8.11600 34.48300
H  41.17700 5.75800 33.61400
H  40.41300 6.04900 35.16900
H  42.06000 6.40100 35.02200
H  40.80900 10.91200 34.34100
H  42.32400 11.03000 35.11900
H  41.14200 9.18600 36.87500
H  39.83500 10.09200 36.20800
H  37.33900 5.85000 31.62100
H  37.02200 4.78400 30.17800
H  36.07100 6.19100 30.37300
H  35.78600 4.85200 28.33300
H  35.28100 5.43100 26.69200
H  35.24700 6.60000 28.05500
H  41.01600 9.14200 24.57100
H  43.83600 9.37700 24.91600
H  42.12200 6.57300 25.34400
H  43.37000 7.34400 24.29200
H  41.78100 7.13400 23.72400
H  42.64600 10.90300 23.61900
H  43.48000 11.71600 24.92900
H  41.48800 12.79700 25.38200
H  40.94200 11.24900 25.90500
H  40.57400 11.73700 24.25200
H  47.64300 11.38400 29.12000
H  46.78400 12.91800 29.53100
H  46.37600 12.23000 28.00600
H  44.21600 11.50500 33.86400
H  46.05800 8.24100 36.28500
H  44.35000 8.20300 36.62600
H  45.38400 9.60000 37.30000
Mg 0.39500 44.07100 25.86300
C  1.94600 44.27600 28.89600
C  -2.52300 43.13100 27.47300
C  -1.02900 43.33600 22.80000
C  3.41200 44.67800 24.24100
N  -0.16600 43.67600 27.87300
C  0.62500 43.86600 28.97200
C  -0.21900 43.82000 30.28700
C  -1.58400 43.15000 29.81700
C  -1.42800 43.34500 28.27600
C  -1.83500 41.67200 30.30500
C  -0.38200 45.22700 31.06500
C  -0.01100 45.30700 32.55900
H  0.02800 44.04000 33.41800
N  -1.57300 43.52200 25.25000
C  -2.57500 43.23100 26.04500
C  -3.71700 43.03900 25.20300
C  -3.29900 43.14800 23.83400
C  -1.91400 43.28400 23.93300
C  -5.05800 42.60700 25.73800
C  -4.06400 42.98500 22.50900
O  -3.55100 42.95900 21.39500
C  -5.57300 42.82200 22.56600
N  1.04500 44.08100 23.87300
C  0.28600 43.71300 22.80300
C  1.17500 43.62400 21.56100
C  2.45200 44.43500 21.89900
C  2.31700 44.35800 23.43300
C  1.34300 42.10600 21.08900
C  2.58300 45.82200 21.17800
C  3.81000 46.10100 20.20300
N  2.30500 44.36000 26.41200
C  3.40100 44.65400 25.69800
C  4.49800 44.85300 26.56700
C  4.02200 44.63100 27.87800
C  2.69500 44.44500 27.73400
C  5.96700 45.13900 26.11500
C  4.34400 44.62600 29.31400
O  5.38400 44.78800 29.93400
C  2.97500 44.37000 30.04400
C  3.20700 43.11000 30.82800
O  3.09700 42.01800 30.29300
O  3.71400 43.41300 32.06800
C  4.19600 42.24800 32.85600
H  -3.44700 42.77900 27.93700
H  -1.34100 43.10100 21.78000
H  4.42000 44.73200 23.82500
H  0.25200 43.10400 30.96000
H  -2.45200 43.72400 30.13900
H  -1.00600 41.45500 30.97900
H  -1.83100 41.01200 29.43800
H  -2.82500 41.69900 30.75900
H  -1.36100 45.66800 30.87800
H  0.27900 45.93700 30.56700
H  -0.76100 45.86700 33.11800
H  0.89500 45.90900 32.63200
H  -4.96100 42.19500 26.74200
H  -5.65000 41.94300 25.10700
H  -5.63000 43.48400 26.04200
H  -6.10300 43.28400 23.39900
H  -5.64100 41.75000 22.74800
H  -6.06600 42.99500 21.60900
H  0.65200 44.12400 20.74600
H  3.33300 43.82700 21.69300
H  2.39600 41.92500 20.87400
H  0.69900 41.79400 20.26700
H  1.15800 41.43300 21.92700
H  2.71300 46.52300 22.00400
H  1.72000 45.92000 20.52000
H  4.59000 46.60000 20.77800
H  3.58000 46.63300 19.28000
H  4.10600 45.12900 19.80900
H  5.93200 45.90500 25.34100
H  6.21600 44.15700 25.71300
H  6.63300 45.34700 26.95300
H  2.86000 45.28100 30.63100
H  5.24800 41.96900 32.79400
H  3.70600 41.31100 32.59100
H  3.91900 42.36900 33.90300

