158

Mg 47.93600 24.77100 28.53700
C  49.00200 27.00100 30.93300
C  46.95600 22.63000 31.01100
C  47.26500 22.64400 26.04400
C  49.33200 26.95800 26.20000
N  47.93600 24.83200 30.67900
C  48.34000 25.91100 31.48700
C  47.91900 25.70200 32.99200
C  47.51400 24.19300 32.97500
C  47.43000 23.86400 31.45700
C  48.35500 23.30500 33.89200
C  46.82200 26.70900 33.53400
C  46.11500 26.26300 34.83200
H  46.24900 27.21900 36.15200
N  47.00800 22.93600 28.53400
C  46.77700 22.13800 29.70400
C  46.19500 20.88000 29.23900
C  46.09500 20.93300 27.76200
C  46.69600 22.24600 27.36900
C  45.67100 19.87200 30.19100
C  45.62800 19.88000 26.78000
O  45.84500 19.96900 25.59600
C  44.99600 18.68300 27.29200
N  48.16700 24.85200 26.34500
C  47.91300 23.75700 25.58400
C  48.30500 23.92600 24.13300
C  48.72600 25.47700 24.21800
C  48.75800 25.82000 25.69500
C  49.46300 22.96600 23.61300
C  47.79300 26.41800 23.48600
C  47.78700 26.27600 21.97500
N  48.99300 26.55600 28.54300
C  49.42400 27.34400 27.54000
C  49.93600 28.66300 28.01000
C  49.88400 28.53200 29.38600
C  49.25900 27.28200 29.59200
C  50.48800 29.71200 27.08300
C  50.05900 29.17300 30.66600
O  50.65500 30.20200 30.96700
C  49.45000 28.20500 31.71000
C  50.45300 27.84600 32.72000
O  51.39700 27.16000 32.47700
O  50.30400 28.49500 33.86300
C  51.29200 28.18500 34.88400
H  46.82500 21.94500 31.85100
H  47.26400 21.82100 25.32500
H  49.69000 27.66500 25.44900
H  48.69300 25.99300 33.70300
H  46.54000 24.08100 33.45200
H  49.38900 23.63700 33.80600
H  48.41300 22.26000 33.58700
H  47.93000 23.31000 34.89600
H  46.00000 26.70000 32.81700
H  47.15200 27.73800 33.67800
H  46.40500 25.24100 35.07600
H  45.03800 26.21200 34.67300
H  46.09100 18.89300 29.96100
H  44.58700 19.79300 30.10000
H  45.76800 20.15200 31.24000
H  44.39300 18.83700 28.18700
H  45.77400 17.92300 27.36700
H  44.36100 18.30500 26.49100
H  47.47900 23.85100 23.42600
H  49.71700 25.62100 23.78900
H  49.18400 22.24200 22.84800
H  49.96800 22.43000 24.41700
H  50.11500 23.63900 23.05600
H  48.12400 27.39900 23.82700
H  46.75100 26.34900 23.80000
H  47.04500 26.96300 21.56700
H  47.73300 25.30300 21.48800
H  48.74400 26.75000 21.75600
H  50.56700 30.65600 27.62200
H  49.80700 29.91500 26.25600
H  51.48300 29.50500 26.69000
H  48.58500 28.76400 32.06600
H  50.98700 27.23900 35.33200
H  51.06600 28.83200 35.73100
H  52.34600 28.20600 34.60700
Mg 26.85700 50.32700 25.74900
C  24.74800 51.19600 28.49200
C  29.29800 49.26800 27.81700
C  28.69000 49.71600 23.07100
C  24.40000 51.85100 23.61400
N  26.92500 50.15700 27.90000
C  25.98500 50.49200 28.80600
C  26.46800 50.01600 30.19300
C  27.97100 49.53400 30.01200
C  28.07600 49.56700 28.44000
C  29.11100 50.32100 30.77000
C  25.47900 48.90600 30.90300
C  25.00000 49.18300 32.31500
H  25.95800 49.87800 33.31100
N  28.78400 49.52900 25.49000
C  29.63300 49.18600 26.43300
C  30.86800 48.81000 25.86500
C  30.79000 48.99100 24.45300
C  29.36200 49.43000 24.27500
C  32.07000 48.45300 26.71200
C  31.84900 48.66600 23.39100
O  31.64400 48.89600 22.20000
C  33.10000 48.00600 23.84000
N  26.67000 50.88600 23.69500
C  27.49300 50.30700 22.79800
C  27.08800 50.74400 21.37900
C  25.67600 51.24800 21.49700
C  25.50200 51.28800 23.04200
C  28.14600 51.72400 20.54000
C  24.69000 50.38800 20.65200
C  23.71100 51.16700 19.85100
N  25.00100 51.43100 25.91000
C  24.12600 51.92700 24.97700
C  22.95800 52.52400 25.60500
C  23.19100 52.30200 27.02300
C  24.45100 51.60900 27.11200
C  21.83500 53.23600 24.97100
C  22.60300 52.47300 28.38500
O  21.59400 53.03000 28.72000
C  23.53900 51.68600 29.31600
C  23.92500 52.35500 30.59000
O  24.75700 53.25200 30.73700
O  23.08300 51.93300 31.55100
C  23.29600 52.45700 32.85700
H  29.96100 48.86800 28.58800
H  29.20500 49.45800 22.14200
H  23.69300 52.31200 22.92100
H  26.34300 50.92000 30.78900
H  28.13400 48.47300 30.19700
H  29.68500 49.62000 31.37700
H  28.81700 51.15800 31.40400
H  29.85000 50.63600 30.03400
H  25.84500 47.90000 30.69900
H  24.60900 48.85200 30.24900
H  24.59100 48.30300 32.81200
H  24.08200 49.75300 32.17300
H  32.32200 47.41500 26.49600
H  31.81900 48.39000 27.77100
H  32.92100 49.10000 26.49800
H  33.80100 48.65300 24.36700
H  33.59400 47.71000 22.91500
H  32.94700 47.07500 24.38700
H  27.04000 49.92000 20.66700
H  25.72400 52.28600 21.16700
H  28.97400 52.02200 21.18200
H  27.80700 52.64100 20.05800
H  28.55300 51.09100 19.75100
H  24.20500 49.71600 21.36000
H  25.18300 49.65500 20.01300
H  22.76700 51.05400 20.38500
H  23.47900 50.67500 18.90700
H  23.94600 52.21600 19.66800
H  20.97000 53.28800 25.63200
H  21.63800 52.67100 24.05900
H  22.20700 54.24400 24.78900
H  22.95300 50.82600 29.63700
H  24.35200 52.41900 33.12300
H  22.65700 51.90000 33.54200
H  22.98100 53.49900 32.90300

