158

Mg -0.57400 7.39500 26.05700
C  -0.07500 9.55300 28.95000
C  -0.63400 4.82900 28.25300
C  -0.64300 5.49000 23.43300
C  -0.18500 10.21200 24.15400
N  -0.50200 7.23300 28.37200
C  -0.34000 8.24800 29.32600
C  -0.44100 7.62500 30.77100
C  -0.35600 6.09400 30.46100
C  -0.52200 6.03100 28.90100
C  0.97900 5.32700 30.90100
C  -1.66300 8.19500 31.43700
C  -1.29900 8.76900 32.78600
H  -1.82300 8.04900 34.04900
N  -0.69400 5.45300 25.89300
C  -0.79800 4.50700 26.90500
C  -0.87000 3.12300 26.32900
C  -0.89100 3.30500 24.92900
C  -0.79200 4.81100 24.71200
C  -0.93100 1.95000 27.27300
C  -0.75500 2.28200 23.85400
O  -0.68200 2.56200 22.66900
C  -0.75200 0.91400 24.22600
N  -0.23300 7.83500 24.05300
C  -0.42700 6.83200 23.11200
C  -0.63900 7.37200 21.69500
C  -0.61100 8.93100 21.92000
C  -0.32800 9.04600 23.41700
C  0.42900 6.86300 20.63000
C  -1.82500 9.76800 21.30400
C  -2.73100 10.48000 22.37200
N  -0.26900 9.43100 26.40500
C  -0.09600 10.47600 25.51800
C  0.14700 11.73400 26.20000
C  0.20100 11.36900 27.49500
C  -0.06400 9.99100 27.61600
C  0.44700 13.06500 25.53300
C  0.58700 11.88900 28.74600
O  1.09200 12.94600 29.08700
C  0.32400 10.73700 29.75900
C  1.55900 10.39100 30.51000
O  2.52800 9.70800 30.15300
O  1.42600 11.03100 31.68500
C  2.51300 11.07400 32.57600
H  -0.64700 4.02800 28.99500
H  -0.92800 4.85200 22.59400
H  -0.02300 11.04700 23.46900
H  0.52700 7.81900 31.23400
H  -1.25100 5.58000 30.81000
H  0.85600 4.46600 31.55800
H  1.59200 6.13000 31.30900
H  1.44600 4.77100 30.08700
H  -2.32600 7.35900 31.66100
H  -2.09100 9.04000 30.89700
H  -1.56800 9.82400 32.84600
H  -0.21800 8.74200 32.92200
H  0.06600 1.58400 27.52000
H  -1.50400 1.16100 26.78600
H  -1.44000 2.25500 28.18700
H  -0.15500 0.76800 25.12600
H  -0.31300 0.31300 23.43000
H  -1.77300 0.64900 24.50000
H  -1.65700 7.14600 21.37600
H  0.33700 9.32700 21.55500
H  -0.03400 6.43300 19.74200
H  1.12500 6.13300 21.04300
H  1.04200 7.65500 20.20100
H  -2.47000 9.17100 20.65800
H  -1.37600 10.56200 20.70700
H  -2.96600 9.73600 23.13300
H  -3.63600 10.84300 21.88400
H  -2.25300 11.28800 22.92600
H  1.02700 13.02200 24.61000
H  1.10400 13.53600 26.26500
H  -0.38900 13.73100 25.32200
H  -0.37600 11.13300 30.49500
H  2.56500 12.10800 32.91800
H  3.51500 10.71700 32.33800
H  2.26300 10.50800 33.47300
Mg 34.67900 3.21600 30.35300
C  32.33300 4.19900 32.58300
C  36.98500 2.85700 32.67700
C  36.93600 2.52700 27.86400
C  32.11300 3.54900 27.85000
N  34.71000 3.75400 32.33000
C  33.67100 4.08100 33.03000
C  34.02000 3.93600 34.54700
C  35.55000 3.94800 34.56900
C  35.79200 3.45100 33.10700
C  36.28600 5.23900 34.91300
C  33.35000 2.62200 35.27500
C  32.93200 2.83400 36.74600
H  33.61900 3.94300 37.59600
N  36.70200 2.88600 30.26300
C  37.41200 2.61500 31.37400
C  38.76200 2.29600 31.04700
C  38.83900 2.23500 29.59500
C  37.40800 2.53800 29.18100
C  39.77500 2.11600 32.09500
C  39.97900 2.05800 28.67800
O  39.85300 2.04200 27.42900
C  41.28100 1.63600 29.27300
N  34.56700 3.09400 28.15500
C  35.59800 2.68600 27.40600
C  35.21800 2.48100 25.94700
C  33.67000 2.77100 26.01300
C  33.40900 3.12100 27.41900
C  36.04500 3.38300 24.94800
C  32.89500 1.65300 25.42900
C  32.70400 0.43600 26.24300
N  32.63900 3.70400 30.19100
C  31.73000 3.93500 29.15900
C  30.43900 4.33200 29.65300
C  30.60400 4.48800 31.03000
C  31.94400 4.12800 31.28900
C  29.14800 4.58600 28.93000
C  30.02500 4.88200 32.29400
O  28.86600 5.20000 32.51300
C  31.09200 4.68000 33.33900
C  31.27300 5.99000 34.07100
O  31.50600 7.01500 33.55700
O  30.98500 5.75000 35.39400
C  30.85600 7.03000 36.21700
H  37.63700 2.60500 33.51600
H  37.60300 2.14500 27.08800
H  31.43200 3.56900 26.99600
H  33.75200 4.87100 35.03800
H  35.81000 3.20300 35.32000
H  35.70100 6.10300 34.59800
H  37.16200 5.33900 34.27300
H  36.75500 5.23700 35.89700
H  33.97000 1.72800 35.21000
H  32.37300 2.47400 34.81500
H  33.06900 1.91700 37.31900
H  31.85900 3.02400 36.79000
H  39.61700 1.16000 32.59400
H  39.63800 2.82200 32.91300
H  40.82100 2.30000 31.84800
H  41.37300 0.62800 29.67800
H  41.69200 2.44100 29.88100
H  42.02700 1.49800 28.49000
H  35.44400 1.41600 25.89100
H  33.42400 3.57000 25.31300
H  36.93600 3.82500 25.39400
H  35.50100 4.24600 24.56600
H  36.43600 2.83300 24.09200
H  33.47400 1.22900 24.60800
H  32.03800 2.13700 24.96000
H  33.19700 -0.46000 25.86800
H  31.71200 0.01600 26.07800
H  32.95700 0.58200 27.29300
H  28.85400 5.60900 29.16800
H  28.43900 3.80800 29.21300
H  29.22900 4.56600 27.84300
H  30.71900 3.90700 34.01100
H  30.24900 7.75200 35.67100
H  31.79900 7.50800 36.48100
H  30.21900 6.78200 37.06600

