158

Mg 35.98700 49.98300 25.25800
C  35.91000 48.08800 28.21700
C  34.89600 52.61700 27.03800
C  35.72100 51.55100 22.31300
C  37.00100 47.01200 23.68400
N  35.29700 50.23800 27.37000
C  35.36400 49.35700 28.38600
C  34.91600 50.04500 29.72100
C  34.38000 51.43700 29.19500
C  35.04200 51.43100 27.75700
C  32.85700 51.61900 29.27300
C  36.17000 50.23300 30.69300
C  36.11200 49.56700 32.07500
H  34.82400 49.31400 32.80700
N  35.31800 51.81800 24.75300
C  34.95300 52.79400 25.60000
C  34.58800 54.03300 24.92400
C  34.95600 53.74500 23.57200
C  35.33600 52.29600 23.43900
C  34.12600 55.28700 25.57800
C  34.93100 54.69700 22.40100
O  35.40200 54.39900 21.30000
C  34.39100 56.07000 22.65900
N  36.28100 49.35600 23.28200
C  36.07700 50.26300 22.22500
C  36.45400 49.59000 20.95700
C  36.74700 48.14600 21.32700
C  36.73400 48.14900 22.87200
C  35.56700 49.74400 19.75300
C  38.12400 47.50400 20.81300
C  39.36700 47.95200 21.70700
N  36.38600 47.94600 25.80100
C  36.81300 46.88100 25.03200
C  36.97500 45.73900 25.85500
C  36.64400 46.19500 27.08100
C  36.37100 47.56800 27.01400
C  37.27500 44.36700 25.44800
C  36.44600 45.73900 28.44300
O  36.65500 44.66100 28.93100
C  36.02400 46.96100 29.25000
C  34.65000 46.50100 29.89300
O  33.51100 46.74300 29.51000
O  34.92000 45.77200 31.01200
C  33.67900 45.36600 31.79700
H  34.51100 53.39200 27.70400
H  35.67000 51.97300 21.30700
H  37.35200 46.10900 23.18100
H  34.13800 49.42800 30.17200
H  34.87500 52.24900 29.72700
H  32.32800 50.74100 29.64500
H  32.53300 51.89200 28.26900
H  32.53200 52.39200 29.96900
H  36.52300 51.26100 30.77000
H  36.97000 49.60800 30.29600
H  36.74000 50.10500 32.78500
H  36.57300 48.59600 31.89300
H  33.36000 55.82800 25.02200
H  35.00300 55.92500 25.68600
H  33.69800 55.11100 26.56500
H  34.90600 56.73100 23.35700
H  33.35100 55.85900 22.91200
H  34.38900 56.53700 21.67500
H  37.41500 50.08500 20.81900
H  35.91000 47.49700 21.06900
H  34.62400 50.16900 20.09700
H  35.36400 48.77700 19.29300
H  36.02600 50.48100 19.09400
H  38.32500 47.75200 19.77100
H  37.89100 46.44200 20.89100
H  39.76800 47.01600 22.09600
H  39.22400 48.57300 22.59200
H  40.08800 48.45300 21.06100
H  37.62300 44.21800 24.42500
H  36.47500 43.65500 25.65100
H  38.07300 43.93300 26.05000
H  36.82400 47.10500 29.97700
H  34.07400 44.84100 32.66700
H  33.05300 44.69600 31.20800
H  33.04100 46.20000 32.09000
Mg -1.69500 34.75700 26.06400
C  -3.06100 32.91600 28.69400
C  -0.10300 36.76200 28.42100
C  -0.58600 36.64300 23.61400
C  -3.36100 32.71100 23.79600
N  -1.67200 34.86400 28.26200
C  -2.13700 33.87900 29.14500
C  -1.94100 34.32500 30.60300
C  -1.30000 35.75500 30.42100
C  -0.90000 35.74800 28.98400
C  -2.29900 36.91600 30.64300
C  -1.08800 33.37000 31.48700
C  -1.77200 32.56100 32.58900
H  -1.07900 32.19700 33.90100
N  -0.51300 36.52200 26.01800
C  0.14200 37.07300 27.04700
C  0.86600 38.18700 26.53300
C  0.85200 38.18600 25.13700
C  -0.13800 37.10000 24.83700
C  1.59500 39.06400 27.45400
C  1.58500 39.08800 24.10700
O  1.43100 38.99300 22.87600
C  2.73500 40.05300 24.53900
N  -2.11600 34.80200 23.99900
C  -1.48200 35.66500 23.15500
C  -1.60300 35.23900 21.68400
C  -2.36500 33.90600 21.77100
C  -2.59200 33.72200 23.33500
C  -2.19900 36.35800 20.80600
C  -1.74400 32.70900 21.03500
C  -0.50700 32.11500 21.68200
N  -3.12300 33.22600 26.16300
C  -3.73100 32.50900 25.18300
C  -4.55300 31.54300 25.80600
C  -4.36500 31.61200 27.22500
C  -3.48400 32.68800 27.34900
C  -5.37200 30.49600 25.14500
C  -4.68100 31.09600 28.52400
O  -5.48200 30.22200 28.80400
C  -3.96700 31.97600 29.64200
C  -4.99200 32.82900 30.38500
O  -5.63900 33.78800 29.93300
O  -5.19200 32.38200 31.62000
C  -6.34900 33.09100 32.29900
H  0.48700 37.33700 29.13800
H  -0.18800 37.12300 22.71700
H  -3.72300 32.02200 23.03000
H  -2.89600 34.53600 31.08300
H  -0.39600 35.83600 31.02300
H  -1.83300 37.77900 31.12100
H  -3.18500 36.58000 31.18200
H  -2.81400 37.28600 29.75700
H  -0.15100 33.78600 31.85700
H  -0.70200 32.60100 30.81800
H  -1.95300 31.58800 32.13300
H  -2.70600 33.05500 32.85700
H  2.61900 39.09600 27.08200
H  1.60200 38.76600 28.50300
H  1.22200 40.08900 27.45200
H  2.59000 40.67200 25.42500
H  3.02700 40.57200 23.62700
H  3.44500 39.27000 24.80500
H  -0.60800 35.04700 21.28200
H  -3.41100 33.99000 21.47900
H  -2.14900 37.31200 21.33100
H  -3.27400 36.29700 20.63700
H  -1.77900 36.56100 19.82100
H  -1.33200 32.91300 20.04600
H  -2.49000 31.91700 20.97300
H  -0.60800 31.03100 21.63600
H  -0.27000 32.34600 22.72000
H  0.36800 32.29600 21.05600
H  -5.21400 29.49000 25.53400
H  -5.13900 30.54500 24.08200
H  -6.37400 30.84100 25.40200
H  -3.46300 31.28700 30.31900
H  -6.04300 34.03800 32.74500
H  -6.62900 32.40000 33.09400
H  -7.28200 33.19500 31.74600

