158

Mg 54.48100 23.68600 44.27600
C  51.65800 25.68500 43.40100
C  52.75700 21.03700 42.78400
C  57.23100 21.87300 44.43100
C  55.97300 26.52000 45.48800
N  52.48800 23.47900 43.01100
C  51.56100 24.40900 42.82200
C  50.33600 23.84100 42.11900
C  50.47000 22.31900 42.42800
C  51.99300 22.25900 42.75900
C  49.61000 21.74200 43.65000
C  50.29800 24.04600 40.53700
C  48.82300 23.95300 39.96500
H  48.52200 23.31500 38.66700
N  54.92100 21.74600 43.75100
C  54.02100 20.77000 43.21400
C  54.75000 19.52700 43.08300
C  56.09200 19.77800 43.42000
C  56.13400 21.21300 43.84000
C  54.12300 18.21500 42.67400
C  57.30200 18.77200 43.24200
O  57.03800 17.58700 42.99900
C  58.74800 19.10100 43.55500
N  56.42100 24.07100 44.82300
C  57.40100 23.18900 44.95700
C  58.73200 23.87600 45.35300
C  58.37400 25.46000 45.34200
C  56.80800 25.38800 45.26100
C  59.09100 23.39800 46.76900
C  58.96500 26.18000 44.07700
C  58.06000 26.40300 42.81600
N  53.92400 25.73000 44.55800
C  54.58500 26.72100 45.14700
C  53.70500 27.86000 45.33900
C  52.49100 27.45800 44.70000
C  52.67800 26.19800 44.24700
C  54.07000 29.19400 45.98000
C  51.13800 27.92200 44.33900
O  50.43000 28.90500 44.62900
C  50.54900 26.68100 43.44300
C  50.04700 27.24100 42.15500
O  50.56300 27.88700 41.30000
O  48.68800 27.15300 42.13000
C  47.92700 28.06800 41.22400
H  52.10200 20.17800 42.61900
H  58.20400 21.37700 44.44300
H  56.39900 27.38000 46.00700
H  49.46200 24.29000 42.58900
H  50.27100 21.64400 41.59500
H  49.01000 20.86400 43.40800
H  49.12500 22.56800 44.17100
H  50.44700 21.28100 44.17400
H  50.87500 23.30000 39.99000
H  50.68600 25.04900 40.35900
H  48.52500 25.00100 39.92200
H  48.21300 23.42900 40.70200
H  54.49000 17.97300 41.67600
H  53.05500 18.37200 42.52900
H  54.39200 17.38400 43.32600
H  59.13500 19.91800 42.94600
H  59.30200 18.18700 43.33700
H  58.82800 19.37800 44.60600
H  59.39100 23.60500 44.52900
H  58.73300 25.96300 46.24000
H  58.97000 22.31900 46.86700
H  58.27500 23.76200 47.39300
H  60.10900 23.62800 47.08100
H  59.84200 25.65100 43.70300
H  59.39500 27.12700 44.40300
H  57.78500 27.45800 42.81800
H  57.10800 25.87200 42.84000
H  58.47900 26.05500 41.87200
H  54.57900 29.07500 46.93600
H  53.12000 29.72900 46.00100
H  54.72400 29.58400 45.20000
H  49.65800 26.30000 43.94200
H  48.37500 29.04100 41.42300
H  46.91000 28.14400 41.61000
H  47.84800 27.76500 40.18000
Mg 48.65900 13.60600 27.44600
C  46.49500 14.37000 30.30600
C  51.03500 15.55700 28.97700
C  50.42300 13.05200 24.72500
C  45.76100 12.17400 26.02300
N  48.72700 14.74600 29.52400
C  47.83800 14.81900 30.54100
C  48.46400 15.57800 31.71000
C  49.86600 16.00600 31.19600
C  49.87400 15.40900 29.79000
C  50.00300 17.53400 31.12400
C  48.51700 14.53600 32.97500
C  48.03400 15.11300 34.27300
H  49.07100 14.90100 35.43700
N  50.46200 14.13800 26.97900
C  51.28100 14.98000 27.71800
C  52.44100 15.25200 26.92800
C  52.31900 14.60700 25.63500
C  51.05200 13.84100 25.69900
C  53.58300 16.18000 27.46000
C  53.32200 14.67000 24.47100
O  53.01800 14.13200 23.42400
C  54.71500 15.24800 24.51700
N  48.20300 12.67800 25.71200
C  49.08700 12.56700 24.71400
C  48.50000 11.77600 23.47900
C  47.12200 11.30200 24.07300
C  47.00400 12.09800 25.35800
C  48.28800 12.65600 22.20600
C  47.05400 9.77300 24.24000
C  47.98500 9.15600 25.29800
N  46.53900 13.40900 27.98300
C  45.54900 12.76200 27.27400
C  44.36800 12.73100 28.04900
C  44.72600 13.33700 29.27800
C  46.04200 13.68000 29.13100
C  43.17600 12.01100 27.68300
C  44.20500 13.64600 30.57900
O  43.11900 13.45100 31.10500
C  45.33100 14.40600 31.32700
C  44.90000 15.75700 31.77500
O  44.74600 16.67200 31.04900
O  44.81400 15.81000 33.14400
C  44.45500 17.08400 33.72800
H  51.74800 16.17000 29.53300
H  50.90800 12.89100 23.76000
H  44.93900 11.71900 25.46600
H  47.80500 16.39700 31.99600
H  50.63100 15.56400 31.83500
H  50.77200 17.83400 31.83500
H  49.15400 18.15800 31.40400
H  50.41300 17.82300 30.15600
H  49.55600 14.21000 33.02300
H  47.94200 13.64600 32.71900
H  47.16900 14.47200 34.44200
H  47.62200 16.12300 34.26000
H  53.25900 16.86400 28.24400
H  54.05600 16.77100 26.67600
H  54.32700 15.54300 27.93800
H  55.47300 14.82300 25.17500
H  54.52300 16.28000 24.81000
H  55.19800 15.21900 23.54000
H  49.03900 10.86800 23.20900
H  46.30100 11.50600 23.38500
H  49.18400 12.63400 21.58600
H  48.04900 13.67300 22.51700
H  47.43200 12.27600 21.64700
H  47.36000 9.34800 23.28400
H  46.02000 9.54000 24.49400
H  48.35900 9.83200 26.06800
H  48.84800 8.71600 24.79800
H  47.56000 8.35700 25.90500
H  43.35100 10.93700 27.74600
H  42.79600 12.35800 26.72200
H  42.48700 12.20700 28.50400
H  45.56100 13.76700 32.18000
H  43.38900 17.10700 33.95200
H  44.63300 18.02100 33.20000
H  44.96400 17.20300 34.68500

