158

Mg 8.45600 3.29900 27.38500
C  9.75700 1.76000 30.33000
C  6.71900 5.39800 29.43800
C  7.21700 4.61300 24.58300
C  9.94700 0.65000 25.56100
N  8.42600 3.62800 29.59900
C  9.00700 2.86600 30.62900
C  8.80700 3.59200 32.04800
C  7.76000 4.66300 31.63000
C  7.60800 4.55900 30.09700
C  6.42900 4.60900 32.40900
C  10.27000 3.96200 32.68900
C  10.27300 4.99900 33.79900
H  10.52600 4.47800 35.19100
N  7.14700 4.85700 27.05300
C  6.43900 5.57900 28.07200
C  5.56000 6.54300 27.38400
C  5.73900 6.34900 25.93800
C  6.74000 5.24300 25.81200
C  4.94000 7.71600 28.09900
C  5.20300 7.15800 24.79300
O  5.37900 6.82500 23.59700
C  4.37200 8.44600 25.06600
N  8.74300 2.84900 25.28600
C  8.10800 3.54200 24.30700
C  8.24000 2.80700 22.93700
C  9.17300 1.64300 23.29900
C  9.31500 1.66900 24.80400
C  6.87900 2.24500 22.43700
C  10.57100 1.63100 22.58800
C  10.65700 0.67100 21.37000
N  9.66800 1.61800 27.81400
C  10.09700 0.60400 26.99100
C  10.73700 -0.52500 27.75000
C  10.66400 -0.01600 29.05800
C  9.89800 1.19700 29.07700
C  11.51300 -1.65800 27.15800
C  11.07700 -0.33700 30.37500
O  11.87300 -1.16900 30.84000
C  10.49300 0.80900 31.27500
C  9.57000 0.05200 32.28400
O  8.61500 -0.64700 31.97600
O  9.99200 0.25800 33.57100
C  9.19700 -0.41700 34.68700
H  6.13600 6.02700 30.11300
H  6.82700 5.12100 23.69800
H  10.19300 -0.28700 25.05700
H  8.40000 2.90900 32.79200
H  8.23300 5.62000 31.84900
H  6.21400 5.57100 32.87400
H  6.46700 3.83100 33.17200
H  5.55800 4.45100 31.77200
H  11.03500 4.17700 31.94300
H  10.54600 3.05900 33.23500
H  9.26100 5.40400 33.80400
H  11.03500 5.75800 33.62200
H  5.36700 7.62000 29.09700
H  3.86100 7.57600 28.04000
H  5.35500 8.64100 27.69800
H  5.10300 9.15000 25.46500
H  3.56900 8.15800 25.74400
H  3.98300 8.76200 24.09800
H  8.66000 3.48300 22.19300
H  8.64700 0.71400 23.08000
H  6.35400 1.87500 23.31800
H  7.16300 1.35200 21.87900
H  6.18500 2.88400 21.89200
H  11.32300 1.31000 23.31000
H  10.89200 2.62400 22.27300
H  9.67300 0.65900 20.90300
H  10.82100 -0.33800 21.75000
H  11.43900 1.00400 20.68800
H  12.27500 -1.24200 26.49900
H  10.79300 -2.27700 26.62300
H  12.01000 -2.31400 27.87200
H  11.35300 1.24600 31.78300
H  8.88900 0.41500 35.32000
H  9.77200 -1.09400 35.31800
H  8.35100 -1.05300 34.42400
Mg 25.33100 -1.11800 28.76100
C  27.39700 -1.51300 31.55000
C  22.63600 -1.08600 30.72500
C  23.55500 -0.77900 25.92900
C  28.16000 -1.82200 26.75900
N  25.09200 -1.42700 30.89200
C  26.03100 -1.36000 31.87100
C  25.37400 -1.20100 33.29100
C  23.81100 -1.06700 32.98300
C  23.84300 -1.28500 31.40100
C  22.78700 -2.12100 33.59900
C  25.86800 0.12500 34.01300
C  26.14000 -0.03900 35.46400
H  25.86800 1.18500 36.36600
N  23.36800 -0.83500 28.37700
C  22.40500 -0.83500 29.34400
C  21.15000 -0.39400 28.74900
C  21.42000 -0.44300 27.33500
C  22.83000 -0.69300 27.09900
C  19.89900 -0.05300 29.43100
C  20.45000 -0.20000 26.23100
O  20.83700 -0.04100 25.06100
C  19.05200 -0.27200 26.46200
N  25.79600 -1.51000 26.57300
C  24.88600 -1.12900 25.67700
C  25.50800 -1.11300 24.21100
C  27.01600 -1.43500 24.48300
C  27.01600 -1.66400 26.02000
C  24.94900 -2.07300 23.15000
C  27.93200 -0.22600 24.05600
C  27.90400 1.04200 24.85900
N  27.41800 -1.62100 29.02800
C  28.40300 -1.88800 28.15100
C  29.59700 -2.15400 28.90600
C  29.22300 -1.94700 30.22200
C  27.93900 -1.74600 30.25900
C  30.89200 -2.50300 28.23200
C  29.76800 -1.93700 31.55100
O  30.88600 -2.04600 31.95800
C  28.57700 -1.54200 32.45000
C  28.30600 -2.62000 33.48000
O  27.82400 -3.72400 33.27700
O  28.64300 -2.12500 34.75000
C  28.15500 -3.02900 35.79400
H  21.75100 -0.81600 31.30600
H  23.10900 -0.59800 24.94800
H  29.02500 -1.95200 26.10600
H  25.57600 -2.00600 33.99800
H  23.47700 -0.04100 33.13400
H  23.02100 -2.30500 34.64800
H  22.83600 -3.08600 33.09500
H  21.86300 -1.60000 33.84900
H  25.19800 0.94600 33.75900
H  26.80900 0.38700 33.53000
H  27.22000 -0.10800 35.60000
H  25.59600 -0.92900 35.78100
H  19.44500 0.83300 28.98700
H  20.08100 0.02400 30.50300
H  19.18200 -0.87000 29.34600
H  18.55800 -0.39900 25.49900
H  18.80800 0.73800 26.79200
H  18.71700 -1.05400 27.14500
H  25.37000 -0.15000 23.72000
H  27.44400 -2.25800 23.91100
H  25.55300 -2.98000 23.16400
H  25.10500 -1.63800 22.16300
H  23.87000 -2.16500 23.27300
H  27.73200 -0.05800 22.99800
H  28.97200 -0.54600 24.10900
H  27.37000 0.84300 25.78900
H  27.46300 1.93400 24.41300
H  28.91000 1.40600 25.06900
H  30.90300 -3.57100 28.01500
H  31.77700 -2.32800 28.84400
H  31.17400 -2.07700 27.27000
H  28.82200 -0.64100 33.01200
H  27.06700 -2.96400 35.77200
H  28.46900 -2.66200 36.77100
H  28.36700 -4.09200 35.68000

