158

Mg -1.63200 17.21900 26.67300
C  -2.07800 14.83600 29.07200
C  -2.42300 19.60800 28.85900
C  -1.47200 19.37900 24.11400
C  -1.87800 14.62200 24.18100
N  -1.86400 17.18900 28.78800
C  -1.94200 16.11400 29.57700
C  -2.10600 16.57900 31.06400
C  -2.73500 18.04600 30.90700
C  -2.39100 18.31900 29.38900
C  -4.19600 18.34300 31.23900
C  -0.68400 16.63200 31.67000
C  -0.52400 17.22800 33.10400
H  -0.29900 16.30200 34.32500
N  -1.77500 19.21800 26.49000
C  -1.96300 20.06600 27.62200
C  -1.94900 21.49500 27.18000
C  -1.74000 21.44700 25.72600
C  -1.62500 19.97900 25.35700
C  -2.37900 22.63500 28.07300
C  -1.79000 22.55700 24.73100
O  -1.68000 22.40900 23.51700
C  -1.89600 23.90200 25.30500
N  -1.59400 16.99700 24.52800
C  -1.51600 18.08900 23.69400
C  -1.60700 17.68800 22.25300
C  -1.46400 16.16100 22.25000
C  -1.64900 15.92500 23.72700
C  -2.88800 18.20900 21.54200
C  -0.12500 15.64800 21.55300
C  1.07400 15.36200 22.52100
N  -1.87900 15.13400 26.58600
C  -2.02900 14.21800 25.51800
C  -2.20400 12.89300 26.01000
C  -2.21900 13.10400 27.41600
C  -2.03500 14.49200 27.69600
C  -2.09200 11.73700 25.23200
C  -2.24800 12.46900 28.72500
O  -2.30100 11.27400 29.03200
C  -2.41300 13.58900 29.81300
C  -1.53700 13.37800 30.98000
O  -0.39500 13.05700 31.06300
O  -2.38700 13.55000 32.05700
C  -1.86200 13.46800 33.44100
H  -2.64200 20.34800 29.63200
H  -1.34000 20.12600 23.32700
H  -1.93600 13.82200 23.44000
H  -2.78800 15.87600 31.54200
H  -2.21300 18.74600 31.56000
H  -4.13300 19.23500 31.86200
H  -4.61700 17.46100 31.72100
H  -4.77200 18.61600 30.35400
H  0.03700 17.06700 30.97900
H  -0.28300 15.63900 31.87300
H  -1.47900 17.74300 33.20800
H  0.25600 17.99000 33.11300
H  -2.76500 22.29500 29.03500
H  -3.21900 23.04600 27.51400
H  -1.47100 23.22400 28.20100
H  -1.74800 24.61100 24.49000
H  -1.02900 23.94100 25.96300
H  -2.88800 24.05400 25.73200
H  -0.82000 18.19700 21.69600
H  -2.34100 15.61800 21.89800
H  -3.59100 17.37900 21.48400
H  -2.63700 18.40500 20.49900
H  -3.29600 19.10000 22.02000
H  0.24700 16.45700 20.92400
H  -0.34300 14.82900 20.86900
H  0.77700 15.27800 23.56600
H  1.79500 16.17800 22.47500
H  1.63500 14.49400 22.17700
H  -2.95800 11.54100 24.60000
H  -2.07900 10.93300 25.96700
H  -1.13000 11.77300 24.72200
H  -3.47100 13.68200 30.05900
H  -2.40200 14.16600 34.08100
H  -0.80800 13.74400 33.48200
H  -1.89500 12.43500 33.78700
Mg 35.20800 1.44400 29.70000
C  32.67900 2.30600 32.00600
C  37.59600 1.65900 32.14700
C  37.40600 0.81700 27.25100
C  32.56300 1.39100 27.12800
N  35.10900 2.05700 31.77300
C  34.03100 2.31600 32.55900
C  34.41600 2.50700 34.03500
C  36.00800 2.52800 34.03700
C  36.31500 2.02900 32.60900
C  36.74000 3.85300 34.28800
C  33.88500 1.26600 34.91200
C  33.36700 1.60500 36.36800
H  34.09100 2.67500 37.23300
N  37.26200 1.20000 29.75300
C  38.06300 1.25500 30.86700
C  39.40400 1.13100 30.42300
C  39.40800 1.05300 28.92500
C  38.00500 1.08800 28.59000
C  40.57200 1.05900 31.30400
C  40.58500 1.03700 27.95000
O  40.53700 1.13700 26.75000
C  41.99500 0.90200 28.41200
N  34.97400 1.34200 27.48200
C  36.09900 1.00800 26.78600
C  35.70100 0.83400 25.27000
C  34.15900 0.58300 25.35100
C  33.82300 1.15100 26.75300
C  36.10400 2.12200 24.52500
C  33.74100 -0.88300 25.16600
C  32.88500 -1.15200 23.88400
N  33.03900 1.70700 29.52800
C  32.17700 1.72300 28.47300
C  30.87000 2.18200 28.94600
C  31.09200 2.42400 30.31600
C  32.34100 2.09900 30.63500
C  29.65500 2.37200 28.11000
C  30.40000 2.85000 31.51300
O  29.19100 3.07900 31.75800
C  31.42700 2.72500 32.71300
C  31.48000 4.07300 33.45100
O  31.95800 5.12100 32.98700
O  31.02400 3.84800 34.73700
C  30.77600 4.98900 35.63000
H  38.46900 1.83300 32.78100
H  38.19700 0.61700 26.52500
H  31.81600 1.22100 26.35000
H  33.95800 3.43500 34.37600
H  36.38300 1.73200 34.68100
H  37.16100 4.24200 33.36100
H  37.59800 3.65900 34.93200
H  36.13600 4.65800 34.70700
H  34.71200 0.57700 35.08300
H  33.15200 0.61500 34.43500
H  33.43100 0.71800 36.99800
H  32.35300 2.00600 36.37700
H  41.46900 0.54600 30.95600
H  40.27900 0.67000 32.27900
H  40.89700 2.08800 31.45700
H  42.18200 -0.09800 28.80200
H  42.13200 1.74200 29.09300
H  42.63100 0.90900 27.52700
H  36.20300 -0.05000 24.87600
H  33.67100 1.21200 24.60700
H  36.70600 2.81600 25.11200
H  35.27700 2.73900 24.17300
H  36.70700 1.72700 23.70700
H  33.19300 -1.19400 26.05500
H  34.66400 -1.46300 25.15400
H  33.04600 -0.43500 23.08000
H  31.82800 -1.24800 24.13500
H  33.20300 -2.14700 23.57300
H  29.75400 1.99900 27.09100
H  29.18800 3.35500 28.05500
H  28.91200 1.67000 28.48900
H  31.02500 1.92200 33.33000
H  30.56100 4.73200 36.66700
H  30.03200 5.64400 35.17600
H  31.70800 5.54300 35.74300

