158

Mg -0.38100 7.52300 26.11700
C  0.35500 9.49000 28.82100
C  -0.27300 4.65200 28.32300
C  -0.91600 5.41400 23.52500
C  -0.21500 10.21600 24.02900
N  0.00700 7.11300 28.32400
C  0.24700 8.13700 29.22400
C  0.11100 7.53500 30.65600
C  0.14500 5.97200 30.46200
C  -0.07800 5.88600 28.97200
C  1.48600 5.36600 30.89200
C  -1.09700 8.02500 31.55200
C  -0.95900 8.33900 33.03800
H  0.35800 7.88800 33.68600
N  -0.50900 5.28800 25.92300
C  -0.45200 4.37000 26.96500
C  -0.55400 3.02300 26.40400
C  -0.76900 3.17300 25.02600
C  -0.74600 4.66300 24.77600
C  -0.73900 1.77200 27.18600
C  -0.95200 2.07100 23.94400
O  -1.10000 2.32200 22.80000
C  -0.89000 0.58200 24.25800
N  -0.44800 7.77700 24.04000
C  -0.75200 6.77800 23.17700
C  -0.84500 7.34000 21.67800
C  -0.84000 8.89600 21.91900
C  -0.54000 9.00100 23.43000
C  0.25300 6.87500 20.66100
C  -2.03800 9.69400 21.26300
C  -3.27500 9.69200 22.19700
N  0.05600 9.48600 26.33400
C  0.13800 10.45600 25.40900
C  0.51100 11.72400 26.00300
C  0.68200 11.40300 27.38700
C  0.32000 10.04200 27.51400
C  0.63700 13.02200 25.27800
C  0.98100 11.90300 28.74100
O  1.40700 12.97700 29.13500
C  0.58800 10.68000 29.70200
C  1.81400 10.56400 30.57200
O  2.91900 10.35800 30.14300
O  1.49700 10.68100 31.94700
C  2.65700 10.82600 32.82500
H  -0.30000 3.85200 29.06600
H  -1.13600 4.71200 22.71700
H  -0.19400 11.06600 23.34400
H  1.01800 7.78400 31.20700
H  -0.67000 5.55300 31.05300
H  1.97300 4.82000 30.08400
H  1.45800 4.81600 31.83300
H  2.25400 6.13300 30.99400
H  -1.85700 7.25500 31.42200
H  -1.43500 8.96800 31.12200
H  -1.84100 8.18100 33.66000
H  -0.87500 9.42500 33.03800
H  0.11100 1.10700 27.03800
H  -1.66500 1.24900 26.94700
H  -0.76900 1.76800 28.27600
H  -0.95400 -0.02800 23.35700
H  -1.74000 0.31700 24.88600
H  0.04500 0.39500 24.78600
H  -1.78300 7.12600 21.16700
H  0.03800 9.35300 21.46200
H  1.08200 6.31600 21.09600
H  0.66100 7.68800 20.05900
H  -0.27300 6.21500 19.97100
H  -2.24300 9.17200 20.32800
H  -1.71200 10.69500 20.98000
H  -3.36000 10.62400 22.75600
H  -3.22600 8.88100 22.92400
H  -4.16500 9.42600 21.62600
H  1.13800 12.89700 24.31800
H  1.22400 13.64200 25.95600
H  -0.31900 13.51200 25.09200
H  -0.31700 10.99000 30.22300
H  3.48300 10.14300 32.62200
H  2.37400 10.77200 33.87600
H  2.85700 11.88500 32.66500
Mg 46.65500 25.53300 29.04100
C  48.02300 27.77400 31.53700
C  46.03500 23.43300 31.76600
C  46.03600 23.14400 26.85700
C  47.92900 27.68900 26.74700
N  46.92800 25.67200 31.43800
C  47.39500 26.69500 32.16200
C  47.14300 26.48700 33.67400
C  46.79400 24.96100 33.73400
C  46.52100 24.71000 32.21800
C  47.74300 24.08400 34.50300
C  46.10400 27.35400 34.28500
C  46.43800 27.99200 35.62000
H  45.44300 28.00900 36.82400
N  45.94000 23.62200 29.28900
C  45.80400 22.93900 30.44600
C  45.30100 21.58600 30.13000
C  45.29100 21.53100 28.73400
C  45.77300 22.80400 28.19500
C  44.70100 20.69000 31.10500
C  45.05500 20.34500 27.84600
O  45.12800 20.36500 26.64800
C  44.64000 19.05200 28.42100
N  46.91700 25.43300 27.02800
C  46.55200 24.36000 26.26600
C  46.79900 24.71800 24.81700
C  47.17100 26.16900 24.80100
C  47.40800 26.41500 26.29500
C  47.79700 23.74400 24.06600
C  46.10500 27.17000 24.21700
C  46.51000 27.83600 22.87500
N  47.70100 27.41400 29.05600
C  48.12700 28.18100 28.05000
C  48.70600 29.41900 28.52700
C  48.66700 29.28500 29.91900
C  48.14600 28.04000 30.15000
C  49.33500 30.54200 27.72100
C  48.96200 29.89700 31.10900
O  49.46400 30.99500 31.42400
C  48.58200 28.98400 32.23200
C  49.72200 28.47900 33.08100
O  50.47300 27.58300 32.88100
O  49.63400 29.17500 34.26300
C  50.45500 28.72800 35.40500
H  45.96800 22.70400 32.57600
H  45.62600 22.58000 26.01600
H  48.16000 28.35600 25.91400
H  48.12100 26.66800 34.12000
H  45.84700 24.87400 34.26600
H  47.30800 23.58300 35.36700
H  48.60300 24.59300 34.93800
H  48.15700 23.29300 33.87800
H  45.15400 26.83200 34.40300
H  45.82100 28.11000 33.55200
H  46.42200 29.02000 35.25600
H  47.46800 27.81200 35.92800
H  45.55800 20.08300 31.39500
H  43.82500 20.14600 30.75100
H  44.55300 21.15900 32.07800
H  43.56400 19.09800 28.59100
H  45.25900 18.77600 29.27400
H  44.87800 18.29000 27.67900
H  45.81200 24.58400 24.37400
H  48.14300 26.32800 24.33500
H  48.66400 24.30900 23.72300
H  47.28000 23.46700 23.14800
H  48.11100 22.88500 24.65900
H  46.00500 27.97700 24.94300
H  45.12200 26.71900 24.08600
H  47.55900 27.65300 22.64200
H  46.32300 28.90900 22.91100
H  45.88000 27.37200 22.11600
H  50.23900 30.12700 27.27600
H  49.62000 31.45200 28.24900
H  48.64400 30.71700 26.89600
H  47.89400 29.60000 32.81100
H  51.47900 29.10100 35.38900
H  50.56400 27.64300 35.43300
H  50.14600 29.16300 36.35500

