158

Mg -2.01000 17.17800 26.34500
C  -2.58400 14.71100 28.63600
C  -2.58900 19.71600 28.56500
C  -1.69200 19.48900 23.70100
C  -2.36000 14.65100 23.84300
N  -2.68900 17.20000 28.37500
C  -2.76300 16.01400 29.20600
C  -2.92100 16.48200 30.72100
C  -2.97400 18.07100 30.55300
C  -2.73300 18.36800 29.07300
C  -4.25700 18.75900 31.17300
C  -1.81000 15.89500 31.61200
C  -1.61500 16.69100 32.98100
H  -1.06100 15.92300 34.22200
N  -2.11600 19.30800 26.22000
C  -2.28500 20.13100 27.30100
C  -2.19000 21.51600 26.83300
C  -1.88300 21.47100 25.40200
C  -1.86700 20.02500 25.05600
C  -2.39200 22.81200 27.68100
C  -1.75000 22.60500 24.40300
O  -1.36500 22.43300 23.19600
C  -1.89100 24.08200 24.83100
N  -2.00700 17.06600 24.04500
C  -1.84500 18.15800 23.25700
C  -1.93300 17.75400 21.79500
C  -2.37900 16.24400 21.85000
C  -2.20600 15.95000 23.34000
C  -2.83900 18.78700 20.99700
C  -1.61600 15.27300 20.89700
C  -2.48200 14.42200 19.97600
N  -2.13100 15.09400 26.18400
C  -2.23700 14.17800 25.18600
C  -2.40200 12.86400 25.72400
C  -2.49800 13.01400 27.09800
C  -2.37800 14.35500 27.30300
C  -2.44500 11.63700 24.91400
C  -2.59700 12.25800 28.35600
O  -2.62500 11.06400 28.45500
C  -2.59300 13.34800 29.41000
C  -1.36500 13.07700 30.17900
O  -0.20900 13.40900 29.85100
O  -1.63700 12.32900 31.29500
C  -0.64300 12.14600 32.36300
H  -2.76300 20.56900 29.22400
H  -1.56200 20.15300 22.84400
H  -2.69400 14.01900 23.01800
H  -3.86700 16.04500 31.04000
H  -2.05600 18.48000 30.97300
H  -3.76600 19.53100 31.76600
H  -4.67100 18.08100 31.91900
H  -5.02300 18.99200 30.43400
H  -0.86100 15.86900 31.07700
H  -2.08800 14.86800 31.85000
H  -2.58100 17.07200 33.31100
H  -1.00200 17.57900 32.82800
H  -1.45500 23.36700 27.71900
H  -2.74700 22.71100 28.70700
H  -3.05600 23.40700 27.05400
H  -2.87300 24.28400 25.25800
H  -1.77600 24.74900 23.97700
H  -1.13100 24.34400 25.56800
H  -0.92700 17.69600 21.37900
H  -3.42200 16.19900 21.53600
H  -3.29900 19.56300 21.60900
H  -3.50700 18.29400 20.29200
H  -2.05500 19.28400 20.42500
H  -0.86600 14.63500 21.36600
H  -1.08000 15.99300 20.27800
H  -2.77400 15.05500 19.13800
H  -3.36600 14.01700 20.46700
H  -1.95500 13.59300 19.50300
H  -3.25100 11.83700 24.20800
H  -2.66700 10.81300 25.59200
H  -1.47100 11.43300 24.47000
H  -3.37900 13.26800 30.16000
H  0.14500 12.89800 32.34300
H  -0.18200 11.16700 32.49600
H  -1.27100 12.33700 33.23300
Mg 16.71300 51.97600 26.08300
C  18.69200 50.85800 28.73700
C  14.30300 52.66300 28.28700
C  14.73500 52.84100 23.48200
C  19.21700 50.79300 23.94500
N  16.46700 51.51300 28.21900
C  17.49100 51.30600 29.10300
C  17.04300 51.53500 30.56200
C  15.50700 51.76800 30.34100
C  15.41800 52.03100 28.85300
C  14.50200 50.71900 30.91800
C  17.79700 52.76900 31.17500
C  18.44000 52.74400 32.53500
H  17.65300 52.00300 33.63800
N  14.79500 52.74800 25.91500
C  13.93100 53.06800 26.94800
C  12.83900 53.84000 26.44900
C  12.99100 53.91000 25.03300
C  14.17900 53.14000 24.74300
C  11.59900 54.25000 27.35200
C  12.21100 54.70800 24.00300
O  12.47200 54.81200 22.83100
C  10.92900 55.38300 24.48200
N  16.88000 51.74600 24.00100
C  15.95400 52.27700 23.12000
C  16.45000 52.03300 21.67600
C  18.01000 51.72100 21.89800
C  18.04200 51.35700 23.39300
C  15.59900 50.87400 20.94300
C  18.93500 52.95500 21.51000
C  20.07100 52.70900 20.41900
N  18.52700 50.85800 26.24300
C  19.40200 50.43800 25.30100
C  20.58800 49.83300 25.94100
C  20.42300 50.04400 27.30700
C  19.07900 50.62000 27.44800
C  21.80100 49.32300 25.29600
C  20.95000 49.87000 28.64000
O  21.98400 49.31400 28.96500
C  19.87500 50.41600 29.63400
C  19.54000 49.25300 30.42700
O  18.70800 48.39900 30.14700
O  20.20300 49.32100 31.66100
C  20.12500 48.09900 32.43800
H  13.57600 52.92300 29.05900
H  14.11000 53.09000 22.62200
H  19.97800 50.55000 23.20100
H  17.24200 50.61700 31.11500
H  15.14500 52.65400 30.86200
H  13.82600 50.24500 30.20600
H  13.81800 51.21000 31.61000
H  15.07700 49.90000 31.35100
H  17.17500 53.66300 31.22200
H  18.62000 52.94400 30.48200
H  18.51900 53.77400 32.88400
H  19.35500 52.15200 32.51900
H  11.63400 55.34000 27.37200
H  11.77400 53.92000 28.37600
H  10.71300 53.76900 26.93900
H  10.20300 54.59000 24.65700
H  10.68700 56.04700 23.65200
H  11.22900 55.93000 25.37600
H  16.28900 52.99100 21.18200
H  18.29000 50.80300 21.38300
H  14.82900 50.48300 21.60800
H  16.23400 50.06100 20.59000
H  15.18600 51.50400 20.15600
H  19.38900 53.49100 22.34300
H  18.19200 53.60100 21.04100
H  20.51000 53.64500 20.07500
H  19.57200 52.07600 19.68500
H  20.88000 52.13600 20.87100
H  21.45700 48.34600 24.95600
H  22.60300 49.11900 26.00500
H  22.18400 49.92300 24.47100
H  20.19100 51.23400 30.28100
H  19.31900 48.05300 33.16900
H  21.03800 48.00800 33.02700
H  20.07100 47.17500 31.86300

