158

Mg 41.22300 8.62500 29.79900
C  42.99600 9.98000 32.42900
C  38.95100 7.39100 32.06100
C  39.54800 7.33900 27.21400
C  43.88800 9.48100 27.73900
N  41.16500 8.56400 31.98700
C  41.91200 9.24200 32.87200
C  41.30300 9.21500 34.29900
C  40.10900 8.16200 34.11500
C  40.07100 8.00100 32.62000
C  40.23200 6.79700 34.86600
C  40.81700 10.64000 34.84300
C  40.13300 10.69000 36.20000
H  40.67500 11.69300 37.21500
N  39.48200 7.65300 29.66100
C  38.55500 7.28900 30.66400
C  37.32200 6.93400 30.12100
C  37.47700 7.17800 28.72400
C  38.92100 7.42400 28.43700
C  36.06900 6.55400 30.89600
C  36.45700 7.17200 27.62800
O  36.65000 7.35700 26.41500
C  35.09700 6.87900 28.03300
N  41.66400 8.28000 27.73500
C  40.84700 7.73100 26.84800
C  41.54500 7.64600 25.38900
C  43.00700 8.23300 25.73100
C  42.90300 8.69700 27.17800
C  41.44400 6.12700 24.97800
C  43.47200 9.20800 24.63400
C  44.82800 8.90600 23.99700
N  43.03400 9.65800 29.93700
C  43.99400 9.93600 29.01300
C  45.05000 10.67900 29.60500
C  44.65000 10.86700 30.96100
C  43.48000 10.13600 31.13200
C  46.30300 11.02500 29.00700
C  45.07200 11.40300 32.27000
O  46.01700 12.11900 32.52400
C  43.88100 10.99700 33.22300
C  44.45700 10.44400 34.42300
O  44.77200 9.32400 34.58900
O  44.66200 11.47400 35.36400
C  45.14200 11.01000 36.70000
H  38.20000 6.89800 32.68300
H  38.97800 6.88800 26.40000
H  44.73200 9.73100 27.09300
H  42.05300 8.72600 34.92100
H  39.17100 8.62100 34.42800
H  40.20500 5.94200 34.19000
H  39.52800 6.69200 35.69200
H  41.20800 6.74500 35.34900
H  40.17000 11.24600 34.20800
H  41.64400 11.32100 35.04400
H  40.04500 9.71800 36.68500
H  39.09000 10.95600 36.02800
H  36.33500 6.42800 31.94500
H  35.86900 5.54300 30.53900
H  35.16500 7.15500 30.79600
H  34.91900 7.69700 28.73100
H  34.97400 5.88000 28.45300
H  34.35300 6.88900 27.23600
H  40.95300 8.31900 24.77000
H  43.74900 7.43900 25.82500
H  42.40300 5.86100 24.53300
H  40.68600 6.06000 24.19800
H  41.14000 5.40900 25.73900
H  43.55000 10.18000 25.12200
H  42.65300 9.39700 23.94000
H  44.81800 8.94200 22.90800
H  45.41600 8.08800 24.41400
H  45.46000 9.72200 24.34800
H  46.94600 10.15900 28.84800
H  46.94200 11.67000 29.61100
H  46.34800 11.39700 27.98300
H  43.23000 11.79500 33.58000
H  46.15100 10.60700 36.61700
H  44.56000 10.25800 37.23300
H  45.26100 11.86400 37.36600
Mg -1.77800 34.75100 27.21300
C  -3.67800 33.01300 29.63200
C  -0.84200 36.83300 29.80100
C  -0.19300 36.62600 24.96600
C  -3.31300 32.86600 24.67500
N  -2.27500 34.92500 29.53100
C  -3.02100 34.07000 30.27700
C  -2.85300 34.27000 31.78100
C  -2.02400 35.61000 31.72100
C  -1.62600 35.81800 30.26100
C  -2.72900 36.85500 32.31400
C  -2.17000 33.05800 32.39300
C  -1.15900 33.12800 33.54700
H  -1.48000 32.63500 34.92200
N  -0.61700 36.50500 27.39400
C  -0.32100 37.17400 28.47800
C  0.64400 38.25200 28.20100
C  0.85400 38.23800 26.77100
C  -0.01600 37.10700 26.34200
C  1.16300 39.22900 29.27300
C  1.61900 39.08000 25.87900
O  1.60900 38.97700 24.62600
C  2.48500 40.17000 26.50200
N  -1.73200 34.76400 25.12800
C  -0.99600 35.60500 24.44100
C  -1.00500 35.33600 22.88300
C  -1.85700 34.02600 22.85800
C  -2.35600 33.83400 24.30400
C  -1.49200 36.55500 21.99500
C  -1.21300 32.79000 22.24400
C  0.08900 32.33500 22.80400
N  -3.13300 33.21400 27.10300
C  -3.68100 32.60100 26.03100
C  -4.38800 31.42100 26.50900
C  -4.44300 31.58800 27.89800
C  -3.71400 32.73800 28.23300
C  -5.06200 30.37400 25.52800
C  -4.99900 31.07300 29.14200
O  -5.75900 30.12700 29.27300
C  -4.52000 31.96200 30.27600
C  -5.76600 32.45400 30.84600
O  -6.56100 33.30200 30.37900
O  -5.99200 31.91600 32.04400
C  -7.05500 32.22600 33.01400
H  -0.41000 37.49800 30.55100
H  0.30100 37.32100 24.28400
H  -3.85500 32.33400 23.89100
H  -3.89200 34.36300 32.09800
H  -1.05000 35.57600 32.21100
H  -2.88200 37.63700 31.57000
H  -2.13500 37.29500 33.11500
H  -3.69500 36.74500 32.80700
H  -1.62600 32.56400 31.58800
H  -2.97600 32.45000 32.80300
H  -1.08300 34.19000 33.78000
H  -0.19300 32.68700 33.30100
H  0.65600 39.05000 30.22100
H  0.98800 40.26300 28.97700
H  2.22900 39.07500 29.44000
H  3.19600 39.55900 27.05900
H  1.90900 40.94300 27.01000
H  3.03500 40.65500 25.69500
H  -0.01600 35.09200 22.49500
H  -2.62400 34.28900 22.12900
H  -1.63300 37.38100 22.69200
H  -2.43100 36.62100 21.44700
H  -0.70700 36.82800 21.28900
H  -1.15100 33.00900 21.17800
H  -1.95000 31.99600 22.36600
H  0.02500 31.37100 23.30900
H  0.55500 32.94600 23.57700
H  0.78100 32.28700 21.96200
H  -5.52200 29.56900 26.10100
H  -4.36200 29.99400 24.78400
H  -5.85000 30.78400 24.89700
H  -4.00300 31.28400 30.95500
H  -7.89100 32.86300 32.72500
H  -6.64100 32.70200 33.90300
H  -7.41100 31.29600 33.45500

