158

Mg 24.18500 -4.66100 45.90300
C  26.33800 -2.47300 44.34700
C  21.73400 -3.53300 43.63200
C  22.48800 -7.49200 46.52700
C  26.95500 -5.93100 47.82400
N  24.04400 -3.24700 44.18300
C  25.02800 -2.37100 43.83000
C  24.60500 -1.30500 42.75100
C  23.06100 -1.39400 42.95200
C  22.87000 -2.79300 43.63400
C  22.50100 -0.28200 43.85500
C  25.14100 -1.82600 41.36200
C  25.88900 -0.82700 40.53200
H  25.77400 -0.92100 39.00200
N  22.27900 -5.47600 45.16800
C  21.49800 -4.78100 44.28100
C  20.24700 -5.50500 44.29900
C  20.42300 -6.72000 45.07900
C  21.74300 -6.61700 45.63400
C  19.12400 -5.08100 43.38400
C  19.45200 -7.90200 45.37100
O  18.29800 -7.87300 44.83300
C  19.85800 -9.19800 46.06000
N  24.68100 -6.46100 47.07000
C  23.74100 -7.36900 47.23900
C  24.25400 -8.42600 48.30700
C  25.53100 -7.73400 48.87200
C  25.84800 -6.68300 47.80300
C  23.29800 -8.83000 49.48400
C  26.76000 -8.78000 49.11300
C  27.56100 -8.62200 50.47700
N  26.19800 -4.24300 46.19500
C  27.20600 -4.78300 46.95400
C  28.45900 -4.09900 46.79500
C  28.14800 -3.25300 45.67300
C  26.79100 -3.33700 45.40200
C  29.73400 -4.42800 47.47600
C  28.76700 -2.33400 44.72900
O  29.89400 -2.00200 44.37700
C  27.58000 -1.77700 43.91800
C  27.58100 -0.26700 44.04000
O  27.18500 0.35700 45.00000
O  27.91400 0.21000 42.82700
C  28.20500 1.66700 42.82500
H  20.82300 -3.12300 43.19200
H  22.03700 -8.36300 47.00700
H  27.77100 -6.25200 48.47400
H  25.03400 -0.35700 43.07800
H  22.57100 -1.25700 41.98800
H  23.28200 0.31700 44.32200
H  21.95800 -0.72800 44.68900
H  21.81200 0.29000 43.23300
H  24.28600 -2.02300 40.71500
H  25.80700 -2.67500 41.52100
H  26.92400 -1.13000 40.69000
H  25.75800 0.20800 40.84400
H  19.31100 -5.52000 42.40400
H  19.07800 -3.99300 43.33200
H  18.16500 -5.49500 43.69500
H  19.20200 -9.99300 45.70800
H  19.75300 -9.03200 47.13200
H  20.85400 -9.45700 45.70000
H  24.47500 -9.37400 47.81700
H  25.37800 -7.27700 49.85000
H  23.84300 -8.87400 50.42700
H  23.00900 -9.88100 49.50300
H  22.44800 -8.14700 49.47900
H  27.43100 -8.84300 48.25600
H  26.34300 -9.78700 49.08700
H  28.37700 -7.94000 50.23600
H  27.99300 -9.55800 50.83000
H  26.81500 -8.20100 51.15000
H  30.40300 -5.00500 46.83700
H  29.46000 -4.97200 48.37900
H  30.26000 -3.50600 47.72500
H  27.87300 -1.97100 42.88600
H  27.76500 2.04000 41.90000
H  29.28100 1.84000 42.81400
H  27.81400 2.32800 43.59900
Mg 30.73800 56.67800 39.79300
C  28.16400 54.41100 38.77200
C  33.02000 54.16700 38.79800
C  33.19200 58.95500 39.71800
C  28.36600 59.21900 40.00400
N  30.53500 54.50000 38.81100
C  29.38700 53.81300 38.61400
C  29.67900 52.39000 38.20200
C  31.25700 52.29400 38.20900
C  31.63200 53.71700 38.66800
C  31.94100 51.07800 38.91900
C  29.03400 51.94800 36.94000
C  29.36700 52.70600 35.62700
H  28.31500 53.45800 34.93200
N  32.79400 56.62100 39.34400
C  33.54000 55.47400 39.08500
C  34.93100 55.85600 38.99800
C  35.04600 57.23000 39.30800
C  33.67900 57.62800 39.48700
C  36.04900 55.00100 38.54700
C  36.38500 57.96800 39.34200
O  37.42900 57.53400 38.86400
C  36.42100 59.23900 40.15000
N  30.77400 58.80500 39.89600
C  31.90100 59.48800 39.89300
C  31.62200 60.97300 39.99100
C  30.09700 61.07700 40.28300
C  29.70800 59.61800 40.08500
C  32.50400 61.67200 41.07300
C  29.31800 62.07200 39.37300
C  29.81300 63.54700 39.18000
N  28.67200 56.86100 39.62000
C  27.83000 57.93700 39.76200
C  26.51800 57.53100 39.53300
C  26.55300 56.14100 39.21200
C  27.97600 55.83400 39.16800
C  25.27400 58.35100 39.75700
C  25.78100 55.02200 39.00200
O  24.52300 54.93500 39.04600
C  26.69400 53.88200 38.64100
C  26.28400 52.78000 39.61100
O  26.78900 52.61800 40.71200
O  25.28500 52.05800 39.04600
C  24.88500 50.80200 39.66600
H  33.77600 53.40700 38.58800
H  33.94000 59.74100 39.59500
H  27.65000 60.01600 40.21100
H  29.24400 51.76300 38.98000
H  31.67000 52.18500 37.20600
H  32.54300 50.49200 38.22500
H  31.16700 50.44800 39.35800
H  32.58800 51.51400 39.68100
H  27.98300 51.75600 37.15400
H  29.49500 50.98300 36.72500
H  29.63500 51.89500 34.95000
H  30.18300 53.39600 35.84500
H  35.68500 54.02500 38.22700
H  36.71700 54.92700 39.40500
H  36.66000 55.46700 37.77400
H  37.40600 59.35800 40.60100
H  35.68900 58.99000 40.91800
H  36.08500 60.21200 39.79200
H  31.84200 61.35400 38.99300
H  29.89000 61.34600 41.31800
H  33.35200 61.10900 41.46300
H  31.87900 61.98900 41.90800
H  32.92900 62.58600 40.65800
H  28.30100 62.08600 39.76700
H  29.30900 61.55300 38.41500
H  30.22300 63.79000 38.19900
H  30.58200 63.73600 39.92900
H  28.99800 64.25300 39.34200
H  25.29300 59.42100 39.54900
H  25.07500 58.45800 40.82400
H  24.40700 57.76100 39.45900
H  26.52700 53.42300 37.66700
H  23.81700 50.77700 39.88200
H  25.38600 50.65000 40.62200
H  25.17600 50.11000 38.87700

