158

Mg 25.50100 -1.33600 29.27900
C  27.50000 -1.40400 32.30000
C  22.68400 -1.11700 31.35100
C  23.69400 -1.44300 26.55400
C  28.39500 -2.08200 27.44900
N  25.14600 -1.45500 31.62600
C  26.17000 -1.29600 32.57300
C  25.48300 -1.18200 33.95900
C  23.95200 -1.01900 33.62000
C  23.92700 -1.25500 32.10500
C  23.03900 -1.85800 34.45800
C  26.14500 -0.12800 34.90300
C  25.15500 0.50300 35.93800
H  25.87500 1.12400 37.15700
N  23.48800 -1.16900 28.95800
C  22.50800 -1.05100 29.95100
C  21.21600 -1.07000 29.22900
C  21.51500 -1.00600 27.80200
C  22.99100 -1.23200 27.70400
C  19.88200 -1.05400 29.95700
C  20.52100 -0.89100 26.66800
O  20.79100 -1.04200 25.48300
C  19.11000 -0.71700 26.96500
N  25.97500 -1.88500 27.32200
C  25.05800 -1.82600 26.34900
C  25.65600 -1.96600 24.94200
C  27.25700 -2.03700 25.23400
C  27.21400 -1.95800 26.76700
C  25.13200 -3.23300 24.20200
C  28.04600 -0.87000 24.66700
C  27.71600 0.51900 25.07300
N  27.52600 -1.75200 29.75600
C  28.55700 -1.94400 28.89400
C  29.78500 -2.05000 29.62900
C  29.39500 -1.86900 30.98100
C  28.05100 -1.62500 31.02300
C  31.13400 -2.28000 29.02000
C  29.93700 -1.73200 32.33200
O  31.06900 -1.88300 32.83400
C  28.70800 -1.34600 33.23800
C  28.67000 -2.32900 34.39800
O  28.44000 -3.55600 34.37400
O  29.20300 -1.63300 35.53400
C  29.41500 -2.45300 36.75000
H  21.84100 -0.85400 31.99500
H  23.13000 -1.45900 25.61900
H  29.21800 -2.28000 26.75800
H  25.79200 -2.14000 34.37900
H  23.66400 0.02100 33.77400
H  22.51400 -2.59000 33.84400
H  22.26800 -1.18400 34.83200
H  23.43600 -2.42700 35.29900
H  26.32300 0.74000 34.26700
H  27.04400 -0.46900 35.41600
H  24.47700 -0.32200 36.15300
H  24.49800 1.26700 35.52300
H  20.05500 -1.25500 31.01400
H  19.25400 -1.89200 29.65200
H  19.31000 -0.13400 29.84100
H  18.90800 0.16200 27.57700
H  18.84400 -1.67100 27.42200
H  18.51700 -0.60800 26.05700
H  25.49800 -1.08800 24.31500
H  27.64200 -2.97000 24.82300
H  24.81300 -2.92200 23.20700
H  24.30900 -3.66800 24.76900
H  25.90100 -3.98600 24.02600
H  27.80300 -0.96500 23.60900
H  29.11800 -1.05500 24.59000
H  27.18400 0.93700 24.21800
H  28.60700 1.13400 25.20400
H  27.04300 0.46500 25.92800
H  31.20500 -1.70200 28.09800
H  31.22300 -3.32500 28.72200
H  31.80900 -1.88800 29.78000
H  28.88900 -0.34700 33.63300
H  29.13300 -3.50100 36.64900
H  28.82500 -2.03300 37.56400
H  30.42500 -2.42100 37.15800
Mg -10.28100 40.15200 41.91700
C  -9.21100 37.09900 40.63600
C  -7.35400 41.62000 40.54800
C  -11.63200 43.24200 42.29200
C  -13.30900 38.73200 42.82100
N  -8.49100 39.40000 40.69400
C  -8.31500 38.13200 40.34100
C  -7.05700 37.98100 39.47600
C  -6.37400 39.37000 39.64300
C  -7.44800 40.21300 40.39000
C  -4.94000 39.36700 40.03600
C  -7.45300 37.55400 38.01400
C  -6.75900 36.28900 37.46400
H  -5.46400 36.76500 36.66800
N  -9.57800 42.18500 41.47000
C  -8.32900 42.55100 41.03300
C  -8.21500 44.04800 41.18200
C  -9.38100 44.48800 41.73800
C  -10.34300 43.29400 41.75000
C  -7.01800 44.73300 40.70800
C  -9.71000 45.92700 42.09700
O  -8.88000 46.77200 41.76200
C  -11.04300 46.43600 42.72300
N  -12.27000 40.87100 42.25100
C  -12.55800 42.20000 42.53100
C  -14.01800 42.34200 42.93000
C  -14.39700 40.93800 43.50100
C  -13.28600 40.09900 42.80300
C  -14.31200 43.37500 43.97100
C  -15.88700 40.57800 43.10900
C  -16.72300 39.84300 44.25400
N  -11.03300 38.23500 41.98900
C  -12.27200 37.78600 42.30500
C  -12.45100 36.36100 42.05800
C  -11.25600 36.05100 41.35500
C  -10.47300 37.24100 41.35000
C  -13.66000 35.60200 42.22000
C  -10.48100 35.02000 40.65900
O  -10.70900 33.80200 40.57000
C  -9.12200 35.69800 40.21900
C  -8.01800 34.89600 40.91000
O  -7.47800 35.15000 41.99800
O  -7.69000 33.81200 40.14900
C  -7.03500 32.78600 40.88500
H  -6.39100 42.01500 40.21800
H  -12.13500 44.18900 42.49800
H  -14.24300 38.32900 43.21900
H  -6.23000 37.37000 39.83800
H  -6.31800 39.93600 38.71300
H  -4.63700 40.24000 40.61400
H  -4.28200 39.22300 39.17900
H  -4.86300 38.47200 40.65300
H  -7.12800 38.41800 37.43500
H  -8.52600 37.50200 37.82600
H  -7.37900 35.77700 36.72800
H  -6.51600 35.59900 38.27200
H  -6.69000 45.47100 41.44000
H  -7.42500 45.10400 39.76800
H  -6.21900 44.05100 40.41600
H  -11.80000 46.25900 41.95900
H  -10.96500 47.49700 42.96100
H  -11.24900 45.92500 43.66400
H  -14.59000 42.47600 42.01200
H  -14.19100 40.94000 44.57100
H  -14.51900 44.31100 43.45200
H  -13.41200 43.63000 44.53000
H  -15.21700 43.10300 44.51500
H  -15.94600 39.83500 42.31300
H  -16.45500 41.44300 42.76500
H  -16.77200 38.77300 44.05700
H  -17.72600 40.26500 44.31900
H  -16.25600 40.01100 45.22500
H  -14.49800 36.15300 41.79400
H  -13.69100 35.34700 43.27900
H  -13.63100 34.65200 41.68500
H  -9.11100 35.51600 39.14400
H  -7.20900 31.88700 40.29300
H  -7.41900 32.57000 41.88200
H  -5.98100 32.99100 41.07400

