158

Mg 26.20600 -0.60900 29.57000
C  28.16000 -0.52600 32.53700
C  23.49700 -0.08400 31.49000
C  24.43300 -0.99200 26.79200
C  29.19200 -1.14900 27.84200
N  25.93300 -0.42700 31.82700
C  26.87800 -0.27900 32.79600
C  26.14400 0.02400 34.18700
C  24.60300 -0.00200 33.82800
C  24.61900 -0.15900 32.28800
C  23.70900 -0.94100 34.72800
C  26.65600 1.34400 34.89000
C  27.03000 1.10300 36.37100
H  26.53200 2.13000 37.33300
N  24.21400 -0.56600 29.15800
C  23.23600 -0.27900 30.10900
C  21.93800 -0.40800 29.45500
C  22.23700 -0.47800 28.03900
C  23.66800 -0.74600 27.99300
C  20.71900 -0.32100 30.22800
C  21.27600 -0.54700 26.94500
O  21.68700 -0.60100 25.79100
C  19.87700 -0.37700 27.15700
N  26.69200 -1.16400 27.59300
C  25.80200 -1.20400 26.63700
C  26.40500 -1.25800 25.17300
C  27.92900 -1.17700 25.53100
C  27.99500 -1.11100 27.05700
C  25.90700 -2.43100 24.26100
C  28.67200 0.08400 24.87400
C  28.65400 1.44700 25.60400
N  28.22000 -0.86900 30.03300
C  29.29800 -1.18700 29.24100
C  30.55700 -1.20100 30.01700
C  30.10900 -1.03600 31.31700
C  28.68000 -0.81500 31.28000
C  31.98700 -1.33700 29.49600
C  30.59600 -0.85800 32.70300
O  31.71800 -0.91500 33.13100
C  29.29600 -0.41100 33.51800
C  29.28100 -1.46700 34.66000
O  29.08300 -2.64600 34.52500
O  29.57900 -0.82200 35.82600
C  29.52200 -1.64000 37.07700
H  22.59500 0.11100 32.07500
H  23.97400 -1.17900 25.81900
H  30.10400 -1.22600 27.24700
H  26.45700 -0.81900 34.80200
H  24.14700 0.94700 34.10900
H  23.13700 -1.68000 34.16700
H  22.91600 -0.45700 35.29700
H  24.28100 -1.35600 35.55800
H  25.86700 2.08900 34.78900
H  27.60300 1.69900 34.48300
H  28.05900 1.23300 36.70800
H  26.73100 0.10700 36.69900
H  20.17100 0.57200 29.92800
H  20.89500 -0.19100 31.29600
H  20.10600 -1.21400 30.10500
H  19.36200 -0.24600 26.20500
H  19.61100 0.48000 27.77600
H  19.49100 -1.34000 27.49000
H  26.06100 -0.36400 24.65100
H  28.52600 -2.05200 25.27300
H  25.17100 -3.02300 24.80500
H  26.67700 -3.14300 23.96300
H  25.49300 -2.02600 23.33800
H  28.29500 0.17400 23.85500
H  29.67800 -0.21000 24.57400
H  29.55900 2.04300 25.48800
H  28.52200 1.45000 26.68600
H  27.89900 2.09700 25.16200
H  32.13300 -2.40500 29.66000
H  32.63600 -0.62500 30.00500
H  31.96600 -1.09100 28.43400
H  29.54600 0.60700 33.81500
H  30.40800 -1.34000 37.63700
H  29.46000 -2.72000 36.94000
H  28.61500 -1.31100 37.58300
Mg 35.52100 49.12900 24.91800
C  35.69300 47.46100 27.98100
C  34.21700 51.85500 26.51500
C  35.19700 50.61000 21.91000
C  36.84600 46.16100 23.38300
N  35.03000 49.56600 27.05500
C  35.30500 48.81300 28.19400
C  35.12400 49.66600 29.40600
C  34.35500 50.93700 28.93700
C  34.53800 50.78900 27.45200
C  32.82900 51.07500 29.37000
C  36.51700 49.92700 30.09900
C  36.56800 49.52900 31.55900
H  35.24400 49.61800 32.26200
N  34.95200 51.03100 24.31500
C  34.40900 52.00900 25.14000
C  34.06300 53.11500 24.27700
C  34.35800 52.73200 22.94800
C  34.89100 51.38500 23.01100
C  33.43600 54.37600 24.86600
C  34.07100 53.50000 21.69300
O  34.30600 53.25200 20.49300
C  33.37900 54.89700 21.76800
N  35.97200 48.39300 22.90300
C  35.75500 49.27200 21.85700
C  36.38400 48.71700 20.62300
C  37.09700 47.37400 21.07400
C  36.51400 47.24900 22.52000
C  35.29800 48.44500 19.57500
C  38.70100 47.32500 21.07500
C  39.29600 46.01000 20.51700
N  35.95500 47.14100 25.46600
C  36.54000 46.11800 24.79800
C  36.90500 45.01600 25.66800
C  36.36000 45.42900 26.89400
C  35.94400 46.76100 26.78800
C  37.55200 43.72900 25.28700
C  36.28200 45.07800 28.30200
O  36.50800 44.00000 28.85900
C  35.86100 46.34700 29.02500
C  34.59000 45.92700 29.84100
O  33.41400 45.88600 29.50600
O  35.01400 45.55200 31.11800
C  34.00600 45.23000 32.17100
H  33.80000 52.65200 27.13500
H  35.02500 51.13600 20.96800
H  37.36600 45.26600 23.03400
H  34.49000 48.99300 29.98400
H  34.93600 51.83600 29.14200
H  32.27400 51.08600 28.43200
H  32.68000 51.98900 29.94600
H  32.48400 50.19500 29.91400
H  36.79000 50.97800 29.99800
H  37.24900 49.46500 29.43600
H  37.24800 50.05400 32.23000
H  37.00900 48.53900 31.45000
H  34.11000 55.23200 24.86000
H  33.25700 54.18300 25.92400
H  32.50300 54.54600 24.32800
H  34.02000 55.68600 22.16100
H  32.38100 54.83400 22.20000
H  33.17500 55.20700 20.74300
H  37.12400 49.42800 20.25600
H  36.70500 46.47500 20.60000
H  35.32600 47.38700 19.31100
H  35.43600 49.02700 18.66400
H  34.30900 48.70800 19.95100
H  39.01300 47.61100 22.08000
H  39.10800 48.13000 20.46300
H  40.20700 45.84800 21.09200
H  39.75200 46.08200 19.52900
H  38.47600 45.29700 20.43500
H  38.25700 43.86100 24.46600
H  36.80700 43.01200 24.94000
H  38.01600 43.20600 26.12300
H  36.55600 46.74600 29.76400
H  33.01900 45.23300 31.70900
H  34.01300 45.99600 32.94700
H  34.18500 44.22300 32.54800

