158

Mg 16.87400 -1.33700 28.12600
C  15.62700 0.38700 30.83400
C  18.61100 -3.34000 30.25900
C  18.53100 -2.59100 25.63100
C  15.41800 1.01500 25.99300
N  17.19400 -1.31400 30.39200
C  16.45500 -0.61100 31.27900
C  16.85300 -0.99900 32.73100
C  18.02900 -2.03400 32.52200
C  17.96500 -2.29700 30.95500
C  19.42100 -1.46500 32.95500
C  15.59000 -1.44400 33.53400
C  15.26300 -0.58300 34.80400
H  16.44000 -0.63400 35.84200
N  18.05700 -2.96300 27.96100
C  18.68000 -3.69300 28.91900
C  19.39000 -4.82800 28.35200
C  19.38400 -4.66700 26.95100
C  18.57400 -3.40200 26.75100
C  20.11800 -5.87100 29.08700
C  19.98400 -5.55500 25.94700
O  19.80400 -5.28200 24.79700
C  20.90400 -6.74900 26.32800
N  16.94900 -0.84400 26.13000
C  17.87300 -1.44200 25.35000
C  17.99800 -0.77300 23.92500
C  16.79800 0.28500 23.99300
C  16.37400 0.18100 25.44400
C  19.39700 -0.30300 23.42200
C  15.67600 0.07900 23.06300
C  15.35000 1.20200 22.00800
N  15.75800 0.39200 28.35700
C  15.19400 1.22900 27.38000
C  14.43100 2.23500 28.06000
C  14.57300 1.93800 29.42800
C  15.36400 0.84000 29.56100
C  13.56500 3.19600 27.44800
C  14.21100 2.40500 30.72800
O  13.45900 3.33300 31.06900
C  14.99500 1.48500 31.68000
C  16.06500 2.26000 32.41100
O  17.10300 2.71100 31.93200
O  15.57100 2.69300 33.62400
C  16.11500 3.88200 34.28000
H  19.16000 -4.05800 30.87000
H  19.12700 -2.91000 24.77300
H  14.94700 1.66300 25.25000
H  17.26900 -0.08800 33.16100
H  17.81800 -2.98000 33.02000
H  19.32200 -0.52400 33.49500
H  20.17100 -1.38400 32.16800
H  19.79300 -2.17800 33.69100
H  15.68500 -2.50800 33.75100
H  14.70000 -1.29100 32.92400
H  14.29700 -0.87800 35.21500
H  15.18900 0.47600 34.56000
H  19.70700 -6.86100 28.89000
H  20.06300 -5.67000 30.15600
H  21.16600 -5.67600 28.85700
H  20.46600 -7.56300 26.90700
H  21.86400 -6.46600 26.76100
H  21.07500 -7.21000 25.35600
H  17.59100 -1.47800 23.19900
H  17.14500 1.31600 23.91500
H  19.47600 0.77900 23.31500
H  19.49000 -0.62300 22.38400
H  20.10800 -0.76500 24.10700
H  14.70800 -0.10000 23.53200
H  15.80800 -0.81000 22.44800
H  15.64200 2.22000 22.26700
H  14.27900 1.18100 21.80800
H  15.73800 0.91600 21.03000
H  14.05800 3.84300 26.72200
H  13.11900 3.94200 28.10600
H  12.73100 2.61000 27.06200
H  14.34500 1.06000 32.44500
H  15.94900 3.78300 35.35200
H  15.60500 4.73000 33.82300
H  17.19000 3.96000 34.11800
Mg 28.94400 57.50200 40.56000
C  26.07600 55.70600 39.65300
C  30.83800 55.03300 39.24900
C  31.52600 59.64400 40.25200
C  26.91800 60.30900 41.16400
N  28.42000 55.60800 39.38700
C  27.22000 55.10500 39.14000
C  27.29100 53.75600 38.52600
C  28.84700 53.51900 38.44900
C  29.43200 54.76700 39.15500
C  29.43800 52.23200 39.02800
C  26.54500 53.50400 37.18100
C  26.50200 54.61000 36.09800
H  26.72000 54.32800 34.55200
N  30.98700 57.27700 40.00600
C  31.56000 56.17300 39.57300
C  32.97500 56.38600 39.47800
C  33.26300 57.72300 39.85600
C  31.87400 58.25900 40.03300
C  33.95700 55.24600 39.11300
C  34.58100 58.39600 39.96800
O  35.61300 57.89600 39.55400
C  34.70800 59.72700 40.51500
N  29.21300 59.70900 40.81600
C  30.37600 60.32100 40.58000
C  30.37900 61.81800 40.96100
C  28.86100 61.97900 41.38300
C  28.27900 60.61000 41.09300
C  31.39500 62.21800 42.00100
C  28.12000 63.19400 40.74000
C  27.68200 64.27500 41.79100
N  27.05800 57.87600 40.79700
C  26.37900 59.03300 41.06800
C  24.96100 58.70300 41.28100
C  24.82000 57.41000 40.77000
C  26.10200 56.96300 40.39000
C  23.95100 59.59800 41.82400
C  23.80200 56.40700 40.43700
O  22.60700 56.34200 40.65500
C  24.60400 55.36700 39.53600
C  24.10400 53.98700 40.07700
O  23.32000 53.17400 39.54800
O  24.65000 53.79700 41.30200
C  24.31500 52.58800 41.94800
H  31.53400 54.24000 38.96800
H  32.34200 60.35500 40.10900
H  26.29300 61.17900 41.37600
H  26.93600 52.97400 39.19700
H  29.18000 53.54100 37.41100
H  30.33000 52.53700 39.57500
H  29.66500 51.49500 38.25700
H  28.73200 51.73700 39.69400
H  25.49500 53.30700 37.39700
H  27.02300 52.59300 36.82200
H  27.33400 55.29600 36.25700
H  25.57600 55.15500 36.27700
H  33.96000 54.51900 39.92400
H  34.98700 55.59900 39.05500
H  33.73900 54.80700 38.13900
H  34.09200 60.10500 41.33100
H  34.44000 60.35900 39.66800
H  35.78200 59.83200 40.66500
H  30.52200 62.26400 39.97700
H  28.70100 61.94800 42.46100
H  31.88000 61.32600 42.39700
H  30.96300 62.88600 42.74600
H  32.03500 62.93100 41.48000
H  27.28200 62.98000 40.07700
H  28.88900 63.74900 40.20300
H  27.34500 63.81100 42.71700
H  26.77100 64.74000 41.41300
H  28.51100 64.96500 41.94800
H  23.47300 60.16700 41.02700
H  24.38100 60.34300 42.49400
H  23.13200 59.09200 42.33500
H  24.34900 55.43000 38.47800
H  25.21900 52.24300 42.45000
H  23.91800 51.77300 41.34200
H  23.61900 52.95400 42.70300

