158

Mg 1.63900 -2.08500 44.14900
C  5.14400 -1.58800 43.60000
C  1.07100 0.74400 42.30100
C  -1.46200 -3.08500 43.71900
C  2.56000 -5.17900 45.60400
N  2.95600 -0.60800 43.07100
C  4.36600 -0.57800 43.03000
C  4.83600 0.62900 42.19700
C  3.55500 1.38500 42.05700
C  2.41100 0.49500 42.56600
C  3.53300 2.85100 42.64000
C  5.53000 0.27200 40.85900
C  6.92900 0.91000 40.60300
H  6.99400 1.66200 39.25200
N  -0.06100 -1.25300 43.18800
C  -0.07700 -0.08000 42.48800
C  -1.40900 0.11100 42.04900
C  -2.14800 -1.03300 42.38800
C  -1.23700 -1.85800 43.13300
C  -1.87400 1.27800 41.24600
C  -3.61900 -1.20900 42.13500
O  -4.25600 -0.30200 41.62800
C  -4.39900 -2.42900 42.48800
N  0.74100 -3.88900 44.48300
C  -0.64300 -3.96400 44.42400
C  -1.19900 -5.18200 45.00200
C  0.09900 -5.90800 45.57900
C  1.20700 -4.91600 45.23200
C  -2.27700 -4.92700 46.09700
C  0.39000 -7.25600 44.91500
C  0.17000 -8.36900 45.85900
N  3.45800 -3.21000 44.67400
C  3.68500 -4.38300 45.30600
C  5.11000 -4.59500 45.37800
C  5.68100 -3.51100 44.82100
C  4.67500 -2.70400 44.37600
C  5.63400 -5.91900 45.65600
C  7.01600 -3.00500 44.36900
O  8.15400 -3.44000 44.52200
C  6.66400 -1.67400 43.59900
C  7.19200 -0.57900 44.41500
O  6.83200 -0.28400 45.52300
O  8.25800 0.01000 43.79500
C  8.97900 1.00300 44.66700
H  0.97200 1.73100 41.84500
H  -2.45300 -3.54400 43.69800
H  2.71000 -6.11900 46.14100
H  5.52500 1.22100 42.80100
H  3.28800 1.60000 41.02200
H  3.78200 3.49200 41.79400
H  4.28300 2.95900 43.42400
H  2.57500 3.14300 43.06900
H  4.77100 0.45000 40.09700
H  5.83400 -0.77500 40.89000
H  7.72900 0.16900 40.57500
H  7.23600 1.64900 41.34400
H  -2.59900 1.12800 40.44600
H  -1.08400 1.89200 40.81300
H  -2.38100 1.93100 41.95600
H  -4.15800 -3.37000 41.99200
H  -5.40300 -2.21100 42.12400
H  -4.55000 -2.51800 43.56300
H  -1.70400 -5.73700 44.21100
H  0.11200 -5.85900 46.66800
H  -2.26200 -3.90200 46.46900
H  -2.08200 -5.43800 47.03900
H  -3.31300 -5.12600 45.82000
H  1.44900 -7.27800 44.66000
H  -0.19100 -7.41000 44.00600
H  -0.22100 -7.97500 46.79800
H  1.18800 -8.67700 46.09600
H  -0.40000 -9.14500 45.34800
H  5.64600 -6.10000 46.73000
H  6.68200 -6.03100 45.38000
H  5.04600 -6.68200 45.14500
H  6.96400 -1.63600 42.55200
H  9.34000 0.48000 45.55200
H  8.44600 1.93900 44.83600
H  9.82600 1.21700 44.01400
Mg 49.04400 35.75300 27.80000
C  46.80600 33.98600 29.97300
C  49.03300 38.38200 29.81400
C  50.52600 37.47500 25.44300
C  48.14100 33.22700 25.34900
N  48.08500 36.08600 29.69900
C  47.29600 35.20900 30.51200
C  47.48600 35.67600 31.96600
C  47.79200 37.26500 31.85200
C  48.29900 37.26500 30.35500
C  46.58300 38.17800 31.94400
C  48.64200 34.85100 32.63500
C  48.57400 34.74500 34.12400
H  47.94900 35.76100 35.09500
N  49.90500 37.58500 27.71900
C  49.87000 38.49900 28.66500
C  50.60500 39.63700 28.23800
C  51.02400 39.50800 26.90900
C  50.53900 38.12900 26.62700
C  50.93200 40.83900 29.20000
C  51.78400 40.46500 25.92100
O  52.12300 40.06500 24.79400
C  52.11600 41.88100 26.31900
N  49.35600 35.37400 25.74100
C  49.96400 36.27400 24.96400
C  50.01000 35.95900 23.45000
C  49.48200 34.42800 23.51200
C  48.90000 34.32800 24.95000
C  49.46200 36.96300 22.46500
C  50.69800 33.38000 23.22300
C  50.29000 32.35300 22.26700
N  47.86700 33.86100 27.69400
C  47.58700 33.01400 26.66600
C  46.70500 31.96500 27.04400
C  46.43000 32.29300 28.35000
C  47.13000 33.44500 28.69100
C  46.09200 30.80700 26.17600
C  45.53900 31.93000 29.48100
O  44.76900 30.96000 29.73800
C  45.71200 33.09700 30.56000
C  45.92000 32.60600 31.96400
O  46.90800 32.01000 32.41400
O  44.77800 33.00600 32.73500
C  44.77600 32.72200 34.19000
H  49.13200 39.34700 30.31400
H  51.04100 37.99700 24.63400
H  47.89500 32.36900 24.72100
H  46.58400 35.50200 32.55100
H  48.56600 37.71200 32.47500
H  46.71000 39.05200 32.58300
H  45.76500 37.52900 32.25500
H  46.42700 38.60100 30.95200
H  49.51100 35.46600 32.40100
H  48.80200 33.85800 32.21400
H  49.49500 34.45400 34.62800
H  47.84000 33.97400 34.35800
H  50.08000 41.50200 29.05100
H  51.86400 41.30500 28.87900
H  50.91000 40.62600 30.26900
H  52.22500 42.52600 25.44700
H  53.07800 41.98800 26.82000
H  51.28200 42.43800 26.74500
H  51.06200 35.97200 23.16600
H  48.69600 34.30000 22.76800
H  48.41200 37.16600 22.67700
H  49.67900 36.63100 21.44900
H  49.93200 37.91600 22.70800
H  51.16300 33.02400 24.14200
H  51.48900 33.99200 22.79000
H  50.97900 32.45200 21.42800
H  49.32800 32.49500 21.77600
H  50.28900 31.35400 22.70500
H  45.17600 30.40000 26.60300
H  46.90800 30.11300 25.97200
H  45.85400 31.20200 25.18800
H  44.84100 33.74700 30.48100
H  44.96600 31.66000 34.34400
H  43.76300 32.92800 34.53400
H  45.47500 33.31300 34.78200

