158

Mg 2.08700 -1.87300 45.25100
C  5.38800 -0.69200 44.96200
C  0.98900 0.99600 43.43000
C  -0.86000 -3.41100 44.65000
C  3.26000 -4.83900 46.69400
N  3.08100 -0.03300 44.32000
C  4.51000 0.24200 44.35900
C  4.77700 1.70800 43.90700
C  3.30700 2.16500 43.38500
C  2.38000 0.93500 43.75700
C  2.74500 3.51900 43.92300
C  5.92500 1.74900 42.82900
C  6.06600 0.59400 41.88900
H  7.01500 0.73800 40.68600
N  0.29100 -1.25200 44.17300
C  -0.02400 -0.05000 43.62200
C  -1.36700 -0.14500 43.11200
C  -1.98500 -1.27700 43.66200
C  -0.83200 -2.06300 44.17800
C  -2.07100 0.96800 42.40300
C  -3.48200 -1.71900 43.67900
O  -4.32900 -0.97500 43.23400
C  -4.11500 -2.91300 44.43200
N  1.27500 -3.93400 45.51300
C  -0.01500 -4.24500 45.25700
C  -0.31900 -5.60700 46.00800
C  0.97500 -6.08400 46.54600
C  1.94500 -4.91200 46.25900
C  -1.39700 -5.38200 47.11000
C  1.53200 -7.40100 45.95300
C  2.18000 -8.42500 46.95500
N  3.94000 -2.63500 45.74200
C  4.31200 -3.88800 46.33400
C  5.70300 -3.92900 46.53100
C  6.13600 -2.68600 46.07900
C  5.01100 -1.94800 45.56900
C  6.54400 -5.00500 47.23300
C  7.29700 -1.83200 46.03500
O  8.46800 -2.02300 46.41000
C  6.86900 -0.54000 45.30800
C  7.16900 0.62400 46.16400
O  6.80700 0.77500 47.32400
O  7.90600 1.54900 45.46100
C  7.94700 2.84200 46.18200
H  0.62000 1.88100 42.90700
H  -1.81900 -3.93200 44.60300
H  3.65800 -5.68700 47.25500
H  5.10100 2.32800 44.74300
H  3.35300 2.27400 42.30200
H  3.60200 3.96200 44.43100
H  2.01200 3.32400 44.70600
H  2.30400 4.18500 43.18100
H  6.83600 1.96200 43.38800
H  5.90600 2.63000 42.18700
H  5.06600 0.45400 41.47900
H  6.31100 -0.37100 42.33300
H  -2.37800 0.55200 41.44300
H  -1.35800 1.75800 42.16700
H  -2.87000 1.51300 42.90700
H  -3.74200 -3.79700 43.91500
H  -5.19300 -2.87100 44.27500
H  -3.85400 -2.97800 45.48800
H  -0.79100 -6.24900 45.26400
H  0.99600 -6.16900 47.63200
H  -1.07000 -5.74400 48.08400
H  -2.33900 -5.86100 46.84300
H  -1.65300 -4.32900 47.22500
H  2.40600 -7.13100 45.36100
H  0.77500 -7.89900 45.34600
H  3.22900 -8.55200 46.68600
H  1.71800 -9.39700 47.12600
H  2.23200 -8.00300 47.95900
H  6.30200 -4.98200 48.29500
H  7.54700 -4.67000 46.97000
H  6.31700 -5.99700 46.84100
H  7.53500 -0.58100 44.44600
H  8.29300 3.54000 45.42000
H  8.67200 2.73000 46.98800
H  6.94900 3.08700 46.54600
Mg -13.31300 15.96800 40.56200
C  -10.52900 13.67600 40.48000
C  -11.19300 18.32500 39.19100
C  -16.01100 18.04200 40.03100
C  -15.33800 13.37400 41.40800
N  -11.11500 15.88000 39.77600
C  -10.20400 14.88800 39.91100
C  -8.77800 15.38300 39.61900
C  -8.98600 16.92700 39.56900
C  -10.57400 17.07900 39.45900
C  -8.50300 17.69200 40.86500
C  -8.20700 14.66100 38.34900
C  -6.77800 15.19800 38.09600
H  -6.43700 15.97300 36.82900
N  -13.53600 17.91200 39.85800
C  -12.54000 18.73000 39.35900
C  -13.14300 20.01200 39.00600
C  -14.51000 19.98100 39.34600
C  -14.72600 18.61600 39.74100
C  -12.32600 21.12900 38.37100
C  -15.44300 21.17300 39.24100
O  -15.00900 22.26300 38.93000
C  -16.88400 21.11500 39.71100
N  -15.34700 15.65700 40.56500
C  -16.27100 16.72300 40.35700
C  -17.69600 16.18900 40.64300
C  -17.44500 14.75200 41.03900
C  -15.95700 14.56600 41.03600
C  -18.63600 17.07700 41.60900
C  -18.29100 13.79200 40.18700
C  -19.62200 13.19600 40.75800
N  -13.09900 13.90500 40.88400
C  -13.95300 12.99400 41.34400
C  -13.40800 11.73200 41.57700
C  -12.01500 12.00800 41.33400
C  -11.88100 13.30500 40.86600
C  -14.00300 10.39100 41.96100
C  -10.72000 11.45800 41.43300
O  -10.40400 10.31800 41.89600
C  -9.70900 12.45000 40.82200
C  -8.74200 12.61700 41.87200
O  -8.99200 12.80200 43.09300
O  -7.52100 12.73900 41.31700
C  -6.43400 13.12700 42.21700
H  -10.51200 19.11800 38.87700
H  -16.85600 18.68600 39.77900
H  -16.12400 12.71900 41.79100
H  -8.25300 15.02500 40.50500
H  -8.50400 17.45200 38.74400
H  -7.70300 17.04000 41.21700
H  -9.21400 17.81600 41.68200
H  -8.09700 18.67400 40.62100
H  -8.81300 14.86500 37.46700
H  -8.26800 13.57500 38.41700
H  -6.08300 14.36300 38.00700
H  -6.42200 15.69400 39.00000
H  -11.31400 20.74700 38.24000
H  -12.20200 21.92000 39.11100
H  -12.80900 21.47500 37.45700
H  -16.88200 20.66600 40.70400
H  -17.51300 20.48400 39.08100
H  -17.32100 22.10300 39.85300
H  -18.28800 16.33300 39.73900
H  -17.77900 14.59700 42.06500
H  -18.14400 17.97400 41.98500
H  -19.03000 16.57500 42.49300
H  -19.46000 17.43700 40.99400
H  -17.50300 13.12400 39.84100
H  -18.49500 14.25500 39.22200
H  -19.52500 12.21400 41.22300
H  -20.23900 13.02800 39.87600
H  -20.11100 13.76400 41.54900
H  -15.08000 10.54800 41.89000
H  -13.72400 10.12800 42.98200
H  -13.73100 9.68500 41.17700
H  -9.18500 12.10900 39.92900
H  -6.51500 14.20100 42.38300
H  -5.48500 12.82000 41.77800
H  -6.50100 12.74500 43.23600

