158

Mg 47.60800 15.97700 28.61800
C  45.34800 15.61300 31.30700
C  49.33400 18.16300 30.52000
C  49.50500 16.70800 25.87900
C  45.50000 13.99900 26.59400
N  47.36000 16.67000 30.65500
C  46.40600 16.43400 31.68400
C  46.80200 17.06800 32.97000
C  47.88900 18.07500 32.55300
C  48.19800 17.62800 31.13100
C  47.49500 19.61300 32.69000
C  47.26400 16.16800 34.17100
C  47.57300 16.98300 35.48500
H  48.60600 16.37000 36.47800
N  49.20000 17.24300 28.28300
C  49.81200 18.01500 29.22200
C  50.97000 18.79700 28.63800
C  51.04400 18.35700 27.24800
C  49.88900 17.36900 27.06100
C  51.78000 19.80300 29.42500
C  51.94700 18.81800 26.09900
O  51.96400 18.24000 25.00500
C  52.67000 20.06000 26.22800
N  47.50800 15.38100 26.57800
C  48.43600 15.78700 25.63600
C  48.30700 14.99200 24.29900
C  47.22000 13.91800 24.67800
C  46.74100 14.43600 26.06100
C  47.92000 15.96900 23.10600
C  47.74000 12.47000 24.64000
C  48.88900 12.04300 23.71700
N  45.82600 15.07400 28.85200
C  45.00600 14.38300 27.92700
C  43.77400 13.96800 28.56100
C  43.91900 14.36800 29.87500
C  45.11600 15.03600 30.02600
C  42.62600 13.24300 28.02600
C  43.24800 14.41100 31.15900
O  42.12700 14.00700 31.49500
C  44.19700 15.13700 32.21400
C  43.47000 16.19300 32.86800
O  42.73300 16.99700 32.30300
O  43.86000 16.28800 34.19400
C  43.12200 17.36000 34.92000
H  49.92100 18.89200 31.08300
H  50.13400 16.72100 24.98600
H  44.95100 13.31000 25.94900
H  46.00300 17.67900 33.38900
H  48.81100 17.98200 33.12700
H  46.44800 19.81400 32.91900
H  47.77600 20.24800 31.85100
H  48.05900 19.95400 33.55800
H  48.24600 15.80900 33.86500
H  46.63200 15.32500 34.45200
H  46.61300 17.02700 36.00000
H  47.95400 17.99100 35.32100
H  51.48300 19.97700 30.45900
H  51.82900 20.85300 29.13700
H  52.82400 19.49200 29.46400
H  52.00700 20.90500 26.41300
H  53.09200 20.28100 25.24700
H  53.56100 19.94300 26.84500
H  49.31200 14.62600 24.09000
H  46.36400 14.00000 24.00800
H  46.95900 15.68000 22.67900
H  48.69300 15.93700 22.33900
H  47.87200 17.04200 23.29200
H  46.90400 11.79600 24.45800
H  48.15300 12.25100 25.62400
H  48.58800 11.17200 23.13400
H  49.76000 11.72500 24.28800
H  49.33200 12.78300 23.05000
H  42.96600 12.82000 27.08100
H  41.81500 13.96000 27.89200
H  42.19200 12.52000 28.71700
H  44.58000 14.44500 32.96400
H  43.55600 17.29400 35.91800
H  42.03700 17.32000 35.01600
H  43.36400 18.33900 34.50500
Mg -2.69500 34.98300 27.08500
C  -3.76500 33.02900 29.74300
C  -0.95700 37.02000 29.23900
C  -2.25200 37.05800 24.57100
C  -4.45200 32.88600 24.86400
N  -2.48200 34.93300 29.19000
C  -2.96000 34.10900 30.11900
C  -2.39300 34.38300 31.52300
C  -1.50900 35.65000 31.24600
C  -1.67400 35.94800 29.82200
C  -1.85200 36.84900 32.10100
C  -1.50000 33.30000 32.11300
C  -1.92700 32.54300 33.39200
H  -1.06800 32.51900 34.69400
N  -1.55600 36.66000 26.93200
C  -0.93000 37.42100 27.87300
C  -0.16600 38.44900 27.28500
C  -0.51000 38.44300 25.89100
C  -1.57600 37.37900 25.72000
C  0.94400 39.25600 28.12200
C  0.15500 39.21700 24.67800
O  -0.15500 39.10600 23.45900
C  1.29000 40.16400 24.93800
N  -3.26300 34.96100 25.04700
C  -3.06800 35.99100 24.28300
C  -3.47400 35.70400 22.83600
C  -3.82600 34.26000 22.91300
C  -3.79400 33.97000 24.32000
C  -4.62600 36.69100 22.52400
C  -3.11400 33.14500 21.92600
C  -1.73700 32.59600 22.41300
N  -3.97100 33.36900 27.24800
C  -4.45900 32.55100 26.23600
C  -5.21100 31.42400 26.85300
C  -4.91400 31.57800 28.24800
C  -4.12300 32.69900 28.41500
C  -6.04500 30.45100 26.15300
C  -5.12400 30.97800 29.57400
O  -5.73600 29.99600 29.98600
C  -4.41400 31.95600 30.50300
C  -5.37900 32.53700 31.38700
O  -6.25900 33.34200 31.16400
O  -5.16000 32.00800 32.61100
C  -6.28300 32.09700 33.53600
H  -0.34100 37.67100 29.86300
H  -2.07400 37.73100 23.73000
H  -4.91900 32.19100 24.16400
H  -3.17800 34.61700 32.24200
H  -0.44400 35.44600 31.35300
H  -2.40900 37.60300 31.54500
H  -0.94300 37.38300 32.37500
H  -2.26600 36.55500 33.06600
H  -0.45700 33.59500 32.23600
H  -1.46100 32.44300 31.44100
H  -2.08900 31.49600 33.13600
H  -2.91500 32.88700 33.69900
H  0.71700 40.32100 28.16800
H  1.77100 39.05400 27.44100
H  1.18200 38.92600 29.13300
H  2.20200 39.62200 25.18700
H  0.95700 40.89300 25.67800
H  1.50500 40.74800 24.04300
H  -2.66300 35.90500 22.13500
H  -4.91200 34.33200 22.85000
H  -4.99800 37.04800 23.48500
H  -5.51100 36.27300 22.04500
H  -4.20000 37.39800 21.81300
H  -2.97800 33.56100 20.92700
H  -3.89400 32.39100 21.82300
H  -1.31000 32.14800 21.51600
H  -1.84300 31.69400 23.01500
H  -1.02800 33.20700 22.97200
H  -5.55100 30.04100 25.27100
H  -6.94100 30.95300 25.78800
H  -6.19200 29.61300 26.83500
H  -3.70300 31.34000 31.05300
H  -6.27700 33.09700 33.96900
H  -6.36500 31.32000 34.29600
H  -7.18400 32.08600 32.92400

