158

Mg 26.35300 0.86700 29.17300
C  28.16700 0.73800 32.22000
C  23.42700 1.15700 31.09200
C  24.51300 0.86200 26.24700
C  29.22400 -0.05900 27.46200
N  25.83400 1.03900 31.48500
C  26.80600 0.94400 32.52000
C  26.01500 1.01000 33.85400
C  24.49000 1.07300 33.44500
C  24.57600 1.08300 31.88000
C  23.56600 -0.08600 33.96500
C  26.38000 2.23900 34.74100
C  25.68100 2.52700 36.05300
H  26.51700 2.76100 37.33800
N  24.30600 1.03900 28.70200
C  23.30400 1.23600 29.65400
C  22.04100 1.41300 28.91200
C  22.36400 1.24700 27.51600
C  23.79700 1.09200 27.42900
C  20.67300 1.48700 29.64400
C  21.40400 1.29500 26.31100
O  21.71800 1.09500 25.15500
C  20.07300 1.76700 26.54100
N  26.73500 0.22200 27.20000
C  25.88100 0.47300 26.19600
C  26.51800 0.17600 24.85700
C  28.00800 -0.14300 25.23300
C  28.03700 0.07100 26.72700
C  25.84800 -0.94100 24.13900
C  28.99700 0.73300 24.51600
C  29.49900 0.35000 23.09800
N  28.29200 0.51100 29.68000
C  29.37800 0.11500 28.89200
C  30.60000 -0.09900 29.67600
C  30.10200 0.14200 30.98300
C  28.75000 0.52600 30.94500
C  31.91700 -0.63500 29.12800
C  30.50400 0.25500 32.36400
O  31.60800 0.13200 32.83500
C  29.24800 0.55600 33.21100
C  28.97600 -0.54100 34.18000
O  28.19400 -1.48700 34.03900
O  29.47500 -0.13800 35.36700
C  29.22300 -1.03100 36.52100
H  22.51100 1.24500 31.67900
H  24.01000 0.87800 25.27800
H  30.12500 -0.32500 26.90400
H  26.24700 0.10200 34.41200
H  24.06600 2.04000 33.71700
H  22.98200 -0.63600 33.22700
H  22.84900 0.31500 34.68200
H  24.18500 -0.86700 34.40600
H  26.33800 3.11800 34.09800
H  27.42600 2.15800 35.03800
H  25.06300 1.63700 36.17100
H  25.06700 3.42000 35.93100
H  20.03200 0.65500 29.35600
H  20.03100 2.29400 29.28900
H  20.70700 1.51600 30.73400
H  19.60300 1.98200 25.58100
H  20.16500 2.64100 27.18500
H  19.56300 0.94500 27.04300
H  26.24200 1.04700 24.26300
H  28.16900 -1.21400 25.10900
H  25.32200 -1.53000 24.89100
H  26.53600 -1.61700 23.63100
H  25.13100 -0.60900 23.38800
H  29.92600 0.92400 25.05300
H  28.52400 1.70800 24.39400
H  30.57300 0.53400 23.05600
H  29.00600 0.99100 22.36700
H  29.49000 -0.72400 22.91100
H  31.76100 -1.40300 28.37100
H  32.37500 -1.08300 30.01000
H  32.46600 0.22500 28.74400
H  29.26700 1.49300 33.76900
H  29.42500 -2.05100 36.19700
H  28.30800 -0.85500 37.08700
H  29.92600 -0.88100 37.34100
Mg 45.10500 4.11000 48.78700
C  43.54700 7.05200 47.89900
C  42.32000 2.36500 48.13500
C  46.97500 1.40900 48.65500
C  48.25400 6.10400 48.97400
N  43.11900 4.71400 48.26800
C  42.68600 5.96200 47.88000
C  41.18300 5.96200 47.69600
C  40.78400 4.48300 47.71800
C  42.13100 3.79600 48.07200
C  39.56700 4.07800 48.59500
C  40.61000 6.84000 46.59300
C  39.23700 6.59500 46.01400
H  38.97200 6.49900 44.45300
N  44.71200 2.10100 48.62400
C  43.44500 1.57100 48.29400
C  43.56800 0.15700 48.02300
C  44.94700 -0.19300 48.07300
C  45.59600 1.15300 48.44300
C  42.32700 -0.65300 47.69300
C  45.52200 -1.51800 47.84300
O  44.82300 -2.45900 47.53500
C  46.93800 -1.84000 48.05300
N  47.28300 3.87000 48.94500
C  47.76200 2.53400 48.89800
C  49.28200 2.48300 49.10900
C  49.68300 4.02200 49.26300
C  48.33300 4.73000 49.02700
C  49.75400 1.45400 50.21100
C  50.99700 4.52100 48.54900
C  51.93400 5.39200 49.45800
N  45.77400 6.18400 48.59000
C  47.06500 6.82200 48.69300
C  46.88100 8.22400 48.46200
C  45.53800 8.36500 48.19400
C  44.90300 7.04300 48.22900
C  48.00200 9.25700 48.50900
C  44.54200 9.25800 47.85500
O  44.53800 10.47700 47.72400
C  43.25000 8.46300 47.71000
C  42.17900 8.96100 48.71400
O  41.76100 8.34600 49.70100
O  41.59800 10.04400 48.12500
C  40.30600 10.40100 48.74300
H  41.39000 1.87400 47.84300
H  47.58600 0.50400 48.67500
H  49.17900 6.67400 48.86200
H  40.73800 6.31600 48.62500
H  40.53000 4.09700 46.73100
H  38.79000 3.58800 48.00900
H  38.95800 4.93500 48.88100
H  39.92300 3.59600 49.50600
H  41.33900 6.65700 45.80400
H  40.61300 7.91600 46.76400
H  38.70800 7.50400 46.29900
H  38.82700 5.75000 46.56900
H  42.54200 -1.23800 46.79800
H  41.38200 -0.13200 47.54000
H  42.14200 -1.40000 48.46500
H  47.22000 -1.65200 49.08900
H  47.51100 -1.45500 47.20900
H  46.99800 -2.91900 47.91300
H  49.77300 2.14000 48.19800
H  49.77800 4.24200 50.32600
H  50.17500 2.02200 51.04100
H  50.66800 0.92500 49.94300
H  48.89900 0.92400 50.63100
H  50.68000 5.21800 47.77300
H  51.55400 3.68700 48.12200
H  51.98400 6.36000 48.95700
H  52.89800 4.88900 49.53400
H  51.56300 5.58400 50.46500
H  48.38400 9.51100 47.52100
H  48.73900 8.82200 49.18400
H  47.55700 10.08800 49.05700
H  42.91500 8.72600 46.70700
H  39.79700 10.96300 47.96000
H  40.36000 10.94400 49.68700
H  39.68500 9.52400 48.92300

