158

Mg 48.22500 15.09500 28.42300
C  45.79100 15.07800 30.97600
C  50.12700 17.21600 30.30500
C  50.21300 15.44400 25.72600
C  45.88200 13.53100 26.29900
N  47.94800 16.13000 30.38600
C  46.99400 15.80800 31.35100
C  47.30500 16.45800 32.72500
C  48.54800 17.38800 32.32100
C  48.94200 16.89200 30.91400
C  48.17100 18.87400 32.44500
C  47.70800 15.26300 33.66000
C  47.19300 15.33300 35.08500
H  47.21300 16.65700 35.84600
N  49.92800 16.11800 28.10700
C  50.63500 16.81100 29.01400
C  51.92300 17.17900 28.40300
C  52.05200 16.58700 27.12200
C  50.69200 16.04100 26.94600
C  52.92600 18.06100 29.17500
C  53.23200 16.47200 26.16600
O  53.21800 15.73200 25.16400
C  54.54800 17.04600 26.55300
N  47.92700 14.86300 26.25100
C  48.97400 14.94800 25.39600
C  48.70600 14.26600 24.04800
C  47.39900 13.61700 24.32200
C  47.05600 14.00600 25.72900
C  48.79100 15.21600 22.82400
C  47.28700 12.12200 23.86400
C  47.78300 11.11800 24.90500
N  46.30500 14.29100 28.59700
C  45.52300 13.67200 27.68600
C  44.29200 13.22500 28.32100
C  44.40300 13.72700 29.66500
C  45.61300 14.39500 29.77300
C  43.37400 12.23300 27.75300
C  43.72700 13.71700 30.94700
O  42.66800 13.16000 31.26800
C  44.59300 14.60800 31.87900
C  43.79800 15.64200 32.48700
O  43.22000 16.60200 31.98100
O  43.63100 15.38000 33.79700
C  42.69000 16.21400 34.60300
H  50.83100 17.79000 30.91000
H  50.70400 15.39100 24.75200
H  45.22500 13.04500 25.57500
H  46.64600 17.19200 33.19000
H  49.38400 17.28700 33.01300
H  48.67100 19.44900 31.66500
H  48.64900 19.20300 33.36800
H  47.11700 19.14300 32.38200
H  48.77400 15.03800 33.64500
H  47.30500 14.37000 33.18200
H  47.92200 14.74100 35.63900
H  46.23900 14.80600 35.06300
H  53.61800 17.35800 29.63800
H  52.37800 18.65800 29.90400
H  53.44100 18.71800 28.47400
H  54.94300 16.74200 27.52200
H  54.43400 18.13000 26.56800
H  55.28700 16.75000 25.80900
H  49.45300 13.52400 23.76700
H  46.68500 14.13900 23.68500
H  49.80700 15.19100 22.43000
H  48.53600 16.26200 22.99700
H  48.19400 14.85300 21.98700
H  47.82100 11.95200 22.92900
H  46.22700 11.93500 23.69100
H  46.85200 10.79200 25.37000
H  48.54400 11.40400 25.63100
H  48.22400 10.32800 24.29800
H  42.42000 12.46400 28.22900
H  43.77500 11.27500 28.08400
H  43.29100 12.35700 26.67400
H  45.05500 13.95700 32.62100
H  43.34300 17.06500 34.79400
H  42.34700 15.84900 35.57200
H  41.80500 16.52900 34.05000
Mg 48.02700 34.90500 26.85500
C  46.48800 33.37300 29.64900
C  48.63400 37.66700 28.74200
C  49.05100 36.24400 24.07400
C  46.92500 31.93900 25.01600
N  47.61800 35.46300 28.99600
C  47.05800 34.65300 29.97500
C  47.11900 35.40900 31.36900
C  47.45700 36.88400 30.92700
C  47.94600 36.64900 29.49200
C  46.24100 37.85500 30.89400
C  48.23600 34.81300 32.19700
C  47.87800 34.66700 33.65300
H  48.95800 34.96900 34.74400
N  48.87800 36.67000 26.43900
C  49.16400 37.66200 27.35200
C  49.93600 38.66100 26.69600
C  49.91400 38.40900 25.26400
C  49.16900 37.10300 25.24700
C  50.35900 39.94600 27.43100
C  50.48300 39.23700 24.18100
O  50.33400 39.02000 22.97000
C  51.37100 40.40500 24.53000
N  48.00000 34.11400 24.90400
C  48.47600 34.96800 23.92600
C  48.44100 34.29500 22.56000
C  47.86000 32.82800 22.89300
C  47.51000 32.96400 24.38700
C  47.72600 35.18300 21.56700
C  48.95500 31.73700 22.65000
C  48.41900 30.32800 22.39700
N  46.92500 32.99500 27.23900
C  46.62100 31.92000 26.33600
C  45.92500 30.83400 27.13900
C  45.77200 31.41100 28.39600
C  46.42300 32.71800 28.38000
C  45.43800 29.51300 26.67700
C  45.29600 31.14400 29.74700
O  44.73900 30.13200 30.19200
C  45.70400 32.47500 30.55700
C  46.31800 32.04900 31.89100
O  47.49200 31.70200 31.97300
O  45.45200 31.96300 32.93500
C  45.97300 31.13400 34.03100
H  48.76900 38.68300 29.11900
H  49.63500 36.63700 23.23900
H  46.58100 31.04000 24.49900
H  46.18900 35.46100 31.93500
H  48.28700 37.34600 31.46300
H  46.32700 38.59800 31.68600
H  45.35100 37.27700 31.14200
H  46.08800 38.41500 29.97200
H  49.07600 35.50600 32.22600
H  48.52500 33.86800 31.73600
H  47.69300 33.59300 33.66700
H  46.96900 35.20900 33.91600
H  50.01400 40.81300 26.86800
H  51.44200 39.85600 27.52500
H  50.01700 40.08500 28.45600
H  50.78500 41.26500 24.85700
H  51.91700 40.69800 23.63300
H  52.12200 40.09400 25.25600
H  49.49700 34.20000 22.30700
H  47.03400 32.68200 22.19700
H  47.22800 35.91400 22.20400
H  46.98000 34.62200 21.00400
H  48.36400 35.77300 20.90800
H  49.59100 31.58100 23.52100
H  49.55300 32.06300 21.79900
H  48.83100 29.58900 23.08400
H  48.56200 30.00200 21.36600
H  47.33200 30.33700 22.48400
H  45.81400 28.77300 27.38400
H  45.93600 29.34100 25.72200
H  44.38200 29.60400 26.42600
H  44.77500 33.00400 30.77100
H  45.40100 31.51500 34.87700
H  47.03100 31.35800 34.16700
H  45.76400 30.06600 33.96200

