158

Mg -1.15000 17.60200 27.99700
C  -1.77300 15.29300 30.48600
C  -1.47800 20.11900 30.41500
C  -1.00000 19.80400 25.53700
C  -1.37400 15.00400 25.58700
N  -1.39800 17.71300 30.27600
C  -1.68900 16.56100 31.04700
C  -1.83200 16.99000 32.51800
C  -2.06900 18.53300 32.44000
C  -1.60700 18.87000 30.98100
C  -3.42000 19.12200 32.66800
C  -0.63500 16.62300 33.46500
C  -0.49200 17.45700 34.75300
H  0.12800 16.82100 36.00700
N  -1.10000 19.65500 27.96200
C  -1.25500 20.50600 29.05100
C  -1.04900 21.87900 28.58400
C  -0.80300 21.78500 27.19100
C  -0.92600 20.36800 26.79100
C  -1.18200 23.15600 29.43400
C  -0.66100 22.90200 26.20400
O  -0.52100 22.69700 25.00300
C  -0.43900 24.26200 26.70800
N  -1.23500 17.38700 25.91600
C  -1.09400 18.49100 25.09400
C  -1.05100 18.15400 23.55400
C  -0.89700 16.62500 23.66000
C  -1.13900 16.27400 25.10800
C  -2.34200 18.47100 22.81400
C  0.47100 16.11000 23.21800
C  1.61600 16.22500 24.20300
N  -1.46000 15.53900 28.02700
C  -1.54000 14.66200 26.92800
C  -1.81000 13.31300 27.45300
C  -1.81300 13.45400 28.81400
C  -1.67800 14.90600 29.12800
C  -1.97700 12.07600 26.52800
C  -1.92100 12.75100 30.14900
O  -2.15400 11.58400 30.40900
C  -2.02100 13.92700 31.19200
C  -0.93300 13.62400 32.18700
O  0.22700 13.79100 32.10700
O  -1.46200 13.02300 33.29600
C  -0.54200 12.61000 34.36000
H  -1.64400 21.00500 31.03200
H  -0.93300 20.36800 24.60400
H  -1.16600 14.37700 24.71700
H  -2.73400 16.45400 32.81200
H  -1.39200 19.10900 33.07200
H  -3.75900 19.55600 31.72700
H  -3.41300 19.95900 33.36700
H  -4.08300 18.37200 33.09800
H  0.26800 16.66000 32.85400
H  -0.87400 15.60400 33.76800
H  -1.46100 17.82400 35.09200
H  0.17100 18.30800 34.59500
H  -0.15500 23.50300 29.55100
H  -1.56500 23.01200 30.44500
H  -1.88500 23.85400 28.97900
H  -1.37000 24.75900 26.97900
H  0.00200 24.83200 25.89000
H  0.30900 24.18400 27.49700
H  -0.18600 18.58100 23.04800
H  -1.61000 16.01300 23.10700
H  -2.95700 17.57900 22.69300
H  -2.18400 18.98200 21.86400
H  -3.04200 19.15700 23.29100
H  0.76600 16.52000 22.25200
H  0.41800 15.03500 23.04500
H  1.83500 15.24500 24.62900
H  1.39500 17.03600 24.89600
H  2.47700 16.51500 23.60000
H  -1.78600 11.18300 27.12400
H  -1.27600 11.94400 25.70400
H  -2.98000 12.02300 26.10400
H  -3.05600 14.00600 31.52700
H  -0.37800 13.50700 34.95800
H  0.38200 12.18500 33.96900
H  -1.01400 11.84500 34.97600
Mg 44.60400 3.76700 46.62200
C  42.37200 6.45100 46.19300
C  41.82000 1.60000 46.44200
C  46.80800 1.25700 46.27800
C  47.21900 6.12300 46.15700
N  42.29100 3.95800 46.29300
C  41.68800 5.22000 46.14500
C  40.15100 4.95800 45.94200
C  39.96500 3.43900 46.29800
C  41.39200 2.95100 46.40200
C  39.20500 3.13800 47.64400
C  39.44600 5.24300 44.51100
C  38.57700 6.55300 44.45900
H  38.87200 7.55800 43.32800
N  44.33600 1.65300 46.42100
C  43.09900 0.99000 46.35200
C  43.38300 -0.41500 46.18500
C  44.83200 -0.55500 46.07000
C  45.42800 0.80200 46.24200
C  42.36400 -1.53100 46.09600
C  45.55400 -1.90200 45.90600
O  44.99000 -2.99200 45.83400
C  47.06200 -1.96300 45.75000
N  46.72400 3.74600 46.22100
C  47.34800 2.53600 46.34900
C  48.87700 2.70900 46.30400
C  49.00200 4.27000 46.34800
C  47.53600 4.73300 46.24900
C  49.45900 1.87100 47.50100
C  49.81300 4.80800 45.05200
C  51.07500 5.59200 45.46100
N  44.83100 5.87300 46.40200
C  45.91900 6.69100 46.27500
C  45.53000 8.11500 46.20100
C  44.16300 8.05100 46.25900
C  43.77600 6.65400 46.34800
C  46.40400 9.34400 45.85800
C  42.95300 8.82000 46.20000
O  42.86300 10.05800 46.29600
C  41.77400 7.84500 46.22000
C  40.79500 8.17300 47.21800
O  40.61900 7.55900 48.22900
O  40.04900 9.22900 46.83300
C  38.87100 9.62400 47.54400
H  41.01100 0.87100 46.36500
H  47.62300 0.56200 46.06200
H  48.09900 6.76900 46.12700
H  39.79400 5.59200 46.75300
H  39.42400 2.91500 45.51100
H  39.00300 4.06300 48.18400
H  39.68700 2.43400 48.32300
H  38.24600 2.66300 47.43900
H  38.78100 4.42100 44.24800
H  40.15100 5.15100 43.68400
H  38.67100 7.01300 45.44300
H  37.54300 6.26000 44.27600
H  42.37500 -1.75900 45.03000
H  41.40400 -1.24400 46.52500
H  42.60300 -2.45100 46.63000
H  47.29100 -1.62600 44.73900
H  47.43800 -2.98500 45.78900
H  47.47600 -1.37700 46.57000
H  49.33300 2.28600 45.40900
H  49.50600 4.58000 47.26400
H  48.90000 0.96600 47.73700
H  49.45700 2.58600 48.32400
H  50.49400 1.61800 47.27300
H  49.04300 5.46600 44.64800
H  50.11400 3.98400 44.40500
H  51.07000 6.30300 44.63500
H  52.00400 5.02400 45.43700
H  51.03200 6.14600 46.39900
H  45.78700 10.23300 45.98400
H  46.77700 9.31500 44.83400
H  47.17300 9.50300 46.61300
H  41.20500 8.06400 45.31700
H  38.69700 9.11200 48.49000
H  38.03500 9.40400 46.88000
H  38.85800 10.68800 47.77800

