158

Mg 35.94000 2.69500 30.64100
C  33.21600 3.40500 33.01600
C  38.17300 2.76900 33.36900
C  38.38600 1.94300 28.57000
C  33.59700 2.92000 28.15000
N  35.66700 3.08900 32.90200
C  34.49100 3.31800 33.61400
C  34.84800 3.32500 35.13100
C  36.42500 3.52400 35.13500
C  36.83900 3.13100 33.67800
C  36.91600 4.97700 35.50600
C  34.36100 2.03000 35.84900
C  33.87000 2.15200 37.32600
H  34.30500 3.41300 38.06000
N  37.99200 2.24200 30.95200
C  38.66800 2.23100 32.16000
C  40.04700 1.78400 31.83600
C  40.12700 1.62900 30.46900
C  38.79600 1.98300 29.95600
C  41.12400 1.69600 32.86800
C  41.27100 1.22200 29.61500
O  41.19100 1.04600 28.40500
C  42.56000 0.82700 30.31300
N  36.03600 2.59400 28.62600
C  37.18000 2.25400 27.93600
C  36.92000 2.35400 26.44500
C  35.34500 2.58200 26.33200
C  34.98000 2.72300 27.81700
C  37.83700 3.45200 25.83700
C  34.54200 1.33400 25.82500
C  33.49800 1.78500 24.84400
N  33.76500 3.17400 30.55200
C  33.00700 3.18800 29.43000
C  31.69300 3.46800 29.78000
C  31.62500 3.56000 31.18300
C  33.01100 3.40000 31.60700
C  30.53000 3.50800 28.83000
C  30.83300 3.75400 32.38200
O  29.66000 3.91100 32.51200
C  31.85800 3.69100 33.64800
C  31.86600 4.96300 34.39200
O  32.58900 5.94400 34.22100
O  30.96200 4.84000 35.41800
C  30.98600 5.98700 36.37000
H  38.79400 2.79900 34.26700
H  39.17200 1.79600 27.82600
H  32.87500 2.94300 27.33100
H  34.30700 4.14300 35.60700
H  36.88500 2.91000 35.90900
H  37.41900 4.93600 36.47200
H  36.04200 5.62800 35.51100
H  37.62700 5.22800 34.72000
H  35.15300 1.30600 35.66100
H  33.54100 1.69000 35.21600
H  34.08900 1.20900 37.82700
H  32.78000 2.15400 37.31300
H  41.69000 0.76500 32.83100
H  40.69200 1.67900 33.86800
H  41.88000 2.48100 32.86800
H  42.24400 -0.12100 30.75000
H  42.93000 1.61000 30.97300
H  43.26200 0.61400 29.50700
H  37.18400 1.36600 26.06700
H  35.06700 3.48900 25.79400
H  37.20400 4.13700 25.27400
H  38.64100 3.02500 25.23600
H  38.24000 4.09200 26.62100
H  34.05200 0.77100 26.61900
H  35.15100 0.63200 25.25600
H  33.79800 1.41100 23.86500
H  33.20700 2.82600 24.98800
H  32.58300 1.25300 25.10500
H  30.40900 2.54200 28.34100
H  30.61000 4.37600 28.17500
H  29.59500 3.65000 29.37100
H  31.58800 2.97600 34.42500
H  29.97000 6.37700 36.43300
H  31.60200 6.86700 36.18800
H  31.32600 5.64200 37.34600
Mg 0.54900 43.88000 25.93200
C  2.10100 43.68600 29.03900
C  -2.49300 42.86400 27.51100
C  -0.85600 43.20500 22.91300
C  3.65700 44.39400 24.49400
N  -0.08900 43.35100 27.96000
C  0.70100 43.43000 29.04600
C  -0.05000 43.23000 30.37000
C  -1.48800 42.75900 29.84900
C  -1.37000 43.02700 28.37100
C  -1.70900 41.22200 30.06800
C  -0.12700 44.53800 31.24600
C  0.54200 44.51100 32.59600
H  0.29800 43.30100 33.48900
N  -1.44500 43.40700 25.32600
C  -2.52900 43.06600 26.11700
C  -3.68500 42.82800 25.22400
C  -3.18200 42.87300 23.91400
C  -1.70600 43.09000 24.00300
C  -5.13800 42.57500 25.72000
C  -3.92600 42.77400 22.50700
O  -3.36700 42.72900 21.44400
C  -5.50800 42.62000 22.52100
N  1.27500 43.82900 23.99500
C  0.50500 43.64500 22.81300
C  1.24000 43.93100 21.49600
C  2.51600 44.65600 22.12000
C  2.50600 44.25800 23.62200
C  1.46100 42.66800 20.63300
C  2.71900 46.17500 21.79500
C  4.16700 46.57200 21.83200
N  2.58400 43.95200 26.58100
C  3.73000 44.14700 25.88700
C  4.80800 44.28100 26.79500
C  4.25100 44.08100 28.03900
C  2.87300 43.87200 27.86400
C  6.33500 44.44700 26.57800
C  4.50300 43.87700 29.47500
O  5.56000 43.81300 30.11000
C  3.14400 43.76600 30.17600
C  3.23600 42.47900 30.80700
O  3.13300 41.43400 30.16900
O  3.58900 42.57800 32.12000
C  4.14900 41.35000 32.71000
H  -3.43100 42.54900 27.97200
H  -1.24100 43.02700 21.90700
H  4.59200 44.85900 24.17600
H  0.49000 42.48900 30.95800
H  -2.36300 43.29800 30.21400
H  -0.70600 40.81000 29.95800
H  -2.33800 40.77200 29.30000
H  -2.03300 41.00000 31.08500
H  -1.17900 44.61400 31.52300
H  0.14200 45.43100 30.68200
H  0.28800 45.41400 33.15100
H  1.62200 44.56100 32.46100
H  -5.74000 43.44600 25.46000
H  -5.22900 42.41500 26.79500
H  -5.42700 41.60500 25.31600
H  -5.89200 42.45500 21.51400
H  -5.96100 43.52800 22.92000
H  -5.70200 41.79600 23.20800
H  0.73900 44.57900 20.77700
H  3.34500 44.23900 21.54800
H  1.59600 41.80000 21.27800
H  2.43500 42.64200 20.14500
H  0.66400 42.52800 19.90200
H  2.25300 46.74800 22.59700
H  2.33200 46.29700 20.78400
H  4.49700 47.47500 22.34500
H  4.48200 46.85200 20.82700
H  4.90400 45.84700 22.17900
H  6.82100 43.89400 27.38100
H  6.65800 45.48800 26.58500
H  6.67600 44.16600 25.58200
H  3.03700 44.52900 30.94700
H  3.38200 40.94400 33.37000
H  5.01300 41.48200 33.36100
H  4.37800 40.55800 31.99700

