158

Mg -2.15200 17.31000 25.63900
C  -2.60200 14.91900 28.35500
C  -2.91200 19.77700 27.89200
C  -2.04300 19.35700 23.12300
C  -2.05400 14.55000 23.40300
N  -2.73900 17.25800 27.88000
C  -2.85400 16.23000 28.75200
C  -3.19400 16.68900 30.11600
C  -3.56800 18.19500 29.92100
C  -3.11500 18.48400 28.46200
C  -4.98500 18.71500 30.18800
C  -2.12100 16.43300 31.28000
C  -2.47300 17.06700 32.72000
H  -2.33700 16.07300 33.81500
N  -2.27400 19.31500 25.51600
C  -2.52100 20.18000 26.58700
C  -2.38100 21.48600 26.00900
C  -2.05200 21.41700 24.62800
C  -2.10400 19.97400 24.32700
C  -2.59100 22.76900 26.85800
C  -1.75000 22.55400 23.53700
O  -1.55300 22.43100 22.34700
C  -1.71800 24.00800 23.97000
N  -2.20100 16.95800 23.55000
C  -2.04700 18.01300 22.72200
C  -1.78500 17.62600 21.23700
C  -1.84700 15.98100 21.40500
C  -1.95400 15.78100 22.86900
C  -2.86200 18.15100 20.25900
C  -0.71400 15.10600 20.77400
C  0.63500 15.15200 21.45500
N  -2.37200 15.19100 25.79400
C  -2.21900 14.26300 24.78400
C  -2.15600 12.91300 25.36800
C  -2.42600 13.12600 26.75800
C  -2.41300 14.54400 26.98200
C  -2.15600 11.62400 24.58900
C  -2.65900 12.44000 27.98500
O  -2.77000 11.25400 28.26900
C  -2.63200 13.55200 29.11100
C  -1.53800 13.29000 29.97300
O  -0.41500 13.34800 29.58400
O  -1.91500 12.92800 31.20200
C  -0.75800 12.60900 32.07600
H  -3.10100 20.59300 28.59200
H  -1.83600 20.03100 22.28900
H  -1.66400 13.69200 22.85200
H  -4.11500 16.18300 30.40400
H  -2.88200 18.69500 30.60400
H  -4.90200 19.34200 31.07600
H  -5.62600 17.87900 30.46600
H  -5.46700 19.21300 29.34600
H  -1.15800 16.77000 30.89600
H  -1.98700 15.38200 31.53300
H  -3.52900 17.32800 32.66300
H  -1.88600 17.97200 32.87500
H  -3.47600 23.34400 26.58600
H  -1.67800 23.34000 26.69300
H  -2.47200 22.48900 27.90500
H  -2.73500 24.38900 24.06300
H  -1.16800 24.55300 23.20200
H  -1.13200 24.15700 24.87700
H  -0.75400 17.89200 21.00500
H  -2.80300 15.73100 20.94600
H  -2.28300 18.52700 19.41600
H  -3.41200 18.96700 20.72800
H  -3.65700 17.45400 19.99100
H  -0.57600 15.32900 19.71600
H  -1.12600 14.09900 20.83600
H  0.61500 15.91400 22.23500
H  1.43300 15.56900 20.84100
H  0.93300 14.19400 21.88000
H  -2.72200 11.72200 23.66300
H  -2.74700 10.88400 25.12900
H  -1.15600 11.21700 24.44000
H  -3.55900 13.48400 29.68100
H  -0.28600 11.66800 31.79600
H  -1.10300 12.36000 33.08000
H  -0.06900 13.40900 32.34800
Mg 47.91100 44.99200 42.43800
C  44.50700 44.25800 42.47700
C  48.55900 41.44500 42.15600
C  51.13000 45.60800 41.61500
C  47.14900 48.37400 42.09300
N  46.68600 43.02200 42.52400
C  45.26700 43.04100 42.29000
C  44.68800 41.63000 42.06400
C  46.01400 40.77300 42.10600
C  47.14300 41.78400 42.21500
C  46.01200 39.64300 43.22100
C  43.87400 41.43800 40.78300
C  44.29300 42.10200 39.43200
H  44.21400 41.36400 38.09900
N  49.62100 43.72900 42.11400
C  49.65800 42.37700 42.01100
C  50.98400 41.91000 41.79800
C  51.73600 43.10600 41.46100
C  50.84600 44.24700 41.79900
C  51.45600 40.42000 41.64100
C  53.19200 43.16800 40.85900
O  53.89200 42.13600 40.80300
C  53.76800 44.44600 40.49100
N  48.97200 46.64200 41.86300
C  50.25400 46.71300 41.54200
C  50.83800 48.11400 41.46900
C  49.56700 48.96400 41.64900
C  48.46700 47.96800 41.95100
C  51.94600 48.42500 42.53300
C  49.34300 49.79400 40.36400
C  48.94100 51.31600 40.59500
N  46.16200 46.22800 42.51800
C  46.03600 47.55100 42.30100
C  44.56000 47.83200 42.10900
C  43.92600 46.58600 42.25300
C  44.96200 45.66200 42.49100
C  43.92700 49.16200 41.81600
C  42.64600 45.87700 42.14100
O  41.51900 46.19400 41.91800
C  43.03000 44.41600 42.22500
C  42.25200 43.92400 43.39900
O  41.23500 43.24100 43.27200
O  42.73700 44.44200 44.59600
C  41.88800 44.36500 45.77400
H  48.75300 40.37900 42.01600
H  52.14700 45.96300 41.43500
H  46.81700 49.41000 41.99200
H  43.99800 41.32200 42.85000
H  46.10000 40.22100 41.17000
H  46.04400 38.66100 42.75000
H  45.13300 39.80700 43.84600
H  46.92600 39.68100 43.81400
H  42.82300 41.60300 41.02200
H  43.85200 40.37400 40.54600
H  45.34200 42.33100 39.61900
H  43.83800 43.08800 39.34100
H  51.60900 40.18700 40.58800
H  50.78000 39.63400 41.98000
H  52.40300 40.24700 42.15200
H  53.03000 44.91100 39.83800
H  54.67900 44.30600 39.90800
H  54.06400 44.87400 41.44900
H  51.31900 48.17800 40.49300
H  49.70600 49.70500 42.43700
H  52.35000 47.50700 42.95900
H  51.51600 48.98900 43.36100
H  52.69600 49.01500 42.00600
H  48.46200 49.37800 39.87500
H  50.15900 49.73400 39.64400
H  48.06600 51.63000 40.02600
H  49.76700 51.94500 40.26400
H  49.03400 51.61500 41.63900
H  42.94000 49.07900 41.36200
H  44.57100 49.68300 41.10700
H  43.84900 49.77500 42.71400
H  42.73900 44.03500 41.24700
H  41.44300 43.37000 45.79400
H  41.13000 45.12100 45.57100
H  42.41300 44.55500 46.71000

