158

Mg -1.95500 17.28500 26.89100
C  -2.29300 15.27000 29.84900
C  -2.39400 20.02100 28.83500
C  -1.96500 19.03500 24.13300
C  -1.97000 14.25200 25.04100
N  -2.60300 17.55400 29.05800
C  -2.52600 16.66200 30.07400
C  -2.94900 17.28400 31.39600
C  -3.07500 18.80200 31.00900
C  -2.62200 18.78800 29.54800
C  -4.43900 19.44500 31.21800
C  -2.00000 17.15200 32.67400
C  -2.72900 16.94900 34.01900
H  -2.04100 16.17100 35.17200
N  -2.05600 19.25600 26.55900
C  -2.29600 20.25400 27.40800
C  -2.32700 21.59400 26.65400
C  -2.14700 21.26400 25.33400
C  -2.08000 19.75500 25.32600
C  -2.65900 22.87800 27.37400
C  -2.08700 22.22000 24.09800
O  -2.25200 21.85400 22.95700
C  -1.73800 23.71500 24.34900
N  -2.17900 16.73600 24.84700
C  -1.92200 17.67500 23.93600
C  -1.84900 17.00600 22.54800
C  -1.31400 15.60200 22.90400
C  -1.90200 15.50700 24.33500
C  -3.17500 16.93900 21.67700
C  0.20100 15.48400 22.92800
C  0.93100 15.41000 21.60600
N  -2.17000 15.16500 27.29300
C  -2.17700 14.05800 26.40200
C  -2.34800 12.81000 27.17800
C  -2.35100 13.26400 28.54500
C  -2.34800 14.66700 28.53500
C  -2.42300 11.46300 26.58300
C  -2.34900 12.80400 29.95100
O  -2.31700 11.65800 30.34900
C  -2.38000 14.13900 30.79400
C  -1.12800 14.09300 31.57700
O  0.00500 14.24100 31.14400
O  -1.49500 13.78100 32.82500
C  -0.30300 13.68700 33.71200
H  -2.48100 20.92400 29.44300
H  -1.82600 19.56500 23.18800
H  -1.65200 13.38700 24.45600
H  -3.93200 16.83400 31.53700
H  -2.35700 19.42600 31.54100
H  -5.02300 18.95400 31.99700
H  -4.94300 19.45000 30.25200
H  -4.33900 20.50200 31.46700
H  -1.50400 18.11500 32.79700
H  -1.15100 16.49100 32.50200
H  -3.72600 16.63500 33.71000
H  -2.85100 17.95700 34.41500
H  -3.03700 22.63000 28.36600
H  -3.54300 23.34400 26.93700
H  -1.80600 23.55400 27.31700
H  -0.99900 23.74100 25.14900
H  -2.63000 24.23200 24.70200
H  -1.34200 24.28300 23.50700
H  -1.10800 17.49400 21.91600
H  -1.65000 14.80800 22.23700
H  -3.09400 16.04000 21.06500
H  -3.16100 17.72300 20.91900
H  -3.96700 17.10000 22.40800
H  0.39600 14.53400 23.42700
H  0.61500 16.25100 23.58300
H  0.21100 15.36200 20.78900
H  1.66700 14.61600 21.73300
H  1.59300 16.27400 21.54500
H  -1.44000 11.00200 26.48000
H  -2.99300 11.45400 25.65400
H  -3.02300 10.94600 27.33200
H  -3.27700 14.00600 31.40000
H  0.06700 14.70700 33.81500
H  0.48700 12.98700 33.43900
H  -0.61500 13.39900 34.71600
Mg -5.63200 25.43600 26.31000
C  -4.19600 26.65700 29.18500
C  -7.54900 23.40800 28.04800
C  -6.49000 24.05500 23.36600
C  -3.35900 27.54100 24.41300
N  -5.75000 25.07200 28.38600
C  -5.17800 25.69200 29.43700
C  -5.78300 25.27300 30.79000
C  -6.62600 24.01700 30.36200
C  -6.64700 24.15000 28.88100
C  -6.05100 22.67100 30.85600
C  -6.57700 26.45300 31.38700
C  -6.41200 26.73400 32.86600
H  -5.91400 25.50000 33.73600
N  -6.83700 23.92400 25.78300
C  -7.64700 23.23100 26.65700
C  -8.62100 22.37000 25.91800
C  -8.23000 22.49100 24.55300
C  -7.14500 23.52900 24.49700
C  -9.86800 21.77500 26.61200
C  -8.83400 21.76800 23.31900
O  -8.41100 21.99900 22.17200
C  -9.99700 20.73700 23.48800
N  -4.74800 25.54800 24.19700
C  -5.47700 24.98000 23.17600
C  -5.00700 25.46600 21.80500
C  -4.22300 26.74900 22.16400
C  -4.09100 26.61300 23.64900
C  -4.10000 24.43200 20.99400
C  -5.06100 28.08200 21.79800
C  -4.10400 29.18600 21.30800
N  -4.15600 26.86600 26.65800
C  -3.31200 27.59200 25.85600
C  -2.50300 28.48900 26.61600
C  -2.74700 28.12700 27.95300
C  -3.78500 27.13700 27.85600
C  -1.44100 29.50000 26.00800
C  -2.40600 28.28100 29.34500
O  -1.59900 29.01600 29.90800
C  -3.38900 27.37800 30.15000
C  -2.53900 26.50100 31.03800
O  -1.98200 25.46000 30.67700
O  -2.51600 27.03200 32.30900
C  -1.83000 26.11500 33.29900
H  -8.27000 22.88800 28.68300
H  -7.04200 23.71900 22.48500
H  -2.73200 28.19700 23.80700
H  -4.91700 25.10300 31.42800
H  -7.61700 24.11800 30.80300
H  -5.71100 22.78800 31.88500
H  -5.37200 22.25500 30.11100
H  -6.75100 21.83600 30.88100
H  -7.64100 26.41200 31.15600
H  -6.15600 27.31500 30.87100
H  -7.43200 26.95500 33.18100
H  -5.77100 27.58000 33.11200
H  -9.44200 20.94400 27.17400
H  -10.69300 21.48600 25.96100
H  -10.34500 22.51500 27.25400
H  -9.89600 20.01000 24.29400
H  -10.13000 20.23400 22.53000
H  -10.91200 21.32400 23.55900
H  -5.94600 25.53000 21.25500
H  -3.20300 26.75700 21.78000
H  -4.67000 24.11800 20.12000
H  -3.90300 23.64800 21.72500
H  -3.13100 24.82900 20.69100
H  -5.58500 28.51500 22.65000
H  -5.83400 27.95000 21.04100
H  -4.46400 29.53700 20.34100
H  -3.08200 28.84500 21.14100
H  -4.03400 30.00200 22.02700
H  -1.68900 30.49800 26.36700
H  -1.34200 29.44500 24.92400
H  -0.50600 29.28800 26.52700
H  -4.02000 27.93200 30.84500
H  -0.79700 25.93400 33.00300
H  -2.29800 25.13100 33.25900
H  -1.96700 26.57800 34.27700

