158

Mg 25.32500 -0.03900 28.90000
C  27.49100 -0.50600 31.73800
C  22.74600 0.36700 31.07700
C  23.57300 0.14600 26.18700
C  28.21600 -1.01900 27.00600
N  25.24700 0.00000 31.12800
C  26.25500 -0.10400 32.05800
C  25.70800 0.16100 33.50300
C  24.12200 0.18300 33.30900
C  23.99700 0.17200 31.75200
C  23.31400 -0.93500 33.96200
C  26.35100 1.37500 34.28700
C  27.26800 0.98000 35.44200
H  26.95200 1.54800 36.77600
N  23.45500 0.27400 28.64200
C  22.52200 0.36900 29.65000
C  21.27900 0.74200 28.98000
C  21.47000 0.72000 27.52700
C  22.85400 0.37600 27.37100
C  19.96800 1.02500 29.78000
C  20.48700 0.97500 26.38600
O  20.85100 0.96900 25.21500
C  19.14600 1.42900 26.63500
N  25.79100 -0.52000 26.94100
C  24.89900 -0.27400 25.97800
C  25.54700 -0.38400 24.58500
C  27.06700 -0.60500 24.85400
C  27.02400 -0.62400 26.39300
C  24.89700 -1.34900 23.58600
C  28.00900 0.42800 24.20200
C  27.63900 1.93100 24.33500
N  27.37900 -0.64500 29.22700
C  28.38700 -1.05500 28.34800
C  29.61200 -1.40000 29.04800
C  29.30800 -1.18000 30.37000
C  27.97800 -0.80500 30.46100
C  30.94100 -1.74800 28.47600
C  29.81600 -1.18200 31.70600
O  30.91200 -1.44100 32.20100
C  28.67200 -0.69100 32.63600
C  28.49700 -1.97200 33.51900
O  27.75600 -2.93600 33.30500
O  29.23200 -1.75500 34.63500
C  28.96900 -2.79800 35.68400
H  21.92400 0.61100 31.75400
H  22.97700 0.25500 25.27800
H  29.03800 -1.22800 26.31800
H  26.03500 -0.73000 34.03900
H  23.65100 1.12900 33.57600
H  23.32500 -0.86800 35.05000
H  23.63600 -1.95900 33.77400
H  22.27600 -0.86300 33.63500
H  25.69600 2.21500 34.52000
H  27.01300 1.83400 33.55300
H  28.24400 1.44100 35.28700
H  27.42900 -0.09200 35.55500
H  19.20000 0.68500 29.08500
H  19.88200 2.09800 29.95500
H  19.95000 0.52400 30.74700
H  19.16800 2.23400 27.37000
H  18.63200 0.52200 26.95200
H  18.84900 1.73900 25.63400
H  25.25000 0.55400 24.11700
H  27.32000 -1.60300 24.49500
H  25.65600 -1.69200 22.88200
H  24.08400 -0.88300 23.03000
H  24.41900 -2.20200 24.06800
H  28.21900 0.23400 23.15000
H  28.91800 0.42300 24.80200
H  28.33500 2.49300 24.95600
H  26.61200 2.04800 24.68300
H  27.81000 2.47900 23.40800
H  31.71800 -2.12400 29.14100
H  31.40100 -0.86600 28.03100
H  30.73600 -2.44100 27.66000
H  28.97900 0.20800 33.17100
H  29.84500 -2.87400 36.32700
H  28.88000 -3.83300 35.35400
H  28.07200 -2.60100 36.27200
Mg 16.44800 51.93900 25.49300
C  18.07700 50.78000 28.48300
C  13.77500 52.69300 27.47400
C  14.85800 52.62300 22.85100
C  19.27300 50.63300 23.72100
N  16.12100 52.08700 27.73500
C  16.97600 51.62300 28.70200
C  16.39100 51.95600 30.06100
C  14.90400 52.37900 29.80500
C  14.90400 52.38300 28.27600
C  13.74700 51.50500 30.45700
C  17.28900 53.00000 30.82200
C  17.67800 52.63200 32.27000
H  16.82000 51.68000 33.18500
N  14.55900 52.55500 25.18100
C  13.57300 52.81700 26.09700
C  12.33900 53.18500 25.47100
C  12.63700 53.27500 24.03300
C  14.04300 52.83800 23.96400
C  11.06900 53.53100 26.33200
C  11.66300 53.49400 22.84000
O  12.03300 53.37100 21.71100
C  10.37200 54.12800 23.13800
N  16.98600 51.55800 23.58000
C  16.09200 52.06200 22.65400
C  16.69000 51.87000 21.23900
C  18.18000 51.46700 21.59600
C  18.16100 51.18900 23.08500
C  15.96100 50.81600 20.37800
C  19.25400 52.44900 20.96000
C  19.67200 52.25400 19.50400
N  18.34200 50.85200 25.95000
C  19.32300 50.36800 25.10800
C  20.43200 49.74000 25.85800
C  19.92000 49.82000 27.21000
C  18.69500 50.55100 27.23100
C  21.67300 49.20900 25.32700
C  20.23200 49.55100 28.58800
O  21.20900 48.93600 29.07300
C  19.03200 50.16000 29.50500
C  18.54200 49.12600 30.45000
O  17.89600 48.07200 30.08900
O  19.06400 49.31200 31.70900
C  18.82000 48.15300 32.61800
H  12.91200 52.97000 28.08400
H  14.42200 53.05000 21.94500
H  20.15400 50.43800 23.10700
H  16.44500 51.05400 30.67100
H  14.78600 53.38400 30.21000
H  13.15400 51.13900 29.61800
H  13.18500 52.15000 31.13300
H  14.12500 50.70600 31.09400
H  16.84400 53.99400 30.87000
H  18.21000 53.10100 30.24900
H  17.71000 53.60400 32.76400
H  18.73100 52.35500 32.33100
H  11.09500 54.50900 26.81300
H  10.90200 52.74300 27.06700
H  10.19000 53.59400 25.69100
H  9.66700 53.45200 23.62300
H  9.75400 54.56300 22.35200
H  10.46400 54.97700 23.81500
H  16.71700 52.79000 20.65500
H  18.45400 50.48100 21.22000
H  15.04400 50.51700 20.88500
H  16.59700 49.99100 20.05500
H  15.68700 51.29500 19.43800
H  20.18500 52.45500 21.52700
H  18.79700 53.43800 20.95600
H  18.88600 51.67900 19.01400
H  20.57600 51.69800 19.25300
H  19.69200 53.22900 19.01800
H  21.56000 48.12800 25.23700
H  22.43700 49.47700 26.05700
H  21.84700 49.69900 24.36900
H  19.51100 50.96600 30.06100
H  19.61400 47.42600 32.45200
H  17.79700 47.79300 32.51400
H  19.03300 48.50300 33.62800

