158

Mg -2.01000 17.17800 26.34500
C  -2.58400 14.71100 28.63600
C  -2.58900 19.71600 28.56500
C  -1.69200 19.48900 23.70100
C  -2.36000 14.65100 23.84300
N  -2.68900 17.20000 28.37500
C  -2.76300 16.01400 29.20600
C  -2.92100 16.48200 30.72100
C  -2.97400 18.07100 30.55300
C  -2.73300 18.36800 29.07300
C  -4.25700 18.75900 31.17300
C  -1.81000 15.89500 31.61200
C  -1.61500 16.69100 32.98100
H  -1.06100 15.92300 34.22200
N  -2.11600 19.30800 26.22000
C  -2.28500 20.13100 27.30100
C  -2.19000 21.51600 26.83300
C  -1.88300 21.47100 25.40200
C  -1.86700 20.02500 25.05600
C  -2.39200 22.81200 27.68100
C  -1.75000 22.60500 24.40300
O  -1.36500 22.43300 23.19600
C  -1.89100 24.08200 24.83100
N  -2.00700 17.06600 24.04500
C  -1.84500 18.15800 23.25700
C  -1.93300 17.75400 21.79500
C  -2.37900 16.24400 21.85000
C  -2.20600 15.95000 23.34000
C  -2.83900 18.78700 20.99700
C  -1.61600 15.27300 20.89700
C  -2.48200 14.42200 19.97600
N  -2.13100 15.09400 26.18400
C  -2.23700 14.17800 25.18600
C  -2.40200 12.86400 25.72400
C  -2.49800 13.01400 27.09800
C  -2.37800 14.35500 27.30300
C  -2.44500 11.63700 24.91400
C  -2.59700 12.25800 28.35600
O  -2.62500 11.06400 28.45500
C  -2.59300 13.34800 29.41000
C  -1.36500 13.07700 30.17900
O  -0.20900 13.40900 29.85100
O  -1.63700 12.32900 31.29500
C  -0.64300 12.14600 32.36300
H  -2.76300 20.56900 29.22400
H  -1.56200 20.15300 22.84400
H  -2.69400 14.01900 23.01800
H  -3.86700 16.04500 31.04000
H  -2.05600 18.48000 30.97300
H  -3.76600 19.53100 31.76600
H  -4.67100 18.08100 31.91900
H  -5.02300 18.99200 30.43400
H  -0.86100 15.86900 31.07700
H  -2.08800 14.86800 31.85000
H  -2.58100 17.07200 33.31100
H  -1.00200 17.57900 32.82800
H  -1.45500 23.36700 27.71900
H  -2.74700 22.71100 28.70700
H  -3.05600 23.40700 27.05400
H  -2.87300 24.28400 25.25800
H  -1.77600 24.74900 23.97700
H  -1.13100 24.34400 25.56800
H  -0.92700 17.69600 21.37900
H  -3.42200 16.19900 21.53600
H  -3.29900 19.56300 21.60900
H  -3.50700 18.29400 20.29200
H  -2.05500 19.28400 20.42500
H  -0.86600 14.63500 21.36600
H  -1.08000 15.99300 20.27800
H  -2.77400 15.05500 19.13800
H  -3.36600 14.01700 20.46700
H  -1.95500 13.59300 19.50300
H  -3.25100 11.83700 24.20800
H  -2.66700 10.81300 25.59200
H  -1.47100 11.43300 24.47000
H  -3.37900 13.26800 30.16000
H  0.14500 12.89800 32.34300
H  -0.18200 11.16700 32.49600
H  -1.27100 12.33700 33.23300
Mg 7.02500 53.92100 41.38800
C  5.83100 50.77400 40.47600
C  10.18100 53.15600 40.44500
C  7.81100 57.40800 41.44000
C  3.65900 54.80700 42.11500
N  7.82000 52.22400 40.32400
C  7.16100 51.02000 40.12300
C  8.18200 49.91500 39.71700
C  9.54400 50.62600 40.13600
C  9.21500 52.11400 40.24100
C  10.24800 50.04800 41.42500
C  8.02300 49.49200 38.23600
C  7.00900 50.02400 37.18900
H  6.67800 49.17900 36.01600
N  8.78000 55.04800 41.01700
C  9.95300 54.52300 40.63300
C  10.95500 55.49700 40.72600
C  10.34200 56.76100 40.98400
C  8.84800 56.45600 41.15300
C  12.42300 55.25300 40.28300
C  10.98200 58.08200 41.07300
O  12.19600 58.11200 40.80000
C  10.34400 59.36900 41.42100
N  5.88300 55.86500 41.73100
C  6.42200 57.10000 41.60200
C  5.37900 58.19300 41.94000
C  4.11800 57.36100 42.25200
C  4.51700 55.92700 41.96400
C  5.81600 59.31000 43.00300
C  2.82300 57.74400 41.42400
C  1.81300 58.66100 42.15700
N  5.08600 52.98200 41.52400
C  3.87400 53.49900 41.78200
C  2.92400 52.40900 41.77100
C  3.62900 51.33300 41.21800
C  4.94300 51.73500 41.05900
C  1.47900 52.44000 42.25100
C  3.56700 49.82300 40.89300
O  2.69300 48.99600 41.03300
C  5.01700 49.49700 40.57900
C  4.90200 48.54700 39.38000
O  4.28500 48.65600 38.35600
O  5.67800 47.39000 39.66200
C  5.50700 46.20800 38.77000
H  11.25200 52.96700 40.54200
H  8.06000 58.46000 41.59700
H  2.62600 55.01400 42.40500
H  7.99500 49.06000 40.36700
H  10.26300 50.44400 39.33700
H  10.63700 50.91500 41.95900
H  11.05200 49.38900 41.09800
H  9.56200 49.43100 42.00500
H  7.82800 48.42500 38.13000
H  8.90900 49.63700 37.61700
H  7.23800 51.04700 36.89100
H  6.04100 50.25100 37.63500
H  12.68300 55.99100 39.52500
H  12.54400 54.23400 39.91700
H  13.06300 55.43300 41.14700
H  9.84800 59.13300 42.36300
H  9.76100 59.59900 40.52900
H  11.12700 60.10600 41.59700
H  5.16600 58.66800 40.98200
H  3.93800 57.39400 43.32600
H  6.83900 59.15200 43.34400
H  5.10400 59.33000 43.82800
H  5.69300 60.25300 42.46900
H  2.30300 56.86300 41.04800
H  3.08400 58.23400 40.48600
H  0.96700 58.05900 42.48800
H  1.50500 59.53100 41.57800
H  2.24800 59.05900 43.07400
H  1.44700 52.71600 43.30500
H  1.05800 51.45400 42.05900
H  1.04300 53.21900 41.62500
H  5.33700 48.93200 41.45500
H  5.30900 45.26000 39.27100
H  6.31300 45.99200 38.06900
H  4.70000 46.25800 38.03900

