158

Mg 0.61800 43.62100 25.56800
C  2.83800 43.51400 28.27100
C  -1.98800 42.94000 27.70000
C  -1.38700 43.78100 22.92900
C  3.41000 43.62000 23.43900
N  0.43300 43.20900 27.60100
C  1.47000 43.30000 28.57200
C  0.90800 43.00800 30.01000
C  -0.45900 42.43600 29.66100
C  -0.71800 42.93300 28.24100
C  -0.72400 40.87300 29.74400
C  0.79800 44.37200 30.84800
C  0.29800 44.34900 32.34500
H  0.28200 43.09600 33.13700
N  -1.42100 43.37500 25.32500
C  -2.32400 43.23800 26.36400
C  -3.67500 43.24000 25.90700
C  -3.53600 43.46700 24.51900
C  -2.06100 43.63500 24.20500
C  -4.81300 43.05700 26.75200
C  -4.62200 43.50000 23.53300
O  -4.33000 43.72200 22.38500
C  -6.06500 43.26200 23.93400
N  0.95400 43.47000 23.53500
C  -0.05400 43.58500 22.61500
C  0.45400 43.64500 21.17500
C  1.95800 43.89000 21.44100
C  2.12200 43.65300 22.90200
C  -0.00100 42.47900 20.16600
C  2.58000 45.26900 20.97600
C  2.19200 46.43400 21.81200
N  2.71200 43.51600 25.74800
C  3.71400 43.67300 24.79800
C  4.90400 43.81500 25.52000
C  4.66000 43.68500 26.83300
C  3.32500 43.60800 26.94300
C  6.23400 43.90300 24.97800
C  5.25900 43.71000 28.12500
O  6.41600 43.77900 28.43700
C  4.11400 43.45500 29.13900
C  4.21100 42.08000 29.77900
O  3.90400 41.01100 29.29500
O  4.71500 42.14900 31.06000
C  4.77600 40.80400 31.79700
H  -2.67900 42.69600 28.51000
H  -2.08500 43.79800 22.08800
H  4.14300 43.79900 22.64900
H  1.54500 42.23100 30.43200
H  -1.23400 42.92000 30.25600
H  -0.77900 40.36000 28.78400
H  -1.58800 40.69800 30.38500
H  0.15500 40.38500 30.16700
H  0.07900 45.02200 30.35000
H  1.74900 44.90000 30.78700
H  -0.70300 44.77700 32.39800
H  0.98300 44.97900 32.91200
H  -5.51500 43.86400 26.54300
H  -4.58400 42.98700 27.81600
H  -5.35100 42.12200 26.60100
H  -6.63200 42.99000 23.04400
H  -6.42800 44.11900 24.50000
H  -5.99500 42.35500 24.53500
H  0.15600 44.61700 20.78000
H  2.57400 43.20800 20.85400
H  -0.21000 42.98200 19.22200
H  -0.79400 41.86100 20.58600
H  0.88200 41.85500 20.02700
H  2.34600 45.45500 19.92800
H  3.66500 45.21200 21.07400
H  3.11500 46.80300 22.25900
H  1.44300 46.11400 22.53600
H  1.87000 47.28100 21.20600
H  6.85800 43.99700 25.86700
H  6.49000 44.82800 24.46200
H  6.48000 43.01200 24.39900
H  4.11500 44.21100 29.92400
H  3.78900 40.37800 31.97700
H  5.38300 40.78300 32.70200
H  5.25900 40.05500 31.16800
Mg -1.69500 34.75700 26.06400
C  -3.06100 32.91600 28.69400
C  -0.10300 36.76200 28.42100
C  -0.58600 36.64300 23.61400
C  -3.36100 32.71100 23.79600
N  -1.67200 34.86400 28.26200
C  -2.13700 33.87900 29.14500
C  -1.94100 34.32500 30.60300
C  -1.30000 35.75500 30.42100
C  -0.90000 35.74800 28.98400
C  -2.29900 36.91600 30.64300
C  -1.08800 33.37000 31.48700
C  -1.77200 32.56100 32.58900
H  -1.07900 32.19700 33.90100
N  -0.51300 36.52200 26.01800
C  0.14200 37.07300 27.04700
C  0.86600 38.18700 26.53300
C  0.85200 38.18600 25.13700
C  -0.13800 37.10000 24.83700
C  1.59500 39.06400 27.45400
C  1.58500 39.08800 24.10700
O  1.43100 38.99300 22.87600
C  2.73500 40.05300 24.53900
N  -2.11600 34.80200 23.99900
C  -1.48200 35.66500 23.15500
C  -1.60300 35.23900 21.68400
C  -2.36500 33.90600 21.77100
C  -2.59200 33.72200 23.33500
C  -2.19900 36.35800 20.80600
C  -1.74400 32.70900 21.03500
C  -0.50700 32.11500 21.68200
N  -3.12300 33.22600 26.16300
C  -3.73100 32.50900 25.18300
C  -4.55300 31.54300 25.80600
C  -4.36500 31.61200 27.22500
C  -3.48400 32.68800 27.34900
C  -5.37200 30.49600 25.14500
C  -4.68100 31.09600 28.52400
O  -5.48200 30.22200 28.80400
C  -3.96700 31.97600 29.64200
C  -4.99200 32.82900 30.38500
O  -5.63900 33.78800 29.93300
O  -5.19200 32.38200 31.62000
C  -6.34900 33.09100 32.29900
H  0.48700 37.33700 29.13800
H  -0.18800 37.12300 22.71700
H  -3.72300 32.02200 23.03000
H  -2.89600 34.53600 31.08300
H  -0.39600 35.83600 31.02300
H  -1.83300 37.77900 31.12100
H  -3.18500 36.58000 31.18200
H  -2.81400 37.28600 29.75700
H  -0.15100 33.78600 31.85700
H  -0.70200 32.60100 30.81800
H  -1.95300 31.58800 32.13300
H  -2.70600 33.05500 32.85700
H  2.61900 39.09600 27.08200
H  1.60200 38.76600 28.50300
H  1.22200 40.08900 27.45200
H  2.59000 40.67200 25.42500
H  3.02700 40.57200 23.62700
H  3.44500 39.27000 24.80500
H  -0.60800 35.04700 21.28200
H  -3.41100 33.99000 21.47900
H  -2.14900 37.31200 21.33100
H  -3.27400 36.29700 20.63700
H  -1.77900 36.56100 19.82100
H  -1.33200 32.91300 20.04600
H  -2.49000 31.91700 20.97300
H  -0.60800 31.03100 21.63600
H  -0.27000 32.34600 22.72000
H  0.36800 32.29600 21.05600
H  -5.21400 29.49000 25.53400
H  -5.13900 30.54500 24.08200
H  -6.37400 30.84100 25.40200
H  -3.46300 31.28700 30.31900
H  -6.04300 34.03800 32.74500
H  -6.62900 32.40000 33.09400
H  -7.28200 33.19500 31.74600

