158

Mg 1.36700 -1.90100 45.19500
C  4.81900 -0.53800 44.45800
C  0.18800 0.80600 43.39000
C  -1.61600 -3.28400 45.37200
C  3.08100 -4.80800 46.17800
N  2.38900 -0.12300 43.93800
C  3.74400 0.29000 43.92000
C  3.81700 1.62300 43.20800
C  2.38600 2.19200 43.23900
C  1.56500 0.92600 43.54300
C  2.23500 3.39600 44.15800
C  4.41300 1.59300 41.75800
C  5.56200 2.58000 41.50100
H  6.91100 2.03300 40.95100
N  -0.42600 -1.31700 44.54300
C  -0.71200 -0.23400 43.78100
C  -2.17700 -0.04200 43.67200
C  -2.70200 -1.15500 44.31900
C  -1.55700 -2.01000 44.76600
C  -2.83800 1.19400 42.90500
C  -4.21700 -1.42400 44.55800
O  -5.07000 -0.76000 44.07200
C  -4.77300 -2.54900 45.47200
N  0.79900 -3.78400 45.55100
C  -0.49300 -4.18600 45.61900
C  -0.65500 -5.60400 46.27900
C  0.83200 -6.03700 46.32800
C  1.61900 -4.79800 46.00400
C  -1.40900 -5.78100 47.62200
C  1.15100 -7.18700 45.37400
C  1.38200 -8.60600 45.98000
N  3.38900 -2.46700 45.49000
C  3.91100 -3.72700 45.90200
C  5.37400 -3.63500 46.01100
C  5.67700 -2.33800 45.41600
C  4.49500 -1.71500 45.10600
C  6.24700 -4.83500 46.38200
C  6.88000 -1.59800 45.04000
O  8.09000 -1.74200 45.09200
C  6.33700 -0.26500 44.45600
C  6.80100 0.96400 45.25000
O  6.98100 1.06500 46.45900
O  6.91200 2.01700 44.41200
C  7.45100 3.23600 45.07000
H  -0.25000 1.61800 42.80600
H  -2.60000 -3.72300 45.55400
H  3.62800 -5.55200 46.76000
H  4.34400 2.38500 43.78300
H  2.05300 2.49600 42.24700
H  1.72400 4.19600 43.62400
H  3.17300 3.81900 44.51700
H  1.78600 3.08100 45.10100
H  3.68200 1.94500 41.02900
H  4.75000 0.58700 41.51000
H  5.92700 2.99300 42.44200
H  5.22400 3.48200 40.99000
H  -2.63500 2.03700 43.56600
H  -3.92300 1.09700 42.94100
H  -2.48100 1.45100 41.90800
H  -4.21500 -2.60400 46.40700
H  -4.76900 -3.43400 44.83600
H  -5.81900 -2.31000 45.66100
H  -1.15300 -6.26800 45.57300
H  1.10100 -6.41600 47.31400
H  -0.71200 -6.21600 48.33900
H  -2.31000 -6.34100 47.37200
H  -1.67000 -4.77500 47.95000
H  2.01100 -6.95000 44.74700
H  0.36700 -7.38400 44.64200
H  0.89600 -9.39800 45.41000
H  1.01700 -8.69000 47.00400
H  2.46200 -8.74100 45.92700
H  6.47600 -5.43000 45.49800
H  5.80700 -5.47600 47.14600
H  7.16000 -4.33200 46.70100
H  6.72300 -0.20900 43.43900
H  8.53700 3.14400 45.07100
H  7.13700 3.46900 46.08800
H  7.35200 4.12200 44.44300
Mg 41.15200 9.58200 29.58500
C  43.23900 10.67900 32.14400
C  38.83700 8.76000 31.88800
C  39.30100 8.49400 27.07400
C  43.81800 10.08000 27.19300
N  41.18700 9.66500 31.86500
C  41.95600 10.22900 32.73800
C  41.34200 10.31700 34.15800
C  39.93700 9.70500 33.89500
C  40.00400 9.34600 32.42100
C  39.51500 8.52700 34.84800
C  41.31300 11.79600 34.70700
C  40.54000 11.97000 35.98100
H  41.08700 12.76900 37.18700
N  39.32900 8.66400 29.48600
C  38.49600 8.41100 30.54100
C  37.29100 7.63100 30.10200
C  37.39300 7.64300 28.63600
C  38.69200 8.33500 28.35900
C  36.16800 7.18300 31.00400
C  36.49500 7.11300 27.54800
O  36.63800 7.22500 26.32700
C  35.22700 6.40500 27.96000
N  41.55700 9.04800 27.53300
C  40.58700 8.77700 26.65500
C  40.98600 8.95300 25.18800
C  42.33300 9.78300 25.27100
C  42.57900 9.52100 26.76800
C  40.96100 7.59600 24.43400
C  42.14900 11.27500 24.76100
C  41.29100 12.22100 25.61700
N  43.00400 10.35300 29.57800
C  43.95300 10.51100 28.52100
C  45.18100 11.04300 29.12600
C  44.87100 11.21500 30.52200
C  43.59600 10.68300 30.71000
C  46.42600 11.45200 28.39200
C  45.41700 11.77300 31.77700
O  46.47300 12.36800 32.02300
C  44.31500 11.41900 32.89700
C  45.07200 10.60100 33.97200
O  45.90400 9.71500 33.79500
O  44.68600 11.02700 35.21500
C  45.31100 10.39400 36.31400
H  37.97900 8.59500 32.54300
H  38.71800 8.14200 26.22000
H  44.56700 10.27800 26.42300
H  42.00900 9.70200 34.76100
H  39.21300 10.51800 33.93100
H  38.73400 8.94000 35.48500
H  40.33800 8.17900 35.47300
H  39.04200 7.70300 34.31500
H  41.10100 12.51200 33.91300
H  42.29900 12.16100 34.99600
H  40.12500 11.01600 36.30800
H  39.71100 12.58900 35.63700
H  35.18900 7.38300 30.56800
H  36.25900 7.50300 32.04200
H  36.36100 6.11800 31.13200
H  35.39500 5.68500 28.76000
H  34.89200 5.82800 27.09800
H  34.43800 7.05500 28.33800
H  40.17500 9.55800 24.78200
H  43.14500 9.35200 24.68500
H  40.57100 7.67000 23.41900
H  40.34900 6.91000 25.02100
H  41.91600 7.08300 24.32200
H  41.43300 11.27600 23.93900
H  43.09400 11.67700 24.39600
H  40.95000 11.72300 26.52500
H  40.50500 12.72400 25.05500
H  41.95500 13.03600 25.90500
H  46.64300 10.79200 27.55200
H  47.31600 11.31400 29.00600
H  46.32900 12.51000 28.14700
H  43.96000 12.36600 33.30400
H  45.58400 9.34600 36.19300
H  44.69300 10.62000 37.18300
H  46.23100 10.94500 36.50900

