158

Mg 47.34700 16.25800 28.86800
C  45.32600 16.06400 31.86600
C  49.56500 18.07700 30.51900
C  48.77800 16.66300 26.01300
C  44.41900 14.76300 27.26600
N  47.32600 16.99700 30.84000
C  46.52700 16.71200 31.95600
C  47.12400 17.24700 33.29000
C  48.25700 18.17500 32.78900
C  48.41200 17.70600 31.28100
C  47.87800 19.68300 32.88300
C  47.58700 16.05900 34.20700
C  47.02700 16.18900 35.64000
H  46.79500 17.58300 36.35700
N  48.99000 17.15900 28.33900
C  49.86600 17.81700 29.11500
C  51.04100 18.18400 28.41900
C  50.92300 17.62300 27.08900
C  49.53300 17.11900 27.10200
C  52.11900 19.03700 29.04300
C  51.89400 17.59900 25.94800
O  51.66400 17.12700 24.85400
C  53.24000 18.17100 26.20400
N  46.68400 15.67300 26.86400
C  47.51900 16.04900 25.83500
C  46.82200 15.68400 24.48400
C  45.43900 15.04700 24.96700
C  45.47800 15.14200 26.42100
C  46.66200 16.95700 23.51900
C  45.31000 13.62900 24.53500
C  45.03300 13.49400 23.06900
N  45.34700 15.52800 29.38500
C  44.32000 14.95900 28.63100
C  43.25100 14.53900 29.51600
C  43.61300 14.99000 30.76400
C  44.84000 15.54100 30.65500
C  41.94700 13.82500 28.97500
C  43.11900 15.14600 32.10600
O  42.05800 14.84300 32.59600
C  44.25500 15.67800 32.90300
C  43.68700 16.86500 33.66200
O  43.56400 18.03100 33.23200
O  43.18300 16.41700 34.84500
C  42.55600 17.49000 35.69100
H  50.26700 18.67200 31.10600
H  49.19800 16.68300 25.00500
H  43.60500 14.17200 26.84100
H  46.31500 17.79700 33.77100
H  49.17200 18.08800 33.37400
H  47.89000 20.15900 31.90200
H  48.62500 20.24200 33.44700
H  47.00100 19.76000 33.52500
H  48.66700 15.92100 34.25500
H  47.16900 15.13600 33.80500
H  47.52500 15.49400 36.31600
H  46.05900 15.68900 35.64200
H  52.36500 19.86500 28.37900
H  53.05600 18.47900 29.04900
H  51.81900 19.40000 30.02600
H  53.90600 18.04400 25.35100
H  53.66400 17.77100 27.12600
H  53.07500 19.23500 26.37200
H  47.40600 14.94700 23.93400
H  44.56100 15.62700 24.68200
H  46.79400 16.61700 22.49200
H  47.38600 17.73600 23.75700
H  45.64800 17.34900 23.59100
H  44.50100 13.21200 25.13400
H  46.28300 13.15900 24.68400
H  45.84100 12.92500 22.60800
H  45.16600 14.43100 22.52800
H  44.13000 12.91300 22.88300
H  42.23500 12.81300 28.69100
H  41.53600 14.31000 28.08900
H  41.29100 13.74900 29.84200
H  44.51900 14.90700 33.62800
H  41.75700 17.92200 35.08900
H  43.21800 18.33400 35.88800
H  42.14600 17.07700 36.61300
Mg 48.44600 34.67400 26.41600
C  46.22100 33.63300 29.03900
C  48.78900 37.74500 28.09100
C  50.12500 35.83600 23.82500
C  47.61800 31.73400 24.79800
N  47.68700 35.50100 28.34600
C  46.91600 34.85300 29.30100
C  46.95700 35.71200 30.59800
C  47.56400 37.10100 30.09300
C  48.15500 36.75000 28.79500
C  46.56100 38.28900 30.04000
C  47.86400 35.04600 31.67400
C  47.46200 35.15200 33.15400
H  46.36900 36.11000 33.47000
N  49.38600 36.52700 26.00300
C  49.44400 37.65100 26.84600
C  50.35400 38.65300 26.22700
C  50.93400 38.01500 25.06200
C  50.18200 36.77000 24.89100
C  50.68800 39.95100 26.84700
C  52.05300 38.46800 24.13000
O  52.49700 37.67300 23.29800
C  52.69400 39.73900 24.28800
N  48.85200 33.80200 24.56500
C  49.51000 34.57700 23.65400
C  49.59300 33.73200 22.36400
C  49.00500 32.36300 22.71700
C  48.49800 32.60400 24.08900
C  48.92700 34.37100 21.13100
C  49.94600 31.20200 22.66800
C  49.57000 30.16100 21.65000
N  47.15200 32.98800 26.73200
C  46.88300 31.92100 25.97600
C  45.87800 31.09100 26.52400
C  45.57300 31.77100 27.74700
C  46.32400 32.89000 27.80600
C  45.17800 29.80600 25.92900
C  44.70800 31.72900 28.96300
O  43.87400 30.86900 29.26600
C  45.09400 33.04600 29.82300
C  45.43500 32.39400 31.10200
O  46.54100 32.07900 31.42500
O  44.36800 32.36800 31.95500
C  44.53200 31.86800 33.30200
H  48.93900 38.67300 28.64700
H  50.76900 36.03800 22.96700
H  47.40200 30.81700 24.24600
H  45.98000 35.84000 31.06400
H  48.39100 37.53000 30.65900
H  45.51400 38.01700 30.17400
H  46.54200 38.65600 29.01400
H  46.78100 39.08800 30.74800
H  48.86700 35.47200 31.66400
H  47.94400 33.99900 31.38000
H  48.25700 35.53100 33.79600
H  47.12000 34.17500 33.49500
H  49.82300 40.31900 27.39900
H  50.96700 40.76100 26.17200
H  51.55000 39.85600 27.50700
H  52.92300 39.89000 25.34300
H  51.94000 40.41100 23.87600
H  53.68600 39.78400 23.83900
H  50.67000 33.59900 22.26700
H  48.07000 32.28400 22.16300
H  49.57000 35.17800 20.78000
H  48.05600 34.86700 21.55900
H  48.52800 33.68500 20.38300
H  49.77000 30.58300 23.54800
H  51.00700 31.42500 22.55700
H  50.38100 30.00100 20.94000
H  48.75500 30.45000 20.98600
H  49.33700 29.21800 22.14400
H  45.49000 29.71600 24.88900
H  44.09600 29.93300 25.97100
H  45.39600 28.96100 26.58200
H  44.23700 33.70600 29.95700
H  43.48200 31.70700 33.54600
H  45.06900 32.70400 33.75100
H  45.03300 30.90000 33.32000

