158

Mg 7.83400 2.97000 28.16400
C  9.62700 1.56200 30.95300
C  6.38100 5.09100 30.18300
C  6.47800 4.24300 25.42000
C  9.93600 0.90600 26.09600
N  7.80000 3.04700 30.40700
C  8.68400 2.51500 31.35000
C  8.47300 3.12400 32.68400
C  7.35200 4.11400 32.49100
C  7.07600 4.10100 30.93800
C  6.06700 3.84400 33.30200
C  9.76400 3.77000 33.40800
C  9.59700 4.91000 34.44400
H  10.36200 4.66800 35.75100
N  6.52400 4.40400 27.85800
C  6.09000 5.25400 28.79000
C  5.35000 6.40000 28.21000
C  5.32300 6.08300 26.77400
C  6.12600 4.85400 26.63500
C  4.60000 7.44100 29.02700
C  4.70900 6.87300 25.61200
O  4.87200 6.66900 24.42300
C  3.77600 7.96800 25.88200
N  8.19300 2.60400 26.07300
C  7.37100 3.14800 25.12900
C  7.78600 2.74700 23.66600
C  9.07700 1.85900 23.91800
C  9.00100 1.71700 25.43000
C  6.64100 2.07100 22.92200
C  10.34400 2.35300 23.24600
C  11.45000 3.01900 24.14400
N  9.35500 1.47000 28.37400
C  10.09300 0.83400 27.42100
C  11.11200 0.04700 28.05900
C  10.96200 0.24200 29.47500
C  9.90500 1.15500 29.59800
C  12.07800 -0.83700 27.32600
C  11.42900 -0.06700 30.79600
O  12.36700 -0.80000 31.10400
C  10.48300 0.70400 31.80200
C  9.68400 -0.11100 32.74800
O  8.82200 -0.94200 32.46200
O  10.14700 0.02800 34.00300
C  9.40900 -0.67300 35.05000
H  6.10000 5.86500 30.90100
H  6.15300 4.68700 24.47700
H  10.63400 0.38800 25.43500
H  8.31300 2.17900 33.20300
H  7.72000 5.11100 32.73400
H  5.37300 4.67600 33.42000
H  6.39000 3.34900 34.21800
H  5.38700 3.20900 32.73500
H  10.47200 4.10200 32.64900
H  10.31600 3.01600 33.97000
H  8.57700 5.18000 34.71700
H  10.06000 5.79500 34.00600
H  5.07200 8.41000 28.86100
H  4.82000 7.17700 30.06100
H  3.55300 7.63500 28.79300
H  3.05100 7.54000 26.57500
H  3.17500 8.25600 25.01900
H  4.34200 8.80600 26.28800
H  8.04000 3.65900 23.12400
H  8.87100 0.81900 23.66300
H  5.74300 2.00200 23.53600
H  6.95300 1.10200 22.53400
H  6.24000 2.61000 22.06300
H  10.16600 2.88900 22.31300
H  10.77400 1.39200 22.96500
H  11.07500 3.28000 25.13400
H  11.92800 3.86600 23.65300
H  12.21200 2.27200 24.36500
H  12.52100 -0.43000 26.41600
H  11.71100 -1.83800 27.10000
H  12.95400 -0.90100 27.97100
H  11.15500 1.40900 32.29200
H  8.46100 -1.16500 34.83400
H  9.21800 0.08900 35.80600
H  10.19400 -1.30000 35.47300
Mg 17.43000 52.39500 25.30700
C  19.27800 51.01700 28.01300
C  14.83500 52.98400 27.49600
C  15.82700 53.81000 22.84400
C  20.08600 51.45700 23.24900
N  17.08000 51.78400 27.46500
C  18.06000 51.51400 28.40900
C  17.67200 51.92900 29.82700
C  16.10000 51.91800 29.65000
C  15.92400 52.26100 28.09700
C  15.32900 50.68300 30.16200
C  18.38200 53.17900 30.35800
C  18.60200 53.20900 31.89500
H  17.82600 52.36800 32.84200
N  15.59100 53.20900 25.21800
C  14.69100 53.46200 26.19900
C  13.65900 54.36000 25.68500
C  13.82300 54.40800 24.28700
C  15.17400 53.84200 24.06600
C  12.64500 55.03700 26.56600
C  12.84000 54.93400 23.20900
O  13.03900 55.00000 21.99900
C  11.53300 55.56900 23.68200
N  17.88400 52.56600 23.36700
C  17.03600 53.22700 22.47800
C  17.64300 53.40200 21.07600
C  19.00100 52.57600 21.21900
C  19.00700 52.15800 22.66800
C  16.66300 52.99800 19.91300
C  20.24400 53.40000 20.71300
C  20.76700 54.46200 21.66000
N  19.29700 51.38000 25.54200
C  20.22800 51.05600 24.57100
C  21.34800 50.41200 25.23700
C  21.04200 50.38800 26.65800
C  19.77500 50.96300 26.73700
C  22.62900 50.00000 24.60200
C  21.58300 50.08100 27.91900
O  22.61000 49.47400 28.23100
C  20.45400 50.53800 28.84500
C  20.21300 49.35700 29.69100
O  19.76000 48.30700 29.31800
O  20.40100 49.66400 31.03300
C  19.95600 48.66800 31.97600
H  14.15400 53.26600 28.30100
H  15.18100 54.36900 22.16400
H  21.00700 51.26600 22.69400
H  17.87300 51.07400 30.47100
H  15.78800 52.71600 30.32400
H  15.77800 50.25100 31.05600
H  15.14700 49.97100 29.35700
H  14.37900 51.01700 30.57700
H  17.77400 54.07400 30.22700
H  19.25400 53.37500 29.73500
H  18.54700 54.24000 32.24500
H  19.60900 52.79800 31.96700
H  12.83400 56.10900 26.51400
H  12.72700 54.75300 27.61500
H  11.61700 54.81300 26.27800
H  11.60000 56.49500 24.25200
H  11.01200 54.75400 24.18400
H  10.92900 55.87400 22.82800
H  17.85200 54.45500 20.89100
H  18.81500 51.65600 20.66400
H  15.71900 52.79200 20.41600
H  16.98300 52.11100 19.36600
H  16.76300 53.85400 19.24600
H  19.97900 53.95600 19.81400
H  21.00200 52.67500 20.41800
H  20.59900 54.12600 22.68300
H  20.32600 55.45000 21.52500
H  21.84300 54.60200 21.55900
H  22.84200 50.63200 23.74000
H  22.51900 48.99800 24.18800
H  23.39500 50.09100 25.37200
H  20.96900 51.33000 29.39000
H  20.71800 47.89300 31.89000
H  18.94300 48.33400 31.75400
H  19.88900 48.97400 33.02000

