158

Mg 36.13500 1.60600 28.90000
C  34.06700 2.74900 31.48900
C  38.82200 1.80600 31.09900
C  38.20200 0.96700 26.30800
C  33.44500 2.11900 26.68200
N  36.48300 2.41400 30.92500
C  35.39900 2.58800 31.84800
C  35.91900 2.53900 33.25300
C  37.45500 2.44100 33.16000
C  37.60600 2.14700 31.64500
C  38.18900 3.71600 33.63000
C  35.25600 1.32400 33.93400
C  34.68000 1.57900 35.39200
H  35.02100 2.85800 36.20700
N  38.19500 1.37100 28.74700
C  39.15900 1.48200 29.71100
C  40.39600 1.10900 29.21100
C  40.25300 0.83400 27.81900
C  38.80400 1.03800 27.59300
C  41.67000 1.08800 30.07500
C  41.36500 0.38900 26.80100
O  41.20100 0.17100 25.63000
C  42.82700 0.29500 27.32900
N  35.89600 1.60500 26.84700
C  36.85100 1.17100 25.95100
C  36.24500 0.75000 24.56200
C  34.74400 1.12600 24.79600
C  34.68100 1.70800 26.22000
C  36.91300 1.37100 23.27200
C  33.69700 -0.01100 24.44700
C  34.15600 -1.07900 23.37400
N  34.13000 2.19700 29.01600
C  33.15900 2.33100 28.05700
C  31.91200 2.62800 28.60400
C  32.14100 2.80100 30.02600
C  33.52800 2.54800 30.21100
C  30.67200 2.76300 27.90000
C  31.54900 2.99500 31.35300
O  30.38900 3.24600 31.70700
C  32.78200 2.84000 32.32100
C  32.68000 4.21200 32.97800
O  33.22200 5.20100 32.55300
O  31.85600 4.05900 34.10800
C  31.68000 5.26700 34.92900
H  39.63200 1.60200 31.80200
H  38.76700 0.50500 25.49600
H  32.53300 2.17800 26.08400
H  35.42900 3.41000 33.68900
H  37.83900 1.68000 33.83900
H  39.13000 3.40100 34.08100
H  37.61100 4.17900 34.43000
H  38.45100 4.38800 32.81200
H  35.94200 0.48300 34.03100
H  34.42900 0.96500 33.32100
H  34.73500 0.69000 36.02000
H  33.59000 1.62200 35.38000
H  42.61100 1.48700 29.69700
H  41.79500 0.06900 30.44100
H  41.56400 1.67900 30.98500
H  43.45000 -0.03300 26.49800
H  42.98200 -0.41700 28.14000
H  43.07000 1.31900 27.61500
H  36.29800 -0.33900 24.57100
H  34.45000 2.02100 24.24800
H  36.81100 0.65200 22.45900
H  37.95500 1.66900 23.38700
H  36.35800 2.29300 23.09600
H  32.79100 0.43900 24.04300
H  33.35900 -0.60200 25.29800
H  34.72800 -1.94600 23.70400
H  34.80800 -0.69800 22.58800
H  33.21200 -1.43500 22.96100
H  30.50600 2.17400 26.99700
H  30.76000 3.78500 27.53400
H  29.81400 2.69900 28.56900
H  32.54400 2.04500 33.02800
H  30.91200 5.92600 34.52600
H  32.62000 5.81800 34.91900
H  31.37800 5.10200 35.96400
Mg -11.43400 16.00500 42.82000
C  -7.86400 16.03700 42.37000
C  -11.48900 19.21000 41.93300
C  -14.98300 15.90100 42.54800
C  -11.28200 12.51000 42.97000
N  -9.84000 17.37000 41.95000
C  -8.42900 17.23600 41.97300
C  -7.73700 18.62600 41.84700
C  -8.97700 19.57800 41.90800
C  -10.19500 18.63300 41.96500
C  -8.90700 20.58000 43.05800
C  -6.78300 18.82800 40.57500
C  -5.28200 19.16500 40.83500
H  -4.87600 20.26500 39.91600
N  -12.96200 17.34600 42.12600
C  -12.74200 18.68100 41.84800
C  -14.01700 19.33100 41.53300
C  -15.04600 18.35700 41.71400
C  -14.34100 17.08000 42.17500
C  -14.03000 20.80100 40.95900
C  -16.46700 18.66800 41.64500
O  -16.82800 19.83800 41.43100
C  -17.60500 17.62200 41.73200
N  -12.93400 14.44800 42.61500
C  -14.29100 14.71200 42.72100
C  -14.96300 13.42600 43.19000
C  -13.83400 12.33700 42.89600
C  -12.55800 13.17000 42.87400
C  -15.38700 13.60200 44.67000
C  -13.94900 11.57800 41.57800
C  -14.65300 10.20200 41.56700
N  -9.89200 14.52100 43.02000
C  -9.97400 13.15500 43.04100
C  -8.67600 12.57000 42.98100
C  -7.82500 13.67400 42.84700
C  -8.58800 14.86300 42.77400
C  -8.41100 11.17800 42.90300
C  -6.40900 14.06800 42.70300
O  -5.43100 13.33600 42.82500
C  -6.39700 15.68300 42.42600
C  -5.67800 16.33800 43.56500
O  -6.13700 16.90300 44.55800
O  -4.33100 16.11600 43.35300
C  -3.40500 16.74900 44.32800
H  -11.38800 20.28900 41.79900
H  -16.05700 15.95300 42.74000
H  -11.31800 11.42100 43.03500
H  -7.15000 18.81000 42.74700
H  -8.96400 20.18100 40.99900
H  -9.62300 20.18700 43.78000
H  -9.28100 21.52700 42.66800
H  -7.92500 20.67300 43.52200
H  -7.28700 19.44000 39.82800
H  -6.77400 17.85300 40.08800
H  -4.64100 18.30800 40.63100
H  -5.13200 19.36100 41.89700
H  -14.25800 20.65200 39.90300
H  -13.02000 21.20200 41.03300
H  -14.70700 21.49800 41.45300
H  -18.54300 18.01400 41.33700
H  -17.74500 17.33300 42.77300
H  -17.33100 16.80900 41.06000
H  -15.89700 13.24000 42.66000
H  -13.63100 11.65300 43.72000
H  -16.47600 13.62300 44.62200
H  -15.05400 14.51800 45.15600
H  -15.01900 12.75900 45.25400
H  -12.92800 11.53000 41.20000
H  -14.59600 12.17000 40.93100
H  -13.92700 9.43300 41.30100
H  -15.47600 10.07200 40.86400
H  -14.94300 10.22600 42.61700
H  -9.10500 10.86300 43.68300
H  -7.47300 10.77400 43.28400
H  -8.72500 10.76300 41.94600
H  -5.86500 15.74100 41.47700
H  -2.89500 15.91500 44.81100
H  -3.90400 17.36600 45.07500
H  -2.66000 17.31400 43.76800

