158

Mg 44.55500 4.26900 45.69700
C  42.74800 7.16600 45.72600
C  41.63100 2.48900 45.47100
C  46.46200 1.60200 45.31800
C  47.53500 6.34600 45.10000
N  42.34300 4.76200 45.46200
C  41.90300 6.02400 45.52600
C  40.37300 6.09400 45.37800
C  39.98800 4.50100 45.30700
C  41.35900 3.82400 45.45000
C  38.80800 4.08400 46.28500
C  39.82000 6.82500 44.14100
C  40.81200 7.31300 43.04000
H  40.32400 7.19800 41.59400
N  44.14200 2.32100 45.53100
C  42.90300 1.77600 45.43200
C  43.01600 0.36300 45.30900
C  44.41100 0.06700 45.20100
C  45.09500 1.32800 45.33100
C  41.83000 -0.59500 45.12600
C  44.97100 -1.30700 44.88400
O  44.28500 -2.31400 44.78300
C  46.45400 -1.56300 44.72800
N  46.66200 4.01500 45.39800
C  47.18500 2.78400 45.27000
C  48.70600 2.70700 45.22400
C  49.06700 4.21700 44.95900
C  47.68000 4.91400 45.16100
C  49.37300 2.24200 46.60100
C  49.65100 4.59100 43.62100
C  51.19800 4.39800 43.52900
N  45.09800 6.30200 45.53700
C  46.29800 7.01200 45.46200
C  46.06500 8.50600 45.60300
C  44.67000 8.55900 45.75200
C  44.12400 7.26600 45.62000
C  47.10300 9.59700 45.73800
C  43.60700 9.41500 46.02900
O  43.62300 10.62300 46.18000
C  42.32800 8.61700 45.89300
C  41.45300 8.85400 47.10300
O  41.48400 8.31400 48.13700
O  40.52100 9.73400 46.72700
C  39.38800 9.90100 47.64600
H  40.71600 1.90000 45.38600
H  47.17900 0.77900 45.27700
H  48.45800 6.89800 44.90900
H  39.89500 6.61200 46.21000
H  39.69300 4.22000 44.29600
H  37.89700 3.82800 45.74500
H  38.53700 4.88800 46.97000
H  38.97400 3.15700 46.83400
H  39.21900 7.64900 44.52600
H  39.13000 6.14900 43.63600
H  41.82700 6.91800 43.10200
H  40.77400 8.38800 43.21600
H  41.98500 -1.34200 45.90400
H  41.82200 -1.08700 44.15300
H  40.90800 -0.08500 45.40400
H  46.57800 -2.60400 44.43300
H  47.01900 -1.34500 45.63400
H  46.84800 -0.96200 43.90800
H  49.05900 2.01500 44.45900
H  49.74000 4.69500 45.67100
H  48.47400 2.16000 47.21200
H  50.03100 2.91300 47.15300
H  49.76700 1.22600 46.61600
H  49.31200 5.49300 43.11000
H  49.28800 3.83500 42.92400
H  51.38200 3.61100 42.79600
H  51.76800 4.21200 44.43900
H  51.73500 5.19400 43.01300
H  46.53000 10.49200 45.98300
H  47.59800 9.82600 44.79400
H  47.84200 9.37900 46.51000
H  41.76800 9.03800 45.05800
H  38.50400 9.39700 47.25600
H  39.20200 10.96200 47.81300
H  39.47400 9.45000 48.63500
Mg -1.81300 34.16000 27.53400
C  -4.09900 32.40600 29.70200
C  -0.63300 35.86400 30.24200
C  -0.12200 36.03400 25.36700
C  -3.53600 32.59700 24.85900
N  -2.36700 34.22900 29.78400
C  -3.36500 33.37900 30.41100
C  -3.34000 33.65100 31.87000
C  -2.43400 34.97200 31.97500
C  -1.75400 35.06500 30.59100
C  -3.23700 36.27200 32.20100
C  -2.61700 32.53500 32.63800
C  -3.40700 32.11900 33.95000
H  -2.61500 32.29800 35.28000
N  -0.36700 35.67700 27.86900
C  -0.03900 36.27500 29.01500
C  1.05600 37.24000 28.74000
C  1.26000 37.18300 27.33000
C  0.23800 36.24400 26.76300
C  1.82900 38.07000 29.73500
C  2.33000 37.96000 26.46600
O  2.40400 37.72300 25.25700
C  3.24400 38.85000 27.09400
N  -1.76900 34.17500 25.39100
C  -1.04000 35.14400 24.74800
C  -1.25700 35.02200 23.20600
C  -2.24300 33.84400 23.07900
C  -2.61600 33.59300 24.56600
C  -1.77000 36.48200 22.67300
C  -1.81000 32.56100 22.28700
C  -0.78400 31.57500 22.98000
N  -3.40200 32.83800 27.26100
C  -3.88200 32.16500 26.13900
C  -4.71600 31.08600 26.50300
C  -4.80800 31.17100 27.88200
C  -4.04100 32.26400 28.31000
C  -5.43800 30.08600 25.58600
C  -5.55000 30.60500 29.02800
O  -6.29400 29.62200 29.08300
C  -5.00600 31.42400 30.24400
C  -6.05800 31.92800 31.21300
O  -6.88000 32.82200 31.04400
O  -6.06200 31.17800 32.37200
C  -7.19200 31.42500 33.29900
H  -0.21000 36.32500 31.13600
H  0.42700 36.75600 24.75900
H  -4.10100 32.11100 24.06100
H  -4.32700 33.80000 32.30700
H  -1.65900 34.95600 32.74100
H  -3.43600 36.77600 31.25600
H  -2.53800 36.89800 32.75600
H  -4.02700 36.11200 32.93500
H  -1.55500 32.68400 32.83000
H  -2.55400 31.60800 32.06900
H  -3.68200 31.06600 33.88900
H  -4.32700 32.70400 33.95600
H  1.48800 37.89800 30.75600
H  1.79500 39.13400 29.49800
H  2.87300 37.76500 29.65300
H  3.80000 39.53900 26.45800
H  3.89200 38.22800 27.71200
H  2.74600 39.53900 27.77600
H  -0.32900 34.76700 22.69500
H  -3.00700 34.25700 22.42100
H  -1.21300 36.75100 21.77600
H  -1.76700 37.34000 23.34500
H  -2.73400 36.47400 22.16500
H  -1.29500 33.03400 21.45100
H  -2.72700 32.01300 22.06900
H  -0.45200 32.01700 23.91900
H  0.10400 31.32000 22.40200
H  -1.31200 30.64700 23.20000
H  -5.61500 29.17200 26.15400
H  -4.87900 29.81300 24.69200
H  -6.40100 30.49700 25.28100
H  -4.47500 30.59300 30.70700
H  -8.15800 31.23500 32.83200
H  -7.26600 32.46900 33.60400
H  -7.18500 30.73900 34.14600

