158

Mg 8.79400 2.59500 27.69700
C  10.31500 1.09800 30.48100
C  6.81400 4.48300 29.74800
C  7.45000 3.87500 24.96400
C  10.63500 0.25100 25.63900
N  8.68900 2.74900 29.81900
C  9.49600 2.22000 30.79400
C  9.10900 2.70800 32.17800
C  7.94300 3.65200 31.90600
C  7.72000 3.59300 30.38300
C  6.68500 3.41300 32.81400
C  10.34800 3.27300 33.00300
C  10.19600 4.25200 34.17700
H  10.95400 3.99000 35.44000
N  7.20600 3.98300 27.42700
C  6.51300 4.64400 28.37900
C  5.59700 5.51100 27.72300
C  5.93200 5.48900 26.30600
C  6.93200 4.45600 26.11700
C  4.59200 6.40400 28.50700
C  5.44200 6.34700 25.20500
O  5.85700 6.36500 24.10200
C  4.30200 7.37800 25.57300
N  8.81900 1.88600 25.58900
C  8.21600 2.69200 24.65300
C  8.73900 2.29800 23.21600
C  9.58700 1.01700 23.40100
C  9.78200 1.10100 24.98000
C  7.64900 2.19500 22.17800
C  10.99200 1.08700 22.63400
C  11.23400 -0.20500 21.83400
N  10.26800 1.14500 27.90900
C  10.86000 0.24100 27.01300
C  11.77800 -0.67000 27.72200
C  11.57800 -0.35800 29.07800
C  10.72100 0.77900 29.12400
C  12.58300 -1.85000 27.14900
C  11.99600 -0.72700 30.42500
O  12.78200 -1.56500 30.81400
C  11.22300 0.24200 31.36000
C  10.60100 -0.59800 32.36500
O  9.39200 -0.86600 32.56000
O  11.53000 -0.92200 33.35100
C  11.00600 -1.20700 34.66900
H  6.23500 5.13800 30.40300
H  7.19400 4.44700 24.06900
H  11.21000 -0.38600 24.96400
H  8.75100 1.79700 32.65800
H  8.23000 4.64800 32.24500
H  5.81000 2.97700 32.33300
H  6.32800 4.34400 33.25500
H  6.91700 2.79300 33.68000
H  10.93000 3.72900 32.20200
H  10.88600 2.37200 33.29800
H  9.14100 4.41700 34.39500
H  10.52100 5.21000 33.77100
H  3.58800 6.48800 28.09200
H  5.16700 7.30300 28.72800
H  4.44100 5.87000 29.44600
H  4.65200 8.04000 26.36500
H  3.51400 6.68400 25.86400
H  3.90300 7.99900 24.77100
H  9.37900 3.12900 22.91900
H  9.01200 0.09400 23.32700
H  6.81400 2.83100 22.47200
H  7.33900 1.15200 22.23700
H  7.98900 2.50600 21.19000
H  11.77300 1.28300 23.36900
H  10.96400 1.91400 21.92500
H  11.63000 -0.01700 20.83600
H  10.35200 -0.81400 21.63400
H  12.04500 -0.70900 22.35800
H  13.65500 -1.67900 27.04900
H  12.13300 -2.14400 26.20000
H  12.52000 -2.72800 27.79100
H  12.01800 0.80200 31.85200
H  10.08800 -0.64600 34.84600
H  11.77100 -0.84600 35.35600
H  10.75900 -2.26100 34.79700
Mg 40.88300 9.10900 29.94600
C  42.40400 10.30100 32.78100
C  38.17900 8.19000 31.94400
C  39.34500 7.87600 27.22500
C  43.61500 9.99000 28.12800
N  40.43500 9.06500 32.13600
C  41.07900 9.83200 33.05800
C  40.27800 9.89900 34.39300
C  39.03400 8.97100 34.12500
C  39.22100 8.65800 32.69700
C  38.83500 7.73900 35.12400
C  40.04300 11.32700 34.86900
C  39.80700 11.46400 36.40200
H  40.94700 12.04000 37.29100
N  39.02100 8.07300 29.66500
C  38.05600 7.84500 30.52700
C  36.91400 7.09500 29.88700
C  37.22200 7.00700 28.48000
C  38.56600 7.68400 28.36400
C  35.71500 6.45500 30.60600
C  36.38700 6.51100 27.34900
O  36.79000 6.49800 26.19300
C  35.02900 6.13000 27.71000
N  41.48400 8.94500 28.01900
C  40.64600 8.37000 27.06900
C  41.41200 8.25500 25.70500
C  42.60700 9.27000 25.91800
C  42.52400 9.47000 27.43800
C  41.78600 6.79500 25.33700
C  42.50400 10.65700 25.17100
C  41.14000 11.49300 25.30200
N  42.66900 9.98900 30.36600
C  43.70500 10.29900 29.48600
C  44.72600 10.94200 30.20100
C  44.26300 10.94700 31.55300
C  43.02600 10.33100 31.55900
C  45.91600 11.51500 29.58000
C  44.52900 11.48400 32.93200
O  45.39900 12.17700 33.37500
C  43.33800 10.95300 33.78500
C  43.68700 10.00600 34.78400
O  43.64200 8.77500 34.68200
O  44.02800 10.65000 35.91300
C  44.51200 9.76700 37.03200
H  37.18500 8.06500 32.37700
H  38.97000 7.51500 26.26500
H  44.55900 10.21300 27.62500
H  40.74800 9.32300 35.19100
H  38.12400 9.53900 34.31500
H  39.20500 7.97400 36.12300
H  39.42800 6.88700 34.79200
H  37.76500 7.55000 35.20900
H  39.08100 11.55100 34.40700
H  40.66300 12.11600 34.44400
H  39.56400 10.46300 36.75900
H  38.87500 12.01800 36.51900
H  34.78100 6.97800 30.39700
H  35.84100 6.51100 31.68700
H  35.63500 5.39200 30.37900
H  34.45800 5.73600 26.86900
H  34.59500 7.05100 28.10100
H  35.19700 5.26800 28.35500
H  40.85000 8.59600 24.83500
H  43.53600 8.70900 25.81900
H  41.21800 6.07300 25.92300
H  42.82900 6.75800 25.65000
H  41.54800 6.45500 24.32900
H  42.52500 10.49200 24.09400
H  43.33200 11.30700 25.45400
H  40.61700 11.77300 24.38800
H  41.19100 12.47400 25.77300
H  40.36700 11.01100 25.90000
H  45.85400 12.60300 29.61200
H  46.19700 11.00600 28.65800
H  46.71500 11.16600 30.23500
H  42.92800 11.84200 34.26400
H  44.91300 8.80000 36.73000
H  43.63000 9.61500 37.65400
H  45.26700 10.31500 37.59700

