158

Mg -9.98700 39.55200 40.47100
C  -8.54300 36.32900 39.45500
C  -6.92500 40.93900 39.70600
C  -11.38400 42.67200 40.44400
C  -12.94900 38.01100 40.87500
N  -7.97900 38.73200 39.56200
C  -7.57600 37.43100 39.49600
C  -6.09000 37.33300 39.25100
C  -5.59800 38.74900 39.57500
C  -6.94000 39.53300 39.66800
C  -4.65400 38.90000 40.75100
C  -5.80900 36.87000 37.77200
C  -6.53800 37.67600 36.65000
H  -7.27600 36.85700 35.53500
N  -9.29600 41.49600 40.07100
C  -7.95500 41.82700 39.85100
C  -7.86000 43.20500 39.59600
C  -9.09200 43.76600 39.87800
C  -10.05600 42.65200 40.23900
C  -6.51800 43.87400 39.18800
C  -9.43300 45.26400 39.80200
O  -8.61900 46.08900 39.44700
C  -10.71300 45.72700 40.22400
N  -11.93400 40.29300 40.64900
C  -12.35300 41.61800 40.60100
C  -13.82600 41.72800 41.04900
C  -14.24800 40.20300 41.34400
C  -12.97900 39.46000 40.92500
C  -14.14000 42.70300 42.25800
C  -15.59500 39.71800 40.65200
C  -16.77100 39.12000 41.48300
N  -10.66900 37.59400 40.31700
C  -11.94700 37.10100 40.47500
C  -12.02300 35.68700 40.09400
C  -10.68300 35.34300 39.77000
C  -9.91300 36.48300 39.87800
C  -13.18800 34.78300 40.14000
C  -9.86800 34.26200 39.26800
O  -10.14400 33.11000 38.98900
C  -8.37200 34.80000 39.13800
C  -7.56000 34.12700 40.25600
O  -7.96800 33.70900 41.34700
O  -6.17700 34.08100 39.83900
C  -5.31600 33.25200 40.74100
H  -5.91200 41.32700 39.57800
H  -11.91400 43.61500 40.29300
H  -13.93100 37.54300 40.96900
H  -5.73300 36.61500 39.98900
H  -5.10300 39.09800 38.66900
H  -5.29500 39.21200 41.57600
H  -3.93800 39.66200 40.44000
H  -4.23700 37.90800 40.92500
H  -5.89900 35.79700 37.60200
H  -4.74800 37.09200 37.65900
H  -5.78200 38.18900 36.05700
H  -7.03200 38.55200 37.07100
H  -6.75700 44.33800 38.23100
H  -5.64100 43.30400 38.88200
H  -6.20400 44.63500 39.90200
H  -10.99600 45.45500 41.24100
H  -11.46400 45.31800 39.54800
H  -10.85500 46.79400 40.05100
H  -14.27700 42.10200 40.13000
H  -14.28500 40.05100 42.42300
H  -14.87800 43.43700 41.93500
H  -13.29200 43.28100 42.62700
H  -14.67400 42.13300 43.01800
H  -15.32200 39.02600 39.85600
H  -15.97900 40.47500 39.96800
H  -17.65000 39.72700 41.26200
H  -16.45200 39.34300 42.50100
H  -16.91000 38.04200 41.40900
H  -14.06300 35.20800 40.63100
H  -12.90100 33.84300 40.61200
H  -13.52800 34.63900 39.11400
H  -7.79600 34.63700 38.22700
H  -5.79000 32.50400 41.37800
H  -4.83900 33.95500 41.42400
H  -4.54300 32.78600 40.13000
Mg -12.72500 14.68300 41.88300
C  -9.29300 13.81700 41.63600
C  -11.98200 17.47000 40.15300
C  -15.92800 15.10100 41.62100
C  -13.19600 11.42500 43.39700
N  -10.83100 15.51100 41.04500
C  -9.55000 15.02500 41.02300
C  -8.59000 15.92000 40.15900
C  -9.46500 17.13600 39.85700
C  -10.89000 16.67600 40.37900
C  -8.91300 18.53800 40.37800
C  -8.03600 15.13800 38.87900
C  -6.44500 15.16500 38.76400
H  -6.03400 16.19700 37.60200
N  -13.81000 16.11200 40.97800
C  -13.38800 17.15400 40.27100
C  -14.54000 17.82000 39.65900
C  -15.69400 17.11200 40.06300
C  -15.19900 16.02900 40.93500
C  -14.43400 19.02000 38.68800
C  -17.09800 17.48600 39.65500
O  -17.26900 18.62400 39.23000
C  -18.26000 16.55000 39.79000
N  -14.36400 13.29600 42.30000
C  -15.58100 13.83300 42.17500
C  -16.58900 12.92700 42.95800
C  -15.75200 11.62300 43.22600
C  -14.36800 12.10200 43.01200
C  -17.03800 13.64700 44.25800
C  -16.02500 10.44900 42.28200
C  -16.02100 9.06100 42.85400
N  -11.51400 12.86300 42.42000
C  -11.83000 11.71300 43.06700
C  -10.59900 10.92800 43.26400
C  -9.64200 11.73500 42.73100
C  -10.20900 12.86900 42.21200
C  -10.65100 9.57600 43.90200
C  -8.20500 11.81300 42.46700
O  -7.29500 11.03200 42.73500
C  -7.97500 13.19500 41.73800
C  -7.08500 13.97400 42.58200
O  -7.42200 14.67200 43.54200
O  -5.79600 14.00500 42.01100
C  -4.87500 14.90000 42.74700
H  -11.80200 18.38300 39.58100
H  -17.00800 15.21300 41.73900
H  -13.23600 10.40700 43.79000
H  -7.75600 16.07500 40.84300
H  -9.77400 17.24100 38.81700
H  -8.01400 18.26600 40.93200
H  -9.64600 19.02200 41.02400
H  -8.56500 19.16600 39.55800
H  -8.39800 15.65700 37.99100
H  -8.26100 14.07200 38.83300
H  -6.02200 14.16100 38.74000
H  -6.00300 15.64500 39.63700
H  -14.33000 20.03300 39.07700
H  -15.25600 18.98600 37.97300
H  -13.53900 18.79200 38.10900
H  -17.95800 15.60600 39.33400
H  -19.04500 17.19300 39.39300
H  -18.49100 16.37900 40.84200
H  -17.43600 12.65400 42.32800
H  -15.81300 11.22800 44.24100
H  -16.77700 13.03500 45.12200
H  -18.08700 13.89900 44.41200
H  -16.39900 14.52400 44.35700
H  -15.37600 10.34600 41.41200
H  -17.02100 10.62000 41.87400
H  -17.08400 8.81800 42.84200
H  -15.57700 9.10200 43.84800
H  -15.50900 8.34800 42.20800
H  -11.53800 9.01100 43.61600
H  -10.71000 9.58100 44.99000
H  -9.76800 8.99200 43.64400
H  -7.48600 12.95600 40.79400
H  -5.22300 15.92300 42.60400
H  -3.86000 14.80700 42.36100
H  -4.73200 14.76300 43.81900

