158

Mg 41.15500 9.68100 30.13500
C  43.13000 11.05100 32.95400
C  38.87400 8.72300 32.55600
C  39.38400 8.29300 27.74200
C  43.53600 10.60100 28.10200
N  41.04400 9.85700 32.50800
C  41.94800 10.53500 33.42200
C  41.43800 10.44700 34.83700
C  40.10200 9.53700 34.71900
C  39.96400 9.34500 33.16700
C  40.16600 8.15700 35.46300
C  41.21700 11.78200 35.54600
C  40.26300 11.77200 36.74600
H  40.71200 11.86300 38.16700
N  39.34900 8.66400 30.18300
C  38.49500 8.40400 31.23500
C  37.31900 7.82100 30.67900
C  37.47800 7.68800 29.28800
C  38.75600 8.20900 28.99500
C  36.17900 7.27600 31.56400
C  36.42400 7.20100 28.22600
O  36.65600 7.00400 27.04400
C  34.97100 6.88200 28.63600
N  41.46100 9.37600 28.23700
C  40.58900 8.81300 27.39200
C  40.99000 8.92000 25.89500
C  42.26000 9.83200 26.05200
C  42.45500 9.96500 27.58600
C  41.27500 7.55300 25.24600
C  42.03900 11.24000 25.33000
C  42.25800 11.38700 23.85700
N  43.02900 10.49900 30.36800
C  43.89400 10.86300 29.43900
C  45.13000 11.44700 29.94200
C  44.82700 11.61300 31.28400
C  43.60100 10.90400 31.55100
C  46.26200 12.01600 29.10700
C  45.23400 12.25900 32.52900
O  46.12000 13.01500 32.76400
C  44.16900 11.91000 33.63500
C  44.80600 11.25400 34.79100
O  45.30900 10.13400 34.75500
O  44.71000 11.98600 35.95900
C  45.05100 11.21800 37.22200
H  38.12200 8.54000 33.32700
H  38.77500 7.95700 26.90000
H  44.25100 10.94100 27.35000
H  42.16200 9.90400 35.44600
H  39.16900 10.02400 35.00500
H  40.16000 7.34900 34.73100
H  39.26200 8.08600 36.06700
H  41.05600 8.26600 36.08300
H  40.94300 12.62700 34.91300
H  42.17900 12.10500 35.94300
H  39.91800 10.74000 36.81500
H  39.45400 12.48400 36.58200
H  36.00500 6.22500 31.33500
H  35.21000 7.71700 31.32900
H  36.35200 7.56100 32.60100
H  34.29200 6.61400 27.82700
H  34.68300 7.85800 29.02600
H  35.03600 6.13700 29.43000
H  40.29100 9.41300 25.22000
H  43.10400 9.47700 25.46100
H  41.42000 6.81200 26.03200
H  42.24200 7.68200 24.75900
H  40.59800 7.32700 24.42300
H  42.64000 12.03800 25.76500
H  40.98400 11.43600 25.52300
H  41.44200 11.92900 23.37900
H  42.43400 10.39500 23.44200
H  43.14000 12.01900 23.74900
H  46.56400 12.99300 29.48400
H  46.04000 12.15400 28.04900
H  47.07400 11.29000 29.15800
H  43.70500 12.82000 34.01400
H  45.61300 11.92100 37.83600
H  45.66400 10.32800 37.08200
H  44.16200 10.91900 37.77800
Mg -1.48400 34.83100 26.83300
C  -3.25500 33.15200 29.42000
C  -0.51900 37.08000 29.22100
C  0.59100 36.03700 24.58200
C  -3.34300 33.03400 24.50700
N  -1.98900 35.13300 29.08200
C  -2.56400 34.26800 29.93700
C  -2.57500 34.81700 31.42200
C  -1.83800 36.20500 31.20100
C  -1.47400 36.17500 29.74800
C  -2.56800 37.52200 31.64700
C  -1.94100 33.87200 32.42200
C  -1.60500 34.45300 33.78000
H  -2.24900 33.72600 34.84900
N  -0.21500 36.41400 26.85500
C  0.05200 37.25000 27.92500
C  0.94300 38.26600 27.47900
C  1.41800 37.95800 26.16100
C  0.62100 36.74400 25.85100
C  1.24700 39.45200 28.35100
C  2.45500 38.59700 25.22900
O  2.84100 38.10500 24.17800
C  3.04200 39.94800 25.64200
N  -1.49800 34.69300 24.71300
C  -0.34000 35.10600 24.06600
C  -0.41800 34.54300 22.62000
C  -1.76500 33.73500 22.53800
C  -2.25800 33.81000 24.02700
C  -0.15400 35.58900 21.49100
C  -1.54500 32.27700 22.24200
C  -0.50600 31.43200 23.04800
N  -3.00600 33.39200 26.89800
C  -3.66300 32.77400 25.85700
C  -4.57300 31.77300 26.38100
C  -4.43900 31.86000 27.73700
C  -3.51000 32.92100 28.05500
C  -5.54700 31.04900 25.64400
C  -4.95200 31.32700 29.00900
O  -5.77900 30.40900 29.17800
C  -4.26300 32.25300 30.16400
C  -5.39500 32.93600 30.83300
O  -5.90500 33.94400 30.39300
O  -5.66900 32.35800 32.10600
C  -6.57300 33.19500 32.90500
H  -0.21400 37.77900 30.00400
H  1.29700 36.37500 23.82000
H  -3.97200 32.40300 23.87600
H  -3.64300 34.95200 31.59300
H  -0.89200 36.23500 31.74100
H  -1.88800 38.30900 31.97500
H  -3.18200 37.30300 32.52000
H  -3.20600 37.86200 30.83100
H  -0.98400 33.67900 31.93800
H  -2.58900 32.99900 32.50300
H  -1.78800 35.52800 33.78900
H  -0.55300 34.30500 34.02500
H  0.95500 39.37600 29.39800
H  0.78600 40.29700 27.83800
H  2.31900 39.64800 28.37400
H  2.32100 40.69600 25.97000
H  3.52500 40.30300 24.73200
H  3.72700 39.94000 26.49000
H  0.39000 33.81700 22.52500
H  -2.49100 34.10400 21.81500
H  -0.02600 36.62400 21.80600
H  -0.94500 35.50200 20.74500
H  0.76400 35.39400 20.93700
H  -1.15800 32.25300 21.22300
H  -2.52100 31.79700 22.17000
H  -0.10700 32.02300 23.87300
H  0.39300 31.06400 22.55500
H  -1.03700 30.58000 23.47100
H  -6.48700 31.59600 25.57800
H  -5.85500 30.16000 26.19400
H  -5.18600 30.82400 24.64000
H  -3.79900 31.57700 30.88100
H  -7.33700 33.64600 32.27100
H  -5.90500 33.96700 33.28600
H  -7.02000 32.66900 33.74900

