158

Mg 24.74500 -7.80600 46.18700
C  27.55300 -5.63100 45.62200
C  23.02100 -5.86500 44.04800
C  22.66400 -10.33600 45.85800
C  27.01900 -9.87800 47.97300
N  25.23700 -5.94500 45.06800
C  26.39800 -5.26600 44.94300
C  26.21700 -4.05800 44.03400
C  24.68500 -3.82900 44.17800
C  24.24700 -5.29800 44.39300
C  24.14500 -2.80300 45.22600
C  26.75500 -4.24100 42.61000
C  26.98400 -3.01200 41.66800
H  26.09100 -2.97800 40.45500
N  22.94600 -8.06200 45.19800
C  22.42500 -7.13700 44.35700
C  21.13200 -7.60800 43.99600
C  20.94400 -8.96000 44.53000
C  22.24500 -9.20800 45.19300
C  20.12900 -6.72800 43.23200
C  19.74300 -9.84400 44.45300
O  18.70500 -9.49200 43.87300
C  19.75500 -11.23400 45.05900
N  24.94000 -9.78700 46.80000
C  23.83300 -10.59800 46.59100
C  23.98500 -11.99700 47.30200
C  25.33300 -11.83300 48.13400
C  25.77500 -10.40300 47.64600
C  22.67300 -12.49000 48.11600
C  26.47200 -12.94000 47.90700
C  27.41100 -13.28100 49.06700
N  26.85800 -7.72300 46.91300
C  27.54600 -8.62700 47.59600
C  28.91200 -8.10100 47.80600
C  28.95300 -6.86400 47.05500
C  27.72600 -6.73800 46.50200
C  30.04100 -8.76100 48.48100
C  29.82300 -5.78200 46.56700
O  30.98400 -5.58100 46.90100
C  28.92100 -5.00100 45.46300
C  29.00500 -3.55700 45.70200
O  28.37400 -2.91000 46.51800
O  29.77000 -3.07300 44.68500
C  29.35900 -1.75500 44.21900
H  22.41300 -5.18500 43.44700
H  22.06300 -11.24600 45.80100
H  27.64700 -10.49800 48.61700
H  26.65900 -3.18100 44.50700
H  24.34500 -3.36500 43.25200
H  24.94200 -2.40900 45.85600
H  23.53600 -3.40100 45.90400
H  23.49900 -2.04900 44.77700
H  26.02400 -4.89800 42.13900
H  27.73200 -4.72400 42.61400
H  27.99500 -3.18000 41.29800
H  26.99700 -1.98400 42.03200
H  20.23400 -5.70200 43.58400
H  19.11100 -7.11200 43.30200
H  20.36500 -6.58800 42.17700
H  19.91700 -11.22900 46.13700
H  20.58400 -11.65000 44.48800
H  18.82300 -11.76600 44.86700
H  24.12800 -12.71900 46.49800
H  25.03500 -11.75600 49.18000
H  21.79000 -11.88400 47.90900
H  22.77200 -12.50100 49.20100
H  22.40000 -13.46100 47.70300
H  26.98900 -12.79100 46.96000
H  25.86400 -13.84000 47.81400
H  26.97800 -14.00900 49.75200
H  27.68500 -12.47500 49.74700
H  28.30100 -13.77500 48.67500
H  30.53900 -7.94300 49.00000
H  30.75200 -9.12400 47.74000
H  29.63800 -9.61800 49.02100
H  29.22900 -5.24400 44.44600
H  28.37400 -1.46800 44.58700
H  29.22500 -1.79900 43.13800
H  30.12900 -1.07100 44.57800
Mg -10.53900 17.10900 43.09300
C  -6.94300 17.07300 43.08700
C  -10.36600 20.54400 42.27100
C  -13.79300 17.02500 42.67600
C  -10.47900 13.59600 42.92900
N  -8.82100 18.57300 42.76800
C  -7.46000 18.38700 42.84200
C  -6.72500 19.68200 42.56200
C  -7.84400 20.79600 42.81400
C  -9.13100 19.92500 42.62300
C  -7.77100 21.40400 44.23100
C  -6.06800 19.76500 41.19800
C  -4.49100 19.70800 41.16500
H  -3.72000 18.93300 40.08800
N  -11.95700 18.58300 42.60100
C  -11.66000 19.88100 42.22400
C  -12.89200 20.52500 41.90700
C  -13.93400 19.55500 42.09400
C  -13.24000 18.31900 42.44600
C  -13.08500 21.98900 41.70100
C  -15.51400 19.83400 41.89500
O  -15.90100 20.88000 41.46600
C  -16.56500 18.73600 42.16800
N  -11.97800 15.51900 42.87000
C  -13.27400 15.82300 42.90700
C  -14.02300 14.52000 43.19200
C  -13.02000 13.36200 43.04700
C  -11.74100 14.18200 42.88500
C  -14.70300 14.53500 44.58300
C  -13.17800 12.26000 41.96700
C  -12.83100 12.62100 40.48100
N  -9.05000 15.62000 43.09500
C  -9.19700 14.23400 42.99500
C  -7.85800 13.67200 43.15000
C  -6.96900 14.73100 43.21900
C  -7.76400 15.90800 43.17800
C  -7.51300 12.23500 43.45200
C  -5.58700 15.07800 43.38900
O  -4.66100 14.34900 43.75800
C  -5.48100 16.60500 43.34600
C  -4.91600 17.10600 44.58500
O  -5.45400 17.11000 45.67900
O  -3.59300 17.33500 44.36000
C  -2.87900 17.82100 45.59000
H  -10.35400 21.61800 42.07400
H  -14.86300 16.81800 42.74600
H  -10.45100 12.50600 42.97900
H  -5.92900 19.70400 43.30600
H  -7.83300 21.57100 42.04800
H  -6.89100 21.06700 44.77700
H  -8.51800 21.01200 44.92200
H  -7.78100 22.49400 44.22200
H  -6.31400 20.67200 40.64500
H  -6.53400 19.02600 40.54500
H  -4.08800 19.48500 42.15200
H  -4.26200 20.77400 41.17000
H  -13.99400 22.25000 42.24500
H  -13.38900 22.22200 40.68000
H  -12.27500 22.68100 41.93100
H  -17.60700 19.00500 41.99400
H  -16.49300 18.31500 43.17100
H  -16.45400 18.00900 41.36300
H  -14.82500 14.43700 42.45800
H  -12.89500 12.83700 43.99400
H  -14.27500 15.33700 45.18400
H  -14.52600 13.70000 45.26000
H  -15.78600 14.63400 44.51000
H  -14.21100 11.91700 41.90300
H  -12.51200 11.43300 42.21300
H  -11.91100 12.15400 40.13200
H  -12.77200 13.70900 40.45100
H  -13.59000 12.28600 39.77200
H  -8.19700 11.60800 42.88000
H  -7.60600 12.10800 44.53100
H  -6.44900 12.00100 43.41500
H  -4.77000 16.92700 42.58400
H  -1.80800 17.93800 45.42400
H  -3.02900 17.09500 46.39000
H  -3.08200 18.84700 45.89600

