158

Mg 1.79300 8.98900 26.98100
C  2.32600 10.79000 29.93100
C  1.55800 6.16100 28.96900
C  1.45000 7.23400 24.25000
C  2.15700 11.80900 25.20100
N  2.11000 8.50900 29.34300
C  2.05200 9.48600 30.30000
C  1.74200 8.86800 31.69300
C  1.83300 7.32900 31.30300
C  1.75100 7.27500 29.79800
C  3.08400 6.65900 32.02000
C  0.42200 9.35500 32.24400
C  0.16100 9.29100 33.73300
H  1.26400 8.85200 34.62900
N  1.67100 6.89600 26.62200
C  1.50400 5.94900 27.52700
C  1.29600 4.68400 26.79700
C  1.33500 4.96100 25.39400
C  1.50700 6.39700 25.36800
C  1.06500 3.37300 27.52800
C  1.22000 4.05400 24.23100
O  1.28200 4.33800 23.01400
C  1.33300 2.56000 24.56700
N  1.70900 9.46700 24.92400
C  1.50900 8.60200 23.99000
C  1.42600 9.22500 22.58300
C  1.37400 10.73900 23.02500
C  1.80700 10.71000 24.44800
C  2.63500 8.90400 21.63000
C  0.02600 11.50000 22.92700
C  -0.64600 11.78300 21.58600
N  2.09700 10.90300 27.39300
C  2.26400 11.99800 26.59200
C  2.52900 13.18400 27.37600
C  2.59300 12.70600 28.68500
C  2.32200 11.29900 28.61600
C  2.78600 14.58400 26.88900
C  2.81800 13.21900 30.00700
O  3.10500 14.29800 30.45600
C  2.51800 11.97000 30.89900
C  3.60500 11.84900 31.86500
O  4.75500 11.80000 31.57100
O  3.03400 11.96800 33.12600
C  4.01600 12.17400 34.18100
H  1.50100 5.23700 29.54700
H  1.32200 6.65100 23.33500
H  2.43200 12.68900 24.61700
H  2.54900 9.36000 32.23700
H  0.89500 6.93300 31.69300
H  3.11100 6.88400 33.08700
H  3.98900 7.10000 31.60100
H  3.15200 5.59600 31.79000
H  -0.42100 8.83200 31.79200
H  0.27900 10.38700 31.92200
H  -0.66000 8.58000 33.82500
H  -0.12000 10.29000 34.06600
H  2.04200 3.07200 27.90500
H  0.57100 2.57000 26.98200
H  0.54400 3.57000 28.46500
H  2.04500 2.34900 25.36500
H  1.49700 2.04900 23.61800
H  0.31600 2.30800 24.86400
H  0.47300 8.92100 22.14900
H  2.18900 11.27300 22.53600
H  3.41300 8.62600 22.34100
H  2.96100 9.76900 21.05200
H  2.31500 8.09100 20.97800
H  0.19700 12.49900 23.32800
H  -0.60800 10.89300 23.57300
H  -0.58600 12.83500 21.30500
H  -1.68800 11.46500 21.61600
H  -0.11300 11.29400 20.77100
H  3.31500 14.58200 25.93600
H  3.24300 15.16900 27.68700
H  1.79000 15.00200 26.73900
H  1.57800 12.28000 31.35600
H  4.81400 12.83500 33.84100
H  4.50700 11.22700 34.40700
H  3.43100 12.49100 35.04300
Mg 18.04900 -0.82800 27.38400
C  17.09600 1.21000 30.11400
C  20.11800 -2.55500 29.61400
C  19.13500 -2.49100 24.78900
C  16.62700 1.73800 25.20200
N  18.43800 -0.70200 29.58600
C  17.89000 0.12400 30.54500
C  18.43300 -0.20900 32.01100
C  19.55300 -1.26800 31.71400
C  19.40700 -1.53700 30.21500
C  20.95900 -0.73100 32.07600
C  17.19800 -0.77600 32.77700
C  17.05400 -0.44200 34.26100
H  18.17100 0.28000 35.03200
N  19.34100 -2.33800 27.28100
C  20.08400 -3.02000 28.28400
C  20.74200 -4.14600 27.64600
C  20.46100 -4.10000 26.24800
C  19.65800 -2.94500 26.03800
C  21.50600 -5.13500 28.48500
C  20.90800 -5.03700 25.23100
O  20.61400 -4.94900 24.06900
C  21.73600 -6.32700 25.59800
N  17.88600 -0.39900 25.34900
C  18.32900 -1.36000 24.46400
C  17.93300 -0.98300 23.07200
C  17.30700 0.42900 23.18700
C  17.22900 0.61600 24.68200
C  19.17500 -1.05100 22.15500
C  15.97000 0.61300 22.41600
C  14.72600 -0.04200 23.05800
N  16.91000 1.04700 27.63900
C  16.31000 1.85300 26.57800
C  15.47200 2.76100 27.26300
C  15.70200 2.57300 28.63500
C  16.61600 1.49800 28.80100
C  14.65100 3.88000 26.64300
C  15.37100 3.01400 29.98600
O  14.59800 3.87400 30.33100
C  16.31000 2.16200 30.93400
C  17.11500 3.04200 31.78500
O  18.35400 3.12400 31.84100
O  16.37100 3.77600 32.60400
C  16.98600 4.75200 33.54400
H  20.89900 -3.00800 30.22800
H  19.39000 -3.08000 23.90600
H  16.30300 2.42300 24.41500
H  18.66900 0.74200 32.48900
H  19.39900 -2.16500 32.31200
H  21.64200 -0.65500 31.23100
H  21.35100 -1.44800 32.79800
H  20.90100 0.25400 32.53800
H  17.11600 -1.86300 32.76600
H  16.25700 -0.45800 32.32700
H  17.02100 -1.41000 34.75900
H  16.12100 0.06600 34.50500
H  21.19700 -6.18000 28.50500
H  21.55700 -4.94700 29.55800
H  22.53700 -5.26600 28.15300
H  22.56700 -5.97700 26.21000
H  22.15700 -6.68200 24.65700
H  21.09100 -6.99700 26.16500
H  17.10900 -1.65000 22.82000
H  17.98300 1.17000 22.76100
H  19.26000 -0.20900 21.46800
H  19.09100 -1.89500 21.47100
H  20.08600 -1.02200 22.75300
H  16.13100 0.18700 21.42600
H  15.76900 1.67700 22.29200
H  13.93800 0.69200 23.23200
H  14.91200 -0.50700 24.02600
H  14.41600 -0.84600 22.39000
H  14.16000 3.49400 25.74900
H  15.32300 4.69200 26.36600
H  13.88500 4.18200 27.35700
H  15.71700 1.76700 31.75900
H  17.08000 5.69200 33.00100
H  17.90300 4.53100 34.09100
H  16.13100 4.99800 34.17400

