158

Mg 47.28100 25.08500 28.47000
C  47.97500 27.53100 30.91400
C  46.49500 23.00500 31.08300
C  46.84600 22.69200 26.22300
C  48.75100 27.13700 26.17200
N  47.22200 25.19900 30.78200
C  47.43300 26.38400 31.51400
C  47.09500 26.15900 32.99500
C  46.62000 24.66000 33.03600
C  46.75600 24.24000 31.58400
C  47.38900 23.77900 33.97000
C  46.02800 27.15000 33.46900
C  46.44600 28.05500 34.65300
H  45.61500 28.34100 35.89200
N  46.70800 23.18500 28.58700
C  46.40800 22.45800 29.75200
C  45.95800 21.14000 29.46400
C  45.99300 21.03700 28.05100
C  46.55100 22.28400 27.57200
C  45.53500 20.19900 30.52400
C  45.74800 19.82000 27.23500
O  45.95400 19.72400 26.01100
C  45.37100 18.54500 27.89700
N  47.55000 24.98800 26.54500
C  47.40200 23.86700 25.79300
C  47.78400 24.00200 24.29800
C  48.23200 25.47800 24.28200
C  48.20300 25.90800 25.72500
C  48.64600 22.87300 23.68700
C  47.44900 26.40200 23.21300
C  48.06500 26.41000 21.78600
N  48.11600 26.91400 28.44000
C  48.72400 27.64200 27.46000
C  49.14500 28.91000 27.87900
C  48.87200 28.94200 29.24300
C  48.26100 27.65400 29.55000
C  49.81100 29.89900 26.92700
C  48.91200 29.72000 30.44000
O  49.28000 30.81200 30.64400
C  48.52400 28.74500 31.58100
C  49.72300 28.51500 32.42300
O  50.71600 27.96400 32.00200
O  49.55800 29.03600 33.75200
C  50.73900 28.73100 34.56800
H  46.28400 22.18000 31.76600
H  46.53300 22.01000 25.42900
H  49.30700 27.60900 25.35900
H  48.00600 26.34800 33.56300
H  45.55500 24.57500 33.25000
H  48.25400 23.26200 33.55500
H  46.79200 23.02800 34.48500
H  47.57700 24.38200 34.85900
H  45.09800 26.64000 33.71800
H  45.78000 27.83200 32.65700
H  46.81700 29.00900 34.27900
H  47.34300 27.62000 35.09400
H  46.19800 19.35400 30.71200
H  44.54500 19.79400 30.31700
H  45.34300 20.51600 31.54900
H  45.26200 17.77900 27.12900
H  44.41100 18.62200 28.40900
H  46.15200 18.22300 28.58600
H  46.90900 23.97100 23.64900
H  49.29100 25.50900 24.02300
H  49.60900 23.25400 23.34800
H  48.03400 22.38100 22.93100
H  48.86500 22.07100 24.39200
H  47.48400 27.40000 23.65000
H  46.41800 26.04700 23.21000
H  49.12200 26.16800 21.89900
H  47.98200 27.39500 21.32700
H  47.50000 25.70000 21.18200
H  49.22800 29.88000 26.00600
H  50.85300 29.67100 26.69900
H  49.75100 30.88300 27.39100
H  47.81300 29.22900 32.25200
H  51.68000 28.88100 34.03900
H  50.66700 27.67300 34.82200
H  50.62600 29.29900 35.49100
Mg 6.30800 53.66000 41.72900
C  5.08900 50.28400 41.36100
C  9.39100 52.66800 40.74000
C  7.06200 56.90800 41.31000
C  2.93500 54.53600 42.21300
N  7.07600 51.74100 40.99000
C  6.45900 50.45800 40.97700
C  7.48700 49.34300 40.73000
C  8.81100 50.12100 40.73600
C  8.43400 51.63100 40.76900
C  9.81900 49.68000 41.81700
C  7.33100 48.56700 39.38500
C  6.87000 49.21100 38.13100
H  6.30300 48.33900 36.99500
N  8.08300 54.66900 41.13900
C  9.23600 54.09700 40.81400
C  10.21300 55.12400 40.64700
C  9.53700 56.37800 40.78600
C  8.14500 56.03000 41.06800
C  11.77200 54.90700 40.57900
C  10.20400 57.76200 40.75200
O  11.41800 57.88400 40.61700
C  9.44800 59.01600 41.05900
N  5.19100 55.44500 41.74800
C  5.72200 56.66900 41.59000
C  4.74500 57.86400 41.78400
C  3.44000 57.03700 42.15700
C  3.85200 55.57500 41.99300
C  5.03900 58.83500 42.91600
C  2.32500 57.36100 41.18800
C  0.92300 57.47100 41.91100
N  4.38900 52.61200 41.92600
C  3.14400 53.10200 42.20700
C  2.23400 52.03500 42.58200
C  3.00200 50.87100 42.22100
C  4.25900 51.32200 41.74600
C  0.87600 52.19100 43.08700
C  2.90500 49.41500 42.18900
O  2.06900 48.59400 42.46600
C  4.34200 49.04100 41.57900
C  4.29000 48.16900 40.39600
O  3.86800 48.51000 39.32000
O  4.61700 46.95300 40.82400
C  4.44300 45.90300 39.87900
H  10.38000 52.30500 40.45700
H  7.20400 57.98500 41.42600
H  1.95800 54.78900 42.63000
H  7.41700 48.65400 41.57100
H  9.46100 50.00600 39.86900
H  9.56500 48.67000 42.14000
H  9.71800 50.41000 42.61900
H  10.81400 49.72600 41.37500
H  6.78400 47.64500 39.58300
H  8.32700 48.21000 39.12500
H  7.71700 49.75700 37.71400
H  6.18800 50.00400 38.44000
H  12.16700 55.19600 41.55300
H  12.20800 55.53000 39.79800
H  12.09600 53.88800 40.36700
H  9.99400 59.92200 40.79500
H  9.10100 58.91200 42.08700
H  8.54800 59.15800 40.46200
H  4.67100 58.32800 40.80100
H  3.12900 57.20100 43.18900
H  5.70300 58.19900 43.50200
H  4.11000 59.08100 43.43000
H  5.53400 59.76300 42.62900
H  2.29000 56.55600 40.45400
H  2.47900 58.28800 40.63600
H  0.14000 56.96000 41.35100
H  0.74900 58.54200 41.81300
H  0.89300 57.32800 42.99200
H  0.56200 51.16000 43.25000
H  0.37800 52.81400 42.34400
H  0.83900 52.67300 44.06300
H  5.01400 48.48500 42.23200
H  4.64500 44.89300 40.23600
H  4.99300 45.99800 38.94300
H  3.38200 45.82000 39.64500

