158

Mg 47.56000 25.35500 27.68500
C  48.70600 27.57700 30.32700
C  47.09200 23.03700 29.96700
C  46.84100 23.36800 25.12800
C  49.15700 27.62000 25.47600
N  47.84400 25.33000 29.87700
C  48.06000 26.40800 30.72200
C  47.82000 26.05100 32.16700
C  47.62600 24.43800 32.05800
C  47.56200 24.22900 30.54400
C  48.71200 23.68200 32.90200
C  46.61600 26.86100 32.66700
C  46.91600 27.49400 34.00200
H  45.78700 27.54500 35.01300
N  46.90300 23.52500 27.55300
C  46.80300 22.65700 28.60600
C  46.33900 21.34700 28.12200
C  46.12300 21.53600 26.73000
C  46.66800 22.87400 26.35600
C  45.97500 20.24000 29.03400
C  45.48600 20.62900 25.77500
O  45.35600 20.76200 24.56600
C  45.10300 19.25700 26.25100
N  47.86100 25.48900 25.59200
C  47.37700 24.60300 24.72700
C  47.60100 24.95300 23.25400
C  48.28900 26.36800 23.34900
C  48.41700 26.55500 24.92300
C  48.46400 23.91200 22.51000
C  47.47400 27.53600 22.67800
C  48.27100 28.77200 22.24500
N  48.78200 27.20100 27.78100
C  49.39900 27.94600 26.79500
C  50.02300 29.04300 27.37600
C  49.77700 28.95800 28.79400
C  49.04200 27.80300 28.95200
C  50.82000 30.06900 26.63100
C  49.95600 29.63600 30.01500
O  50.55400 30.68900 30.24700
C  49.26000 28.83300 31.15300
C  50.07400 28.48800 32.41100
O  50.75700 27.56200 32.71000
O  49.94700 29.57200 33.16900
C  50.49900 29.45100 34.60800
H  46.92300 22.26200 30.71800
H  46.56000 22.71500 24.29800
H  49.47200 28.35500 24.73100
H  48.69100 26.39900 32.72100
H  46.65300 24.22900 32.50400
H  49.14500 24.28400 33.70100
H  49.51500 23.29500 32.27500
H  48.17700 22.88300 33.41500
H  45.79700 26.16600 32.84700
H  46.26300 27.65900 32.01400
H  47.09700 28.56600 33.92300
H  47.69600 26.87200 34.44300
H  46.09700 20.44500 30.09700
H  46.56200 19.36600 28.75400
H  44.88700 20.20100 28.98000
H  44.29100 19.34200 26.97300
H  46.01400 18.83800 26.67800
H  44.83600 18.69500 25.35600
H  46.70400 25.07200 22.64600
H  49.29000 26.44700 22.92400
H  48.65100 23.05300 23.15400
H  49.39900 24.40000 22.23400
H  47.92000 23.54600 21.64000
H  46.61400 27.68800 23.33000
H  47.01800 27.14200 21.77000
H  48.01600 28.95300 21.20100
H  49.33600 28.61600 22.41600
H  48.10800 29.69400 22.80300
H  51.86800 29.79100 26.51700
H  50.72300 30.96100 27.24900
H  50.46200 30.15800 25.60600
H  48.45200 29.46600 31.52100
H  50.14900 28.60200 35.19500
H  50.10200 30.29200 35.17700
H  51.58400 29.41600 34.69900
Mg 49.87700 35.33900 27.32800
C  47.75800 34.11300 29.70000
C  49.98400 38.47000 29.10200
C  51.62200 36.69900 24.79700
C  48.88100 32.77500 25.17100
N  49.10400 36.10500 29.23200
C  48.33300 35.35600 30.07300
C  48.25700 36.10800 31.46500
C  48.55800 37.58200 31.11500
C  49.30900 37.39900 29.77200
C  47.34800 38.55900 31.13400
C  49.27700 35.44500 32.49600
C  48.65600 34.92300 33.76800
H  49.10000 35.74400 35.04400
N  50.87400 37.26500 27.08700
C  50.79300 38.32000 27.89500
C  51.52700 39.45700 27.23500
C  52.14800 38.91900 26.05500
C  51.56800 37.56700 25.91800
C  51.64600 40.85100 27.88900
C  53.13400 39.57600 25.13400
O  53.65800 38.90200 24.24000
C  53.50300 40.94500 25.43400
N  49.97900 34.96000 25.13700
C  50.94200 35.59600 24.42400
C  51.26300 34.85100 23.10400
C  50.47900 33.49400 23.29000
C  49.73100 33.75800 24.64700
C  50.95700 35.68700 21.88100
C  51.27000 32.19200 23.45300
C  51.76900 31.65000 22.01800
N  48.69900 33.62100 27.40500
C  48.32000 32.75200 26.44800
C  47.28700 31.82400 26.99300
C  47.04200 32.31000 28.27300
C  47.94900 33.43900 28.49600
C  46.72700 30.67200 26.17600
C  46.25700 32.15000 29.50500
O  45.47400 31.29400 29.90800
C  46.66200 33.41200 30.42100
C  46.99700 32.79400 31.72200
O  48.07400 32.21700 31.97200
O  45.88500 32.93300 32.51400
C  45.93000 32.28200 33.84100
H  50.05000 39.46900 29.53800
H  52.26000 37.01500 23.96900
H  48.69200 31.81300 24.69000
H  47.26400 35.91500 31.87200
H  49.27100 38.07100 31.78000
H  46.39400 38.09300 31.38200
H  47.13400 38.96200 30.14400
H  47.61300 39.34500 31.84000
H  50.01500 36.20400 32.75600
H  49.74300 34.61300 31.96800
H  49.10000 33.93400 33.88200
H  47.57400 34.79100 33.77600
H  52.49800 40.93900 28.56400
H  50.72700 40.99600 28.45700
H  51.58700 41.58300 27.08300
H  54.43700 40.94900 24.87300
H  53.79300 40.92400 26.48400
H  52.65500 41.53000 25.07500
H  52.32500 34.71900 23.31400
H  49.79000 33.22500 22.48900
H  51.79200 35.99300 21.25000
H  50.32000 36.55100 22.07500
H  50.41100 34.99500 21.24000
H  50.71100 31.42300 23.98500
H  52.06000 32.29700 24.19700
H  51.34600 30.66200 21.83700
H  52.85700 31.58500 21.98900
H  51.38600 32.30300 21.23400
H  46.08500 31.08600 25.39900
H  46.08200 30.00100 26.74500
H  47.54000 30.01900 25.85900
H  45.79300 34.06100 30.52500
H  45.65500 33.07400 34.53800
H  46.92100 31.93700 34.13600
H  45.20400 31.49100 33.65000

