158

Mg 47.30900 24.73500 28.90600
C  48.19300 26.97000 31.37700
C  46.63100 22.38600 31.27400
C  46.89000 22.42300 26.50600
C  48.58700 26.97400 26.55900
N  47.29100 24.76700 31.11500
C  47.74500 25.75700 31.88300
C  47.50700 25.52700 33.38600
C  46.98500 24.01600 33.35900
C  46.97100 23.66900 31.79900
C  47.74200 23.05600 34.33300
C  46.59000 26.64000 34.14800
C  45.87600 26.15400 35.39400
H  45.72600 27.14700 36.57800
N  46.98300 22.63200 28.89800
C  46.57700 21.90400 29.99200
C  46.08900 20.58300 29.54500
C  46.24900 20.50300 28.14900
C  46.72300 21.86300 27.79100
C  45.54300 19.43200 30.52700
C  45.97100 19.34600 27.22100
O  46.31400 19.39600 26.01400
C  45.40900 18.12800 27.76500
N  47.69400 24.72100 26.79800
C  47.25000 23.65200 25.99400
C  47.49900 24.00300 24.45100
C  47.81800 25.50800 24.53800
C  48.06200 25.76500 26.04400
C  48.65800 23.16300 23.83000
C  46.69100 26.34000 23.88000
C  46.77500 26.57600 22.31200
N  48.20700 26.55600 28.91900
C  48.67400 27.37500 27.86700
C  49.08500 28.63600 28.36500
C  48.88400 28.53100 29.73300
C  48.37400 27.24200 30.02400
C  49.63100 29.74700 27.49300
C  49.11800 29.21500 30.97300
O  49.50100 30.35600 31.12500
C  48.70400 28.24500 32.07500
C  49.88800 28.00100 32.98800
O  50.93900 27.39200 32.67900
O  49.53200 28.47200 34.22200
C  50.48800 28.42400 35.29300
H  46.41200 21.67600 32.07500
H  46.71100 21.87200 25.58100
H  48.85300 27.66100 25.75400
H  48.41400 25.61700 33.98500
H  45.95300 23.87000 33.67900
H  48.34800 22.22600 33.97000
H  46.99400 22.61800 34.99300
H  48.35300 23.63100 35.02900
H  45.79700 27.03000 33.51000
H  47.10700 27.58000 34.34100
H  46.38200 25.26000 35.75700
H  44.88100 25.80400 35.11800
H  44.53600 19.06900 30.32500
H  45.57400 19.80600 31.55000
H  46.23800 18.59400 30.46500
H  46.14000 17.66700 28.42900
H  45.32900 17.47900 26.89300
H  44.44800 18.44100 28.17300
H  46.55800 23.61400 24.06100
H  48.76200 25.72000 24.03600
H  49.45000 23.81600 23.46300
H  48.32900 22.59300 22.96100
H  49.17200 22.52900 24.55200
H  46.57500 27.27100 24.43500
H  45.70800 25.92200 24.09600
H  45.81000 26.29700 21.88900
H  47.54500 26.01400 21.78300
H  47.02800 27.63400 22.23300
H  50.65800 29.41400 27.34600
H  49.62200 30.61500 28.15300
H  49.05300 29.89700 26.58100
H  47.86400 28.67600 32.62000
H  51.50800 28.35000 34.91800
H  50.18500 27.51000 35.80400
H  50.38100 29.27700 35.96500
Mg 29.40400 59.08500 40.48200
C  26.78800 56.94200 39.30100
C  31.64300 56.92500 38.95400
C  31.70100 61.48600 41.12600
C  26.91300 61.28000 41.63300
N  29.16400 57.18900 39.21800
C  28.00400 56.56100 38.82800
C  28.38500 55.29700 37.98200
C  29.96700 55.19900 38.20800
C  30.31700 56.50800 38.84900
C  30.25100 54.04200 39.11000
C  27.93100 55.54700 36.48800
C  26.99900 54.52600 35.82000
H  27.24200 54.35100 34.31200
N  31.41100 59.14100 40.15800
C  32.13700 58.14600 39.50500
C  33.50900 58.53300 39.41400
C  33.55500 59.90600 40.00100
C  32.21000 60.23800 40.50600
C  34.55300 57.76500 38.80500
C  34.84900 60.58800 40.12100
O  35.93600 60.13400 39.66000
C  34.89900 61.90000 41.03100
N  29.33600 61.08200 41.39100
C  30.43100 61.86400 41.53500
C  30.04600 63.32100 41.93700
C  28.48400 63.15500 42.30900
C  28.20800 61.78800 41.69400
C  30.69900 63.84000 43.25600
C  27.66600 64.31300 41.75900
C  26.69300 65.01300 42.74500
N  27.29200 59.14400 40.48400
C  26.43700 60.10200 41.03200
C  25.06300 59.66800 40.96900
C  25.13500 58.41300 40.19300
C  26.54000 58.16200 39.97700
C  24.02100 60.37800 41.53300
C  24.34600 57.38300 39.50200
O  23.13400 57.23000 39.40400
C  25.43700 56.36400 38.92100
C  25.26700 54.96200 39.49800
O  25.72400 54.66900 40.57800
O  24.65600 54.06300 38.68700
C  24.46900 52.72400 39.19200
H  32.39600 56.25200 38.53800
H  32.38000 62.30900 41.35700
H  26.11500 61.95600 41.94600
H  27.80300 54.46600 38.38000
H  30.41500 55.12000 37.21800
H  30.24700 54.42900 40.12900
H  31.25900 53.65300 38.96500
H  29.61700 53.16900 38.95300
H  28.83200 55.71600 35.89900
H  27.44400 56.51200 36.34700
H  25.95300 54.81200 35.92400
H  27.14500 53.52700 36.23100
H  35.54600 57.94300 39.21900
H  34.54200 57.91800 37.72500
H  34.42200 56.68300 38.82400
H  34.26200 61.89900 41.91600
H  34.60500 62.79700 40.48700
H  35.93400 62.04500 41.34100
H  30.23500 64.02300 41.12500
H  28.31700 62.99300 43.37400
H  30.19300 63.75500 44.21800
H  30.97800 64.88900 43.14800
H  31.68700 63.38000 43.27200
H  27.05900 63.91500 40.94600
H  28.28900 65.11500 41.36400
H  26.71700 64.36600 43.62200
H  25.66200 64.99700 42.39100
H  26.95000 66.04900 42.96200
H  24.14900 60.58300 42.59500
H  23.12300 59.76600 41.45800
H  23.88600 61.28600 40.94500
H  25.33500 56.21200 37.84600
H  24.22200 52.69600 40.25300
H  25.37000 52.18000 38.90600
H  23.67100 52.14300 38.73100

