158

Mg 29.90800 58.30800 39.69000
C  27.30200 56.02200 38.97300
C  32.11600 55.96900 38.57300
C  32.31200 60.71400 40.01300
C  27.39200 60.67100 40.25300
N  29.71600 56.27000 39.03600
C  28.60400 55.57700 38.71000
C  28.99400 54.24600 38.10200
C  30.46100 54.07500 38.47900
C  30.82300 55.50300 38.73300
C  30.79700 53.04600 39.64500
C  28.70100 54.22000 36.62500
C  27.65800 53.30200 36.05800
H  26.83600 54.00100 34.96700
N  31.95900 58.32100 39.55000
C  32.66700 57.28900 38.95300
C  34.04100 57.65800 38.84400
C  34.16100 58.93300 39.38900
C  32.77600 59.40000 39.65400
C  35.12900 56.73000 38.12400
C  35.52100 59.68400 39.54300
O  36.60300 59.25300 39.13300
C  35.60000 61.02700 40.19100
N  29.83600 60.35900 40.18400
C  30.97600 61.16900 40.20400
C  30.54300 62.60900 40.42600
C  29.00700 62.59000 40.48800
C  28.74500 61.10600 40.22600
C  31.25400 63.32800 41.56800
C  28.20600 63.48200 39.52200
C  26.82600 63.99800 40.10000
N  27.70000 58.41800 39.56900
C  26.87900 59.40500 39.88100
C  25.49000 58.91400 39.80800
C  25.66500 57.63000 39.38300
C  27.01100 57.32300 39.31500
C  24.26300 59.64200 40.03900
C  24.84700 56.41600 39.07000
O  23.60700 56.29300 39.10300
C  25.91600 55.40000 38.67800
C  25.61500 54.09100 39.32500
O  25.96800 53.80900 40.46100
O  24.85800 53.32900 38.45300
C  24.36000 52.12700 39.07200
H  32.83700 55.27100 38.14200
H  33.04800 61.52000 40.02000
H  26.61500 61.42300 40.40500
H  28.45900 53.46100 38.63800
H  30.93900 53.70100 37.57300
H  30.09900 52.23200 39.84200
H  30.92200 53.62000 40.56300
H  31.73100 52.55800 39.36600
H  29.62300 54.07800 36.06100
H  28.38700 55.26000 36.52600
H  26.89500 52.94500 36.74900
H  28.19000 52.46500 35.60800
H  35.73800 56.24300 38.88600
H  35.76300 57.37000 37.51200
H  34.85400 55.93800 37.42800
H  35.10600 61.75700 39.54900
H  36.58500 61.26200 40.59200
H  35.02000 60.91600 41.10700
H  30.80100 63.22900 39.56800
H  28.80300 62.81100 41.53600
H  31.88200 62.58500 42.05900
H  30.54100 63.83200 42.22100
H  31.83200 64.13400 41.11400
H  27.90900 62.90900 38.64400
H  28.69900 64.39200 39.18200
H  26.09700 63.59800 39.39500
H  26.71800 65.08300 40.10300
H  26.56500 63.62900 41.09200
H  24.39900 60.72100 39.96200
H  23.92900 59.39400 41.04600
H  23.54800 59.42200 39.24600
H  25.68500 55.20500 37.63000
H  25.00100 51.75800 39.87200
H  24.10600 51.31900 38.38600
H  23.46000 52.34200 39.64700
Mg -0.16300 44.35900 26.18400
C  2.00300 44.19400 28.97000
C  -2.78400 43.94500 28.30200
C  -2.03500 43.72100 23.40300
C  2.71500 44.46100 24.15300
N  -0.29900 44.03600 28.39100
C  0.63900 44.21800 29.32500
C  0.02900 44.00300 30.72800
C  -1.46700 43.90800 30.43600
C  -1.50900 43.94900 28.90500
C  -2.20000 42.67800 31.02700
C  0.45900 45.17900 31.68200
C  1.28600 44.94000 32.97300
H  0.67900 43.79500 33.91400
N  -2.20700 44.06700 25.90500
C  -3.09300 43.93800 26.90900
C  -4.42600 43.73300 26.34600
C  -4.24500 43.62000 24.94500
C  -2.76700 43.80100 24.66700
C  -5.65800 43.78100 27.26200
C  -5.29700 43.33500 23.88400
O  -4.96500 43.27000 22.68300
C  -6.65900 43.06400 24.22300
N  0.27100 44.10900 24.11000
C  -0.64900 43.80300 23.16100
C  -0.03600 43.58600 21.67200
C  1.39400 43.95500 22.04200
C  1.49100 44.30100 23.51000
C  -0.21200 42.09200 21.33000
C  1.93600 45.19800 21.20400
C  1.59500 46.50500 21.75400
N  1.90700 44.45500 26.43300
C  2.94100 44.42300 25.50100
C  4.21700 44.28900 26.21800
C  3.88300 44.24100 27.59300
C  2.47400 44.31300 27.66100
C  5.63900 44.27400 25.68400
C  4.49700 44.02400 28.86700
O  5.63100 43.79200 29.20200
C  3.28900 43.99000 29.87100
C  3.32400 42.69900 30.60900
O  2.97100 41.63700 30.19300
O  3.90900 42.88900 31.85600
C  4.13900 41.71800 32.76500
H  -3.55600 43.80900 29.06200
H  -2.68000 43.59700 22.53000
H  3.56400 44.61700 23.48400
H  0.54000 43.16100 31.19600
H  -2.05800 44.78200 30.71200
H  -3.23200 42.96000 31.23100
H  -1.68400 42.45600 31.96200
H  -2.28600 41.78800 30.40400
H  -0.40800 45.79700 31.91800
H  1.09400 45.83100 31.08200
H  1.40600 45.79900 33.63400
H  2.33100 44.69700 32.78200
H  -5.66100 42.82100 27.77700
H  -6.58300 43.98000 26.72000
H  -5.56600 44.64300 27.92300
H  -7.20300 42.78300 23.32200
H  -7.18300 43.86000 24.75200
H  -6.70500 42.24800 24.94500
H  -0.54500 44.31300 21.03900
H  2.07000 43.14100 21.78300
H  -0.60300 41.52200 22.17300
H  0.76100 41.64200 21.13600
H  -0.97100 41.99800 20.55400
H  1.51900 45.23600 20.19700
H  3.02200 45.20700 21.10800
H  2.47800 46.94600 22.21600
H  0.75000 46.45400 22.44100
H  1.28200 47.21000 20.98400
H  5.73500 44.03500 24.62500
H  6.27400 43.53000 26.16600
H  5.95800 45.27600 25.97000
H  3.43700 44.78500 30.60200
H  3.74700 41.92600 33.76100
H  5.21800 41.70200 32.92000
H  3.84700 40.74100 32.38000

