158

Mg 42.66400 42.00700 26.13800
C  42.02800 44.29200 28.83100
C  44.25500 40.07400 28.38100
C  43.54900 40.16100 23.51400
C  41.44000 44.54000 23.95000
N  43.14700 42.28900 28.33700
C  42.72100 43.13600 29.22800
C  43.01800 42.74100 30.67800
C  43.85200 41.41500 30.51400
C  43.78400 41.25700 29.00700
C  45.40700 41.42700 31.07400
C  41.66900 42.54800 31.52400
C  41.55300 43.47000 32.76200
H  40.98800 42.79400 34.00000
N  43.64500 40.23600 26.00900
C  44.11700 39.53500 27.05700
C  44.61900 38.23300 26.55700
C  44.36000 38.25100 25.17900
C  43.76700 39.54800 24.80900
C  45.18900 37.14800 27.46300
C  44.58700 37.12000 24.18100
O  44.16900 37.18800 23.03400
C  45.27500 35.83100 24.65200
N  42.64200 42.35800 24.03400
C  42.94800 41.39300 23.17500
C  42.71200 41.71900 21.69600
C  41.84500 43.02500 21.86000
C  41.96100 43.31900 23.37700
C  44.02600 41.83000 20.86700
C  40.32600 42.77500 21.54400
C  39.64800 41.61300 22.27100
N  41.84900 43.98300 26.30400
C  41.42900 44.88000 25.30000
C  41.03000 46.15400 25.91800
C  41.14900 45.91300 27.31300
C  41.69000 44.62900 27.48900
C  40.68000 47.49500 25.22700
C  40.97100 46.50800 28.61600
O  40.58400 47.61500 28.95400
C  41.55000 45.49000 29.69200
C  42.59300 46.15600 30.45200
O  43.75200 46.14300 30.18300
O  42.08000 46.74200 31.55700
C  42.95800 47.27100 32.53800
H  44.85900 39.39200 28.98300
H  43.98800 39.51800 22.74800
H  40.98200 45.23700 23.24400
H  43.63700 43.50400 31.15000
H  43.44500 40.51000 30.96400
H  46.12600 41.19700 30.28800
H  45.56700 40.71200 31.88100
H  45.62400 42.40100 31.51300
H  41.63100 41.55200 31.96600
H  40.81000 42.72000 30.87500
H  40.89100 44.30100 32.52100
H  42.54500 43.90800 32.86500
H  46.27200 37.04100 27.52000
H  44.80500 36.14100 27.30100
H  44.66900 37.37700 28.39300
H  45.76600 35.46900 23.74900
H  44.59600 35.16700 25.18800
H  46.12900 35.88800 25.32600
H  42.15500 40.92400 21.20100
H  42.28000 43.79300 21.22100
H  44.18100 42.84600 20.50300
H  43.93000 41.16200 20.01100
H  44.91400 41.47200 21.38700
H  40.35200 42.38500 20.52700
H  39.81900 43.73500 21.64100
H  40.31600 41.21300 23.03400
H  39.33600 40.86400 21.54400
H  38.74700 42.04100 22.71000
H  40.04200 47.46600 24.34300
H  41.54400 48.12800 25.02200
H  40.14200 48.12800 25.93300
H  40.69900 45.07900 30.23700
H  43.32400 46.54900 33.26800
H  42.43600 48.07200 33.06100
H  43.74200 47.89400 32.10800
Mg 27.23900 51.02400 26.73100
C  25.31100 51.97600 29.42200
C  29.60200 49.75800 28.93500
C  29.00800 50.14000 23.99500
C  25.13300 52.98400 24.46300
N  27.53600 51.17500 29.10500
C  26.51000 51.37100 29.94100
C  26.96600 50.95800 31.40000
C  28.52200 50.54800 31.16800
C  28.59400 50.53600 29.64700
C  29.56600 51.49600 31.74400
C  26.07400 49.88900 32.14600
C  24.92400 50.31500 33.12600
H  24.59500 49.50600 34.42100
N  29.05200 50.00000 26.49300
C  29.87300 49.48000 27.51500
C  30.91400 48.65300 26.91400
C  30.76700 48.74400 25.50400
C  29.54400 49.62800 25.24100
C  31.94700 47.91600 27.70700
C  31.53600 48.05000 24.40700
O  31.25400 48.20600 23.23300
C  32.65800 47.10100 24.78100
N  27.03800 51.39500 24.58100
C  27.94100 50.95200 23.69800
C  27.58700 51.26300 22.19300
C  26.36300 52.15700 22.31300
C  26.18400 52.25000 23.89700
C  28.72500 51.79700 21.18300
C  25.03400 51.57900 21.54400
C  24.02900 52.66800 21.00500
N  25.61900 52.30600 26.86600
C  24.86700 53.04800 25.89300
C  23.78400 53.77200 26.54500
C  23.96400 53.37000 27.90700
C  25.03000 52.42600 28.06100
C  22.83000 54.74600 25.89800
C  23.43500 53.57900 29.16100
O  22.45700 54.23300 29.50400
C  24.15900 52.61000 30.24800
C  24.76600 53.41700 31.36800
O  25.80000 54.13000 31.33200
O  23.91500 53.29900 32.48900
C  24.18500 54.35200 33.42100
H  30.26200 49.23200 29.62800
H  29.51700 49.85500 23.07200
H  24.53800 53.48900 23.69900
H  27.07100 51.80800 32.07400
H  28.76800 49.53200 31.47900
H  29.95300 51.12200 32.69200
H  29.04600 52.43300 31.94400
H  30.29600 51.79800 30.99400
H  26.70100 49.17000 32.67200
H  25.59000 49.35000 31.33100
H  23.97300 50.19800 32.60700
H  25.13000 51.34800 33.40500
H  32.11400 46.92700 27.28100
H  31.75600 47.74800 28.76700
H  32.87900 48.48000 27.75900
H  33.28500 47.56600 25.54200
H  33.12500 46.74400 23.86300
H  32.16000 46.19700 25.13300
H  27.19800 50.31800 21.81400
H  26.54100 53.10700 21.80900
H  29.64000 51.97300 21.74900
H  28.48500 52.75400 20.72100
H  28.73700 51.12000 20.32900
H  24.59200 50.89100 22.26500
H  25.34200 50.99400 20.67800
H  23.55300 52.34300 20.08000
H  24.37300 53.69700 20.90400
H  23.21300 52.59500 21.72400
H  23.45400 55.28700 25.18700
H  22.54900 55.50900 26.62500
H  21.97800 54.27100 25.41100
H  23.59400 51.76400 30.64100
H  24.22500 55.28100 32.85400
H  25.14300 54.21500 33.92300
H  23.38200 54.38700 34.15700

