158

Mg 40.91400 7.93000 28.80400
C  42.86500 9.29400 31.24900
C  38.84100 6.57000 31.22200
C  39.17900 6.41800 26.35200
C  43.22800 8.85800 26.48300
N  40.99500 7.90100 30.95800
C  41.77900 8.65500 31.78200
C  41.23100 8.54500 33.32300
C  40.01400 7.60000 33.18400
C  39.90200 7.33000 31.67400
C  40.09300 6.19000 33.99300
C  40.90700 10.00900 33.80600
C  39.84100 10.14400 34.90800
H  40.29400 10.97400 36.21200
N  39.20100 6.65300 28.80400
C  38.47500 6.22000 29.86900
C  37.39600 5.45900 29.41800
C  37.35300 5.59200 27.96900
C  38.64700 6.28700 27.59400
C  36.47000 4.67700 30.36400
C  36.22600 5.10400 26.94700
O  36.27200 5.30200 25.75000
C  34.96400 4.59100 27.46800
N  41.11600 7.70400 26.68200
C  40.30500 7.06300 25.84200
C  40.81200 7.06500 24.45600
C  42.05600 8.08100 24.44000
C  42.15900 8.24100 25.96500
C  41.13200 5.60500 24.05600
C  41.69200 9.46800 23.79000
C  40.59900 10.34600 24.48400
N  42.70700 8.81000 28.80600
C  43.61000 9.08900 27.82300
C  44.85700 9.60800 28.39100
C  44.57000 9.79100 29.76800
C  43.28700 9.28100 29.93000
C  46.15500 9.94900 27.57900
C  45.03100 10.33300 30.99600
O  46.05400 10.93200 31.31500
C  43.98600 9.98200 32.08300
C  44.55600 9.29300 33.32600
O  44.67500 8.09000 33.52900
O  44.56500 10.26400 34.32100
C  44.93000 9.83700 35.61500
H  38.06800 6.28500 31.93700
H  38.50700 6.07800 25.56200
H  43.91600 9.21500 25.71400
H  42.10400 8.18400 33.86700
H  39.07400 8.01100 33.55300
H  40.55600 5.48300 33.30600
H  39.09900 5.83900 34.27100
H  40.73100 6.28200 34.87200
H  40.55100 10.71000 33.05000
H  41.80200 10.41200 34.28000
H  39.55800 9.20700 35.38900
H  38.96200 10.67300 34.54100
H  36.71900 4.65600 31.42500
H  36.41700 3.63200 30.05800
H  35.52500 5.19800 30.20900
H  34.35400 4.40500 26.58400
H  34.62800 5.44100 28.06300
H  35.09000 3.70700 28.09300
H  40.03800 7.45900 23.79900
H  43.03300 7.73900 24.09800
H  40.90400 4.94900 24.89700
H  42.14000 5.26500 23.82000
H  40.58300 5.45400 23.12600
H  41.33100 9.28600 22.77700
H  42.62300 10.03400 23.76600
H  39.83000 10.49700 23.72600
H  41.08100 11.21500 24.93000
H  40.01600 9.87700 25.27600
H  45.84000 10.50700 26.69800
H  46.44300 8.93700 27.29500
H  46.93500 10.50300 28.10100
H  43.50600 10.93800 32.28800
H  44.11000 10.00200 36.31400
H  45.75600 10.45300 35.97100
H  45.15500 8.77400 35.70700
Mg 29.67000 59.69600 41.17200
C  26.71800 57.96200 40.30500
C  31.32100 56.90500 39.84600
C  32.43900 61.56100 40.81400
C  27.78100 62.50900 41.86900
N  29.05000 57.72100 40.11400
C  27.80000 57.16400 39.96000
C  27.81100 55.84000 39.16700
C  29.28700 55.45400 39.34800
C  29.96400 56.77500 39.76600
C  29.49500 54.35700 40.44200
C  27.36700 56.16600 37.68700
C  26.34400 55.13100 36.99300
H  26.75400 54.52100 35.61800
N  31.63500 59.26000 40.54000
C  32.12000 58.05600 40.11700
C  33.53400 58.23300 39.95400
C  33.92200 59.52800 40.31800
C  32.62900 60.20300 40.61100
C  34.34500 57.19400 39.38500
C  35.36400 60.07700 40.22800
O  36.35700 59.36500 39.89600
C  35.66000 61.54400 40.40700
N  30.03300 61.71900 41.12600
C  31.30500 62.23500 41.13800
C  31.32000 63.76100 41.31700
C  29.84100 64.01500 41.77800
C  29.16200 62.64600 41.67500
C  32.46400 64.35300 42.18100
C  29.05000 65.05100 40.96500
C  28.40100 66.08000 41.84000
N  27.68600 60.17600 41.20400
C  27.00500 61.36300 41.51600
C  25.58700 61.11900 41.47000
C  25.46300 59.83600 41.01300
C  26.73700 59.27500 40.84000
C  24.60900 62.12400 41.77700
C  24.48100 58.86200 40.56700
O  23.26700 58.89200 40.52300
C  25.26700 57.68800 39.98400
C  24.89600 56.33500 40.52800
O  25.14800 55.82100 41.63200
O  24.06700 55.82200 39.64400
C  23.25500 54.68000 40.13200
H  31.77400 55.94200 39.60500
H  33.25000 62.28100 40.68800
H  27.12800 63.31800 42.20200
H  27.10700 55.11400 39.57600
H  29.82800 55.22600 38.42900
H  29.87000 54.89800 41.31000
H  30.36900 53.79000 40.12200
H  28.61800 53.74800 40.66300
H  28.27100 56.21500 37.08100
H  27.00300 57.19200 37.62700
H  25.35600 55.56700 36.84500
H  26.26400 54.33300 37.73100
H  33.81100 56.66200 38.59800
H  34.73800 56.49800 40.12700
H  35.34000 57.49600 39.05800
H  35.24500 62.33500 39.78300
H  36.73500 61.65600 40.26600
H  35.48200 61.67600 41.47400
H  31.43500 64.07400 40.27900
H  29.77500 64.25800 42.83800
H  33.16300 64.78400 41.46500
H  32.89400 63.55400 42.78500
H  32.12900 65.02400 42.97300
H  28.23100 64.50500 40.49700
H  29.68000 65.66300 40.32000
H  27.32300 65.94300 41.76000
H  28.70400 67.09400 41.58000
H  28.67200 65.93000 42.88500
H  24.66800 62.56700 42.77100
H  23.62100 61.68700 41.63200
H  24.88800 62.78500 40.95600
H  25.17500 57.55100 38.90600
H  22.50700 55.03400 40.84200
H  23.86100 53.94200 40.65700
H  22.71700 54.17200 39.33100

