158

Mg 23.50200 -5.48100 45.86000
C  25.92500 -3.61600 44.11800
C  21.24100 -4.56500 43.42700
C  21.48000 -8.05800 46.88100
C  26.20100 -7.00600 47.69100
N  23.57900 -4.26400 44.01300
C  24.61900 -3.52100 43.54200
C  24.22200 -2.66100 42.36000
C  22.61000 -2.74600 42.54300
C  22.51700 -4.00600 43.34200
C  22.03000 -1.50200 43.25800
C  24.77600 -3.33300 41.07600
C  25.53400 -2.42100 40.02200
H  25.01900 -2.46300 38.58600
N  21.56700 -6.07700 45.30400
C  20.76100 -5.60500 44.24600
C  19.60500 -6.37800 44.19600
C  19.58700 -7.30900 45.27700
C  20.92400 -7.19700 45.87800
C  18.51200 -6.16400 43.13400
C  18.51300 -8.23300 45.65700
O  17.43000 -8.09200 45.09500
C  18.57400 -9.34200 46.73400
N  23.87300 -7.42400 46.90200
C  22.79000 -8.15700 47.29300
C  23.33600 -9.25500 48.28500
C  24.74700 -8.76100 48.71000
C  24.97800 -7.58600 47.74900
C  22.50500 -9.60100 49.52000
C  25.78600 -9.91700 48.67600
C  26.25100 -10.30200 47.23900
N  25.64600 -5.28500 46.04800
C  26.53600 -5.92400 46.88800
C  27.83900 -5.28600 46.60800
C  27.61600 -4.28700 45.61800
C  26.30200 -4.44300 45.25000
C  29.17300 -5.67000 47.35800
C  28.20100 -3.26900 44.83700
O  29.33400 -3.02200 44.82000
C  27.12300 -2.85700 43.72700
C  26.94600 -1.41000 43.99200
O  26.59500 -0.93500 45.09600
O  27.34200 -0.69500 42.92300
C  27.19700 0.75800 43.11800
H  20.46700 -4.18800 42.75700
H  20.92700 -8.87600 47.34800
H  26.90000 -7.37900 48.44300
H  24.69400 -1.69500 42.53800
H  22.08700 -2.89300 41.59700
H  22.77100 -0.89900 43.78400
H  21.22700 -1.78300 43.94000
H  21.48100 -0.81000 42.62000
H  24.00500 -3.80000 40.46200
H  25.31900 -4.25400 41.28900
H  26.58300 -2.71800 40.04400
H  25.54400 -1.39500 40.38900
H  18.02600 -7.11100 42.90200
H  19.09900 -5.88800 42.25800
H  17.86800 -5.30700 43.33400
H  17.74200 -10.00400 46.49400
H  18.54200 -8.84100 47.70100
H  19.46700 -9.95400 46.60800
H  23.50300 -10.17000 47.71600
H  24.75700 -8.34800 49.71900
H  21.76500 -8.83700 49.75800
H  23.07900 -9.72200 50.43900
H  21.96800 -10.51100 49.25400
H  25.44100 -10.83100 49.16000
H  26.72300 -9.64600 49.16200
H  27.27700 -9.96500 47.09000
H  25.68300 -9.73400 46.50200
H  26.11200 -11.37500 47.10000
H  29.95000 -6.01300 46.67500
H  28.93200 -6.51300 48.00600
H  29.42200 -4.77200 47.92300
H  27.45100 -3.08100 42.71200
H  26.22400 1.04100 43.52100
H  27.51700 1.49500 42.38100
H  27.97200 1.00400 43.84300
Mg 0.77400 42.44400 25.60500
C  2.73200 42.65000 28.43000
C  -2.00600 41.58600 27.44200
C  -1.02500 42.14600 22.66700
C  3.65500 42.99000 23.67100
N  0.45800 42.23600 27.62800
C  1.37500 42.37600 28.67400
C  0.70700 42.11000 30.04700
C  -0.77300 41.69700 29.67900
C  -0.76800 41.87100 28.13600
C  -1.16900 40.30300 30.10300
C  0.79700 43.43200 30.91000
C  1.46800 43.23200 32.28500
H  0.67500 43.38400 33.58600
N  -1.28900 41.93900 25.11700
C  -2.27300 41.75200 26.05100
C  -3.53800 41.57600 25.35300
C  -3.25400 41.81300 23.94100
C  -1.79300 41.92000 23.85600
C  -4.76400 41.14600 26.07200
C  -4.22500 41.85400 22.83400
O  -3.97500 42.21100 21.64700
C  -5.71500 41.62100 23.16700
N  1.24700 42.64400 23.52400
C  0.37700 42.25000 22.57500
C  1.02000 42.20800 21.18300
C  2.53700 42.43200 21.50400
C  2.49400 42.79500 22.98200
C  0.74200 40.94800 20.36500
C  3.31300 43.43600 20.64100
C  2.70700 44.82900 20.23600
N  2.86600 42.98600 25.96900
C  3.86500 43.06800 25.07400
C  5.13400 43.29600 25.79900
C  4.69800 43.20100 27.12200
C  3.32300 42.96700 27.16400
C  6.51300 43.46500 25.19600
C  5.12700 43.02800 28.53200
O  6.23700 43.05500 29.05500
C  3.83100 42.83400 29.39200
C  4.02900 41.64700 30.26400
O  3.97000 40.50200 29.91200
O  4.21500 42.10000 31.54600
C  4.27400 41.05400 32.56200
H  -2.68000 41.17600 28.19700
H  -1.64500 42.02100 21.77700
H  4.56700 43.17800 23.10100
H  1.16900 41.24700 30.52500
H  -1.48100 42.37200 30.15900
H  -0.89400 39.52800 29.38700
H  -2.24400 40.30300 30.28400
H  -0.75300 40.18800 31.10300
H  -0.22600 43.69500 31.18100
H  1.26600 44.19200 30.28500
H  2.31200 43.91300 32.39000
H  1.80100 42.19500 32.32900
H  -5.57200 41.87800 26.08900
H  -4.55600 41.01200 27.13300
H  -4.99200 40.14100 25.71500
H  -5.84500 40.59100 23.49900
H  -6.32700 41.80900 22.28400
H  -6.06400 42.21800 24.01000
H  0.70100 43.03300 20.54600
H  3.05600 41.47400 21.49000
H  1.67600 40.68600 19.86800
H  0.14600 41.12500 19.47000
H  0.46600 39.98000 20.78200
H  3.40800 42.84500 19.73000
H  4.33500 43.62400 20.97100
H  1.73300 44.88900 20.72100
H  2.60700 44.79200 19.15100
H  3.26800 45.63900 20.70200
H  6.95100 42.47500 25.06700
H  7.04500 44.09100 25.91300
H  6.45900 43.98700 24.24000
H  3.62500 43.74400 29.95500
H  3.29800 40.57900 32.66200
H  4.47100 41.52100 33.52700
H  5.02800 40.28700 32.38900

