158

Mg 36.24600 49.50400 25.78700
C  36.22700 47.43800 28.61500
C  34.95200 52.14300 27.85100
C  35.63400 51.33100 22.98300
C  37.12400 46.68800 23.89900
N  35.58900 49.70700 27.92300
C  35.74300 48.77500 28.88400
C  35.49400 49.29300 30.30700
C  34.82700 50.66800 30.01800
C  35.17200 50.89500 28.53700
C  33.41000 50.96500 30.50800
C  36.74200 49.43200 31.13600
C  36.55600 48.87300 32.57300
H  35.25300 49.13000 33.29300
N  35.54300 51.45400 25.50500
C  35.06800 52.37500 26.42300
C  34.78900 53.60400 25.79000
C  34.89600 53.35300 24.36000
C  35.30800 51.99300 24.28500
C  34.25800 54.81200 26.59200
C  34.65500 54.28400 23.11600
O  34.81300 54.00200 21.96300
C  33.86100 55.56100 23.44500
N  36.56100 49.12200 23.77800
C  36.14100 49.98900 22.81800
C  36.36400 49.39000 21.43400
C  37.15300 48.13600 21.76100
C  36.92700 47.93700 23.23400
C  35.11600 49.22500 20.47900
C  38.65900 48.15700 21.31100
C  39.02100 47.03600 20.31400
N  36.78300 47.58900 26.14000
C  37.02900 46.54700 25.30800
C  37.26100 45.32000 25.96700
C  36.98800 45.61500 27.29000
C  36.67600 46.97800 27.37000
C  37.61800 44.02200 25.28100
C  36.91300 45.08500 28.61700
O  37.13400 44.00800 29.05200
C  36.43200 46.32800 29.56500
C  35.26400 45.77700 30.40000
O  34.12100 45.74800 30.01600
O  35.67500 45.30900 31.67200
C  34.56100 44.78500 32.51900
H  34.63400 52.91900 28.55100
H  35.52400 51.86800 22.03900
H  37.43600 45.86400 23.25500
H  34.77100 48.61000 30.75300
H  35.31200 51.44400 30.61000
H  32.97400 50.03400 30.87000
H  32.74500 51.23500 29.68800
H  33.32700 51.78500 31.22100
H  37.17000 50.43400 31.16500
H  37.62700 48.96000 30.70700
H  37.11600 49.56700 33.19900
H  36.83100 47.82100 32.64900
H  34.45100 55.75700 26.08400
H  34.77800 54.99500 27.53200
H  33.21000 54.69100 26.86500
H  33.13500 55.29000 24.21100
H  33.42100 55.81700 22.48100
H  34.49600 56.41300 23.68800
H  36.97000 50.09900 20.86900
H  36.61200 47.27400 21.37100
H  34.25400 49.46700 21.10100
H  34.94100 48.18100 20.22000
H  35.26400 49.85400 19.60200
H  39.27200 47.88200 22.16900
H  38.97200 49.17400 21.07500
H  39.14000 47.59900 19.38800
H  38.15800 46.38200 20.18500
H  39.91000 46.54900 20.71400
H  38.67300 43.99500 25.00900
H  36.96600 43.92500 24.41300
H  37.45000 43.15400 25.91900
H  37.24700 46.55900 30.25100
H  34.82300 45.09100 33.53100
H  34.36800 43.71300 32.54100
H  33.63100 45.28400 32.24400
Mg -11.24800 38.45900 42.34400
C  -9.24300 35.73800 41.25700
C  -9.16200 40.57500 40.58900
C  -13.40600 40.97400 42.88200
C  -13.75200 36.09500 43.39300
N  -9.41500 38.18500 41.07700
C  -8.75300 36.98900 40.82000
C  -7.51300 37.21900 39.93600
C  -7.40100 38.79100 39.94300
C  -8.73800 39.26500 40.62300
C  -6.17800 39.27100 40.72000
C  -7.63300 36.57400 38.49700
C  -6.52800 35.68400 38.10900
H  -5.60000 36.23400 37.02100
N  -11.21700 40.55800 41.87800
C  -10.29700 41.20500 41.09800
C  -10.73500 42.59500 40.89800
C  -12.06700 42.64900 41.41800
C  -12.31100 41.36300 42.08500
C  -9.90100 43.59400 40.11400
C  -13.01400 43.78700 41.09800
O  -12.70900 44.72400 40.38000
C  -14.34300 43.85200 41.70700
N  -13.29700 38.48300 42.91700
C  -13.79500 39.70800 43.29500
C  -15.12700 39.47900 44.02700
C  -15.24000 37.98400 44.19800
C  -14.04600 37.44700 43.40900
C  -15.55700 40.27300 45.22700
C  -16.55200 37.22800 43.76200
C  -17.11600 36.31800 44.85200
N  -11.55700 36.36700 42.32900
C  -12.56800 35.54500 42.83400
C  -12.04300 34.18900 42.88900
C  -10.73500 34.17800 42.24500
C  -10.51200 35.54300 41.92200
C  -12.71000 33.04700 43.55400
C  -9.62300 33.41900 41.86400
O  -9.41500 32.19600 42.01700
C  -8.65000 34.36100 41.16200
C  -7.26600 34.26000 41.65500
O  -6.85600 34.87100 42.64200
O  -6.47700 33.42700 40.89600
C  -5.02500 33.52500 41.13900
H  -8.45100 41.24200 40.09700
H  -13.93200 41.81200 43.34600
H  -14.53200 35.44100 43.78700
H  -6.63600 36.73300 40.36500
H  -7.36400 39.15300 38.91600
H  -6.49100 40.03000 41.43700
H  -5.55600 39.80800 40.00400
H  -5.61600 38.48800 41.22900
H  -7.67700 37.29500 37.68000
H  -8.58600 36.04500 38.48700
H  -6.88300 34.70100 37.80100
H  -5.88200 35.29000 38.89500
H  -8.87900 43.26300 39.92800
H  -9.83500 44.53700 40.65600
H  -10.27200 43.81800 39.11300
H  -14.82300 42.87400 41.74000
H  -14.92800 44.52900 41.08500
H  -14.20700 44.12900 42.75200
H  -15.89600 39.71200 43.29100
H  -15.10100 37.73800 45.25100
H  -14.70000 40.78500 45.66400
H  -15.97800 39.59300 45.96800
H  -16.34800 40.98500 44.99300
H  -16.47600 36.60300 42.87200
H  -17.39300 37.87800 43.51900
H  -17.56900 35.44500 44.38400
H  -17.96300 36.74900 45.38600
H  -16.29000 35.90200 45.42900
H  -13.78100 33.24800 43.56700
H  -12.25200 32.92300 44.53600
H  -12.57200 32.15200 42.94700
H  -8.53900 34.07300 40.11600
H  -4.55900 33.70100 40.16900
H  -4.70600 32.60900 41.63700
H  -4.72400 34.34200 41.79600

