158

Mg -1.98900 18.15900 27.44800
C  -2.55900 16.02400 30.22000
C  -2.71500 20.88800 29.44300
C  -2.36900 20.02000 24.68100
C  -1.98100 15.32300 25.50300
N  -2.56900 18.40700 29.55600
C  -2.61400 17.37000 30.57100
C  -2.71900 17.91200 31.97800
C  -3.11200 19.43700 31.63700
C  -2.75900 19.62100 30.12200
C  -4.57500 19.79700 32.00200
C  -1.43000 17.87800 32.88600
C  -1.57300 17.10400 34.26000
H  -0.43200 17.15800 35.19000
N  -2.22200 20.22500 27.09900
C  -2.55600 21.16800 28.08100
C  -2.66300 22.49000 27.40800
C  -2.37800 22.23000 26.03600
C  -2.29100 20.76300 25.83000
C  -2.98600 23.74600 28.20300
C  -2.29000 23.27800 24.88900
O  -1.98000 22.94500 23.79500
C  -2.30200 24.74300 25.15900
N  -2.10100 17.69600 25.37200
C  -2.31200 18.68700 24.44700
C  -2.32600 18.08600 22.99000
C  -2.29400 16.59000 23.32600
C  -1.97600 16.49800 24.80800
C  -3.51100 18.46100 22.09600
C  -1.31400 15.71400 22.45000
C  0.15200 15.55200 22.88500
N  -2.11300 16.11800 27.72700
C  -2.06900 15.10400 26.87700
C  -2.06800 13.78800 27.50900
C  -2.30000 14.13700 28.83100
C  -2.27700 15.55700 28.92700
C  -1.92900 12.39400 26.99900
C  -2.53700 13.58000 30.09100
O  -2.65100 12.43900 30.35800
C  -2.70200 14.77700 31.16500
C  -1.73300 14.59000 32.23800
O  -0.62500 15.02600 32.27600
O  -2.26500 13.74000 33.14500
C  -1.28300 13.08000 34.08000
H  -2.90800 21.62900 30.22200
H  -2.54500 20.58500 23.76300
H  -2.19600 14.39000 24.97700
H  -3.55800 17.44100 32.49100
H  -2.48300 20.09500 32.23600
H  -4.63700 20.60300 32.73300
H  -5.11500 18.92000 32.35800
H  -5.01500 20.26700 31.12200
H  -1.11500 18.85300 33.25900
H  -0.59300 17.45900 32.32700
H  -1.99200 16.09900 34.21000
H  -2.29100 17.63600 34.88400
H  -4.00700 23.88600 27.84700
H  -2.33400 24.57400 27.92500
H  -2.97100 23.56900 29.27800
H  -2.48600 25.43600 24.33700
H  -1.35000 24.96500 25.64100
H  -3.11600 25.04200 25.82000
H  -1.33000 18.32400 22.61800
H  -3.26900 16.10800 23.25200
H  -4.27800 17.69100 22.01700
H  -3.20200 18.77000 21.09700
H  -4.11300 19.30600 22.43200
H  -1.24200 16.12200 21.44100
H  -1.79600 14.73800 22.39000
H  0.31100 14.48900 23.06700
H  0.23800 15.92400 23.90700
H  0.90200 15.99000 22.22600
H  -1.02600 12.15600 26.43700
H  -2.85100 12.19400 26.45200
H  -1.96900 11.73400 27.86600
H  -3.71100 14.94700 31.54200
H  -0.77000 12.30300 33.51400
H  -1.83600 12.65000 34.91500
H  -0.50800 13.66500 34.57600
Mg 30.12800 57.67200 40.62100
C  27.42700 55.81900 39.31300
C  32.24900 55.69600 38.90700
C  32.64700 59.99900 40.89600
C  27.77600 60.24500 41.49800
N  29.82300 56.00300 39.25200
C  28.66600 55.33500 38.92500
C  28.84800 54.09200 37.96200
C  30.38200 53.85500 38.37300
C  30.91100 55.24100 38.86000
C  30.63900 52.64100 39.36300
C  28.51800 54.47400 36.46000
C  27.70400 53.36600 35.76000
H  26.52600 53.85000 34.84700
N  32.15300 57.74100 40.16600
C  32.83600 56.80600 39.43600
C  34.26300 57.15900 39.34300
C  34.44700 58.36900 40.07800
C  33.06500 58.77000 40.37100
C  35.40200 56.20100 38.66500
C  35.75600 59.02600 40.47800
O  36.82800 58.57600 40.12300
C  35.82100 60.16800 41.55500
N  30.19600 59.94800 40.86500
C  31.37900 60.61000 41.13000
C  31.20300 61.97000 41.88500
C  29.61000 62.08100 41.71500
C  29.08800 60.69800 41.35100
C  31.74400 62.08500 43.34000
C  29.22000 63.12800 40.63500
C  28.91100 64.54900 41.27000
N  28.07100 57.94200 40.65500
C  27.22900 59.05000 41.07900
C  25.86800 58.54300 41.07100
C  25.88600 57.30400 40.37000
C  27.23400 57.00300 40.07700
C  24.64400 59.30200 41.50300
C  25.02700 56.31800 39.73100
O  23.82300 56.17100 39.66900
C  26.08000 55.20700 39.09200
C  25.79700 53.82900 39.62200
O  26.30200 53.37000 40.63800
O  24.90100 53.15300 38.77200
C  24.56900 51.73600 39.19000
H  32.99400 55.03900 38.45300
H  33.47500 60.66900 41.13400
H  26.99600 60.94100 41.81300
H  28.28400 53.23300 38.32400
H  31.01300 53.70200 37.49800
H  30.98800 53.05800 40.30700
H  31.38700 52.05700 38.82700
H  29.72300 52.07200 39.52200
H  29.48700 54.49500 35.96000
H  28.11400 55.48600 36.43500
H  27.27600 52.69500 36.50500
H  28.26300 52.85200 34.97800
H  36.04300 55.63300 39.33900
H  36.10300 56.68700 37.98600
H  34.87300 55.47900 38.04400
H  35.51500 61.06400 41.01500
H  36.84800 60.34300 41.87600
H  35.19600 59.92500 42.41500
H  31.68500 62.75600 41.30400
H  29.26300 62.41200 42.69400
H  32.34700 61.18000 43.40900
H  30.95100 62.26500 44.06700
H  32.31600 63.01300 43.35100
H  28.26000 62.85000 40.20200
H  29.92400 63.13000 39.80200
H  27.87500 64.87500 41.17700
H  29.52400 65.29800 40.76900
H  29.12500 64.48400 42.33700
H  23.91500 58.63700 41.96700
H  24.27900 59.66800 40.54300
H  24.97500 60.08000 42.19100
H  25.82200 55.17500 38.03300
H  24.81100 51.11300 38.32900
H  23.50600 51.64000 39.41100
H  25.07800 51.48300 40.12100

