158

Mg 47.90600 16.31800 28.54700
C  45.79200 16.85100 31.49900
C  50.23600 18.26300 30.14200
C  49.30500 16.71100 25.65200
C  44.97700 15.07200 27.01500
N  48.03700 17.41600 30.64800
C  47.06600 17.37800 31.69100
C  47.63800 18.04000 32.94100
C  48.98800 18.66900 32.41600
C  49.13600 18.08300 30.98500
C  49.06800 20.20600 32.53900
C  47.89900 16.96900 34.05700
C  47.64800 17.27200 35.57800
H  47.50200 18.77800 36.02200
N  49.68600 17.20300 28.01300
C  50.55300 17.93600 28.81000
C  51.72100 18.35000 28.03300
C  51.49700 17.85600 26.74700
C  50.16200 17.16400 26.76500
C  52.90900 19.18100 28.71300
C  52.39300 17.95500 25.50200
O  51.99400 17.53400 24.40800
C  53.75400 18.66300 25.60600
N  47.11700 16.10000 26.57600
C  47.97200 16.25200 25.53200
C  47.36900 15.82500 24.18800
C  46.14700 15.00400 24.66000
C  46.06900 15.35500 26.18100
C  47.11700 16.98800 23.13600
C  46.25500 13.48300 24.44800
C  45.50200 12.90500 23.21900
N  45.83500 15.87900 29.14500
C  44.80900 15.42000 28.38500
C  43.56600 15.27400 29.15600
C  43.87900 15.88300 30.34200
C  45.27500 16.27100 30.35600
C  42.25300 14.68400 28.68500
C  43.36500 16.30200 31.63700
O  42.18800 16.17000 32.04700
C  44.60700 16.78200 32.49800
C  44.22800 18.06600 33.19500
O  44.04900 19.20600 32.70500
O  43.92500 17.69500 34.47200
C  43.24400 18.63700 35.35500
H  51.09000 18.70900 30.65500
H  49.73400 16.75900 24.64900
H  44.10000 14.56700 26.60400
H  46.87100 18.74800 33.25500
H  49.74800 18.21700 33.05300
H  48.11500 20.71000 32.70100
H  49.53400 20.77100 31.73200
H  49.65500 20.39200 33.43700
H  48.93100 16.62000 34.04200
H  47.27400 16.17100 33.65700
H  48.48100 16.83600 36.13000
H  46.76200 16.75500 35.94700
H  52.89000 20.19600 28.31600
H  53.88500 18.74400 28.49800
H  52.75200 19.26000 29.78900
H  54.24000 18.73700 24.63300
H  54.27900 18.02200 26.31500
H  53.68800 19.67800 25.99800
H  48.06400 15.07600 23.80700
H  45.23800 15.45600 24.26100
H  47.31300 17.93900 23.63000
H  46.05800 16.96900 22.88100
H  47.72700 16.87100 22.23900
H  45.92700 13.06000 25.39700
H  47.31500 13.26300 24.31900
H  45.00800 13.76400 22.76200
H  44.75200 12.24300 23.65200
H  46.09400 12.23200 22.59900
H  41.60000 14.46600 29.53000
H  42.30300 13.77800 28.08100
H  41.90900 15.54200 28.10700
H  44.84000 15.95900 33.17300
H  42.26100 18.83900 34.92900
H  43.76300 19.58300 35.20600
H  43.18400 18.38200 36.41400
Mg -11.40000 38.31700 41.58500
C  -9.00600 35.75900 41.08300
C  -9.51400 40.41700 39.70100
C  -14.08500 40.32900 41.41100
C  -13.56500 35.72000 42.92900
N  -9.53900 38.06400 40.42800
C  -8.74400 36.93000 40.47900
C  -7.44700 37.22100 39.71500
C  -7.59300 38.74400 39.26900
C  -8.97100 39.11700 39.79400
C  -6.42900 39.74500 39.57800
C  -7.01900 36.21300 38.60600
C  -5.71700 35.48200 38.80600
H  -4.62600 35.60300 37.68300
N  -11.68900 40.23300 40.87400
C  -10.83500 40.92500 40.01300
C  -11.42600 42.12900 39.59300
C  -12.67000 42.20800 40.25500
C  -12.88500 40.90600 40.93400
C  -10.63600 43.05900 38.70400
C  -13.59000 43.44600 40.12800
O  -13.10700 44.48700 39.64900
C  -15.00300 43.45200 40.63200
N  -13.53400 38.05200 42.14900
C  -14.37100 39.06100 42.01300
C  -15.79700 38.69500 42.36100
C  -15.63900 37.25200 42.91100
C  -14.14900 36.97400 42.69400
C  -16.58500 39.66700 43.27300
C  -16.50500 36.33500 41.96200
C  -18.07300 36.66600 41.84700
N  -11.25900 36.23300 42.13100
C  -12.18600 35.36600 42.73700
C  -11.54500 34.10100 43.00500
C  -10.29400 34.19500 42.40900
C  -10.18100 35.49700 41.81900
C  -12.22100 32.98200 43.63500
C  -9.10800 33.57000 42.20500
O  -8.81800 32.44800 42.59800
C  -8.12600 34.57600 41.45500
C  -6.88400 34.81000 42.27600
O  -5.91800 34.08200 42.32400
O  -6.87200 36.07000 42.92300
C  -5.71800 36.44400 43.62900
H  -8.79200 41.07200 39.21000
H  -14.99800 40.92300 41.32400
H  -14.21000 34.97000 43.39200
H  -6.68000 37.17000 40.48800
H  -7.75900 38.64100 38.19600
H  -5.48100 39.25300 39.79500
H  -6.56000 40.54200 40.31100
H  -6.15000 40.28400 38.67200
H  -6.96500 36.63500 37.60200
H  -7.80400 35.45700 38.55900
H  -6.03300 34.44400 38.90500
H  -5.19900 35.80500 39.70900
H  -11.08200 43.96900 38.30500
H  -10.33700 42.43600 37.86100
H  -9.83500 43.34700 39.38600
H  -14.94800 43.17800 41.68500
H  -15.63700 42.90800 39.93200
H  -15.33200 44.48800 40.54200
H  -16.25300 38.70000 41.37100
H  -15.99500 37.12200 43.93300
H  -17.12700 39.02200 43.96400
H  -17.30100 40.25000 42.69300
H  -15.84800 40.32600 43.73300
H  -16.35300 35.30800 42.29500
H  -16.14100 36.46300 40.94300
H  -18.30500 37.53900 42.45700
H  -18.71600 35.85700 42.19200
H  -18.37200 36.99300 40.85200
H  -12.59700 33.24100 44.62500
H  -11.61700 32.07500 43.60700
H  -13.07300 32.74000 42.99900
H  -7.84600 34.00100 40.57200
H  -5.61600 37.52800 43.66100
H  -4.80400 36.06900 43.16900
H  -5.82200 36.14200 44.67200

