158

Mg 0.18600 7.93300 26.12700
C  1.16400 9.83800 29.07400
C  -0.06100 5.18200 28.14400
C  -0.41400 6.23300 23.32200
C  0.96000 10.76900 24.28200
N  0.58500 7.60900 28.38500
C  0.80900 8.50100 29.41100
C  0.56900 7.89800 30.80700
C  0.35600 6.36700 30.50500
C  0.29800 6.33900 28.89800
C  1.36900 5.40600 31.12500
C  -0.64900 8.50600 31.52700
C  -0.38700 8.72500 33.04400
H  0.75000 8.27500 33.95900
N  -0.10500 5.94700 25.78500
C  -0.31000 4.98900 26.74000
C  -0.77100 3.72700 26.09800
C  -0.71700 3.96800 24.69700
C  -0.40300 5.45400 24.52200
C  -1.24800 2.42300 26.82900
C  -1.16500 3.07100 23.49600
O  -1.09400 3.37900 22.31700
C  -1.67600 1.66100 23.78000
N  0.28800 8.39700 24.08100
C  -0.10700 7.57200 23.07200
C  -0.12500 8.27200 21.73600
C  0.16800 9.77100 22.06700
C  0.41700 9.67600 23.63900
C  0.85200 7.64400 20.79400
C  -0.79100 10.89000 21.63900
C  -1.63600 10.76200 20.34500
N  0.97300 9.79500 26.47500
C  1.24900 10.83300 25.60400
C  1.67500 11.93900 26.36800
C  1.58800 11.62900 27.69000
C  1.20000 10.30600 27.71500
C  2.30500 13.25400 25.81400
C  1.80300 12.08600 29.02800
O  2.19500 13.19500 29.35200
C  1.49800 10.96400 30.00500
C  2.65700 10.67800 30.95800
O  3.75600 10.29800 30.63400
O  2.34700 11.15000 32.19300
C  3.46500 11.23300 33.11300
H  -0.20100 4.42700 28.92000
H  -0.64600 5.63200 22.44000
H  1.10300 11.70800 23.74400
H  1.44500 8.00700 31.44600
H  -0.61000 6.01200 30.86500
H  2.03000 5.94800 31.80100
H  1.93600 4.96100 30.30700
H  0.99300 4.54600 31.68000
H  -1.42800 7.74400 31.50800
H  -1.10300 9.42500 31.15700
H  -1.30000 8.35800 33.51300
H  -0.41500 9.81100 33.13200
H  -1.40100 2.60500 27.89200
H  -0.53700 1.61500 26.65500
H  -2.24600 2.16400 26.47500
H  -0.84500 1.04000 24.11700
H  -1.94300 1.25700 22.80400
H  -2.60400 1.74700 24.34500
H  -1.14300 8.17600 21.36000
H  1.15800 10.04300 21.70100
H  1.86300 7.79500 21.17300
H  0.76800 8.00300 19.76800
H  0.69000 6.56800 20.86200
H  -0.05200 11.67500 21.48100
H  -1.41200 11.27300 22.44900
H  -1.28000 10.05300 19.59700
H  -1.63500 11.72800 19.84100
H  -2.63300 10.38000 20.56400
H  2.90000 12.94700 24.95400
H  3.02500 13.64400 26.53300
H  1.64100 14.07600 25.54700
H  0.57400 11.29800 30.47800
H  4.02000 12.03900 32.63400
H  4.14000 10.38100 33.18600
H  3.08600 11.53700 34.08900
Mg 34.87200 3.01000 29.09500
C  32.55100 3.82000 31.57100
C  37.44200 3.48300 31.28600
C  37.12900 2.61100 26.49200
C  32.32300 3.20900 26.69500
N  34.95400 3.56300 31.15300
C  33.90900 3.70300 32.01100
C  34.42900 3.91400 33.45100
C  35.97500 4.10600 33.24800
C  36.12400 3.65400 31.82200
C  36.57800 5.49600 33.61500
C  33.92100 2.74600 34.38400
C  33.67300 3.11700 35.76300
H  34.50800 4.23700 36.38300
N  36.95800 3.02500 28.96900
C  37.79300 3.07100 29.99600
C  39.16900 2.66200 29.65300
C  39.11100 2.49000 28.25100
C  37.68000 2.77900 27.81700
C  40.19500 2.58100 30.73800
C  40.23800 1.97500 27.30400
O  40.04900 1.71700 26.12500
C  41.57800 1.67400 27.92600
N  34.71100 3.02200 26.91400
C  35.78900 2.70200 26.10300
C  35.30300 2.43300 24.58100
C  33.78600 2.49900 24.79400
C  33.62100 3.06600 26.18600
C  35.87000 3.42600 23.51300
C  33.07400 1.13700 24.52200
C  31.78100 1.18900 23.87000
N  32.89500 3.42700 29.05300
C  31.93600 3.44400 28.01400
C  30.59300 3.73500 28.53700
C  30.81800 3.82300 29.95200
C  32.20900 3.68500 30.19600
C  29.39600 3.88300 27.75100
C  30.12300 4.08300 31.15200
O  28.97400 4.42600 31.39900
C  31.24200 4.11000 32.33000
C  31.17400 5.36400 33.04900
O  31.58000 6.44300 32.56600
O  30.58500 5.33800 34.31100
C  30.64200 6.60700 35.05700
H  38.17600 3.57400 32.08900
H  37.83800 2.35400 25.70200
H  31.52300 3.26300 25.95400
H  34.04400 4.82300 33.91500
H  36.47700 3.41400 33.92400
H  37.37300 5.34700 34.34500
H  35.84800 6.22200 33.97500
H  36.91200 5.91600 32.66600
H  34.74700 2.03600 34.40800
H  33.06200 2.28500 33.89600
H  33.64600 2.21900 36.38000
H  32.70400 3.61500 35.72600
H  39.85200 1.79200 31.40700
H  40.08800 3.51300 31.29300
H  41.22600 2.47300 30.40200
H  41.80700 2.64600 28.36400
H  42.26900 1.36400 27.14300
H  41.44500 0.87700 28.65800
H  35.53000 1.37600 24.44200
H  33.38700 3.20700 24.06700
H  36.41400 2.83700 22.77400
H  36.54900 4.13900 23.97900
H  34.97600 3.90400 23.11200
H  33.01200 0.57100 25.45200
H  33.69800 0.41900 23.99000
H  31.91400 0.73300 22.88900
H  31.47900 2.23600 23.84400
H  30.98000 0.62800 24.35400
H  29.22400 2.93200 27.24700
H  29.37900 4.76200 27.10700
H  28.65400 4.01200 28.53900
H  30.94500 3.37000 33.07200
H  30.31100 7.49000 34.50900
H  31.66700 6.80000 35.37500
H  30.01100 6.53300 35.94300

