158

Mg -1.22500 17.60000 25.65600
C  -1.91300 15.49100 28.53200
C  -2.14500 20.25600 27.62900
C  -1.25500 19.45600 22.92600
C  -1.13100 14.61900 23.72900
N  -1.71900 17.85000 27.91200
C  -2.02800 16.91100 28.83600
C  -2.52800 17.50300 30.16700
C  -2.53200 18.99600 29.87800
C  -2.07100 19.06800 28.38800
C  -3.89600 19.65000 30.16000
C  -1.75100 17.00700 31.44600
C  -2.03200 17.78400 32.75800
H  -1.85700 16.91200 33.99700
N  -1.63800 19.54600 25.36300
C  -1.89400 20.51000 26.27600
C  -1.80200 21.84600 25.62000
C  -1.74400 21.59800 24.20500
C  -1.53100 20.15800 24.10200
C  -1.80800 23.02800 26.52900
C  -1.60500 22.57200 23.09900
O  -1.48400 22.31400 21.91200
C  -1.64600 24.05700 23.47000
N  -1.21800 17.14000 23.64500
C  -1.14500 18.09900 22.69900
C  -0.81700 17.54800 21.29100
C  -0.63700 16.06700 21.61400
C  -1.00500 15.93700 23.05400
C  -2.03700 17.73100 20.35300
C  0.80600 15.51200 21.30700
C  1.95500 15.49800 22.38100
N  -1.44400 15.50600 26.06000
C  -1.38600 14.45800 25.14200
C  -1.49100 13.18000 25.88000
C  -1.71900 13.54300 27.20800
C  -1.67300 14.97500 27.23200
C  -1.47100 11.74900 25.32200
C  -1.94800 13.06600 28.55000
O  -2.14300 11.94500 29.06100
C  -2.05000 14.32800 29.41900
C  -0.85400 14.23100 30.24900
O  0.26000 14.70000 30.03800
O  -1.18000 13.47800 31.37800
C  -0.13200 13.13400 32.33500
H  -2.54100 21.09600 28.20200
H  -1.20100 20.07800 22.03000
H  -0.97500 13.89700 22.92500
H  -3.52100 17.10700 30.37500
H  -1.78100 19.45800 30.51900
H  -4.52200 19.18200 30.91900
H  -4.52700 19.55800 29.27600
H  -3.77100 20.64100 30.59600
H  -0.70800 17.02100 31.12800
H  -1.96200 15.97000 31.70900
H  -3.06600 18.03200 32.51800
H  -1.47000 18.71800 32.71900
H  -0.99100 23.00600 27.24900
H  -2.70800 22.89600 27.13000
H  -1.97200 24.05100 26.19100
H  -1.74700 24.57200 22.51500
H  -0.67000 24.11700 23.95100
H  -2.44400 24.45200 24.09800
H  0.10600 17.96800 20.89300
H  -1.29200 15.34000 21.13400
H  -1.75300 18.40600 19.54500
H  -2.81700 18.11800 21.00800
H  -2.33800 16.74000 20.01500
H  1.15200 16.08800 20.44900
H  0.71800 14.47000 20.99700
H  2.42900 14.52000 22.46700
H  1.56900 15.80300 23.35400
H  2.68200 16.23000 22.03000
H  -0.65200 11.72700 24.60200
H  -2.36500 11.50700 24.74800
H  -1.41000 11.02800 26.13700
H  -2.85500 14.29500 30.15400
H  0.83200 13.60600 32.14800
H  0.04700 12.06000 32.38400
H  -0.43300 13.33400 33.36300
Mg 48.70500 35.03700 27.58900
C  46.71100 33.30200 30.10200
C  49.10700 37.55300 29.97600
C  50.14500 36.67800 25.18400
C  47.78300 32.49200 25.31500
N  48.09100 35.40300 29.79600
C  47.36900 34.48400 30.59900
C  47.43100 34.96300 32.06500
C  47.64700 36.49500 31.93000
C  48.25000 36.54100 30.46600
C  46.41600 37.53800 32.14000
C  48.59000 34.36700 32.79500
C  48.30100 34.29000 34.29200
H  47.28600 35.22100 34.92400
N  49.68800 36.71400 27.71500
C  49.73300 37.71000 28.68000
C  50.57600 38.73500 28.31100
C  50.76000 38.57800 26.89800
C  50.24200 37.23200 26.52100
C  50.95600 39.87600 29.19900
C  51.31800 39.51500 25.92700
O  51.62700 39.18700 24.76000
C  51.65600 40.99600 26.36200
N  48.79000 34.64900 25.43600
C  49.59900 35.42200 24.72100
C  49.79700 34.85100 23.27800
C  49.03300 33.52800 23.39500
C  48.48200 33.52200 24.76800
C  49.40900 35.88500 22.13300
C  49.99100 32.28000 23.14400
C  50.96900 31.72700 24.12300
N  47.45000 33.28400 27.57700
C  47.28500 32.26600 26.60400
C  46.42300 31.22800 27.22800
C  46.14900 31.63500 28.54300
C  46.82400 32.86000 28.72500
C  46.07200 29.90800 26.62500
C  45.54400 31.07500 29.74200
O  44.92300 30.02500 29.92700
C  45.72600 32.26700 30.77000
C  45.94700 31.70600 32.12900
O  46.90800 30.95500 32.48300
O  44.86800 32.08800 32.89900
C  44.89100 31.61300 34.31600
H  49.35400 38.25000 30.77900
H  50.74700 37.18400 24.42600
H  47.55200 31.64000 24.67200
H  46.48200 34.75400 32.55900
H  48.46800 36.84300 32.55700
H  46.56100 38.44500 32.72800
H  45.53300 37.03400 32.53200
H  46.21800 37.90700 31.13400
H  49.52300 34.92700 32.73400
H  48.74000 33.37800 32.36100
H  49.26000 34.25300 34.80900
H  47.96700 33.26300 34.44200
H  50.83100 40.88400 28.80500
H  52.01400 39.64900 29.32700
H  50.47400 39.87000 30.17700
H  50.71500 41.47900 26.62600
H  52.17800 41.45900 25.52400
H  52.31800 40.91600 27.22500
H  50.83900 34.53300 23.30900
H  48.29000 33.54400 22.59800
H  49.19900 36.84100 22.61300
H  48.58100 35.59900 21.48400
H  50.29500 35.92500 21.49900
H  50.54300 32.49200 22.22900
H  49.30500 31.48800 22.84300
H  51.95500 31.43200 23.76500
H  50.47900 30.89400 24.62700
H  51.12400 32.40400 24.96300
H  47.00900 29.35200 26.65700
H  45.69500 29.92100 25.60300
H  45.37500 29.33800 27.24000
H  44.80500 32.84900 30.75200
H  43.95800 31.52000 34.87200
H  45.45600 32.44300 34.73900
H  45.39200 30.65300 34.43800

