158

Mg 41.23400 9.36800 29.82200
C  43.04600 10.55400 32.48700
C  38.93500 7.95600 31.94900
C  39.86400 7.83400 27.10700
C  43.85500 10.35800 27.71100
N  40.97300 9.30400 32.02900
C  41.90800 9.76000 32.90300
C  41.39700 9.60700 34.32300
C  40.07300 8.75100 34.13300
C  39.96500 8.61900 32.60200
C  39.97600 7.34200 34.82800
C  41.32800 10.86900 35.23800
C  40.50600 10.89400 36.53000
H  41.34300 11.14800 37.87400
N  39.56400 8.18800 29.57800
C  38.74000 7.67100 30.59300
C  37.61500 6.99700 29.97500
C  37.86400 7.05300 28.52000
C  39.16100 7.68800 28.36100
C  36.52900 6.20500 30.74900
C  37.05800 6.49000 27.41700
O  37.34300 6.61000 26.21500
C  35.74300 5.98400 27.72000
N  41.80100 9.15100 27.65300
C  40.98400 8.57400 26.76300
C  41.61800 8.61900 25.32400
C  42.72400 9.61300 25.47200
C  42.83600 9.71500 27.02700
C  41.98900 7.19100 24.82100
C  42.51400 10.99800 24.73500
C  41.93200 12.16000 25.55600
N  43.12000 10.22300 29.98000
C  44.02800 10.58500 29.09800
C  45.13300 11.24100 29.73400
C  44.83300 11.25600 31.11200
C  43.54400 10.67600 31.19000
C  46.49800 11.46600 29.08300
C  45.33700 11.53400 32.43600
O  46.44300 11.95700 32.81600
C  44.14000 11.09700 33.38300
C  44.66600 10.21300 34.38500
O  44.55900 8.99000 34.38100
O  45.19300 10.96800 35.38800
C  45.51200 10.17600 36.59200
H  38.10100 7.55800 32.53000
H  39.38400 7.43600 26.21100
H  44.70800 10.71500 27.13000
H  42.07800 8.92400 34.83300
H  39.20100 9.23300 34.57400
H  38.90800 7.17100 34.96200
H  40.56500 7.29800 35.74500
H  40.36000 6.57400 34.15800
H  41.17000 11.72900 34.58700
H  42.29900 11.13900 35.65200
H  39.99700 9.93100 36.55700
H  39.59600 11.48600 36.44000
H  36.64600 5.16300 30.44900
H  35.53000 6.64000 30.73100
H  36.60600 6.25500 31.83500
H  35.09600 5.84700 26.85400
H  35.28300 6.66700 28.43400
H  35.97000 4.98400 28.09000
H  40.79200 9.09000 24.79100
H  43.61000 9.09400 25.10600
H  41.83100 6.51300 25.65900
H  43.02700 7.06700 24.51100
H  41.27700 6.87100 24.06000
H  41.93300 10.88300 23.82000
H  43.48400 11.39400 24.43600
H  41.44400 11.86100 26.48300
H  41.23100 12.72500 24.94200
H  42.72600 12.87100 25.78400
H  46.70000 10.82300 28.22600
H  47.26800 11.36100 29.84800
H  46.49300 12.51500 28.78700
H  43.86500 12.06100 33.81100
H  45.70300 10.88900 37.39400
H  46.46900 9.70400 36.37200
H  44.77100 9.44900 36.92300
Mg 17.42000 51.40600 26.02300
C  19.32400 49.55700 28.16100
C  15.11200 51.98400 28.49400
C  15.33900 52.81400 23.62400
C  19.48600 50.39200 23.32500
N  17.25300 50.77600 28.11800
C  18.22300 50.12300 28.80500
C  18.08300 50.36500 30.28000
C  16.56300 50.77600 30.37700
C  16.30100 51.23700 28.94300
C  15.57300 49.63800 30.83500
C  19.10700 51.33900 30.93900
C  19.44700 51.28200 32.44200
H  18.48900 50.53000 33.34500
N  15.39800 52.22200 26.05900
C  14.70800 52.49500 27.22200
C  13.44800 53.08800 26.83000
C  13.50500 53.30700 25.37700
C  14.82700 52.72400 24.96900
C  12.39000 53.47100 27.85500
C  12.48000 53.90600 24.41100
O  12.62100 54.11100 23.21100
C  11.13500 54.35400 24.92500
N  17.43400 51.57800 23.83000
C  16.50800 52.29900 23.07100
C  16.82300 52.45300 21.62300
C  18.12200 51.62600 21.40500
C  18.41000 51.20300 22.94800
C  15.63300 51.92500 20.69500
C  19.24600 52.42500 20.67600
C  20.42100 51.61700 20.14900
N  19.11400 50.36000 25.79000
C  19.74800 49.89500 24.64900
C  20.86100 49.06100 24.98400
C  20.78700 48.93500 26.43600
C  19.66100 49.64200 26.82800
C  21.86000 48.53200 24.00400
C  21.40500 48.39300 27.61000
O  22.33400 47.61700 27.62000
C  20.60600 48.88900 28.82000
C  20.23700 47.71500 29.66100
O  19.47700 46.85000 29.42400
O  20.76800 47.92200 30.91100
C  20.35200 46.94700 31.99800
H  14.46700 52.22300 29.34300
H  14.76600 53.34500 22.86100
H  20.15200 50.10200 22.50900
H  18.18700 49.38900 30.75300
H  16.44200 51.59000 31.09200
H  15.33700 49.58700 31.89800
H  16.02600 48.67300 30.60700
H  14.66500 49.64600 30.23300
H  18.90500 52.34400 30.57000
H  20.07600 51.08300 30.51000
H  19.60200 52.26500 32.88600
H  20.44500 50.87700 32.61100
H  11.31000 53.37300 27.74800
H  12.55100 54.54100 27.98900
H  12.59600 53.03700 28.83300
H  11.23600 55.22200 25.57700
H  10.54900 53.51100 25.28900
H  10.55100 54.64900 24.05300
H  17.09300 53.50000 21.48800
H  17.99000 50.66600 20.90500
H  15.20900 51.06800 21.22000
H  16.08500 51.66400 19.73900
H  14.86200 52.64600 20.42300
H  19.63700 53.10400 21.43400
H  18.78900 52.99700 19.86800
H  21.40100 51.86000 20.55700
H  20.40500 51.66800 19.06000
H  20.38900 50.54700 20.35400
H  21.28400 48.08600 23.19400
H  22.48100 47.88400 24.62300
H  22.46200 49.36000 23.62900
H  21.19400 49.62200 29.37300
H  19.29300 46.71100 31.90200
H  20.34800 47.59600 32.87400
H  21.11600 46.18100 32.12900

