158

Mg 41.96700 41.23600 27.51500
C  41.14500 43.60600 30.04300
C  43.41800 39.35500 30.05800
C  42.58500 39.13100 25.34300
C  41.20800 43.76400 25.11100
N  42.32300 41.52700 29.80000
C  41.74300 42.47000 30.66200
C  41.93400 42.14300 32.13700
C  42.65100 40.76700 32.04200
C  42.79300 40.51900 30.48800
C  44.00100 40.64800 32.77800
C  40.66400 42.18400 32.99100
C  40.82500 41.49800 34.34400
H  39.87300 41.92500 35.46600
N  42.94900 39.51400 27.67900
C  43.46000 38.85400 28.77500
C  43.93700 37.55700 28.32800
C  43.60000 37.46700 26.97000
C  43.03500 38.73600 26.60400
C  44.48900 36.46800 29.19400
C  43.75800 36.27800 25.92500
O  43.73400 36.31600 24.71300
C  44.13900 34.95100 26.48100
N  42.06300 41.40300 25.56200
C  42.28400 40.35200 24.80900
C  42.25100 40.62600 23.29500
C  41.77000 42.07800 23.27000
C  41.57500 42.46800 24.77700
C  43.57000 40.23100 22.65600
C  40.73900 42.51800 22.22500
C  39.41600 41.74100 22.43600
N  41.41200 43.32500 27.45700
C  41.03600 44.19000 26.41900
C  40.68900 45.48100 26.89000
C  40.66700 45.28100 28.30500
C  41.08200 43.93600 28.59400
C  40.51200 46.77600 26.17100
C  40.52400 46.01900 29.53800
O  40.23900 47.22800 29.64800
C  40.81300 44.94400 30.74600
C  41.97800 45.53600 31.49800
O  43.07800 45.70100 31.02700
O  41.58000 45.87000 32.74300
C  42.60600 46.51800 33.58000
H  43.71800 38.62200 30.81000
H  42.80700 38.34700 24.61500
H  40.87000 44.50500 24.38500
H  42.60200 42.92100 32.50600
H  41.98200 40.00900 32.45100
H  43.90200 39.79900 33.45400
H  44.06000 41.45600 33.50800
H  44.88000 40.59300 32.13600
H  39.86700 41.80100 32.35400
H  40.39400 43.21100 33.23900
H  41.87400 41.54300 34.63900
H  40.66200 40.42400 34.25700
H  45.24300 35.87900 28.67200
H  43.65700 35.89000 29.59800
H  45.02800 36.96000 30.00400
H  43.50500 34.61900 27.30400
H  45.21000 34.95100 26.68500
H  43.87400 34.33800 25.61900
H  41.50900 40.00600 22.79200
H  42.66000 42.61100 22.93500
H  44.40500 40.65800 23.21200
H  43.64800 40.60600 21.63500
H  43.74200 39.15700 22.71600
H  41.07600 42.30100 21.21200
H  40.68600 43.59500 22.38300
H  39.59700 41.31900 23.42500
H  39.26600 40.98900 21.66100
H  38.65300 42.51900 22.42700
H  39.44700 46.96800 26.04100
H  40.95700 46.89500 25.18200
H  40.82000 47.60000 26.81400
H  40.00200 44.78400 31.45700
H  43.52000 46.79500 33.05500
H  43.00700 45.89000 34.37500
H  42.15900 47.38200 34.07200
Mg 27.27700 50.15600 25.71300
C  25.41000 51.51200 28.46700
C  29.50800 49.08300 28.10600
C  28.97200 48.99900 23.24100
C  25.02600 51.69100 23.45300
N  27.39600 50.25800 28.04700
C  26.47000 50.70500 28.92300
C  26.92900 50.46400 30.37600
C  28.25500 49.62700 30.17300
C  28.41900 49.67700 28.72000
C  29.36100 50.11100 31.06100
C  25.79200 49.71700 31.14500
C  25.22700 50.33300 32.51200
H  26.29100 50.61300 33.63900
N  28.98500 49.23400 25.63800
C  29.80600 48.93800 26.69300
C  30.91900 48.17300 26.18600
C  30.78000 48.07700 24.82600
C  29.58000 48.83700 24.47900
C  32.04900 47.65300 27.06000
C  31.55900 47.23000 23.84800
O  31.23400 47.16500 22.66400
C  32.87400 46.48300 24.28300
N  27.06600 50.40200 23.68300
C  27.85500 49.69500 22.80000
C  27.61800 50.11800 21.35400
C  26.15700 50.65200 21.41100
C  26.04500 50.97100 22.93700
C  28.59300 51.12300 20.85000
C  25.20600 49.59000 20.90300
C  24.59600 48.42100 21.79700
N  25.61900 51.42000 25.88700
C  24.76700 51.89900 24.84500
C  23.67900 52.64400 25.54700
C  23.89700 52.50200 26.93800
C  25.06000 51.70500 27.11000
C  22.53100 53.31000 24.90100
C  23.27600 52.84000 28.22100
O  22.30300 53.50200 28.48800
C  24.28900 52.21900 29.27600
C  24.80000 53.31600 30.10900
O  25.87100 53.92900 29.93000
O  23.90400 53.49600 31.16100
C  24.23300 54.44900 32.17800
H  30.17600 48.56100 28.79500
H  29.50800 48.76200 22.32000
H  24.30400 52.00800 22.69800
H  27.13200 51.41700 30.86200
H  28.06900 48.59400 30.46500
H  30.25300 50.10300 30.43400
H  29.61200 49.51000 31.93500
H  29.30100 51.17200 31.30200
H  26.17600 48.71300 31.32400
H  24.89300 49.57900 30.54400
H  24.58700 49.55200 32.91900
H  24.78800 51.23900 32.09400
H  32.96800 47.85200 26.50800
H  31.94800 46.58700 27.25900
H  32.13900 48.21400 27.99000
H  33.02600 45.91100 23.36800
H  32.64300 45.72100 25.02700
H  33.78200 47.06000 24.45700
H  27.69100 49.25400 20.69400
H  26.09000 51.54800 20.79500
H  29.29600 51.30100 21.66400
H  28.04300 51.99500 20.49600
H  29.21800 50.68500 20.07200
H  25.63800 49.02900 20.07400
H  24.34600 50.15700 20.54500
H  24.69800 48.55200 22.87400
H  25.15500 47.50700 21.59700
H  23.55300 48.27600 21.51700
H  21.66900 52.64400 24.92500
H  22.74100 53.59900 23.87100
H  22.35600 54.18900 25.52200
H  23.64800 51.59700 29.90100
H  25.12900 54.10900 32.69800
H  23.39800 54.67000 32.84300
H  24.48900 55.42300 31.76000

