158

Mg 8.18400 2.94300 27.65600
C  9.32800 1.26600 30.50100
C  6.27300 4.92200 29.66900
C  6.87700 4.16200 25.01500
C  9.73000 0.38200 25.63700
N  7.76800 3.06000 29.83100
C  8.45700 2.38900 30.83400
C  8.04900 2.85500 32.23200
C  6.98500 3.98200 31.89100
C  6.90400 3.94300 30.35400
C  5.56300 3.84900 32.57700
C  9.24400 3.26900 33.12800
C  8.83900 4.16500 34.31600
H  9.77000 4.03500 35.61900
N  6.91400 4.48200 27.35300
C  6.23500 5.16700 28.25400
C  5.46600 6.18400 27.55600
C  5.76700 6.13200 26.19100
C  6.56300 4.90800 26.14700
C  4.65700 7.14200 28.25900
C  5.25100 6.91800 24.95500
O  5.66500 6.68200 23.84200
C  4.20100 7.94800 25.26800
N  8.17600 2.24400 25.58800
C  7.58900 3.04500 24.75800
C  7.78900 2.56200 23.25900
C  8.75100 1.31700 23.40500
C  8.98600 1.36200 24.95100
C  6.53900 2.22800 22.45900
C  10.06000 1.44400 22.69600
C  10.11100 0.48400 21.51900
N  9.19300 1.08700 27.96500
C  9.83000 0.28200 27.04400
C  10.61800 -0.67700 27.86300
C  10.43500 -0.30900 29.19300
C  9.60600 0.80400 29.19600
C  11.55300 -1.72100 27.38100
C  10.78200 -0.63600 30.51500
O  11.41900 -1.57500 30.97900
C  10.09900 0.37200 31.43300
C  9.14200 -0.37400 32.37100
O  8.04500 -0.90200 32.03100
O  9.64700 -0.29000 33.65600
C  8.66900 -0.90400 34.59100
H  5.59200 5.60100 30.18600
H  6.50000 4.61700 24.09800
H  10.44400 -0.15500 25.01000
H  7.59600 1.93200 32.59200
H  7.41500 4.95500 32.12600
H  4.78900 4.15600 31.87500
H  5.48500 4.70300 33.24900
H  5.49200 2.84300 32.99300
H  9.99700 3.63600 32.43000
H  9.80700 2.40600 33.48300
H  7.81400 3.98200 34.64000
H  8.81100 5.19500 33.96000
H  4.86400 8.18100 28.00000
H  4.70300 7.16600 29.34700
H  3.62900 6.93600 27.95800
H  4.66100 8.67800 25.93500
H  3.32600 7.41800 25.64200
H  3.82600 8.39800 24.34800
H  8.29400 3.35400 22.70600
H  8.16400 0.40300 23.30600
H  5.62400 2.42100 23.01800
H  6.57100 1.27200 21.93700
H  6.35000 3.01400 21.72900
H  10.92200 1.32000 23.35200
H  10.23200 2.46100 22.34600
H  10.77500 0.86100 20.74100
H  9.13500 0.26500 21.08700
H  10.51900 -0.47900 21.82700
H  12.34600 -1.62900 28.12400
H  11.89200 -1.44300 26.38300
H  11.08500 -2.70500 27.39600
H  10.95600 0.76600 31.98100
H  7.99000 -1.67800 34.23300
H  8.10000 -0.01900 34.87600
H  9.17900 -1.36100 35.43800
Mg 24.73300 -5.54700 45.42400
C  26.81300 -3.10300 43.90900
C  22.18100 -4.50200 43.42000
C  23.00600 -8.31200 46.29800
C  27.55500 -6.73500 47.19500
N  24.57500 -3.98500 43.86400
C  25.50700 -3.06400 43.45500
C  24.97100 -2.25200 42.25200
C  23.36800 -2.40700 42.39500
C  23.37200 -3.72800 43.26800
C  22.63800 -1.16600 43.12600
C  25.56400 -2.88700 40.86000
C  26.47900 -1.93200 39.97900
H  26.08200 -2.03400 38.51500
N  22.90000 -6.29100 44.97400
C  21.98200 -5.75900 44.10700
C  20.82100 -6.53100 44.12500
C  20.92800 -7.60000 45.03100
C  22.28300 -7.40400 45.58100
C  19.65100 -6.05200 43.25700
C  19.92300 -8.57400 45.38000
O  18.87000 -8.69100 44.71600
C  20.10500 -9.41800 46.64100
N  25.25700 -7.31900 46.56900
C  24.36700 -8.37900 46.71000
C  25.00200 -9.50200 47.51800
C  26.31700 -8.87000 48.02700
C  26.38300 -7.51700 47.27700
C  24.20800 -10.08800 48.72700
C  27.57000 -9.82600 47.85800
C  28.30600 -10.14100 49.11300
N  26.78200 -5.02400 45.61100
C  27.77500 -5.60700 46.37000
C  29.02500 -4.96600 46.10200
C  28.71900 -3.95600 45.18100
C  27.33300 -4.06900 44.89600
C  30.31100 -5.33100 46.71600
C  29.26200 -2.83200 44.36700
O  30.32100 -2.26400 44.39100
C  28.02400 -2.27200 43.50200
C  27.84300 -0.83400 43.71200
O  27.27400 -0.34000 44.64300
O  28.28500 -0.14700 42.57200
C  28.00600 1.25900 42.40500
H  21.33600 -4.10500 42.85400
H  22.50100 -9.18800 46.71100
H  28.42800 -6.95600 47.81300
H  25.03300 -1.18300 42.45500
H  22.95600 -2.58800 41.40200
H  22.05700 -1.45700 44.00200
H  21.92100 -0.65300 42.48600
H  23.36700 -0.44400 43.49400
H  24.79900 -3.23000 40.16400
H  26.15100 -3.75600 41.15800
H  27.47800 -2.33200 40.15000
H  26.34700 -0.90100 40.30900
H  18.89300 -6.80800 43.05300
H  20.07300 -5.66600 42.32900
H  19.18000 -5.27000 43.85100
H  20.82900 -10.21200 46.46000
H  19.14500 -9.79200 46.99600
H  20.55400 -8.79300 47.41300
H  25.25800 -10.33000 46.85700
H  26.20800 -8.56300 49.06700
H  23.18300 -9.72900 48.81800
H  24.71500 -10.08200 49.69200
H  24.05200 -11.14100 48.49500
H  28.34800 -9.39400 47.22800
H  27.24300 -10.78000 47.44500
H  27.73200 -9.65800 49.90300
H  29.18000 -9.51400 48.94000
H  28.46500 -11.20500 49.29100
H  31.01200 -4.53300 46.47000
H  30.65100 -6.29800 46.34500
H  30.25500 -5.36500 47.80400
H  28.07300 -2.37600 42.41800
H  27.13000 1.53900 42.99000
H  27.84200 1.48500 41.35200
H  28.86000 1.85700 42.72400

