158

Mg 49.20100 46.60900 42.90000
C  46.06100 47.35100 41.69000
C  49.20400 43.67200 41.00700
C  52.69500 46.28800 43.18300
C  49.60800 50.06900 44.01800
N  47.84700 45.66800 41.50400
C  46.60100 46.17100 41.14500
C  45.90600 45.22300 40.12700
C  46.84400 43.93100 40.10100
C  48.02300 44.42400 40.96600
C  46.31700 42.56400 40.56600
C  45.93200 45.90300 38.69300
C  44.54700 46.05500 37.98500
H  44.27100 45.58200 36.56000
N  50.68300 45.12100 42.39600
C  50.42200 43.96100 41.66400
C  51.62600 43.23000 41.57000
C  52.68600 43.87200 42.23200
C  52.05200 45.16400 42.61900
C  51.59500 41.90100 41.03100
C  54.02900 43.34900 42.43500
O  54.42000 42.23400 42.09500
C  55.09100 44.14900 42.90800
N  50.86300 47.96400 43.54300
C  52.22800 47.58800 43.58000
C  53.05000 48.71200 44.08100
C  52.07800 49.82300 44.46400
C  50.75900 49.22900 44.00900
C  53.99800 48.27900 45.27400
C  52.31700 51.27400 43.68700
C  52.34500 52.52200 44.54500
N  47.99600 48.33100 43.03900
C  48.32100 49.66500 43.44100
C  47.11400 50.54400 43.19000
C  46.19500 49.59100 42.66400
C  46.83400 48.36200 42.41800
C  47.10900 52.09600 43.37500
C  44.86900 49.48600 42.17800
O  43.94000 50.30000 42.04900
C  44.80300 48.10400 41.42800
C  43.64300 47.32900 42.00300
O  43.36600 47.24800 43.21000
O  42.95300 46.64800 41.00800
C  41.98300 45.68800 41.47900
H  49.17600 42.80800 40.33900
H  53.78500 46.29000 43.25600
H  49.75500 51.00900 44.55400
H  44.96700 44.97000 40.61800
H  47.25500 43.74600 39.10900
H  46.07600 41.95800 39.69200
H  45.34600 42.70200 41.04200
H  47.06500 42.03400 41.15400
H  46.55500 45.48000 37.90500
H  46.27200 46.91900 38.89100
H  44.19300 47.08500 38.01300
H  43.86100 45.40800 38.53200
H  52.52100 41.47800 40.64000
H  50.96500 41.96500 40.14400
H  51.20300 41.17700 41.74500
H  54.99000 44.18000 43.99300
H  55.04800 45.08000 42.34300
H  56.04600 43.64500 42.75700
H  53.62300 49.03100 43.21100
H  51.95000 49.87900 45.54500
H  53.73000 47.23700 45.44800
H  53.79300 48.88500 46.15600
H  55.06900 48.34600 45.08300
H  51.61900 51.32100 42.85100
H  53.28700 51.22200 43.19300
H  51.38600 52.47800 45.06100
H  52.34200 53.39700 43.89500
H  53.24600 52.43100 45.15100
H  47.44500 52.27600 44.39700
H  46.06200 52.32700 43.17800
H  47.83600 52.65100 42.78200
H  44.69100 48.36500 40.37600
H  42.46200 44.87000 42.01500
H  41.44600 45.26200 40.63200
H  41.34300 46.11700 42.24900
Mg -11.40500 38.79200 41.19200
C  -9.23600 36.20000 40.37100
C  -9.51200 41.00500 39.44100
C  -13.81600 41.15800 41.67500
C  -13.65500 36.25600 42.53100
N  -9.58400 38.61800 40.03700
C  -8.91700 37.43500 39.74800
C  -7.62700 37.67700 38.82200
C  -7.81500 39.23700 38.51400
C  -8.95300 39.68000 39.38900
C  -6.58100 40.01600 38.79700
C  -7.66500 36.69600 37.67100
C  -6.39600 35.80500 37.64000
H  -5.29500 36.21000 36.62500
N  -11.56500 40.79800 40.72300
C  -10.57900 41.57400 40.12000
C  -11.01300 42.97300 40.07800
C  -12.35000 42.96100 40.52900
C  -12.60500 41.60000 41.07300
C  -10.14000 44.07300 39.42900
C  -13.19300 44.22400 40.55100
O  -12.74700 45.29800 40.17000
C  -14.53400 44.23900 41.19500
N  -13.57700 38.64200 41.72700
C  -14.26600 39.77800 41.94500
C  -15.70400 39.47600 42.61400
C  -15.62900 37.97300 42.89300
C  -14.15500 37.55700 42.38000
C  -15.92100 40.33700 43.87000
C  -16.72900 37.07600 42.22900
C  -16.66800 36.96900 40.73600
N  -11.44700 36.69400 41.52600
C  -12.36000 35.86500 42.11200
C  -11.78500 34.57300 42.28100
C  -10.60800 34.57200 41.50700
C  -10.44400 35.96800 41.10000
C  -12.37500 33.34100 43.02000
C  -9.50600 33.81700 41.05100
O  -9.26900 32.59200 41.26500
C  -8.50000 34.85800 40.29900
C  -7.29800 34.73800 41.09700
O  -6.63000 33.66800 41.25700
O  -7.00500 35.96600 41.64200
C  -5.83400 35.97000 42.53600
H  -8.98300 41.68400 38.76900
H  -14.62500 41.85500 41.90200
H  -14.33100 35.63600 43.12500
H  -6.72900 37.49900 39.41300
H  -8.19500 39.50500 37.52800
H  -5.95600 39.92700 37.90800
H  -5.99700 39.68900 39.65800
H  -6.81100 41.06400 38.99400
H  -7.62500 37.32600 36.78200
H  -8.58800 36.11900 37.62000
H  -6.66800 34.79200 37.34200
H  -5.87800 35.78600 38.59900
H  -10.51400 44.32500 38.43700
H  -9.08800 43.80100 39.52000
H  -10.44500 44.89500 40.07700
H  -15.17300 43.43500 40.82900
H  -15.05500 45.16500 40.95000
H  -14.40400 44.27800 42.27600
H  -16.59700 39.73300 42.04300
H  -15.71300 37.89500 43.97700
H  -15.01000 40.36700 44.46700
H  -16.78500 39.92700 44.39300
H  -16.25500 41.32300 43.54700
H  -17.70200 37.52100 42.43500
H  -16.62100 36.08700 42.67500
H  -17.40300 37.54100 40.17100
H  -16.59200 35.92600 40.42900
H  -15.75600 37.45300 40.38800
H  -13.36700 33.16400 42.60400
H  -12.34900 33.46800 44.10200
H  -11.84000 32.44700 42.69900
H  -8.24500 34.56800 39.27900
H  -4.96400 35.52200 42.05800
H  -6.07400 35.47100 43.47600
H  -5.47300 36.94100 42.87600

