158

Mg 44.39900 4.15300 47.11300
C  42.63300 7.16500 47.50400
C  41.44400 2.67500 46.32400
C  46.10100 1.33900 46.37400
C  47.31200 6.07300 46.90100
N  42.28100 4.93000 46.78000
C  41.76800 6.14300 47.05700
C  40.24400 6.19200 46.70200
C  39.93300 4.70900 46.28200
C  41.26900 4.08100 46.58500
C  38.60700 4.11100 47.00000
C  39.91200 7.12000 45.53200
C  40.74800 7.14800 44.16700
H  39.97400 6.96500 42.85200
N  43.81500 2.19400 46.56800
C  42.54400 1.80000 46.32100
C  42.54700 0.41300 45.97400
C  43.84800 -0.11600 45.90000
C  44.68000 1.13900 46.27300
C  41.26000 -0.37000 45.60300
C  44.36300 -1.49000 45.64800
O  43.55800 -2.42500 45.50800
C  45.80800 -1.83100 45.69300
N  46.34700 3.80200 46.48700
C  46.84000 2.50300 46.48300
C  48.40300 2.55000 46.41200
C  48.75500 4.01000 46.68500
C  47.42900 4.69400 46.66000
C  49.08200 1.49500 47.35500
C  49.72100 4.64800 45.58400
C  51.13100 4.70900 46.15900
N  44.92300 6.20600 47.18400
C  46.12000 6.80700 47.14000
C  45.98300 8.24700 47.42500
C  44.59600 8.44300 47.57900
C  44.01800 7.16300 47.37100
C  47.09600 9.26900 47.62400
C  43.54300 9.44100 47.79200
O  43.60300 10.66300 47.89800
C  42.25000 8.58200 47.67300
C  41.54100 8.78400 48.91200
O  41.52900 8.07800 49.95000
O  40.91600 10.03200 48.81700
C  40.15700 10.48000 49.92900
H  40.52400 2.12100 46.12600
H  46.74000 0.45600 46.31500
H  48.16800 6.74200 47.00400
H  39.69900 6.59800 47.55400
H  39.74800 4.48700 45.23100
H  38.07900 4.80300 47.65600
H  38.86900 3.24500 47.60900
H  37.82100 3.94200 46.26300
H  39.95300 8.13500 45.92600
H  38.88500 7.00500 45.18400
H  41.45300 6.31700 44.14600
H  41.41800 8.00700 44.17300
H  40.27100 0.03500 45.81700
H  41.21300 -1.38500 45.99700
H  41.31800 -0.38600 44.51500
H  46.05000 -2.89200 45.63800
H  46.03600 -1.42500 46.67900
H  46.39200 -1.31700 44.93000
H  48.67400 2.29300 45.38900
H  48.98100 4.13800 47.74400
H  48.35900 1.12100 48.08000
H  49.93000 1.79400 47.97100
H  49.38200 0.57900 46.84600
H  49.32500 5.59400 45.21400
H  49.67700 4.07900 44.65500
H  51.73800 3.91500 45.72500
H  51.09600 4.47500 47.22300
H  51.59800 5.64600 45.85500
H  47.89500 9.13600 46.89500
H  47.64600 9.10500 48.55100
H  46.68900 10.27900 47.57300
H  41.75700 9.02200 46.80600
H  39.67400 9.63300 50.41600
H  39.45600 11.26900 49.65200
H  40.88800 10.87600 50.63300
Mg 47.46200 16.19200 29.11700
C  45.76500 16.01700 32.24400
C  49.89300 18.09200 30.58300
C  48.83700 16.79900 26.08800
C  44.57800 14.88500 27.61900
N  47.68500 17.09600 31.13500
C  46.98600 16.70500 32.27400
C  47.76700 17.08400 33.46400
C  48.87000 17.94100 32.99100
C  48.85700 17.66000 31.48700
C  48.84300 19.44600 33.31600
C  48.32000 15.77400 34.25200
C  48.38700 15.81500 35.86000
H  47.74200 17.00700 36.68100
N  49.17800 17.22500 28.43700
C  50.09500 17.89100 29.22500
C  51.11300 18.47000 28.43200
C  50.86600 18.05200 27.10900
C  49.56300 17.36400 27.14900
C  52.25900 19.27400 28.91200
C  51.71000 18.13700 25.91200
O  51.33700 17.72100 24.77800
C  53.12200 18.83600 25.98500
N  46.76100 15.91500 27.19200
C  47.59200 16.15600 26.06300
C  46.90000 15.69800 24.78400
C  45.62200 14.94400 25.30700
C  45.62500 15.32100 26.75700
C  46.57700 16.84100 23.73000
C  45.57800 13.40000 25.03100
C  44.86100 13.01500 23.71700
N  45.54100 15.50600 29.74400
C  44.44900 15.02500 29.00800
C  43.33700 14.65300 29.92300
C  43.90300 14.94500 31.19700
C  45.16200 15.48800 31.02000
C  42.04400 13.93000 29.59600
C  43.66200 14.72400 32.64500
O  42.67600 14.23900 33.27400
C  44.89700 15.50700 33.34600
C  44.22400 16.62800 34.00300
O  43.78700 17.61400 33.40500
O  44.06200 16.41300 35.38300
C  43.17100 17.33300 36.15800
H  50.78200 18.47600 31.08800
H  49.10500 16.90700 25.03500
H  43.77000 14.39800 27.06900
H  47.28300 17.74000 34.18800
H  49.87800 17.67900 33.30900
H  48.50000 19.49500 34.34900
H  48.17800 20.01200 32.66400
H  49.88200 19.77000 33.26000
H  49.30400 15.50100 33.87000
H  47.68300 14.92400 34.00900
H  49.44800 15.82300 36.11000
H  47.80400 14.96400 36.21200
H  53.17000 18.67700 28.95800
H  52.18300 19.51800 29.97200
H  52.28500 20.21100 28.35600
H  52.88500 19.89600 26.07600
H  53.59700 18.64500 25.02200
H  53.79600 18.39500 26.72000
H  47.50000 14.97300 24.23400
H  44.75900 15.36900 24.79400
H  45.52000 16.71800 23.49300
H  47.08200 16.75500 22.76800
H  46.75000 17.83300 24.14800
H  45.07000 12.83600 25.81300
H  46.61700 13.09700 24.89800
H  44.80000 13.95700 23.17300
H  43.86900 12.59400 23.88300
H  45.45100 12.41100 23.02700
H  41.77900 13.97200 28.53900
H  41.30300 14.54000 30.11300
H  42.05500 12.90300 29.96000
H  45.36200 14.93500 34.14900
H  43.10200 18.34600 35.76200
H  43.48200 17.37600 37.20200
H  42.11900 17.06400 36.25800

