158

Mg -10.87200 17.63700 42.98200
C  -7.56400 18.60700 42.88900
C  -11.74900 20.85300 42.51000
C  -14.07400 16.49900 42.79900
C  -9.83200 14.24700 42.56100
N  -9.76400 19.49200 42.68600
C  -8.42900 19.66100 42.75200
C  -8.07000 21.10800 42.60300
C  -9.40800 21.87400 42.91200
C  -10.35900 20.66500 42.74600
C  -9.44800 22.54500 44.31900
C  -7.55900 21.30500 41.14700
C  -6.08500 21.84900 41.00200
H  -5.15500 20.99700 40.10400
N  -12.67500 18.54100 42.56200
C  -12.85000 19.92500 42.42800
C  -14.30600 20.17800 42.30400
C  -15.00200 18.95400 42.36000
C  -13.96600 17.93800 42.58900
C  -14.89900 21.55800 42.18600
C  -16.53400 18.74600 42.33800
O  -17.25300 19.72400 42.25100
C  -17.15900 17.37300 42.32500
N  -11.84400 15.63700 42.46800
C  -13.19300 15.47200 42.69100
C  -13.52500 13.98800 42.64100
C  -12.18800 13.30500 42.38500
C  -11.25700 14.44800 42.43900
C  -14.24700 13.43100 43.97700
C  -12.12400 12.49500 41.03300
C  -11.98400 10.95700 41.15800
N  -9.02300 16.47500 42.85400
C  -8.72800 15.17900 42.66800
C  -7.30700 15.02200 42.77000
C  -6.77100 16.32300 42.89300
C  -7.82800 17.17200 42.80200
C  -6.48700 13.77200 42.69100
C  -5.53600 17.13700 43.06700
O  -4.41700 16.81300 43.18500
C  -6.05700 18.64900 43.06800
C  -5.74300 19.28500 44.39400
O  -6.39500 19.11300 45.39200
O  -4.71600 20.14200 44.35500
C  -4.70600 21.25000 45.36000
H  -12.01100 21.91300 42.53800
H  -15.03600 15.99000 42.88900
H  -9.55500 13.20500 42.39200
H  -7.34200 21.37700 43.36900
H  -9.60900 22.61100 42.13500
H  -8.59900 22.43500 44.99300
H  -10.26000 22.08100 44.87900
H  -9.59700 23.61100 44.14200
H  -8.22500 21.93800 40.56100
H  -7.53800 20.31600 40.68900
H  -5.60700 21.81800 41.98100
H  -6.07600 22.92500 40.82900
H  -15.75000 21.73700 41.52900
H  -14.26500 22.44100 42.09800
H  -15.30500 21.61100 43.19700
H  -18.23800 17.47700 42.21200
H  -16.91600 17.06900 43.34400
H  -16.65800 16.73900 41.59400
H  -14.23200 13.93800 41.81300
H  -11.87200 12.69000 43.22700
H  -14.07100 14.22900 44.69900
H  -13.66900 12.57400 44.32300
H  -15.28700 13.11900 43.88900
H  -11.28600 12.79500 40.40300
H  -12.99700 12.73400 40.42600
H  -11.42200 10.40000 40.40800
H  -12.94100 10.43500 41.16300
H  -11.39600 10.69300 42.03700
H  -5.43900 13.92100 42.94900
H  -6.48800 13.52000 41.63000
H  -6.95100 12.99700 43.30100
H  -5.58000 19.07800 42.18700
H  -5.69900 21.45100 45.76200
H  -4.56200 22.17900 44.80800
H  -3.96300 21.07700 46.13900
Mg -4.65000 25.23100 26.24200
C  -3.59000 26.75500 29.14600
C  -6.27700 22.87400 28.40900
C  -5.88000 23.65500 23.60000
C  -2.93200 27.46100 24.38900
N  -4.94000 24.89000 28.58700
C  -4.41900 25.72900 29.49900
C  -4.98000 25.42600 30.87100
C  -5.59800 23.98200 30.69800
C  -5.69500 23.93100 29.10700
C  -4.74700 22.89100 31.21200
C  -6.03800 26.49900 31.35200
C  -6.04800 26.86500 32.80700
H  -5.57400 25.80400 33.79300
N  -5.85400 23.45400 26.08900
C  -6.41700 22.66000 27.06500
C  -7.31300 21.64500 26.38900
C  -7.18100 21.87500 24.97200
C  -6.30300 23.01800 24.85400
C  -7.93600 20.46900 27.07000
C  -7.81300 21.11500 23.81000
O  -7.71600 21.42200 22.64300
C  -8.56000 19.81000 24.07800
N  -4.40500 25.45700 24.21100
C  -5.06700 24.75700 23.29200
C  -4.77700 25.32600 21.88700
C  -3.66300 26.38200 22.12600
C  -3.76700 26.50400 23.65500
C  -4.27900 24.33300 20.82800
C  -3.85400 27.63100 21.28000
C  -4.76600 28.63300 21.95700
N  -3.42700 26.72100 26.61300
C  -2.75100 27.60600 25.78700
C  -1.84800 28.47500 26.45900
C  -2.25600 28.15600 27.77300
C  -3.22100 27.14800 27.82100
C  -1.01300 29.62000 25.94200
C  -2.03500 28.63200 29.07800
O  -1.21600 29.49200 29.41100
C  -2.94300 27.73000 30.06400
C  -2.03900 27.11400 31.00900
O  -1.36100 26.07100 30.78800
O  -2.06800 27.89600 32.15900
C  -1.32700 27.21300 33.24900
H  -6.75700 22.20400 29.12600
H  -6.20600 23.14600 22.69000
H  -2.35800 28.01200 23.64100
H  -4.24000 25.34300 31.66600
H  -6.59200 23.89200 31.13600
H  -4.05700 23.22400 31.98700
H  -4.01900 22.42800 30.54600
H  -5.27000 22.12400 31.78400
H  -7.09300 26.28500 31.17900
H  -5.85200 27.47000 30.89400
H  -7.07800 27.03600 33.12200
H  -5.55700 27.83000 32.93500
H  -8.91300 20.26600 26.62900
H  -8.12500 20.69200 28.12000
H  -7.33600 19.56000 27.05700
H  -9.43600 20.05100 24.68000
H  -7.85500 19.10600 24.52100
H  -8.82000 19.18600 23.22300
H  -5.64000 25.88600 21.52800
H  -2.69100 25.93200 21.92600
H  -4.96500 24.25500 19.98500
H  -4.23600 23.31100 21.20600
H  -3.26700 24.56900 20.50000
H  -4.02300 27.32600 20.24700
H  -2.90900 28.17500 21.26600
H  -4.19600 29.27400 22.62900
H  -5.50700 27.99000 22.43200
H  -5.24800 29.26600 21.21200
H  0.03900 29.47400 26.18600
H  -1.30000 30.55900 26.41600
H  -1.01900 29.73200 24.85700
H  -3.82700 28.21000 30.48400
H  -0.28500 27.05600 32.97000
H  -1.63900 26.20800 33.53500
H  -1.29700 27.81400 34.15800

