158

Mg 40.78900 7.84200 29.75000
C  42.51500 9.13100 32.43900
C  38.35800 6.63500 31.80700
C  39.43600 6.38900 27.11300
C  43.71500 8.49900 27.78400
N  40.52100 7.89100 31.88500
C  41.28800 8.56700 32.80000
C  40.52300 8.62700 34.14200
C  39.28900 7.67200 33.97200
C  39.36100 7.43600 32.46500
C  39.43600 6.38600 34.76000
C  40.23200 10.00200 34.78100
C  39.25400 10.09700 35.99500
H  39.80800 10.85500 37.14500
N  39.05600 6.75700 29.43300
C  38.17700 6.33000 30.38500
C  37.06600 5.62800 29.75200
C  37.32300 5.69100 28.33400
C  38.67200 6.32000 28.25000
C  36.05600 4.82000 30.52300
C  36.41200 5.18300 27.18500
O  36.69700 5.22600 26.00000
C  34.91800 4.96300 27.62100
N  41.51900 7.35100 27.85100
C  40.72400 6.88700 26.88100
C  41.43700 6.56700 25.55800
C  42.66100 7.57000 25.69500
C  42.69500 7.79800 27.21500
C  41.78600 5.10400 25.32000
C  42.55600 8.86100 24.91300
C  41.99500 10.17100 25.63400
N  42.70800 8.57600 29.99100
C  43.73300 8.87800 29.12300
C  44.77700 9.63800 29.82900
C  44.29900 9.73600 31.06600
C  43.11600 9.00900 31.17700
C  46.09300 10.18700 29.25100
C  44.64100 10.16100 32.33500
O  45.59500 10.82500 32.69600
C  43.44000 9.92100 33.32900
C  43.98000 9.17900 34.50100
O  44.41400 8.06400 34.61100
O  43.78400 10.00800 35.62800
C  44.13100 9.25000 36.95600
H  37.62900 6.22600 32.51000
H  39.08400 5.90700 26.19900
H  44.39000 8.74900 26.96300
H  41.17600 8.16800 34.88500
H  38.34700 8.20100 34.11800
H  38.75400 6.42200 35.61000
H  40.47500 6.31700 35.08000
H  39.23900 5.57800 34.05500
H  39.84700 10.58000 33.94100
H  41.24400 10.26700 35.08500
H  39.14800 9.07800 36.36800
H  38.27900 10.51100 35.73600
H  35.10300 5.34100 30.61100
H  36.37900 4.61900 31.54400
H  35.90800 3.81700 30.12300
H  34.76500 4.12000 28.29500
H  34.40600 4.72000 26.69000
H  34.53500 5.91400 27.99100
H  40.78000 6.92400 24.76500
H  43.61900 7.12300 25.42800
H  41.69600 4.62400 26.29500
H  42.83500 5.01200 25.03900
H  41.12700 4.62000 24.59900
H  42.01300 8.70800 23.98100
H  43.55700 9.14800 24.59000
H  41.56200 9.95400 26.61100
H  41.29800 10.65700 24.95200
H  42.81400 10.85200 25.86300
H  45.79900 10.75500 28.36800
H  46.87300 9.45500 29.04200
H  46.51300 10.92300 29.93600
H  42.95800 10.87800 33.53200
H  43.54600 9.65800 37.78000
H  45.20000 9.38300 37.11900
H  43.90800 8.18300 36.94100
Mg 29.81900 58.65000 39.04000
C  27.02900 56.70100 38.14800
C  31.85600 56.01500 38.50900
C  32.38300 60.81100 39.13500
C  27.61700 61.35000 39.30200
N  29.46200 56.66000 38.02300
C  28.18700 56.03800 37.92000
C  28.40800 54.57500 37.51500
C  29.83100 54.25500 38.20400
C  30.46300 55.72700 38.25000
C  29.77300 53.57800 39.59100
C  28.41700 54.44700 35.96000
C  27.23300 53.67100 35.30200
H  26.21700 54.48700 34.43700
N  31.97000 58.40600 39.01700
C  32.59600 57.25900 38.73100
C  34.01500 57.46200 38.75700
C  34.26200 58.82400 39.05700
C  32.86800 59.42000 39.01900
C  34.96500 56.34700 38.67700
C  35.51000 59.52600 39.17500
O  36.59500 59.01800 38.99900
C  35.56000 60.92000 39.51100
N  30.02300 60.76300 39.45200
C  31.18200 61.43700 39.29300
C  30.95700 62.96400 39.45200
C  29.48000 63.11600 39.61400
C  29.01400 61.64300 39.45600
C  31.83700 63.58900 40.61200
C  28.75100 64.08000 38.64600
C  28.15300 65.29000 39.18800
N  27.73900 59.05700 38.82400
C  26.98800 60.15100 38.98600
C  25.64700 59.86200 38.85200
C  25.55000 58.56700 38.51900
C  26.87900 58.07300 38.51800
C  24.50900 60.74700 39.22100
C  24.69300 57.47200 38.28000
O  23.47200 57.41900 38.19300
C  25.58300 56.21300 38.01500
C  25.17400 55.10900 38.94400
O  25.32000 55.10700 40.15400
O  24.57700 54.12200 38.19100
C  23.89100 52.95100 38.78400
H  32.44600 55.09700 38.46400
H  33.17100 61.55100 39.28900
H  26.93600 62.16000 39.57400
H  27.57500 53.93100 37.79900
H  30.45000 53.53600 37.66800
H  30.47200 52.74500 39.66800
H  28.78500 53.11900 39.57100
H  29.90000 54.23200 40.45400
H  29.28500 53.84300 35.69700
H  28.55300 55.45500 35.56800
H  26.66300 53.11200 36.04500
H  27.66700 52.88100 34.68800
H  35.92100 56.65500 39.10000
H  35.16300 56.16400 37.62100
H  34.53800 55.47800 39.17800
H  36.57500 61.22700 39.76500
H  34.85800 61.27200 40.26700
H  35.38700 61.48000 38.59200
H  31.26400 63.40200 38.50300
H  29.18900 63.32200 40.64400
H  31.94100 64.66900 40.50300
H  32.82100 63.14000 40.48200
H  31.27300 63.34100 41.51100
H  27.94800 63.61900 38.07100
H  29.51400 64.40800 37.94000
H  28.64200 66.09000 38.63300
H  28.51800 65.42500 40.20700
H  27.07200 65.31900 39.05300
H  24.88700 61.44300 39.97000
H  23.61300 60.17900 39.47200
H  24.24400 61.45900 38.43900
H  25.47900 55.90900 36.97400
H  23.15500 52.46500 38.14300
H  23.31900 53.12500 39.69500
H  24.66500 52.23400 39.06100

