158

Mg 26.80100 51.13600 26.56200
C  24.82800 52.02900 29.21400
C  29.33200 50.22400 28.83100
C  28.65200 49.97500 23.90500
C  24.33900 52.12000 24.32500
N  27.09100 51.29400 28.81100
C  26.02300 51.52700 29.68100
C  26.43600 51.17400 31.10700
C  27.94800 50.85300 30.97600
C  28.20400 50.79700 29.43600
C  28.83100 51.91100 31.64900
C  25.56400 50.05400 31.73100
C  24.84800 50.26300 33.11700
H  25.61900 50.90100 34.29500
N  28.75900 50.27300 26.38000
C  29.55900 49.91900 27.40400
C  30.73300 49.22400 26.86700
C  30.60200 49.12800 25.46100
C  29.24200 49.82900 25.14300
C  31.81500 48.50100 27.67200
C  31.50200 48.48000 24.43300
O  31.10000 48.37700 23.25600
C  32.85800 47.81400 24.63500
N  26.59300 51.22100 24.39800
C  27.44700 50.60100 23.53300
C  26.94500 50.74500 22.07600
C  25.52800 51.38500 22.24000
C  25.44600 51.59500 23.75700
C  27.87400 51.51100 21.12100
C  24.43300 50.38100 21.66000
C  23.32600 51.06500 20.90600
N  25.12300 52.11100 26.61300
C  24.13200 52.41300 25.71800
C  22.97300 52.96600 26.29600
C  23.17400 52.80100 27.66200
C  24.47000 52.23900 27.81100
C  21.81600 53.59000 25.58700
C  22.61200 52.96700 28.94400
O  21.56500 53.48700 29.21700
C  23.58100 52.43700 30.02500
C  23.90800 53.56000 30.97900
O  24.64200 54.44600 30.75100
O  23.13400 53.32700 32.07200
C  23.34100 54.24400 33.23500
H  30.12700 49.94400 29.52500
H  29.20300 49.56900 23.05400
H  23.56000 52.39500 23.61000
H  26.32300 52.07100 31.71600
H  28.11500 49.82700 31.30300
H  28.56300 52.88700 31.24300
H  29.84400 51.60300 31.38900
H  28.81700 51.88600 32.73900
H  26.02500 49.07500 31.86000
H  24.75700 49.97000 31.00200
H  24.35900 49.35600 33.47200
H  24.07200 50.96600 32.81100
H  32.70100 49.11600 27.82700
H  32.07900 47.58200 27.14800
H  31.39500 48.31200 28.66000
H  33.32500 47.66100 23.66200
H  32.73300 46.84500 25.11800
H  33.36600 48.47900 25.33400
H  26.84400 49.71000 21.75000
H  25.38700 52.39000 21.84200
H  27.44500 52.41900 20.69700
H  28.38300 50.84400 20.42600
H  28.62300 51.87800 21.82200
H  24.00800 49.76600 22.45300
H  24.85700 49.70500 20.91700
H  23.12200 50.53500 19.97600
H  23.59400 52.06200 20.55700
H  22.39400 50.96200 21.46100
H  22.14100 54.55500 25.19900
H  21.07800 53.64800 26.38800
H  21.51300 52.84900 24.84600
H  23.01000 51.66300 30.53800
H  23.67200 55.23900 32.93700
H  24.03300 53.77600 33.93500
H  22.40900 54.44800 33.76300
Mg 9.29400 48.75700 26.02600
C  7.00200 48.73900 28.77300
C  11.72800 49.81600 28.17300
C  11.35400 48.72900 23.29400
C  6.54200 48.47000 23.84400
N  9.30000 49.34400 28.27900
C  8.33700 49.11300 29.21400
C  8.82200 49.43500 30.61700
C  10.31500 49.95100 30.32400
C  10.46000 49.75400 28.81300
C  10.77100 51.31700 30.90100
C  8.65300 48.24100 31.61300
C  9.57900 48.13700 32.84100
H  9.01000 47.42200 34.02900
N  11.26500 49.14200 25.78000
C  12.05300 49.62200 26.81100
C  13.38600 49.64400 26.26200
C  13.37300 49.18900 24.87200
C  11.96600 49.00900 24.57700
C  14.60200 50.15700 27.00200
C  14.55300 49.05700 23.85500
O  14.37900 48.84700 22.67500
C  15.89600 49.42800 24.26000
N  8.99400 48.63400 23.88200
C  10.01600 48.52100 22.94800
C  9.51900 48.28400 21.54900
C  8.01400 48.30400 21.75200
C  7.80300 48.49900 23.21200
C  10.10300 49.32600 20.55000
C  7.37500 46.94300 21.17100
C  6.15100 47.09700 20.17700
N  7.27300 48.71300 26.20300
C  6.32900 48.51300 25.24200
C  4.98900 48.41500 25.79100
C  5.25300 48.33800 27.16900
C  6.62600 48.63300 27.42100
C  3.64800 48.24200 25.24200
C  4.56400 48.22900 28.44000
O  3.37700 48.06500 28.66300
C  5.67900 48.52300 29.54600
C  5.83900 47.33100 30.42900
O  6.35200 46.28000 30.12600
O  5.20000 47.53100 31.63900
C  5.21300 46.44100 32.58700
H  12.50400 50.06800 28.89900
H  11.93500 48.62200 22.37600
H  5.67700 48.29600 23.20000
H  8.18900 50.24700 30.97400
H  11.03400 49.30500 30.82900
H  11.40800 51.31700 31.78600
H  9.83800 51.76000 31.24900
H  11.18200 52.07400 30.23300
H  8.48300 47.33500 31.03200
H  7.71000 48.46300 32.11200
H  9.71700 49.18800 33.09700
H  10.52300 47.66800 32.56600
H  14.37900 50.28100 28.06100
H  14.90700 51.11900 26.59000
H  15.44000 49.46000 26.95900
H  16.29700 48.70300 24.96800
H  15.84600 50.35000 24.84000
H  16.41400 49.60500 23.31700
H  9.82000 47.26500 21.30700
H  7.57000 49.01900 21.06000
H  10.72200 50.08400 21.03100
H  9.34200 49.85800 19.97900
H  10.57100 48.77600 19.73400
H  6.99700 46.35500 22.00700
H  8.01500 46.26900 20.60000
H  5.83900 48.13000 20.01900
H  5.28100 46.53500 20.51700
H  6.40900 46.67300 19.20700
H  3.01200 49.09900 25.46500
H  3.33600 47.42300 25.89000
H  3.75600 48.07500 24.17100
H  5.49900 49.44000 30.10700
H  4.92400 46.79800 33.57500
H  6.14500 45.88600 32.69400
H  4.42800 45.73600 32.31200

