158

Mg 1.51300 -1.09400 45.24900
C  5.07700 -0.02200 44.82300
C  0.73200 1.51000 43.24000
C  -1.38000 -2.56100 44.87400
C  2.91200 -4.03300 46.74800
N  2.83200 0.57500 44.13000
C  4.15900 0.79100 44.09000
C  4.50200 1.88200 43.16200
C  3.11100 2.57500 42.93700
C  2.12700 1.48300 43.39800
C  2.89000 3.96200 43.58700
C  5.16500 1.25700 41.89700
C  6.64100 1.64100 41.61100
H  6.87400 2.70700 40.49900
N  -0.13000 -0.51500 44.38300
C  -0.32700 0.63500 43.58600
C  -1.74700 0.67600 43.26100
C  -2.33700 -0.56000 43.63000
C  -1.28200 -1.29200 44.33000
C  -2.29600 1.88100 42.53800
C  -3.74800 -0.93200 43.42500
O  -4.46200 -0.10300 42.91200
C  -4.35400 -2.31000 43.78700
N  0.87400 -2.98300 45.75000
C  -0.41000 -3.32000 45.60800
C  -0.71700 -4.75300 46.06700
C  0.59200 -5.19300 46.70100
C  1.51400 -4.00400 46.43700
C  -2.04400 -4.94600 46.88400
C  1.21200 -6.60200 46.28200
C  1.78700 -7.45600 47.41900
N  3.51300 -1.74800 45.96100
C  3.89700 -3.02500 46.43000
C  5.35100 -3.04000 46.70000
C  5.81300 -1.85100 46.07300
C  4.68700 -1.17400 45.56800
C  6.17800 -4.12900 47.31600
C  7.05300 -1.08200 45.79600
O  8.17100 -1.27900 46.22600
C  6.61200 0.14900 44.97400
C  6.93100 1.39400 45.80000
O  6.68800 1.49800 47.01100
O  7.60100 2.35200 45.08800
C  7.99100 3.53100 45.88000
H  0.44600 2.20100 42.44500
H  -2.28400 -3.15900 44.74200
H  3.27900 -4.96900 47.17400
H  5.17600 2.54200 43.70800
H  2.94900 2.59800 41.85900
H  2.02100 3.90000 44.24100
H  2.68600 4.70800 42.81900
H  3.71300 4.26800 44.23300
H  4.60200 1.52900 41.00400
H  4.97000 0.18500 41.89200
H  6.97400 0.68600 41.20300
H  7.25000 1.75700 42.50700
H  -2.76000 1.56000 41.60600
H  -1.52300 2.60600 42.28100
H  -3.04100 2.28800 43.22100
H  -4.39100 -2.36100 44.87500
H  -3.68300 -3.01800 43.30100
H  -5.38500 -2.31200 43.43200
H  -0.95400 -5.31300 45.16300
H  0.45000 -5.11500 47.77900
H  -2.69700 -4.07400 46.86400
H  -1.75600 -5.26300 47.88700
H  -2.58500 -5.70600 46.32100
H  2.09600 -6.36800 45.68900
H  0.63200 -7.28800 45.66500
H  2.86000 -7.26600 47.39500
H  1.57600 -8.51900 47.30200
H  1.42300 -7.13500 48.39500
H  6.32700 -4.03500 48.39200
H  7.14400 -4.19400 46.81400
H  5.71600 -5.11500 47.26600
H  7.18600 0.17700 44.04700
H  7.16400 3.97000 46.43900
H  8.17100 4.21600 45.05200
H  8.90900 3.31800 46.42700
Mg 49.08700 35.60000 27.79300
C  47.14000 33.89600 30.20900
C  49.65100 38.17700 30.14600
C  50.88400 36.98600 25.46500
C  47.88800 33.15300 25.49300
N  48.51200 35.95100 29.87200
C  47.75000 35.09700 30.65800
C  47.92000 35.60400 32.11100
C  48.21500 37.16000 31.90200
C  48.95300 37.04200 30.57200
C  46.89900 37.95700 31.89000
C  49.04600 34.74100 32.79900
C  48.81500 34.35800 34.27500
H  47.97500 35.26900 35.12600
N  50.01100 37.39600 27.84800
C  50.25000 38.28000 28.85900
C  51.06700 39.39900 28.37700
C  51.44900 39.05000 27.04700
C  50.77200 37.74800 26.72000
C  51.37800 40.59400 29.25200
C  52.43000 39.74800 26.11600
O  52.77200 39.30100 25.05500
C  53.11600 41.01000 26.55500
N  49.24100 35.26000 25.82100
C  50.19200 35.88200 25.06300
C  50.37700 35.26300 23.70600
C  49.62700 33.91300 23.86900
C  48.87100 34.07800 25.15600
C  49.91600 36.15600 22.52300
C  50.35800 32.56900 23.89100
C  50.04400 31.59800 22.82400
N  47.93300 33.76300 27.81500
C  47.51100 32.95500 26.77900
C  46.70000 31.86500 27.36600
C  46.43300 32.22900 28.63100
C  47.18800 33.41000 28.86600
C  46.13300 30.62100 26.67100
C  45.64600 31.91000 29.80200
O  44.96000 30.91700 30.07800
C  46.01500 33.08500 30.83500
C  46.45500 32.45600 32.10800
O  47.46200 31.75600 32.29500
O  45.43300 32.61000 33.03800
C  45.69400 31.96500 34.33500
H  49.77100 39.01800 30.83200
H  51.57300 37.34500 24.69800
H  47.68200 32.41100 24.71800
H  46.94400 35.42800 32.56300
H  48.92200 37.57900 32.61900
H  46.88400 38.53000 32.81600
H  45.96000 37.40300 31.90600
H  46.88100 38.61500 31.02200
H  49.88300 35.42400 32.65800
H  49.23700 33.87300 32.16800
H  49.71900 34.37200 34.88500
H  48.33400 33.38000 34.24000
H  52.31800 40.42200 29.77500
H  50.65500 40.89600 30.01000
H  51.44300 41.48900 28.63200
H  53.49400 40.98200 27.57700
H  52.36400 41.79700 26.50100
H  54.00200 41.33800 26.01100
H  51.42000 34.94600 23.69300
H  48.84000 33.84300 23.11800
H  50.74300 36.27000 21.82300
H  49.56500 37.14700 22.81100
H  49.06500 35.73900 21.98300
H  50.28700 32.07400 24.86000
H  51.41400 32.81300 23.78100
H  51.01100 31.50100 22.33000
H  49.29800 31.97000 22.12100
H  49.67600 30.63200 23.16900
H  46.94200 30.18600 26.08300
H  45.54900 30.87300 25.78600
H  45.64600 29.84200 27.25800
H  45.11000 33.68500 30.92600
H  45.84400 30.90300 34.14100
H  44.90800 32.19000 35.05600
H  46.64000 32.38200 34.68100

