158

Mg 54.07400 24.40200 44.88200
C  51.33600 26.32000 43.65600
C  52.60900 21.65600 43.33600
C  56.79700 22.83400 45.49100
C  55.54900 27.51100 45.72800
N  52.25000 24.11200 43.49500
C  51.29500 25.02400 43.11100
C  50.24000 24.34400 42.12900
C  50.40900 22.80000 42.50800
C  51.84600 22.81300 43.10300
C  49.35400 22.24800 43.45700
C  50.70600 24.65700 40.61500
C  49.50200 24.68200 39.65500
H  49.67200 25.17100 38.24800
N  54.67700 22.49000 44.46500
C  53.90800 21.50800 43.88400
C  54.64800 20.24400 43.95400
C  55.87800 20.57800 44.62700
C  55.85100 22.04700 44.92000
C  54.07400 18.93300 43.53100
C  57.03200 19.51600 44.93800
O  56.93400 18.30900 44.75700
C  58.27200 19.96200 45.67800
N  55.95800 25.11500 45.29400
C  56.93200 24.19000 45.63500
C  58.11500 24.84500 46.35300
C  57.78800 26.41600 46.15800
C  56.38300 26.35500 45.60800
C  58.19500 24.42200 47.80500
C  58.72500 27.20100 45.18000
C  58.23600 27.51200 43.74900
N  53.48600 26.43300 44.93400
C  54.15300 27.54700 45.39700
C  53.18700 28.58300 45.53100
C  52.08800 28.18500 44.80400
C  52.34700 26.87400 44.46300
C  53.25500 29.79100 46.37600
C  50.76500 28.54600 44.35500
O  50.09300 29.52500 44.61300
C  50.21300 27.34300 43.59400
C  49.96400 27.91400 42.27400
O  50.68900 28.71500 41.69900
O  48.89400 27.30600 41.69500
C  48.34800 27.89100 40.48500
H  52.12600 20.75200 42.95900
H  57.74400 22.43700 45.86300
H  55.97000 28.44300 46.11200
H  49.24000 24.71000 42.36300
H  50.27400 22.14900 41.64500
H  48.55100 22.97600 43.57600
H  49.86000 22.02800 44.39600
H  48.88800 21.31500 43.14100
H  51.30200 23.81600 40.26100
H  51.12000 25.66500 40.64900
H  48.69300 25.24400 40.12300
H  49.10100 23.67500 39.54100
H  52.98500 18.98100 43.53500
H  54.46600 18.19500 44.23100
H  54.49900 18.55800 42.60000
H  57.94100 20.45600 46.59200
H  58.92400 20.47100 44.96800
H  58.93600 19.18200 46.05000
H  59.08800 24.62800 45.91300
H  57.60800 26.92600 47.10400
H  58.64700 23.43000 47.79400
H  57.22200 24.35900 48.29100
H  58.90500 25.02900 48.36700
H  59.67200 26.68300 45.03400
H  58.87100 28.20500 45.57800
H  57.57800 26.76200 43.31100
H  59.15800 27.70600 43.20100
H  57.73500 28.47800 43.69100
H  52.28200 29.90400 46.85500
H  53.50400 30.74000 45.90300
H  54.04500 29.63600 47.11000
H  49.28200 27.07900 44.09500
H  47.97900 28.80200 40.95600
H  47.43100 27.46900 40.07400
H  49.08600 28.22200 39.75500
Mg -12.82200 39.36800 42.78100
C  -11.11100 36.36600 41.76100
C  -10.42500 41.10900 41.04000
C  -14.61900 41.99500 43.26100
C  -15.46200 37.22200 43.82600
N  -10.92300 38.71300 41.54700
C  -10.45600 37.43700 41.31700
C  -9.19500 37.52200 40.34000
C  -8.87300 39.06500 40.30600
C  -10.09300 39.70700 40.97900
C  -7.55800 39.51800 40.95400
C  -9.34200 36.87400 38.97700
C  -8.14700 36.02700 38.43600
H  -7.23200 36.75300 37.56900
N  -12.51100 41.31300 42.33000
C  -11.50600 41.85300 41.55100
C  -11.75800 43.26300 41.39000
C  -12.88600 43.60100 42.23200
C  -13.41400 42.29500 42.65700
C  -10.75700 44.25400 40.66700
C  -13.40600 45.04000 42.59200
O  -12.90200 45.97700 41.94300
C  -14.29100 45.25900 43.69600
N  -14.80300 39.52900 43.34300
C  -15.27200 40.80600 43.58100
C  -16.58000 40.75700 44.35300
C  -16.82300 39.19300 44.63900
C  -15.63500 38.63000 43.87500
C  -16.73100 41.71900 45.56700
C  -18.17800 38.69200 44.14400
C  -19.12100 38.41200 45.43300
N  -13.23200 37.20400 42.77600
C  -14.34800 36.53700 43.22200
C  -14.07700 35.12700 43.29800
C  -12.79800 34.99700 42.67500
C  -12.37200 36.29200 42.42800
C  -14.94700 34.07200 43.90900
C  -11.74600 34.05000 42.38600
O  -11.72600 32.79600 42.49000
C  -10.67700 34.90800 41.66000
C  -9.33100 34.62800 42.20800
O  -8.90000 35.00300 43.25000
O  -8.78200 33.48900 41.60600
C  -7.53900 32.88200 42.13000
H  -9.65000 41.65600 40.49900
H  -15.17900 42.91100 43.46300
H  -16.29200 36.57400 44.11500
H  -8.42100 36.88700 40.77100
H  -8.74600 39.39100 39.27400
H  -7.13600 38.78000 41.63700
H  -7.63600 40.35100 41.65200
H  -6.88900 39.83400 40.15300
H  -9.36800 37.62100 38.18400
H  -10.28600 36.33600 38.88300
H  -8.64100 35.22400 37.88900
H  -7.74300 35.38000 39.21500
H  -10.29100 45.05400 41.24200
H  -11.25300 44.73200 39.82200
H  -9.83100 43.85200 40.25600
H  -15.32500 45.34200 43.36000
H  -14.14100 46.23100 44.16600
H  -14.12000 44.54600 44.50200
H  -17.37100 41.09700 43.68500
H  -16.69300 38.99700 45.70400
H  -16.82700 41.26000 46.55100
H  -17.65700 42.27000 45.40900
H  -15.91600 42.44100 45.62300
H  -18.03800 37.77900 43.56600
H  -18.64700 39.44600 43.51300
H  -20.05900 38.92700 45.22700
H  -18.72100 39.01300 46.25000
H  -19.23500 37.38700 45.78700
H  -15.21000 34.47100 44.88900
H  -14.69200 33.01500 43.97700
H  -15.90600 34.23500 43.41700
H  -10.65900 34.56900 40.62400
H  -6.68800 33.54200 42.29600
H  -7.17800 32.21900 41.34500
H  -7.72400 32.31300 43.04200

