158

Mg 49.17200 34.73400 26.69000
C  47.34500 33.65700 29.35200
C  49.02900 38.04100 27.87100
C  50.77300 35.93000 23.95000
C  48.28400 31.75000 25.03000
N  48.24400 35.65200 28.45200
C  47.76700 34.95600 29.52000
C  47.47500 35.88700 30.73900
C  47.65700 37.31700 30.05400
C  48.35600 37.01900 28.68400
C  46.39500 38.24100 29.99100
C  48.30400 35.60200 32.03500
C  47.52400 35.17400 33.26900
H  47.03200 36.29900 34.22300
N  49.96400 36.61000 26.12600
C  49.83900 37.82200 26.76200
C  50.80200 38.74500 26.17400
C  51.42500 38.08500 25.09200
C  50.73100 36.84900 25.00500
C  50.89500 40.13400 26.63100
C  52.47300 38.55500 24.11700
O  52.93100 37.87000 23.23200
C  52.93200 39.96400 24.24300
N  49.31200 33.99400 24.60200
C  50.10700 34.65400 23.70600
C  50.21100 33.79700 22.41100
C  49.58300 32.42800 22.83700
C  49.07300 32.68200 24.26900
C  49.64200 34.38100 21.12200
C  50.50200 31.26300 22.61800
C  49.95200 30.06400 21.72200
N  47.94200 33.05100 26.99700
C  47.75000 31.91600 26.32400
C  47.06300 30.92600 27.08100
C  46.87300 31.56800 28.29000
C  47.37700 32.88100 28.17800
C  46.61700 29.58700 26.65900
C  46.27200 31.41300 29.67600
O  45.66300 30.47500 30.13600
C  46.61000 32.79000 30.45300
C  47.48500 32.48900 31.58300
O  48.71300 32.38300 31.52700
O  46.72700 32.17800 32.64600
C  47.31900 31.34500 33.64200
H  48.87800 39.07800 28.17800
H  51.27400 36.33000 23.06600
H  48.17300 30.77700 24.54800
H  46.42300 35.77200 30.99700
H  48.40000 37.85300 30.64400
H  46.63800 39.04900 30.68100
H  45.53700 37.74200 30.44100
H  46.25000 38.63600 28.98500
H  48.88700 36.47300 32.33400
H  49.00000 34.79600 31.80200
H  48.18600 34.50500 33.82100
H  46.61600 34.61600 33.04000
H  50.38400 40.75600 25.89700
H  51.88800 40.55100 26.79800
H  50.33900 40.30600 27.55300
H  53.40900 40.07500 25.21700
H  52.23000 40.79600 24.18400
H  53.73100 40.18300 23.53400
H  51.29000 33.72100 22.27600
H  48.63800 32.23200 22.33200
H  48.64500 33.97300 20.95600
H  50.14800 34.17000 20.18000
H  49.58800 35.46200 21.25400
H  50.88300 30.88400 23.56700
H  51.37100 31.57400 22.03700
H  49.56600 30.51500 20.80800
H  49.20000 29.41900 22.17700
H  50.89400 29.53000 21.59300
H  47.40700 28.91000 26.33200
H  45.92700 29.69200 25.82100
H  46.10900 29.10000 27.49200
H  45.74900 33.40500 30.71300
H  47.25100 30.32900 33.25400
H  46.76000 31.52200 34.56000
H  48.36200 31.55700 33.87900
Mg 35.31000 48.51200 25.77800
C  35.76600 46.53700 28.70600
C  34.43200 51.12600 27.63700
C  34.69400 50.09700 22.87800
C  36.22800 45.64700 23.98500
N  35.15800 48.76300 27.92000
C  35.50200 47.88200 28.97900
C  35.48600 48.60300 30.31400
C  34.71600 50.01100 29.91500
C  34.79500 50.00300 28.39500
C  33.29200 50.04400 30.44900
C  36.90600 48.78600 31.06100
C  36.88200 48.57500 32.65600
H  35.54900 48.77400 33.38300
N  34.66100 50.35600 25.32400
C  34.40800 51.37100 26.25200
C  34.14000 52.64300 25.58200
C  34.23800 52.32500 24.17800
C  34.58900 50.88600 24.09000
C  33.86800 53.99900 26.42100
C  34.05300 53.25900 22.95800
O  34.20600 52.92600 21.78800
C  33.74400 54.64900 23.26600
N  35.09300 47.87800 23.76500
C  34.87500 48.69600 22.69200
C  34.95800 48.00300 21.31800
C  35.45600 46.55800 21.71700
C  35.60000 46.66600 23.22700
C  33.61600 48.02400 20.57100
C  36.82600 46.12500 21.15000
C  38.05200 46.97900 21.60000
N  35.85700 46.49500 26.17000
C  36.27000 45.44200 25.34000
C  36.69900 44.29100 26.11500
C  36.38400 44.64900 27.42200
C  35.93600 46.00200 27.40400
C  37.38100 43.02200 25.54000
C  36.42900 44.12600 28.77300
O  36.73700 43.04600 29.23600
C  36.04000 45.33200 29.62400
C  34.88600 44.97100 30.57000
O  33.74200 44.71700 30.25800
O  35.37800 44.91100 31.82900
C  34.34300 44.52300 32.83900
H  34.35400 51.99600 28.29300
H  34.61300 50.56200 21.89300
H  36.74600 44.85800 23.43600
H  34.79200 48.10700 30.99300
H  35.38900 50.81000 30.22600
H  32.92500 51.06800 30.37000
H  33.35900 49.85300 31.52000
H  32.76500 49.25300 29.91500
H  37.36000 49.74000 30.79100
H  37.56900 48.05900 30.59300
H  37.34300 49.31700 33.30900
H  37.24000 47.59800 32.97700
H  32.91000 54.50900 26.31700
H  34.70000 54.60700 26.06700
H  34.22400 53.86900 27.44300
H  34.55700 55.11600 23.82200
H  32.83900 54.57600 23.86900
H  33.53000 55.33100 22.44300
H  35.73100 48.51900 20.74800
H  34.74300 45.76200 21.50000
H  32.86700 48.48500 21.21400
H  33.28700 47.02800 20.27200
H  33.75600 48.63600 19.68000
H  36.74400 46.15800 20.06400
H  37.06500 45.09800 21.42400
H  38.45000 46.52100 22.50600
H  37.71600 47.98700 21.84500
H  38.76600 47.02700 20.77800
H  37.70700 43.06700 24.50100
H  36.82700 42.12000 25.80000
H  38.28800 42.89900 26.13200
H  36.95500 45.58200 30.16100
H  34.01800 43.49200 32.69700
H  33.45800 45.14000 32.68200
H  34.70000 44.59800 33.86700

