158

Mg -2.16900 17.06000 26.83300
C  -2.90500 14.87100 29.57700
C  -2.68200 19.66000 29.03000
C  -1.76800 19.09600 24.33200
C  -2.35700 14.26300 24.74000
N  -2.79300 17.21000 29.06200
C  -2.86000 16.21100 30.03500
C  -2.83200 16.81800 31.41500
C  -3.01200 18.37500 31.21800
C  -2.80500 18.42300 29.64300
C  -4.38100 19.06000 31.64800
C  -1.61800 16.28300 32.20500
C  -1.13800 17.08100 33.33200
H  -0.57600 16.30700 34.51000
N  -2.17500 19.04400 26.74300
C  -2.37700 19.96200 27.69500
C  -2.13600 21.35900 27.18800
C  -1.81800 21.19100 25.82500
C  -1.90700 19.77500 25.58500
C  -2.44000 22.55800 27.98100
C  -1.56500 22.20700 24.75300
O  -1.55400 22.02400 23.51200
C  -1.32400 23.59700 25.26500
N  -2.43700 16.74000 24.75100
C  -2.01300 17.77000 23.92100
C  -1.71700 17.26700 22.47800
C  -1.87800 15.74200 22.64300
C  -2.20500 15.55200 24.16900
C  -2.76300 17.87400 21.45700
C  -0.73500 14.85700 22.13400
C  -0.71200 14.87400 20.57500
N  -2.53900 15.00000 27.01600
C  -2.50500 13.95700 26.09200
C  -2.73400 12.68100 26.74500
C  -2.92700 13.03500 28.06000
C  -2.80700 14.44600 28.23400
C  -2.77400 11.39600 25.99100
C  -3.13000 12.41300 29.34200
O  -3.25600 11.27200 29.69300
C  -3.16400 13.59800 30.42300
C  -2.04100 13.29400 31.35300
O  -0.86900 13.59800 31.14700
O  -2.43200 12.60400 32.49900
C  -1.28900 12.25200 33.38100
H  -2.73500 20.47900 29.75000
H  -1.54400 19.71200 23.45800
H  -2.33500 13.41900 24.04800
H  -3.69800 16.34500 31.87800
H  -2.20400 18.86200 31.76500
H  -5.05500 18.20600 31.58100
H  -4.80400 19.79700 30.96500
H  -4.37400 19.54400 32.62500
H  -0.79000 16.12300 31.51400
H  -1.89700 15.34500 32.68600
H  -1.79200 17.84200 33.75700
H  -0.24500 17.60500 32.99000
H  -3.38800 22.46900 28.51100
H  -2.53400 23.54500 27.52900
H  -1.60300 22.57400 28.67900
H  -0.67000 23.88400 24.44200
H  -0.83100 23.65100 26.23600
H  -2.24200 24.17900 25.18400
H  -0.71300 17.54900 22.16200
H  -2.69500 15.28800 22.08200
H  -3.29300 18.76900 21.78500
H  -3.46200 17.06600 21.24500
H  -2.27100 18.12200 20.51700
H  -0.86600 13.85900 22.55100
H  0.24400 15.13000 22.53100
H  -0.95100 13.88300 20.19000
H  0.30100 14.99000 20.19100
H  -1.28700 15.59500 19.99400
H  -1.79900 11.35200 25.50600
H  -3.57300 11.28300 25.25900
H  -2.63400 10.69900 26.81800
H  -4.09200 13.77500 30.96500
H  -0.61900 13.11100 33.43900
H  -0.72500 11.44200 32.91900
H  -1.68300 12.01300 34.36900
Mg 37.31100 50.38600 25.56300
C  37.56900 48.05700 28.43500
C  36.11100 52.71500 27.72000
C  36.53500 52.24600 22.90900
C  37.90800 47.58300 23.56800
N  36.96400 50.31000 27.80700
C  37.16400 49.37000 28.76000
C  36.95500 49.95900 30.19800
C  36.35600 51.36400 29.88100
C  36.54100 51.50500 28.33000
C  34.87700 51.59500 30.39200
C  38.35800 50.01600 31.03900
C  38.17200 49.73600 32.54300
H  36.77000 49.93400 33.19800
N  36.52600 52.23800 25.39100
C  36.04700 53.01200 26.36400
C  35.51700 54.24000 25.73800
C  35.74400 54.15900 24.28700
C  36.25500 52.87500 24.15600
C  34.90300 55.32500 26.57600
C  35.39500 55.16700 23.14300
O  35.69600 54.93900 21.98200
C  34.57900 56.41600 23.47300
N  37.12800 49.96900 23.53700
C  36.93400 50.92900 22.58500
C  37.01600 50.34900 21.17300
C  37.43500 48.85600 21.43600
C  37.45400 48.79300 22.94500
C  35.76200 50.59400 20.27900
C  38.72700 48.46000 20.63600
C  40.07900 48.73600 21.31900
N  37.84400 48.28700 25.87200
C  38.05100 47.31000 24.94500
C  38.39200 46.05900 25.58300
C  38.25000 46.34300 26.95100
C  37.86100 47.71000 27.08300
C  38.72000 44.74400 24.95100
C  38.28700 45.72900 28.25200
O  38.49600 44.57800 28.60400
C  37.93000 46.85800 29.28100
C  36.80800 46.51900 30.08200
O  35.63400 46.44100 29.75700
O  37.25900 46.02300 31.30400
C  36.23300 45.69500 32.34000
H  35.82900 53.50700 28.41600
H  36.44900 52.71000 21.92400
H  38.10200 46.77900 22.85500
H  36.22700 49.32300 30.70100
H  36.98300 52.06400 30.43400
H  34.41800 50.61200 30.49900
H  34.22000 52.00900 29.62700
H  34.80300 52.18700 31.30400
H  38.89800 50.95500 30.92200
H  39.09400 49.31000 30.65500
H  38.93200 50.26900 33.11300
H  38.43600 48.68900 32.68900
H  33.99200 55.79400 26.20500
H  35.54500 56.20400 26.62700
H  34.79100 54.95500 27.59500
H  33.59100 56.02700 23.71900
H  34.52300 57.10100 22.62800
H  35.02700 56.92400 24.32700
H  37.83800 50.76800 20.59100
H  36.60500 48.19000 21.20100
H  35.16700 49.69300 20.42800
H  35.94800 50.74500 19.21500
H  35.15600 51.47300 20.49800
H  38.76300 48.99400 19.68700
H  38.74800 47.37300 20.55500
H  40.59300 49.62600 20.95400
H  40.71600 47.86600 21.15800
H  40.16400 48.81600 22.40300
H  38.88900 43.95700 25.68700
H  39.60700 44.80000 24.32000
H  37.95000 44.36600 24.27800
H  38.82000 47.03400 29.88600
H  35.24600 45.82200 31.89500
H  36.12600 46.21500 33.29200
H  36.28400 44.63200 32.57500

