158

Mg 2.37100 -1.55600 44.97200
C  5.80600 -1.15000 44.06200
C  1.65500 1.07600 42.82800
C  -0.78900 -2.48900 44.93400
C  3.25800 -4.69900 46.35200
N  3.59000 -0.18000 43.71900
C  5.00600 -0.19600 43.49300
C  5.34300 0.80900 42.43900
C  4.06100 1.71400 42.37000
C  3.03000 0.81400 43.03100
C  4.18400 3.10200 43.08900
C  5.82100 0.12000 41.11200
C  5.02000 -0.18000 39.83000
H  5.17100 0.79500 38.61900
N  0.60900 -0.70000 44.16600
C  0.53100 0.38000 43.34400
C  -0.87700 0.64100 43.06000
C  -1.72000 -0.34500 43.73200
C  -0.64500 -1.24600 44.30500
C  -1.32100 1.83700 42.26000
C  -3.27700 -0.35500 43.69600
O  -3.98100 0.56600 43.21500
C  -3.90100 -1.56400 44.23300
N  1.34900 -3.33300 45.41600
C  0.04000 -3.44800 45.43600
C  -0.58000 -4.76500 45.97000
C  0.77100 -5.45800 46.49800
C  1.86700 -4.48000 46.07200
C  -1.51300 -4.55600 47.13400
C  1.04200 -6.87700 45.92600
C  0.72800 -7.96500 46.92800
N  4.15800 -2.69200 45.30800
C  4.32300 -3.88800 45.95400
C  5.79900 -4.22300 46.01000
C  6.37000 -3.08100 45.33200
C  5.32000 -2.21400 44.94100
C  6.46000 -5.47600 46.55500
C  7.62000 -2.56400 44.90200
O  8.75800 -2.93300 45.11800
C  7.34100 -1.23200 44.12200
C  8.07300 -0.13000 44.87200
O  7.89800 0.21200 45.98700
O  8.78000 0.63500 43.93000
C  9.46600 1.79600 44.56600
H  1.45600 2.06600 42.41400
H  -1.73800 -3.00600 44.78300
H  3.46600 -5.66200 46.82300
H  6.12400 1.37700 42.94500
H  3.79100 1.85400 41.32300
H  5.20400 3.44500 43.26400
H  3.57800 3.19700 43.99000
H  3.66000 3.66200 42.31600
H  6.13600 -0.89900 41.33500
H  6.63900 0.75400 40.76900
H  3.98400 -0.18700 40.16900
H  5.21100 -1.21400 39.53900
H  -1.68700 1.70500 41.24200
H  -0.48900 2.54200 42.25200
H  -2.03200 2.35500 42.90300
H  -3.49400 -2.40900 43.67800
H  -4.98200 -1.41900 44.22300
H  -3.65300 -1.67700 45.28900
H  -1.08900 -5.40500 45.24900
H  0.76800 -5.45200 47.58800
H  -0.98800 -4.34400 48.06500
H  -2.12000 -5.44800 47.29200
H  -2.18800 -3.71700 46.96800
H  2.06100 -6.87100 45.54000
H  0.28500 -6.98200 45.14900
H  0.40800 -7.54000 47.88000
H  1.58100 -8.62600 47.07800
H  -0.05400 -8.60000 46.51300
H  7.21600 -5.83600 45.85800
H  5.67100 -6.21600 46.69200
H  6.92300 -5.33000 47.53000
H  7.86000 -1.35000 43.17100
H  8.87400 2.44600 45.21100
H  9.93500 2.36000 43.75900
H  10.19600 1.51500 45.32500
Mg -9.96400 17.18100 42.52200
C  -6.47900 16.79600 42.28400
C  -9.51500 20.43100 41.63300
C  -13.30500 17.50800 42.39300
C  -10.17200 13.69700 42.67800
N  -8.05200 18.44800 41.97000
C  -6.78700 18.12100 41.97000
C  -5.89300 19.39800 41.62700
C  -6.90600 20.60700 41.54600
C  -8.27800 19.82300 41.78900
C  -6.62500 21.89700 42.35400
C  -5.05300 19.21500 40.38500
C  -5.56700 18.20800 39.27600
H  -4.88100 18.50100 37.85900
N  -11.29200 18.76400 42.18100
C  -10.85700 19.98800 41.82300
C  -12.05300 20.80200 41.56400
C  -13.25600 20.05800 41.86900
C  -12.69200 18.74000 42.27000
C  -11.90300 22.19000 41.00100
C  -14.72600 20.48700 41.82700
O  -15.13900 21.58900 41.37000
C  -15.86300 19.59800 42.20900
N  -11.47200 15.72200 42.29000
C  -12.81700 16.18100 42.33800
C  -13.75200 14.93800 42.63800
C  -12.72600 13.81700 42.59000
C  -11.36400 14.43500 42.56600
C  -14.47100 15.12300 44.05800
C  -12.97500 12.73700 41.45500
C  -13.04300 11.23600 41.87900
N  -8.60300 15.52900 42.65400
C  -8.86900 14.15900 42.74400
C  -7.66100 13.41800 42.82900
C  -6.68100 14.41400 42.74100
C  -7.25500 15.69300 42.54500
C  -7.46600 11.94300 42.88100
C  -5.32600 14.63600 42.71500
O  -4.30000 13.91300 42.73000
C  -5.15800 16.16800 42.49300
C  -4.31700 16.65900 43.71000
O  -3.15700 17.02900 43.60800
O  -5.09600 16.72100 44.83400
C  -4.52400 17.60600 45.86700
H  -9.26600 21.47200 41.41600
H  -14.38000 17.33200 42.47600
H  -10.30900 12.61700 42.76500
H  -5.25900 19.58500 42.49300
H  -6.90500 20.93900 40.50800
H  -5.59500 21.90300 42.71200
H  -7.28000 21.92200 43.22500
H  -6.79600 22.69800 41.63500
H  -4.00000 19.14700 40.66000
H  -4.96800 20.10300 39.75800
H  -6.65400 18.15700 39.20500
H  -5.25900 17.19900 39.54900
H  -11.16200 22.09700 40.20700
H  -11.40700 22.93900 41.61800
H  -12.89900 22.44400 40.63800
H  -15.99100 18.87400 41.40400
H  -16.74900 20.19500 42.42300
H  -15.61000 19.14300 43.16700
H  -14.47500 14.88800 41.82400
H  -12.63000 13.29400 43.54100
H  -14.45000 14.16800 44.58300
H  -15.44300 15.48100 43.71700
H  -13.93300 15.85600 44.65900
H  -12.19000 12.89600 40.71600
H  -13.90400 13.02900 40.96500
H  -13.98500 10.71700 41.69800
H  -12.76500 11.07600 42.92100
H  -12.23300 10.70700 41.37700
H  -8.34900 11.34300 42.66000
H  -6.96400 11.56200 43.77000
H  -6.66400 11.66300 42.20000
H  -4.62300 16.48300 41.59700
H  -3.85900 18.34200 45.41500
H  -4.03000 17.12900 46.71300
H  -5.24300 18.25700 46.36400

