158

Mg 41.57200 8.15800 30.21400
C  43.26200 9.54500 32.83400
C  39.34200 6.74300 32.61400
C  39.89600 6.76000 27.68800
C  43.99800 9.10800 28.05500
N  41.41500 8.10300 32.39700
C  42.11100 8.87000 33.24400
C  41.70600 8.79600 34.66800
C  40.45000 7.89700 34.56100
C  40.41800 7.46100 33.13800
C  40.37800 6.72500 35.55700
C  41.37100 10.14500 35.44100
C  42.09100 10.32800 36.72500
H  41.36100 10.93700 37.85900
N  39.93500 6.97600 30.16800
C  39.08400 6.60400 31.19700
C  37.93300 5.95400 30.63000
C  38.01700 6.03200 29.19700
C  39.37200 6.57400 28.96100
C  36.89300 5.30200 31.44200
C  36.99100 5.57700 28.14600
O  37.24500 5.66800 26.94700
C  35.57300 5.30800 28.53800
N  41.93000 7.86800 28.18600
C  41.01500 7.41200 27.29100
C  41.45600 7.46100 25.86500
C  42.81100 8.26500 25.99800
C  42.91900 8.49100 27.46000
C  41.69900 6.00000 25.28600
C  42.85900 9.55500 25.11200
C  42.13400 10.80200 25.57800
N  43.42300 9.04900 30.35700
C  44.27700 9.42200 29.39200
C  45.36100 10.23300 30.00300
C  44.98500 10.31500 31.38500
C  43.79200 9.58800 31.53500
C  46.65400 10.75300 29.34100
C  45.36300 10.82700 32.64900
O  46.39300 11.36800 32.98700
C  44.22200 10.40800 33.67700
C  44.94000 9.53000 34.65000
O  45.36000 8.41100 34.49200
O  45.18200 10.22200 35.84700
C  45.68200 9.38200 36.94000
H  38.44100 6.61100 33.21600
H  39.40300 6.25800 26.85300
H  44.66700 9.65100 27.38400
H  42.42700 8.19700 35.22400
H  39.61000 8.49500 34.91500
H  41.11300 6.86800 36.34900
H  40.59800 5.74400 35.13700
H  39.44300 6.74900 36.11700
H  40.29000 10.28600 35.42100
H  41.77900 10.95200 34.83300
H  42.95900 10.98400 36.66200
H  42.53200 9.40100 37.09000
H  37.27100 5.14400 32.45200
H  36.64800 4.30200 31.08300
H  36.04400 5.98500 31.44600
H  35.51900 4.60200 29.36700
H  35.04200 4.96000 27.65200
H  35.11700 6.25700 28.82200
H  40.68100 7.93300 25.26100
H  43.68000 7.61900 25.86800
H  42.74000 5.86500 24.99100
H  41.03600 5.83900 24.43700
H  41.44200 5.26400 26.04800
H  42.44200 9.39500 24.11700
H  43.91300 9.79200 24.96500
H  42.71200 11.72700 25.59600
H  41.48400 10.57100 26.42200
H  41.47200 10.91400 24.72000
H  46.51400 10.70900 28.26100
H  47.54700 10.24500 29.70300
H  46.87500 11.77100 29.66100
H  43.79100 11.35200 34.01200
H  45.42300 9.89600 37.86600
H  46.73900 9.16300 36.78800
H  45.05100 8.49400 36.96900
Mg 48.08700 34.00100 26.48000
C  46.45800 32.84400 29.17600
C  48.98900 36.88800 28.17800
C  49.53000 35.23500 23.65100
C  47.03600 31.23300 24.63600
N  47.70300 34.77900 28.41500
C  47.17100 34.01700 29.45600
C  47.23800 34.76200 30.71400
C  47.78100 36.19900 30.33700
C  48.19200 35.97100 28.90000
C  46.65700 37.23100 30.35900
C  48.32400 34.04100 31.62400
C  48.31500 34.32100 33.10100
H  47.11700 35.12500 33.65900
N  49.12800 35.90700 25.96200
C  49.42300 36.90600 26.86700
C  50.28800 37.82600 26.15300
C  50.42500 37.33600 24.85000
C  49.70700 36.10200 24.76700
C  50.92700 39.03800 26.81100
C  51.25800 37.93800 23.67700
O  51.32100 37.42000 22.55500
C  52.16300 39.19500 23.92100
N  48.37400 33.29300 24.51400
C  49.01500 33.98300 23.56300
C  49.05900 33.29800 22.21100
C  48.59000 31.85300 22.59000
C  47.90000 32.10100 23.92500
C  48.24300 33.94600 21.07400
C  49.59400 30.69500 22.68300
C  50.02600 30.00200 21.40900
N  46.86400 32.42600 26.70300
C  46.56300 31.36200 25.90900
C  45.71300 30.46500 26.73200
C  45.57600 31.07500 27.92800
C  46.38300 32.19700 27.89200
C  45.05700 29.11900 26.36000
C  45.03800 30.83600 29.25000
O  44.55500 29.78100 29.64600
C  45.45100 32.08000 30.15500
C  45.86000 31.67500 31.49500
O  46.87400 31.04600 31.75200
O  44.87500 31.99500 32.35500
C  44.77000 31.22000 33.60700
H  49.29000 37.80500 28.68800
H  50.07500 35.48300 22.73700
H  46.72600 30.28800 24.18700
H  46.33400 34.88000 31.31200
H  48.63400 36.58900 30.89300
H  45.93000 37.09600 29.55800
H  47.17100 38.17400 30.17500
H  46.14900 37.27300 31.32300
H  49.19000 34.59700 31.26500
H  48.46700 32.98600 31.38800
H  49.28100 34.62500 33.50300
H  48.24100 33.33600 33.56100
H  50.37300 39.84300 26.32900
H  51.99800 39.10500 26.62100
H  50.69400 39.05400 27.87500
H  52.52200 39.38100 22.90900
H  52.95000 38.93500 24.62900
H  51.56400 40.05000 24.23300
H  50.06100 33.30700 21.78100
H  47.89100 31.38100 21.89900
H  47.40100 33.33300 20.75100
H  48.91100 34.14300 20.23600
H  47.76200 34.85800 21.43000
H  49.19000 29.98300 23.40300
H  50.41900 31.14500 23.23600
H  49.51600 30.48400 20.57500
H  49.71500 28.96800 21.56300
H  51.10300 30.16500 21.43200
H  44.38200 29.24200 25.51400
H  44.54900 28.67500 27.21600
H  45.79500 28.37100 26.07200
H  44.53300 32.66400 30.21700
H  45.31800 30.28300 33.69900
H  43.70500 31.10900 33.81200
H  45.13400 31.82000 34.44100

