158

Mg 41.46900 9.32600 29.83500
C  43.39200 10.55300 32.47500
C  39.34600 7.94600 32.18600
C  39.58100 8.24700 27.25200
C  43.90700 10.28100 27.59700
N  41.48400 9.09200 32.14100
C  42.27200 9.86500 32.94100
C  41.82400 9.81900 34.36200
C  40.65000 8.77400 34.28000
C  40.43200 8.57900 32.81300
C  41.04600 7.40100 34.86500
C  41.50500 11.21200 34.92400
C  40.39100 11.36800 36.03000
H  40.92000 11.89000 37.34300
N  39.73800 8.18100 29.74600
C  39.00700 7.74600 30.85100
C  37.83000 6.98100 30.34700
C  37.90100 7.11800 28.91900
C  39.11600 7.82100 28.60200
C  36.84600 6.27400 31.29500
C  36.83200 6.72500 27.89800
O  36.90100 6.90200 26.65000
C  35.66000 6.08900 28.49100
N  41.65000 9.25600 27.75900
C  40.66500 9.04000 26.92600
C  41.15300 9.11700 25.44900
C  42.40600 10.01400 25.52500
C  42.71700 9.78800 27.02900
C  41.50300 7.77200 24.85200
C  42.14100 11.45800 25.10900
C  41.19600 12.34400 25.89200
N  43.34000 10.10600 29.93800
C  44.21600 10.52400 28.96200
C  45.40200 11.04900 29.51600
C  45.09200 11.12300 30.89400
C  43.80100 10.58000 31.08800
C  46.51800 11.73400 28.83400
C  45.53000 11.59100 32.15200
O  46.55200 12.15100 32.54600
C  44.46900 11.21900 33.21200
C  45.16700 10.31200 34.19100
O  45.40000 9.10800 34.05700
O  45.58500 11.11600 35.26600
C  46.32300 10.41100 36.27300
H  38.62900 7.62300 32.94500
H  39.05600 7.79900 26.40600
H  44.71600 10.65900 26.96900
H  42.63600 9.47700 35.00300
H  39.64000 9.10500 34.52100
H  40.20300 6.80000 35.20600
H  41.77900 7.52500 35.66200
H  41.45900 6.79500 34.05800
H  41.16000 11.85900 34.11800
H  42.45200 11.63200 35.26600
H  39.91000 10.42200 36.27800
H  39.63200 12.07800 35.70300
H  35.83800 6.68900 31.26000
H  37.18800 6.37900 32.32400
H  36.86500 5.24400 30.94100
H  35.97500 5.17800 29.00100
H  34.91600 5.85800 27.72800
H  35.11600 6.76700 29.14900
H  40.43200 9.62300 24.80700
H  43.26800 9.60800 24.99600
H  42.47600 7.81100 24.36100
H  40.77700 7.52700 24.07700
H  41.54700 6.96100 25.57900
H  41.74500 11.31800 24.10300
H  43.08200 11.99500 24.99200
H  40.75100 11.85700 26.75900
H  40.38900 12.64500 25.22400
H  41.59500 13.31000 26.20100
H  46.89800 12.50300 29.50700
H  46.52600 12.04900 27.79100
H  47.21800 10.89900 28.82400
H  44.13700 12.11300 33.74000
H  47.31600 10.11200 35.93600
H  45.79800 9.54100 36.66900
H  46.52200 11.06600 37.12100
Mg -4.38800 25.50100 26.02300
C  -3.48200 27.34900 28.98600
C  -6.32600 23.57200 28.08100
C  -5.01300 23.75800 23.37500
C  -2.23100 27.57000 24.25100
N  -4.78700 25.40900 28.25500
C  -4.32500 26.23900 29.28000
C  -5.03700 25.89300 30.55900
C  -5.75000 24.50000 30.31600
C  -5.54400 24.42100 28.80400
C  -5.08800 23.29700 31.06200
C  -5.89900 27.12700 31.06900
C  -6.51900 26.90600 32.45100
H  -6.02300 25.86500 33.51400
N  -5.56200 23.92100 25.72300
C  -6.35700 23.31100 26.67100
C  -7.15900 22.32700 26.00500
C  -6.71300 22.24900 24.66200
C  -5.70300 23.27700 24.53200
C  -8.17500 21.48100 26.75600
C  -7.26800 21.42400 23.52400
O  -6.85700 21.51000 22.37000
C  -8.40900 20.53500 23.77100
N  -3.66000 25.56400 24.13200
C  -4.10400 24.78200 23.17700
C  -3.35500 25.04800 21.84800
C  -2.77800 26.43600 22.12600
C  -2.87200 26.51700 23.60300
C  -2.31300 23.93700 21.51400
C  -3.63900 27.55000 21.37900
C  -3.04700 27.93300 20.06100
N  -3.15800 27.28300 26.49200
C  -2.24700 27.97100 25.64400
C  -1.61700 29.08200 26.39200
C  -2.04600 28.88300 27.73500
C  -2.91100 27.74700 27.72600
C  -0.71000 30.18300 25.83300
C  -2.00300 29.40200 29.10600
O  -1.42100 30.37700 29.56100
C  -2.89100 28.38500 29.98800
C  -2.02500 27.69200 30.93800
O  -1.02700 27.09200 30.59400
O  -2.54900 27.67400 32.22000
C  -1.87500 26.84000 33.18800
H  -6.92100 22.88100 28.68100
H  -5.28000 23.13600 22.51900
H  -1.64800 28.27000 23.64900
H  -4.24200 25.73400 31.28700
H  -6.81500 24.43900 30.53800
H  -4.32000 22.84500 30.43500
H  -5.80200 22.52200 31.34100
H  -4.67300 23.53600 32.04100
H  -6.69200 27.14700 30.32100
H  -5.25700 28.00300 31.16100
H  -7.58600 26.85400 32.23800
H  -6.32200 27.84400 32.97100
H  -9.10400 21.44600 26.18700
H  -8.45600 21.87500 27.73300
H  -7.76000 20.48300 26.89800
H  -8.31700 19.82400 24.59200
H  -8.41600 19.95800 22.84600
H  -9.34000 21.09600 23.85600
H  -4.10900 25.06500 21.06100
H  -1.74400 26.62900 21.84100
H  -1.24900 24.16400 21.44800
H  -2.71700 23.56100 20.57400
H  -2.36800 23.11500 22.22700
H  -3.76300 28.38600 22.06800
H  -4.60200 27.08300 21.17200
H  -3.73600 27.78400 19.23000
H  -2.27300 27.18500 19.88900
H  -2.70500 28.96700 20.03500
H  -0.24200 29.79200 24.92900
H  0.13300 30.41500 26.48400
H  -1.31400 31.08200 25.71000
H  -3.69400 28.89200 30.52300
H  -2.44000 26.71800 34.11200
H  -0.90900 27.28200 33.43500
H  -1.91500 25.82100 32.80300

