158

Mg 35.64400 2.77700 29.41200
C  33.65500 3.95700 32.11100
C  38.22800 2.44000 31.46500
C  37.36000 2.15400 26.69000
C  32.72800 3.27900 27.38100
N  35.87400 3.32400 31.59300
C  34.91200 3.59300 32.54900
C  35.51700 3.57500 33.90000
C  37.03500 3.25400 33.63500
C  37.00800 2.84800 32.14600
C  37.96900 4.45500 33.95100
C  34.76600 2.64400 34.90000
C  34.32900 3.24100 36.27700
H  35.30000 4.16800 36.93900
N  37.57200 2.25100 29.12900
C  38.57500 2.21700 30.07200
C  39.84400 1.83500 29.49200
C  39.56300 1.75700 28.04000
C  38.10600 2.03300 27.88900
C  41.07700 1.54100 30.23200
C  40.37700 1.37100 26.85000
O  39.92800 1.09700 25.77000
C  41.86300 1.14700 27.15900
N  35.15700 2.74100 27.34300
C  36.07100 2.46700 26.41700
C  35.44700 2.39100 25.01600
C  33.97400 2.70600 25.29600
C  33.95000 2.90900 26.77400
C  36.08200 3.21800 23.92300
C  32.93000 1.58200 24.78100
C  31.62900 2.18000 24.17500
N  33.62100 3.60100 29.56300
C  32.58400 3.70400 28.68900
C  31.43100 4.35400 29.39900
C  31.81900 4.39700 30.68900
C  33.15200 3.97300 30.79100
C  30.02500 4.50200 28.95800
C  31.29900 4.76500 31.96200
O  30.26600 5.24500 32.38900
C  32.52600 4.43400 33.01900
C  32.77800 5.74700 33.77300
O  33.55600 6.60300 33.47100
O  31.95500 5.81000 34.86700
C  31.93700 7.04400 35.66300
H  39.00900 2.28000 32.21200
H  37.92000 1.92500 25.78100
H  31.81600 3.35100 26.78500
H  35.46400 4.61300 34.23000
H  37.39700 2.38500 34.18400
H  37.57800 5.24200 34.59600
H  38.04100 4.96800 32.99200
H  38.92600 4.11100 34.34200
H  35.40500 1.77200 35.03900
H  33.84400 2.31500 34.42000
H  34.24500 2.38900 36.95200
H  33.38100 3.75100 36.10700
H  41.44300 0.58000 29.87300
H  40.99800 1.38700 31.30800
H  41.75400 2.38900 30.12400
H  42.19700 2.01300 27.73000
H  42.24400 1.25200 26.14400
H  42.05600 0.18700 27.63900
H  35.63500 1.32800 24.86900
H  33.76200 3.69800 24.89600
H  35.25600 3.70700 23.40600
H  36.67200 2.61600 23.23300
H  36.68500 4.02200 24.34600
H  32.51200 0.91400 25.53500
H  33.37300 1.01600 23.96200
H  30.81900 1.85100 24.82600
H  31.45100 1.92900 23.12900
H  31.61100 3.27000 24.18300
H  29.75600 3.60500 28.40100
H  29.67400 5.41700 28.48100
H  29.21100 4.43500 29.68000
H  32.09600 3.70200 33.70200
H  32.82200 7.68000 35.64800
H  31.85100 6.55000 36.63100
H  31.03600 7.62900 35.48000
Mg 6.43600 53.20400 40.73800
C  5.90500 49.65100 40.29300
C  9.63800 52.64800 39.57700
C  6.62400 56.44500 40.44500
C  3.01500 53.41400 41.31800
N  7.59200 51.32300 39.85900
C  7.21000 49.98700 39.90700
C  8.44400 49.01800 39.76800
C  9.63500 50.03600 39.87100
C  8.91300 51.42900 39.64600
C  10.23400 49.92600 41.28500
C  8.46100 48.15500 38.49900
C  8.35500 48.89600 37.19400
H  7.48600 48.19500 36.09800
N  7.95100 54.43300 40.00200
C  9.18600 54.03000 39.63400
C  9.90600 55.18800 39.28900
C  9.02500 56.33300 39.45100
C  7.78800 55.79300 40.03200
C  11.40600 55.17000 38.97500
C  9.38500 57.74600 39.10000
O  10.52100 57.98100 38.65700
C  8.54300 58.99600 39.25400
N  4.99200 54.67500 40.83400
C  5.39300 55.95600 40.81600
C  4.18400 56.94000 41.02900
C  3.04900 55.95600 41.18700
C  3.68300 54.59000 40.97400
C  4.38900 57.88200 42.32800
C  1.92800 56.26700 40.14600
C  0.58300 56.75300 40.74300
N  4.81800 51.82500 40.97400
C  3.49700 52.04600 41.17800
C  2.71400 50.85600 41.39300
C  3.67600 49.89200 41.06100
C  4.90000 50.50000 40.74800
C  1.22500 50.68400 41.73000
C  3.83200 48.42700 40.96400
O  3.06100 47.53400 41.08500
C  5.32000 48.26600 40.39400
C  5.18000 47.61500 39.05300
O  4.75200 48.03100 37.98400
O  5.45700 46.35900 39.24400
C  5.08100 45.37300 38.20900
H  10.71000 52.47000 39.68700
H  6.77000 57.52300 40.53900
H  2.02600 53.43700 41.78100
H  8.55400 48.26900 40.55200
H  10.27400 49.97100 38.99100
H  11.16400 49.39700 41.07500
H  9.59100 49.38400 41.97900
H  10.57900 50.90900 41.60400
H  7.65600 47.44400 38.68500
H  9.42800 47.65100 38.48200
H  9.31800 49.19400 36.78200
H  7.88200 49.84900 37.43000
H  11.45200 55.24200 37.88800
H  11.82200 54.23000 39.33900
H  11.96500 56.01400 39.37900
H  8.87700 59.87800 38.70800
H  8.47600 59.34000 40.28600
H  7.54300 58.96700 38.82200
H  4.19600 57.51600 40.10400
H  2.66000 55.92900 42.20500
H  5.38200 57.76200 42.76100
H  3.74400 57.71900 43.19200
H  4.35700 58.91500 41.98100
H  1.61400 55.39700 39.56900
H  2.08800 56.99800 39.35400
H  0.82800 57.67600 41.26700
H  0.12100 56.01800 41.40300
H  -0.10600 56.98100 39.93000
H  0.74800 51.32300 40.98600
H  1.17900 51.11000 42.73200
H  0.81300 49.68500 41.58900
H  5.92000 47.67600 41.08800
H  5.96800 44.85600 37.84400
H  4.58900 45.78800 37.33000
H  4.51800 44.53200 38.61400

