158

Mg -3.13500 16.94200 26.85400
C  -3.79800 14.73300 29.38400
C  -3.65700 19.59300 29.07200
C  -2.76900 19.22000 24.36300
C  -3.19200 14.40400 24.51600
N  -3.67800 17.09400 28.94900
C  -3.79600 16.05500 29.79300
C  -3.92600 16.56300 31.29100
C  -4.01300 18.14400 31.14100
C  -3.72000 18.34800 29.60500
C  -5.41400 18.75600 31.57900
C  -2.65300 16.16600 32.15000
C  -2.07400 17.01100 33.29400
H  -1.57600 16.19100 34.49000
N  -3.02700 19.06100 26.73600
C  -3.29900 19.94600 27.78700
C  -3.09300 21.32300 27.30500
C  -2.55700 21.21200 26.00400
C  -2.78500 19.78100 25.60600
C  -3.27000 22.51700 28.23400
C  -1.99300 22.26400 25.04300
O  -1.73900 22.06400 23.88200
C  -1.69600 23.57100 25.63900
N  -3.01100 16.75500 24.73400
C  -2.78200 17.86500 23.94000
C  -2.76900 17.47700 22.46100
C  -2.73500 15.91300 22.54900
C  -2.95200 15.63000 24.02200
C  -3.89900 18.15100 21.68300
C  -1.44700 15.14300 22.12100
C  -0.19600 15.54700 22.91700
N  -3.52100 15.02500 26.87300
C  -3.54400 14.08300 25.87000
C  -3.88800 12.80300 26.41500
C  -4.00300 13.00500 27.83100
C  -3.79000 14.38900 28.02500
C  -4.17700 11.56100 25.70000
C  -4.08200 12.29800 29.08200
O  -4.10200 11.12100 29.31800
C  -3.98600 13.45300 30.17700
C  -2.82200 13.09500 31.01400
O  -1.61700 13.11200 30.78900
O  -3.37700 12.52500 32.15100
C  -2.42100 11.94300 33.10400
H  -3.78000 20.39800 29.79900
H  -2.56800 19.86600 23.50600
H  -3.29200 13.56000 23.83100
H  -4.78000 16.01100 31.68400
H  -3.30600 18.75300 31.70300
H  -5.40900 19.64600 32.20900
H  -6.15000 17.99200 31.83000
H  -5.91600 19.26000 30.75200
H  -1.75000 16.02400 31.55500
H  -2.99700 15.22200 32.57300
H  -2.77400 17.77200 33.64000
H  -1.18200 17.51800 32.92600
H  -2.35400 22.70600 28.79400
H  -4.07700 22.41000 28.96000
H  -3.49300 23.38800 27.61700
H  -1.22400 23.35500 26.59800
H  -2.53300 24.26400 25.72200
H  -1.02800 24.21300 25.06500
H  -1.83600 17.90500 22.09400
H  -3.63400 15.56100 22.04200
H  -4.11800 19.10200 22.16800
H  -4.73800 17.46300 21.78500
H  -3.54900 18.22900 20.65400
H  -1.28200 15.38200 21.07100
H  -1.72200 14.08900 22.12000
H  0.38100 16.35400 22.46400
H  0.31800 14.60100 22.75000
H  -0.41000 15.85300 23.94100
H  -3.25900 10.99000 25.55700
H  -4.53400 11.67300 24.67600
H  -4.90300 11.02300 26.30900
H  -4.84400 13.64500 30.82100
H  -1.65800 11.36600 32.58100
H  -2.97500 11.18500 33.65900
H  -1.92700 12.59500 33.82300
Mg 16.16200 -1.80900 27.30500
C  15.08600 0.21000 29.91700
C  18.31200 -3.36800 29.45800
C  17.53900 -3.23300 24.71600
C  14.19000 0.34900 25.10500
N  16.63300 -1.52000 29.41000
C  16.00500 -0.79400 30.35000
C  16.67300 -0.88700 31.74000
C  17.80600 -1.96600 31.50500
C  17.59600 -2.31600 29.98900
C  19.25800 -1.54200 31.80400
C  15.72500 -1.09800 32.91200
C  16.05700 -0.63000 34.35900
H  17.55100 -0.41200 34.75100
N  17.66300 -3.25900 27.11900
C  18.44400 -3.77800 28.12800
C  19.33800 -4.78200 27.56800
C  19.03600 -4.84100 26.17700
C  18.05800 -3.74200 25.93800
C  20.37800 -5.44000 28.39900
C  19.60700 -5.76700 25.17900
O  19.35800 -5.70600 24.02300
C  20.50100 -6.89300 25.47700
N  15.93700 -1.48600 25.19200
C  16.51500 -2.31000 24.29800
C  16.12700 -2.04200 22.83700
C  15.05000 -0.88000 23.04500
C  15.04100 -0.64300 24.56500
C  17.34600 -1.54900 22.00100
C  13.59700 -1.32700 22.49700
C  13.10500 -0.43100 21.28500
N  14.81000 -0.15300 27.48000
C  14.09100 0.53700 26.51900
C  13.31000 1.54700 27.13200
C  13.64000 1.47000 28.47100
C  14.59100 0.42100 28.61500
C  12.37600 2.38000 26.32300
C  13.47000 1.97900 29.76800
O  12.87500 2.98600 30.25900
C  14.38100 1.18900 30.74400
C  15.21700 2.19900 31.48300
O  16.20400 2.76700 31.02500
O  14.68100 2.38200 32.72700
C  15.26400 3.59600 33.33900
H  18.90000 -3.90800 30.20300
H  17.78400 -3.80000 23.81600
H  13.49800 0.82000 24.40300
H  17.06100 0.10800 31.95700
H  17.60800 -2.82000 32.15300
H  19.72100 -2.24200 32.49900
H  19.38400 -0.49800 32.09100
H  19.90900 -1.67900 30.94000
H  15.69300 -2.18000 33.03700
H  14.71700 -0.78600 32.63900
H  15.61400 -1.35800 35.04000
H  15.67200 0.36300 34.59500
H  21.36700 -5.22400 27.99300
H  20.12500 -6.47800 28.61500
H  20.40500 -5.00200 29.39700
H  20.52800 -7.61200 24.65900
H  20.06000 -7.28800 26.39300
H  21.52900 -6.57300 25.65100
H  15.71800 -2.96900 22.43600
H  15.34300 -0.02600 22.43400
H  17.37000 -0.46200 22.07600
H  17.36200 -1.85700 20.95600
H  18.29100 -1.83900 22.46000
H  12.89200 -1.24100 23.32400
H  13.50900 -2.39400 22.29100
H  12.33900 0.27400 21.60800
H  12.73300 -1.18100 20.58700
H  13.94700 0.02000 20.76000
H  12.13200 3.27800 26.89100
H  11.47400 1.79200 26.15500
H  12.72400 2.85000 25.40300
H  13.66600 0.74800 31.43800
H  15.42100 4.46500 32.70000
H  16.21300 3.34000 33.80900
H  14.60000 3.74400 34.19100

