158

Mg 47.83200 15.29900 27.61100
C  45.68500 15.20200 30.28600
C  49.81400 17.53600 29.21100
C  49.64100 15.37500 24.85500
C  45.24800 13.40900 25.86600
N  47.73000 16.31500 29.38300
C  46.86500 15.92100 30.47300
C  47.29300 16.57000 31.84300
C  48.46700 17.54300 31.31700
C  48.66300 17.21400 29.87500
C  48.17700 19.05700 31.61700
C  47.80000 15.41900 32.83400
C  47.50200 15.67100 34.34200
H  48.82900 16.07000 35.08000
N  49.50800 16.26800 27.12900
C  50.23400 17.08000 27.95700
C  51.49600 17.24300 27.31300
C  51.51900 16.55200 26.08600
C  50.20100 16.02800 25.97700
C  52.68800 18.09800 27.95100
C  52.54700 16.39100 25.06200
O  52.41400 15.76000 24.02900
C  53.91400 17.02900 25.30400
N  47.47900 14.58500 25.66700
C  48.39100 14.76100 24.69800
C  47.85000 14.41900 23.34800
C  46.71200 13.39300 23.74400
C  46.40400 13.76500 25.23100
C  47.34900 15.59400 22.56100
C  47.05000 11.89800 23.48100
C  47.35000 11.10100 24.70400
N  45.79700 14.43800 27.93000
C  44.92000 13.69800 27.18000
C  43.85200 13.28600 27.98100
C  44.06000 13.82100 29.30400
C  45.27300 14.53200 29.15000
C  42.67400 12.46700 27.50500
C  43.62300 13.99500 30.66700
O  42.63200 13.52300 31.18600
C  44.61100 14.92900 31.37800
C  43.80000 16.05900 31.94600
O  43.72500 17.20200 31.41900
O  43.21400 15.69000 33.17800
C  42.71600 16.83600 33.99700
H  50.54300 18.12500 29.77100
H  50.18900 15.38700 23.91100
H  44.58400 12.73200 25.32400
H  46.45200 17.07900 32.31500
H  49.34600 17.26100 31.89600
H  48.34700 19.73100 30.77800
H  48.80700 19.33600 32.46100
H  47.17100 19.30200 31.95800
H  48.88300 15.29800 32.84600
H  47.42200 14.44800 32.51400
H  47.14600 14.76500 34.83400
H  46.80800 16.50700 34.42500
H  53.63600 17.58700 27.78200
H  52.62600 18.28100 29.02400
H  52.75800 19.10800 27.54800
H  53.81600 18.08400 25.56300
H  54.62700 16.90800 24.48900
H  54.27500 16.41600 26.12900
H  48.54700 13.82000 22.76400
H  45.87200 13.66400 23.10500
H  46.29200 15.75100 22.77200
H  47.40600 15.51700 21.47600
H  47.86700 16.51100 22.84400
H  47.77800 11.77700 22.67900
H  46.17400 11.41400 23.04800
H  47.71000 10.10900 24.43200
H  46.48500 11.08000 25.36700
H  48.12600 11.67600 25.20800
H  42.12100 12.01700 28.33000
H  42.91200 11.73300 26.73600
H  42.11800 13.28100 27.04000
H  45.00300 14.32500 32.19700
H  41.62800 16.78000 34.02900
H  43.00700 17.83900 33.68500
H  43.09500 16.66500 35.00500
Mg 7.07700 53.81000 40.95400
C  6.63800 50.24300 40.52400
C  10.13400 53.50000 39.73300
C  7.04400 57.05200 40.33500
C  3.45000 53.80900 41.57700
N  8.21400 52.06800 40.16600
C  7.91400 50.75800 40.16400
C  9.14700 49.87600 39.76900
C  10.29900 50.88800 40.00200
C  9.48300 52.27800 39.94600
C  11.15700 50.78200 41.25500
C  9.06000 49.28500 38.34900
C  8.81100 50.25100 37.23200
H  7.41700 50.31600 36.52100
N  8.41600 55.15800 40.20200
C  9.67100 54.81700 39.80500
C  10.36900 56.02800 39.40800
C  9.51100 57.15600 39.55500
C  8.28700 56.51000 40.10600
C  11.78600 56.01400 38.95100
C  9.81900 58.65600 39.26900
O  10.90300 59.02200 38.79800
C  8.80000 59.78600 39.54000
N  5.42800 55.16700 40.81900
C  5.77000 56.45900 40.71800
C  4.52500 57.31000 40.85200
C  3.36700 56.25100 41.11400
C  4.10400 54.92000 41.09500
C  4.64600 58.41700 41.89300
C  2.17400 56.35500 40.12600
C  0.87300 56.58000 40.94400
N  5.36500 52.35300 41.21200
C  4.01400 52.48900 41.52900
C  3.42300 51.21500 41.67200
C  4.36900 50.34900 41.32000
C  5.53600 51.00900 40.98100
C  2.00500 50.98500 42.12500
C  4.71400 48.94000 41.22000
O  4.04500 47.98900 41.58800
C  6.14300 48.74300 40.65600
C  5.94900 48.06900 39.34000
O  5.43000 48.55000 38.36400
O  6.50600 46.79300 39.40900
C  6.27600 45.88400 38.25500
H  11.13600 53.40500 39.30800
H  7.03400 58.13000 40.15500
H  2.41900 53.97700 41.89600
H  9.20400 49.03700 40.46300
H  10.94500 50.93800 39.12500
H  10.88600 49.89900 41.83300
H  10.97400 51.62700 41.91900
H  12.19900 50.68100 40.95000
H  8.24900 48.55700 38.30600
H  9.91300 48.64900 38.11000
H  9.54700 49.97200 36.47700
H  9.03900 51.28500 37.49000
H  12.24200 57.00400 38.98400
H  11.98900 55.43100 38.05300
H  12.30700 55.46900 39.73800
H  7.85200 59.68200 39.01100
H  9.26400 60.71100 39.19700
H  8.51300 59.85100 40.59000
H  4.35900 57.76400 39.87500
H  3.02400 56.31000 42.14700
H  3.94500 58.27000 42.71500
H  4.72000 59.36700 41.36500
H  5.64300 58.33700 42.32500
H  2.00000 55.44300 39.55400
H  2.32700 57.22300 39.48500
H  0.87000 56.16700 41.95300
H  0.05900 56.00400 40.50500
H  0.63800 57.64400 40.93200
H  1.52500 50.53100 41.25800
H  1.47200 51.90900 42.35300
H  2.00500 50.34200 43.00500
H  6.82400 48.12900 41.24600
H  7.20700 46.03500 37.70900
H  5.39000 45.98500 37.62700
H  6.38800 44.87100 38.64200

