158

Mg 2.27800 -1.47400 43.58100
C  5.73800 -0.90200 43.44300
C  1.75400 1.32400 41.62300
C  -0.97300 -2.44500 43.28700
C  3.01800 -4.60400 45.18200
N  3.61500 -0.06500 42.48000
C  4.99700 0.04500 42.64200
C  5.54700 1.14400 41.70300
C  4.29100 2.02700 41.50900
C  3.14100 1.03300 41.82200
C  4.22500 3.49800 41.95700
C  6.12600 0.56100 40.37000
C  7.46400 1.21800 39.96000
H  7.70200 1.47400 38.45600
N  0.66200 -0.56500 42.76300
C  0.62600 0.56100 42.01300
C  -0.72400 0.87900 41.73400
C  -1.55100 -0.09500 42.21200
C  -0.62600 -1.16600 42.72600
C  -1.27500 2.19900 41.03100
C  -3.07400 -0.18300 42.12700
O  -3.70000 0.83500 41.81100
C  -3.90800 -1.28100 42.49900
N  1.21300 -3.31300 44.02000
C  -0.15100 -3.44700 43.88700
C  -0.58300 -4.83300 44.22000
C  0.63600 -5.44200 44.97500
C  1.71900 -4.42200 44.58800
C  -1.95700 -4.93000 44.96900
C  1.08600 -6.86800 44.40800
C  1.49400 -7.77500 45.63300
N  4.02200 -2.63700 44.09000
C  4.12900 -3.82000 44.88300
C  5.50800 -4.01300 45.25500
C  6.15000 -2.84700 44.73600
C  5.22600 -2.10100 44.02600
C  6.11500 -5.12900 45.87300
C  7.40800 -2.12500 44.65500
O  8.48500 -2.44000 45.15100
C  7.22500 -0.87100 43.81000
C  7.55200 0.31400 44.65000
O  6.79500 0.87700 45.41400
O  8.79800 0.81000 44.25100
C  9.04100 2.21200 44.69600
H  1.38700 2.25800 41.19100
H  -2.02200 -2.70900 43.13300
H  3.23200 -5.35800 45.94200
H  6.26300 1.80300 42.19400
H  4.24300 2.26900 40.44700
H  4.27300 4.21900 41.14100
H  5.06200 3.74900 42.60900
H  3.27000 3.45600 42.48000
H  5.44500 0.70200 39.53000
H  6.18800 -0.52200 40.48400
H  8.26100 0.60000 40.37500
H  7.55300 2.14800 40.52200
H  -1.87900 1.83200 40.20200
H  -0.50500 2.91000 40.73100
H  -2.01300 2.67400 41.67700
H  -4.93900 -0.94500 42.39200
H  -3.64700 -1.68600 43.47700
H  -3.79500 -2.10600 41.79500
H  -0.62500 -5.39200 43.28500
H  0.44900 -5.31400 46.04200
H  -2.58600 -4.05600 44.80200
H  -1.71200 -4.91800 46.03100
H  -2.49000 -5.86400 44.78700
H  1.87600 -6.82300 43.65900
H  0.18200 -7.38900 44.09300
H  2.50800 -8.10200 45.40700
H  0.78600 -8.60400 45.60500
H  1.56500 -7.19500 46.55300
H  6.39600 -5.90300 45.15800
H  5.35700 -5.60900 46.49200
H  6.93200 -4.78000 46.50500
H  7.89300 -0.91100 42.95000
H  10.04600 2.45600 44.35100
H  8.99500 2.32100 45.78000
H  8.38700 2.98400 44.29000
Mg 35.83600 48.86700 25.39700
C  35.90300 46.64100 28.25300
C  34.76100 51.28500 27.53700
C  35.25400 50.79400 22.64400
C  36.49800 46.09500 23.34600
N  35.28200 48.88200 27.65900
C  35.48300 47.92900 28.67000
C  35.38100 48.55900 30.03900
C  34.86100 50.06300 29.73100
C  34.98900 50.06500 28.15300
C  33.40400 50.37500 30.21300
C  36.79500 48.53500 30.76200
C  36.80400 48.17000 32.28900
H  35.52100 48.14300 33.15400
N  35.18900 50.80800 25.10300
C  34.83500 51.66800 26.14600
C  34.38600 52.88700 25.61100
C  34.44600 52.76000 24.17100
C  34.94600 51.42200 23.87300
C  33.79300 53.98700 26.46000
C  34.07400 53.75500 23.06600
O  34.17300 53.48000 21.91100
C  33.61500 55.11800 23.38300
N  35.92200 48.51500 23.33300
C  35.70400 49.46600 22.37100
C  36.00600 48.85300 20.96500
C  36.44100 47.41500 21.23400
C  36.26300 47.36100 22.76200
C  34.82400 48.99500 19.89300
C  37.91400 47.02600 20.84900
C  38.11200 45.84200 19.93000
N  36.11700 46.82500 25.69000
C  36.44300 45.80600 24.79800
C  36.72800 44.57200 25.42100
C  36.46300 44.89800 26.80700
C  36.12100 46.21500 26.92300
C  37.31500 43.22600 24.81000
C  36.46200 44.33700 28.14200
O  36.74600 43.19400 28.42700
C  36.12300 45.40100 29.15900
C  34.86500 45.05600 29.81500
O  33.85200 44.93900 29.20300
O  35.04300 44.65700 31.18800
C  33.76300 44.23100 31.84000
H  34.47900 52.06200 28.25000
H  35.24000 51.39500 21.73200
H  36.69300 45.09200 22.96100
H  34.65000 47.89600 30.50000
H  35.51200 50.90300 29.97300
H  32.99600 49.50400 30.72700
H  32.81500 50.72600 29.36600
H  33.52400 51.19100 30.92600
H  37.15600 49.54300 30.55700
H  37.39800 47.75000 30.30400
H  37.47200 48.94100 32.67300
H  37.42700 47.28200 32.39200
H  32.71500 53.98300 26.30100
H  34.28000 54.92200 26.18100
H  33.82400 53.77200 27.52800
H  33.74500 55.79200 22.53600
H  34.15100 55.47700 24.26200
H  32.56700 55.04200 23.67300
H  36.85500 49.38800 20.54000
H  35.80600 46.61900 20.84500
H  35.16500 49.31900 18.91000
H  34.00100 49.61600 20.24900
H  34.33600 48.02600 19.78900
H  38.57600 47.13400 21.70800
H  38.34900 47.78700 20.20100
H  39.18400 45.72400 19.77200
H  37.54000 46.07100 19.03100
H  37.65400 44.99700 20.44300
H  36.66100 42.66400 24.14400
H  37.65000 42.61700 25.65000
H  38.22300 43.42200 24.23900
H  36.88600 45.51100 29.93000
H  33.24700 45.09100 32.26700
H  34.12000 43.58000 32.63700
H  33.13100 43.59200 31.22300

