158

Mg -1.12900 43.96100 25.17900
C  1.28500 43.51700 27.57300
C  -3.59500 43.36300 27.60000
C  -3.38900 43.74900 22.77400
C  1.44700 44.24500 22.80600
N  -1.13300 43.40100 27.32300
C  -0.02800 43.53200 28.09500
C  -0.39000 43.50100 29.59200
C  -1.93700 43.26300 29.61000
C  -2.26500 43.34100 28.06200
C  -2.30900 41.97500 30.31700
C  -0.05800 44.79200 30.33600
C  0.12000 44.66300 31.85800
H  0.17000 43.26500 32.49500
N  -3.20000 43.62300 25.19800
C  -4.02000 43.37300 26.29900
C  -5.44900 43.24600 25.84000
C  -5.36700 43.26900 24.41000
C  -3.97500 43.52200 24.02900
C  -6.70900 43.18900 26.76000
C  -6.52300 43.17700 23.41700
O  -6.38400 43.49200 22.28300
C  -7.95200 42.74400 23.84900
N  -0.97300 44.15700 23.12900
C  -2.06800 43.92200 22.35300
C  -1.67600 43.90500 20.80100
C  -0.21700 44.48700 20.89700
C  0.15200 44.35000 22.33700
C  -1.94100 42.59500 19.98800
C  0.07400 45.92300 20.26500
C  -0.01900 47.16900 21.10300
N  0.94000 43.84500 25.10900
C  1.87300 44.01900 24.08900
C  3.22200 43.83700 24.62400
C  3.01600 43.65800 26.00300
C  1.68400 43.69400 26.17900
C  4.42000 43.74700 23.81000
C  3.69900 43.29600 27.28000
O  4.83800 43.00900 27.53700
C  2.56500 43.27300 28.35800
C  2.58400 41.94700 29.09500
O  1.97100 40.93400 28.77300
O  3.44900 41.95800 30.14300
C  3.67400 40.68100 30.78700
H  -4.40000 43.44300 28.33300
H  -4.09400 43.56000 21.96200
H  2.28100 44.28500 22.10200
H  0.12400 42.61500 29.96600
H  -2.41800 44.15300 30.01700
H  -3.11800 41.49800 29.76400
H  -2.75000 42.20700 31.28600
H  -1.49400 41.26400 30.45800
H  -0.78400 45.59800 30.22400
H  0.89300 45.15500 29.94700
H  -0.40300 45.52300 32.27500
H  1.04200 45.16500 32.14800
H  -6.48700 43.69200 27.70200
H  -6.98700 42.17200 27.03500
H  -7.56700 43.68600 26.30800
H  -8.68700 43.50400 24.11400
H  -7.85700 42.02000 24.65900
H  -8.40100 42.22800 23.00000
H  -2.33600 44.63400 20.33100
H  0.45100 43.77500 20.41300
H  -2.48000 41.95800 20.69000
H  -0.93700 42.26900 19.71400
H  -2.45300 42.86000 19.06300
H  -0.62000 46.03600 19.43300
H  1.08600 45.78300 19.88500
H  0.84800 47.80600 20.92800
H  -0.03800 46.91900 22.16400
H  -0.93500 47.73400 20.93100
H  4.51700 42.67600 23.63000
H  5.37900 43.96900 24.27700
H  4.37000 44.06000 22.76700
H  2.63200 44.02200 29.14800
H  3.92800 39.88300 30.09000
H  2.82500 40.45000 31.43100
H  4.54700 40.85400 31.41700
Mg -3.28400 34.32500 26.83200
C  -3.90600 32.36700 29.68800
C  -1.80800 36.73000 28.86400
C  -3.31000 36.54600 24.34100
C  -5.04300 32.07800 24.89500
N  -2.90800 34.45600 28.95900
C  -3.16300 33.50400 29.91500
C  -2.67800 33.93200 31.41100
C  -2.07300 35.32100 31.01600
C  -2.27400 35.55800 29.52500
C  -2.37600 36.54100 31.98700
C  -1.82100 32.91800 32.25500
C  -2.26000 32.54000 33.65200
H  -1.21300 32.56100 34.75300
N  -2.49200 36.30200 26.57200
C  -1.93300 37.12000 27.51700
C  -1.50700 38.40400 26.91700
C  -1.96100 38.35400 25.55500
C  -2.63800 37.01300 25.42500
C  -0.84100 39.44100 27.70300
C  -1.86100 39.41900 24.48100
O  -2.32600 39.27200 23.37300
C  -1.21400 40.77200 24.76600
N  -4.32500 34.37100 24.98300
C  -4.06200 35.38000 24.10800
C  -4.49100 35.06300 22.65100
C  -4.89800 33.56200 22.84000
C  -4.67500 33.26500 24.33900
C  -5.58500 35.96200 21.96300
C  -4.12200 32.63700 21.85100
C  -2.73800 32.03800 22.32100
N  -4.31900 32.58800 27.11400
C  -5.02600 31.76700 26.20600
C  -5.47300 30.65400 26.97200
C  -5.08100 30.87900 28.34300
C  -4.39300 32.08900 28.37200
C  -6.29800 29.53900 26.38600
C  -5.13100 30.36400 29.69500
O  -5.68300 29.34300 30.17100
C  -4.34200 31.32900 30.63600
C  -5.33100 31.89900 31.55900
O  -6.11600 32.74600 31.27500
O  -5.12900 31.49900 32.89300
C  -6.21300 31.81700 33.85700
H  -1.51500 37.45900 29.62300
H  -3.03200 37.17200 23.49100
H  -5.50400 31.36400 24.20900
H  -3.59400 34.06700 31.98500
H  -0.99300 35.18000 30.97000
H  -2.73400 36.26400 32.97800
H  -3.30800 37.01200 31.67700
H  -1.62800 37.32500 32.11200
H  -0.82000 33.34100 32.33300
H  -1.77600 32.03400 31.62000
H  -2.48100 31.47500 33.57900
H  -3.09800 33.18900 33.90700
H  -0.23300 39.00400 28.49500
H  -1.59700 40.03500 28.21600
H  -0.14200 39.97900 27.06100
H  -2.01200 41.32000 25.26800
H  -1.09000 41.30100 23.82100
H  -0.22100 40.77600 25.21600
H  -3.63200 35.18600 21.99100
H  -5.96600 33.44200 22.65600
H  -5.89300 36.68000 22.72400
H  -6.49700 35.48600 21.60400
H  -5.15000 36.54700 21.15400
H  -4.01500 33.08800 20.86400
H  -4.72700 31.76000 21.62000
H  -2.56500 32.12100 23.39400
H  -1.91500 32.46800 21.75000
H  -2.72400 30.96800 22.11500
H  -5.82000 29.15200 25.48600
H  -7.27000 29.97600 26.15600
H  -6.36000 28.79800 27.18300
H  -3.53600 30.80000 31.14400
H  -7.10400 32.10100 33.29700
H  -5.96100 32.53000 34.64200
H  -6.55600 30.90100 34.33800

