158

Mg 36.53000 49.66000 25.51200
C  36.73700 47.86000 28.37800
C  35.60000 52.48000 27.38100
C  36.12900 51.37000 22.61900
C  37.76800 46.97900 23.69400
N  36.08400 50.13100 27.66600
C  36.37600 49.18000 28.70500
C  36.59200 49.86800 30.01800
C  36.10100 51.31700 29.68600
C  35.80400 51.35700 28.19500
C  34.75300 51.68200 30.51300
C  38.08300 49.77400 30.50800
C  38.36300 49.70600 32.00600
H  37.17700 49.55300 32.96700
N  35.92600 51.69000 25.06700
C  35.61300 52.63900 25.99600
C  35.18500 53.85900 25.26800
C  35.31300 53.62400 23.89600
C  35.73800 52.17700 23.80800
C  34.80100 55.15600 25.97800
C  35.07400 54.49500 22.73000
O  35.31000 54.12100 21.55200
C  34.77300 55.93300 22.85800
N  36.78600 49.19300 23.42500
C  36.58100 50.05500 22.42900
C  36.90800 49.44800 21.06800
C  37.67800 48.26000 21.46600
C  37.39400 48.12100 22.93700
C  35.64800 49.15700 20.23000
C  39.16500 48.29800 21.10100
C  40.15800 47.09100 21.35700
N  36.99000 47.69800 25.87200
C  37.43100 46.75600 25.05300
C  37.65300 45.53500 25.81800
C  37.48000 45.88800 27.19400
C  36.99400 47.25400 27.13300
C  37.97800 44.30900 25.18900
C  37.48300 45.46000 28.61000
O  37.64400 44.39100 29.17200
C  37.00700 46.71900 29.40600
C  35.79900 46.37300 30.22900
O  34.63200 46.63500 29.92700
O  36.17000 45.73400 31.33800
C  35.19400 45.39900 32.38000
H  35.44400 53.42200 27.91200
H  36.04400 51.80300 21.62100
H  38.20700 46.19800 23.06900
H  35.86200 49.38500 30.66800
H  36.83000 52.03800 30.05800
H  34.50000 50.96600 31.29400
H  33.94300 51.83400 29.80000
H  34.76100 52.57300 31.14000
H  38.58100 50.64300 30.07800
H  38.52100 48.94100 29.95700
H  39.03900 50.48000 32.36700
H  38.88800 48.78600 32.26300
H  35.51600 55.94300 25.74100
H  34.76300 55.08700 27.06500
H  33.83200 55.54300 25.66100
H  34.59800 56.37700 21.87800
H  35.64100 56.42200 23.30000
H  33.89600 56.04100 23.49600
H  37.46400 50.15300 20.44900
H  37.25100 47.30400 21.16300
H  34.85100 48.63800 20.76400
H  35.90900 48.61300 19.32200
H  35.30200 50.14400 19.92200
H  39.42100 49.18600 21.67900
H  39.27000 48.67200 20.08300
H  40.84800 47.00500 20.51800
H  39.58600 46.16400 21.41200
H  40.73400 47.27600 22.26400
H  37.61400 44.28200 24.16200
H  37.36000 43.52900 25.63200
H  39.06400 44.25500 25.10900
H  37.70600 47.01300 30.18900
H  35.66300 45.68000 33.32300
H  34.86000 44.36200 32.40900
H  34.26000 45.95100 32.26700
Mg -5.89900 25.51800 25.92000
C  -4.39100 26.86200 28.58000
C  -7.11300 23.00500 28.10900
C  -7.29300 23.85800 23.35600
C  -4.33400 27.62300 23.77000
N  -5.80000 25.03800 28.09000
C  -5.27100 25.85000 29.04000
C  -5.73400 25.46000 30.48400
C  -6.25900 24.04600 30.25600
C  -6.40300 23.98600 28.74500
C  -5.44400 22.93200 30.81200
C  -6.77500 26.43300 31.06400
C  -6.63800 26.75100 32.52400
H  -7.62200 26.09800 33.48900
N  -7.11800 23.76900 25.75200
C  -7.47700 22.88800 26.78400
C  -8.38700 21.81500 26.20100
C  -8.52500 22.12300 24.82100
C  -7.67000 23.29900 24.54600
C  -8.84600 20.57800 26.93900
C  -9.30400 21.32600 23.69500
O  -9.15300 21.49400 22.48800
C  -10.29400 20.22800 24.10600
N  -5.64700 25.51600 23.81600
C  -6.36800 24.84400 22.99200
C  -6.13200 25.24100 21.49000
C  -5.28800 26.53300 21.67800
C  -5.02900 26.54200 23.16500
C  -5.45000 24.30900 20.54700
C  -6.02600 27.77800 21.19500
C  -5.17200 28.64300 20.33700
N  -4.59700 26.95200 26.05600
C  -4.07700 27.87100 25.12900
C  -3.20500 28.77700 25.79800
C  -3.23900 28.42100 27.13500
C  -4.13200 27.29400 27.27300
C  -2.40200 29.94300 25.14900
C  -2.79100 28.78400 28.46300
O  -1.94200 29.55600 28.94100
C  -3.63300 27.80100 29.43600
C  -2.71000 27.09800 30.34200
O  -1.83500 26.26700 30.03100
O  -2.97900 27.46100 31.64500
C  -1.93000 27.00800 32.63900
H  -7.58100 22.26700 28.76300
H  -7.69300 23.51300 22.40000
H  -3.96300 28.32300 23.01900
H  -4.89900 25.31300 31.16900
H  -7.23700 23.99000 30.73400
H  -5.64300 22.71200 31.86100
H  -4.41400 23.27900 30.88400
H  -5.53700 22.03200 30.20400
H  -7.81100 26.15600 30.86500
H  -6.66000 27.38200 30.54200
H  -6.80000 27.81600 32.68800
H  -5.66400 26.44600 32.90700
H  -9.93300 20.57500 26.85400
H  -8.59800 20.68900 27.99500
H  -8.44200 19.65100 26.53300
H  -9.73200 19.35000 24.42500
H  -10.80100 19.95700 23.18000
H  -11.08900 20.61700 24.74300
H  -7.03900 25.49800 20.94400
H  -4.25500 26.42700 21.34500
H  -4.85400 23.60100 21.12300
H  -4.64600 24.63400 19.88700
H  -6.18600 23.68800 20.03800
H  -6.48100 28.30800 22.03100
H  -6.89400 27.48900 20.60300
H  -5.35200 28.84200 19.28100
H  -4.13800 28.31200 20.44000
H  -5.21700 29.65200 20.74600
H  -2.93400 30.53400 24.40300
H  -1.47100 29.60200 24.69500
H  -2.17700 30.63500 25.96100
H  -4.36800 28.33000 30.04300
H  -2.24400 26.02900 33.00000
H  -2.07800 27.55600 33.56900
H  -0.89500 27.13500 32.32100

