158

Mg 34.89700 2.96300 29.80000
C  32.69600 4.12400 32.31400
C  37.27500 2.59800 32.18700
C  37.13300 2.17400 27.39100
C  32.42800 3.60000 27.52600
N  34.94000 3.29200 32.07600
C  33.92900 3.73900 32.89200
C  34.39500 3.75300 34.36600
C  35.92900 3.55200 34.22500
C  36.13200 3.17800 32.71400
C  36.85400 4.76800 34.62900
C  33.60300 2.58400 35.15400
C  33.36900 2.70200 36.72300
H  33.89400 4.06100 37.38800
N  36.97400 2.37000 29.77500
C  37.71600 2.25300 30.86600
C  39.05000 1.69500 30.50300
C  39.04800 1.49300 29.05300
C  37.70300 2.06500 28.67200
C  40.09900 1.32700 31.44400
C  40.05800 0.91300 28.05500
O  39.79200 0.81900 26.86200
C  41.27100 0.24200 28.53500
N  34.82400 3.07400 27.72400
C  35.85700 2.60200 26.95100
C  35.45500 2.74000 25.45200
C  33.90200 2.96300 25.55400
C  33.70200 3.22400 27.05000
C  36.18500 3.88600 24.69200
C  32.96500 1.79400 25.00500
C  31.53900 2.22700 24.51700
N  32.93400 3.66900 29.89700
C  32.05700 3.81900 28.86600
C  30.78200 4.31100 29.28000
C  30.99800 4.46300 30.67500
C  32.33700 4.06500 31.02300
C  29.47900 4.33300 28.49400
C  30.38000 4.79700 31.94000
O  29.28900 5.22000 32.20200
C  31.38900 4.51900 33.10400
C  31.67100 5.82600 33.79600
O  32.29500 6.78400 33.37000
O  31.07600 5.83000 35.06100
C  31.30400 7.05200 35.82800
H  38.10700 2.46500 32.88100
H  37.95400 2.08500 26.67700
H  31.61600 3.78500 26.82000
H  34.17600 4.75200 34.74400
H  36.20500 2.72000 34.87300
H  37.36100 4.57400 35.57400
H  36.35700 5.72500 34.78800
H  37.68600 4.91100 33.93900
H  34.19900 1.69100 34.96400
H  32.59900 2.42800 34.75900
H  33.89300 1.90300 37.24800
H  32.32100 2.56200 36.98900
H  41.02700 1.86400 31.24400
H  40.22800 0.24500 31.41700
H  39.72400 1.50600 32.45100
H  40.97200 -0.37100 29.38600
H  41.92200 1.00000 28.97200
H  41.79800 -0.33600 27.77500
H  35.54700 1.77400 24.95600
H  33.62500 3.86200 25.00400
H  37.11400 4.21400 25.15800
H  35.56900 4.78400 24.65100
H  36.56800 3.62100 23.70600
H  33.02200 1.04600 25.79600
H  33.53100 1.46400 24.13400
H  31.30400 2.13700 23.45600
H  31.48300 3.31600 24.52200
H  30.81700 1.89700 25.26300
H  28.66300 4.52700 29.18900
H  29.20100 3.41200 27.98100
H  29.53100 5.04100 27.66600
H  31.11000 3.71800 33.78800
H  30.55700 7.83100 35.67400
H  32.27400 7.53400 35.71100
H  31.24400 6.60800 36.82200
Mg 48.58700 34.85900 27.04000
C  46.73600 33.18900 29.41000
C  49.17100 37.37200 29.41700
C  49.90700 36.62000 24.63200
C  47.58600 32.41300 24.68200
N  47.99900 35.25200 29.16400
C  47.36300 34.31100 29.96600
C  47.18600 34.80800 31.37700
C  47.54100 36.31900 31.21200
C  48.38700 36.33200 29.86700
C  46.42200 37.26100 31.05500
C  48.28500 34.00200 32.20300
C  48.23500 34.06700 33.72000
H  47.22900 34.91600 34.46000
N  49.64500 36.64700 27.01200
C  49.72200 37.54600 28.09000
C  50.46100 38.72700 27.62500
C  50.77500 38.48700 26.24000
C  50.08400 37.19400 25.86100
C  50.71400 39.93300 28.41000
C  51.55300 39.45100 25.27000
O  51.80100 39.02200 24.14000
C  52.01000 40.76600 25.48800
N  48.69100 34.56900 24.93200
C  49.36700 35.45400 24.23300
C  49.40400 34.97500 22.65900
C  48.90900 33.49900 22.78900
C  48.43100 33.42300 24.20500
C  48.59700 35.91900 21.64100
C  49.80100 32.36600 22.37200
C  49.61600 31.85700 20.91900
N  47.46500 33.06600 27.02400
C  47.15500 32.20500 25.95400
C  46.34600 31.15500 26.49200
C  46.04200 31.54100 27.86600
C  46.78400 32.70000 28.09700
C  45.90900 29.94600 25.76400
C  45.30300 31.17900 29.03400
O  44.52800 30.26500 29.32300
C  45.64300 32.30400 30.06600
C  46.14900 31.61600 31.24700
O  47.17100 30.97200 31.24400
O  45.27200 31.70100 32.26400
C  45.44200 30.67200 33.32100
H  49.33000 38.22700 30.07900
H  50.24600 37.30100 23.84900
H  47.38600 31.74200 23.84400
H  46.18900 34.69500 31.80300
H  48.19900 36.74500 31.96900
H  46.50200 38.11100 31.73200
H  45.53600 36.64500 31.21000
H  46.37700 37.68400 30.05100
H  49.29000 34.38200 32.01700
H  48.33600 32.95400 31.90600
H  49.24400 34.33200 34.03500
H  48.09000 33.02500 34.00600
H  51.80400 39.95500 28.40300
H  50.40900 39.71600 29.43400
H  50.32100 40.81800 27.90900
H  52.77200 40.75900 26.26700
H  51.19200 41.43900 25.74600
H  52.52500 41.08100 24.58100
H  50.40500 34.92900 22.23000
H  47.96400 33.38200 22.25800
H  47.82700 35.29100 21.19300
H  49.27300 36.26100 20.85800
H  48.06600 36.73900 22.12300
H  49.62600 31.52600 23.04400
H  50.87400 32.47600 22.53000
H  50.45900 32.19000 20.31300
H  48.73400 32.31400 20.47200
H  49.43100 30.78400 20.98000
H  45.10000 30.02200 25.03700
H  45.80300 29.08800 26.42700
H  46.73800 29.75100 25.08300
H  44.76400 32.81800 30.45600
H  44.82300 30.94200 34.17600
H  46.49600 30.72900 33.59400
H  45.14800 29.68500 32.96300

