158

Mg 25.30000 1.51500 29.63000
C  27.61100 1.42900 32.27200
C  22.87500 1.50000 31.83400
C  23.21100 1.27500 27.00100
C  28.00500 0.73100 27.47500
N  25.29900 1.29900 31.91600
C  26.31400 1.60100 32.73500
C  25.82100 1.95200 34.16300
C  24.32500 2.06600 33.92900
C  24.10500 1.51600 32.50600
C  23.44200 1.36600 34.99000
C  26.31600 3.26000 34.86700
C  26.61400 3.18300 36.37200
H  26.04300 4.18200 37.36700
N  23.27700 1.30600 29.44100
C  22.39400 1.39600 30.48000
C  21.05100 1.44600 29.92400
C  21.15000 1.50300 28.56700
C  22.60400 1.36800 28.27300
C  19.82600 1.40800 30.89100
C  20.07400 1.56600 27.55400
O  20.35000 1.41200 26.34300
C  18.64000 1.73900 27.98300
N  25.58000 0.99500 27.54500
C  24.59300 1.13100 26.66500
C  25.06600 1.13500 25.26300
C  26.60800 1.09900 25.40200
C  26.75900 0.97400 26.91500
C  24.40900 0.03700 24.37600
C  27.30800 2.38700 24.79900
C  27.11000 3.64800 25.67100
N  27.40500 1.12500 29.80200
C  28.36300 0.78800 28.88300
C  29.67400 0.66000 29.42200
C  29.44000 0.93500 30.78400
C  28.04400 1.16700 30.94700
C  30.96800 0.30900 28.76000
C  30.03000 1.06200 32.12000
O  31.21300 0.94400 32.52200
C  28.85700 1.51300 33.13600
C  28.86700 0.59400 34.22700
O  28.72400 -0.62500 34.20000
O  29.14600 1.33200 35.38000
C  29.35000 0.59100 36.61200
H  22.11200 1.75900 32.57100
H  22.60000 1.34200 26.09900
H  28.87100 0.68000 26.81100
H  25.97200 1.07400 34.79100
H  24.08800 3.13000 33.91400
H  23.97600 1.38700 35.94000
H  23.15000 0.33500 34.79200
H  22.51900 1.90000 35.21600
H  25.65300 4.11400 34.73200
H  27.20400 3.57500 34.31900
H  27.68100 3.31100 36.55900
H  26.42000 2.20000 36.80200
H  19.10300 2.20400 30.71000
H  20.07100 1.37700 31.95200
H  19.43700 0.42500 30.62500
H  18.43800 0.81700 28.52700
H  18.06200 1.91400 27.07500
H  18.56000 2.55300 28.70300
H  24.83800 2.07500 24.76200
H  26.99200 0.18300 24.95200
H  23.59200 -0.42700 24.92800
H  25.13200 -0.75200 24.17000
H  23.98200 0.47000 23.47200
H  26.79500 2.49600 23.84300
H  28.36000 2.12900 24.67600
H  28.06300 4.06200 25.99900
H  26.51400 3.54800 26.57800
H  26.59100 4.45100 25.14800
H  31.01800 0.44900 27.68000
H  31.12200 -0.73900 29.01900
H  31.74200 0.88800 29.26400
H  29.08500 2.49700 33.54600
H  30.07800 1.21400 37.13200
H  29.49200 -0.48200 36.48300
H  28.40200 0.74100 37.13000
Mg -4.71600 25.49900 26.25000
C  -3.43800 26.92200 29.01900
C  -6.58800 23.49100 28.22600
C  -5.61500 23.85600 23.41700
C  -2.67300 27.63300 24.10700
N  -5.04600 25.40800 28.41500
C  -4.48600 26.08800 29.35900
C  -4.73800 25.52100 30.72000
C  -5.46800 24.24600 30.47500
C  -5.72000 24.36900 28.96500
C  -4.84300 22.94900 31.01300
C  -5.58500 26.55300 31.58000
C  -5.01600 26.73800 32.96500
H  -4.49600 25.52500 33.62300
N  -6.03000 23.91800 25.85200
C  -6.73200 23.30300 26.84200
C  -7.53200 22.30500 26.15500
C  -7.28100 22.28200 24.77300
C  -6.24500 23.38200 24.62500
C  -8.53500 21.47700 26.93600
C  -7.80700 21.42500 23.70700
O  -7.45000 21.53500 22.52300
C  -9.02100 20.52900 23.99300
N  -3.99100 25.57400 24.03800
C  -4.63600 24.80700 23.10700
C  -4.16900 25.17300 21.68700
C  -3.29600 26.40100 21.91000
C  -3.30700 26.56700 23.42900
C  -3.48200 23.96100 21.10700
C  -3.73700 27.79500 21.25100
C  -4.45300 27.82800 19.96000
N  -3.29700 26.95700 26.49600
C  -2.49500 27.73100 25.57700
C  -1.70600 28.61600 26.45200
C  -1.96600 28.29300 27.77900
C  -2.95800 27.27300 27.73300
C  -0.80500 29.59500 25.87800
C  -1.67000 28.67800 29.17900
O  -0.98100 29.59300 29.63000
C  -2.45100 27.55600 30.04300
C  -1.49500 26.57800 30.54200
O  -1.29800 25.46100 30.06300
O  -1.15000 27.01000 31.82200
C  -0.38400 25.94300 32.46100
H  -7.01600 22.77300 28.92800
H  -5.89900 23.43200 22.45100
H  -2.06500 28.29500 23.48600
H  -3.74600 25.37800 31.14800
H  -6.48200 24.18900 30.87200
H  -4.55700 22.40600 30.11200
H  -5.57900 22.44400 31.63800
H  -3.92400 23.13500 31.56900
H  -6.63100 26.24700 31.61300
H  -5.60400 27.53200 31.10100
H  -5.75100 27.17000 33.64400
H  -4.21300 27.47000 32.88000
H  -9.51400 21.55800 26.46400
H  -8.66400 21.76300 27.98000
H  -8.23200 20.43300 26.86400
H  -8.76200 19.79700 24.75800
H  -9.32600 19.91000 23.14900
H  -9.92000 21.05900 24.30600
H  -5.07600 25.44400 21.14700
H  -2.27000 26.23200 21.58100
H  -2.46800 24.12800 20.74500
H  -3.96100 23.60100 20.19700
H  -3.33900 23.15000 21.82200
H  -2.81700 28.29100 20.94200
H  -4.12500 28.41500 22.06000
H  -5.49500 27.70200 20.25200
H  -4.26700 27.00300 19.27200
H  -4.23500 28.78100 19.47800
H  -1.37600 30.36300 25.35700
H  -0.30900 29.05400 25.07300
H  -0.19000 30.02100 26.67100
H  -3.02900 28.03700 30.83200
H  0.58700 25.83400 31.97600
H  -0.84700 24.96000 32.54300
H  -0.13100 26.31000 33.45600

