158

Mg 29.85200 58.59700 39.21800
C  27.13400 56.54500 38.27200
C  32.00500 55.87800 38.79900
C  32.52100 60.70200 39.42800
C  27.61800 61.26600 39.07400
N  29.59500 56.42800 38.60500
C  28.37200 55.85200 38.36500
C  28.64300 54.37600 37.96100
C  30.17900 54.08700 38.22400
C  30.66400 55.54800 38.51800
C  30.55800 53.14000 39.32900
C  28.35300 54.03300 36.44000
C  28.73200 54.97900 35.30900
H  27.84200 55.20800 34.11600
N  32.01300 58.26400 39.26900
C  32.63900 57.08100 39.12800
C  34.00500 57.31500 39.26700
C  34.25500 58.65700 39.60500
C  32.91700 59.28900 39.35800
C  35.00300 56.08900 39.36500
C  35.50700 59.34500 40.04900
O  36.51200 58.61300 40.09700
C  35.66300 60.82900 40.39300
N  30.02300 60.62800 39.16300
C  31.22400 61.28000 39.42100
C  30.97200 62.76600 39.51400
C  29.50800 62.94500 39.21500
C  28.99200 61.49000 39.18000
C  31.58600 63.21800 40.87700
C  29.25500 63.60200 37.76100
C  28.07700 64.67800 37.76100
N  27.75800 58.90800 38.75100
C  27.00100 60.05800 38.76200
C  25.57700 59.67200 38.55400
C  25.58800 58.27500 38.25300
C  26.94500 57.93900 38.45300
C  24.37500 60.57100 38.66200
C  24.80300 57.15000 37.89900
O  23.62700 57.00400 37.61600
C  25.75700 55.99800 37.81100
C  25.29000 54.88800 38.66700
O  25.64300 54.57900 39.75200
O  24.39800 54.08400 38.04500
C  23.98400 52.79600 38.57300
H  32.56200 54.94000 38.74800
H  33.38900 61.35300 39.54800
H  27.00700 62.15600 39.23800
H  28.02900 53.75000 38.60900
H  30.78300 53.84100 37.35100
H  29.71400 52.50000 39.59000
H  30.71700 53.66800 40.27000
H  31.45000 52.52400 39.21400
H  27.26700 53.95200 36.48400
H  28.77400 53.03400 36.32000
H  29.60000 54.47200 34.88700
H  29.13600 55.93300 35.64600
H  35.12200 55.72200 38.34600
H  34.71700 55.30700 40.06900
H  35.96100 56.43500 39.75100
H  34.93300 61.17500 41.12500
H  35.56400 61.37000 39.45100
H  36.67700 60.95200 40.77400
H  31.63300 63.30600 38.83600
H  29.07400 63.57800 39.99000
H  31.65600 62.46800 41.66500
H  30.85700 63.94600 41.23000
H  32.53400 63.75400 40.83300
H  28.95700 62.82500 37.05800
H  30.17600 64.10600 37.46700
H  27.39200 64.41700 36.95500
H  28.48700 65.68700 37.71800
H  27.65000 64.60900 38.76200
H  24.23200 60.82100 39.71300
H  23.54200 60.11800 38.12400
H  24.39000 61.52500 38.13600
H  25.64500 55.63600 36.78900
H  24.35400 51.95800 37.98300
H  22.89500 52.79800 38.55100
H  24.43300 52.69800 39.56100
Mg 35.00400 48.04700 26.54100
C  35.40000 46.25200 29.47600
C  33.99900 50.78100 28.41400
C  34.22200 49.51000 23.53600
C  35.78600 45.04600 24.71100
N  34.69000 48.41400 28.63700
C  35.05300 47.56500 29.68500
C  34.79700 48.21600 31.04500
C  33.99400 49.47200 30.62700
C  34.24400 49.58400 29.16600
C  32.41200 49.22200 30.90200
C  36.18800 48.57700 31.67600
C  36.35700 48.24600 33.17100
H  36.22200 49.39400 34.11900
N  34.28100 49.92600 26.03700
C  33.98800 50.91400 26.96500
C  33.86200 52.10900 26.11500
C  33.78200 51.78000 24.70800
C  34.07800 50.33800 24.68000
C  33.67500 53.47400 26.71600
C  33.58900 52.67900 23.48500
O  33.62000 52.21700 22.34200
C  33.32200 54.26000 23.72000
N  34.91100 47.33100 24.41600
C  34.56000 48.19600 23.39800
C  34.82200 47.57200 22.00200
C  35.41800 46.12800 22.35700
C  35.34100 46.14200 23.90900
C  33.56500 47.48700 21.04400
C  36.80300 45.91000 21.76600
C  36.74000 45.07600 20.38900
N  35.45400 46.03700 26.93300
C  35.71300 44.92200 26.11500
C  36.04800 43.77700 26.95600
C  35.92300 44.25100 28.26000
C  35.53500 45.60300 28.22500
C  36.45200 42.43300 26.61500
C  35.93200 43.88700 29.64200
O  36.07900 42.86600 30.22900
C  35.71900 45.18400 30.44400
C  34.56500 44.95300 31.37200
O  33.38300 44.96600 31.13600
O  35.12300 44.90700 32.63800
C  34.19200 44.85700 33.75800
H  33.62000 51.65100 28.95500
H  34.12400 49.86900 22.50900
H  36.07800 44.20700 24.07600
H  34.23900 47.46600 31.60600
H  34.26000 50.41200 31.11000
H  31.75600 49.30100 30.03500
H  32.38100 50.06200 31.59600
H  32.21200 48.32200 31.48200
H  36.41700 49.63500 31.55200
H  36.97400 48.06100 31.12500
H  37.36300 47.89000 33.39500
H  35.73700 47.43700 33.55600
H  32.72000 53.93500 26.46400
H  34.43900 54.18200 26.39500
H  33.80100 53.46200 27.79900
H  33.22700 54.74400 22.74800
H  34.23200 54.68900 24.13800
H  32.44000 54.40200 24.34500
H  35.55600 48.17900 21.47100
H  34.69800 45.35600 22.08700
H  33.77300 47.84900 20.03700
H  32.77200 48.01600 21.57300
H  33.28100 46.43700 20.96400
H  37.51000 45.33600 22.36500
H  37.29300 46.87500 21.63600
H  37.41300 45.44500 19.61500
H  35.72800 45.22200 20.01200
H  37.00100 44.05000 20.64900
H  37.48100 42.32400 26.95900
H  36.49400 42.36800 25.52800
H  35.79600 41.71200 27.10300
H  36.65900 45.34000 30.97200
H  34.62400 44.22500 34.53400
H  33.25600 44.40900 33.42600
H  33.95400 45.84600 34.15000

