158

Mg 1.51800 9.10200 26.78300
C  1.74200 11.34000 29.57100
C  1.70700 6.51400 29.00300
C  2.13200 7.02800 24.09400
C  1.78600 11.76000 24.64400
N  1.74800 8.98300 29.00600
C  1.45300 9.98300 29.84100
C  1.23600 9.43700 31.25400
C  1.53500 7.93900 31.16600
C  1.63300 7.77200 29.62700
C  2.79500 7.37000 31.90200
C  -0.26100 9.75500 31.68700
C  -0.47400 9.57500 33.20000
H  0.70700 9.01400 34.10900
N  1.76200 6.96300 26.54900
C  1.83500 6.15100 27.64900
C  1.99500 4.77700 27.12300
C  2.00800 4.84900 25.66500
C  1.96100 6.30000 25.35200
C  1.98900 3.52600 28.11300
C  1.98500 3.85700 24.53600
O  1.86700 4.16400 23.33500
C  2.20500 2.44500 24.87500
N  1.68200 9.32900 24.73700
C  1.98100 8.37500 23.84400
C  2.01500 8.94800 22.44200
C  1.41900 10.35100 22.65800
C  1.66600 10.47700 24.11300
C  3.47900 9.01500 21.86000
C  -0.14600 10.45200 22.32100
C  -0.46200 11.46900 21.18400
N  1.76900 11.18800 26.95700
C  1.89100 12.16000 25.99500
C  2.12000 13.44400 26.69100
C  2.08000 13.13800 28.09800
C  1.91000 11.74800 28.21000
C  2.38900 14.80800 26.03400
C  2.16800 13.67700 29.42400
O  2.51700 14.80000 29.64500
C  1.83100 12.52900 30.46700
C  2.93000 12.48100 31.44700
O  4.08700 12.37800 31.16200
O  2.45000 12.57200 32.69500
C  3.40300 12.44100 33.74000
H  1.73900 5.73700 29.77000
H  2.28400 6.52300 23.13800
H  1.71300 12.61000 23.96200
H  1.97500 9.95300 31.86800
H  0.67000 7.37200 31.51000
H  3.21500 7.89900 32.75800
H  3.63800 7.17600 31.23900
H  2.51600 6.42800 32.37400
H  -0.86000 9.12100 31.03400
H  -0.60400 10.76800 31.47900
H  -1.29200 8.86900 33.33800
H  -0.57200 10.58300 33.60200
H  2.70400 3.73300 28.90900
H  2.24700 2.57600 27.64700
H  1.01200 3.46800 28.59300
H  1.27300 2.10900 25.33000
H  2.90100 2.35000 25.70800
H  2.54200 1.87600 24.00900
H  1.39200 8.35300 21.77400
H  1.92300 11.13800 22.09600
H  3.85400 10.03800 21.85500
H  3.27300 8.64000 20.85700
H  4.17600 8.47500 22.50100
H  -0.71900 10.76100 23.19500
H  -0.38600 9.48800 21.87200
H  0.45500 11.37900 20.60100
H  -0.45200 12.50900 21.51100
H  -1.39300 11.36200 20.62700
H  1.56400 15.50000 26.20600
H  2.58200 14.74800 24.96300
H  3.40500 15.00500 26.37600
H  0.91700 12.81900 30.98600
H  4.16900 11.68300 33.57700
H  2.78300 12.16500 34.59200
H  3.74000 13.46400 33.90100
Mg -9.37400 39.70400 40.28400
C  -8.06400 36.57200 39.45600
C  -6.37400 41.04700 39.11000
C  -10.97500 42.58200 40.24100
C  -12.35900 38.01800 41.22600
N  -7.47900 38.89600 39.38700
C  -7.27700 37.58600 38.97000
C  -5.98000 37.49100 38.05700
C  -5.27200 38.84300 38.51000
C  -6.42800 39.67900 38.99300
C  -4.04600 38.81400 39.52600
C  -6.28900 37.42900 36.51100
C  -5.54100 36.45800 35.56000
H  -6.44200 35.75300 34.51900
N  -8.74500 41.59500 39.71800
C  -7.43900 41.96600 39.45300
C  -7.45900 43.42200 39.30600
C  -8.74200 43.94100 39.68300
C  -9.55600 42.68400 39.97400
C  -6.27300 44.19300 38.74500
C  -9.07500 45.43300 39.83000
O  -8.16500 46.25300 39.66800
C  -10.47600 45.90400 40.16400
N  -11.38000 40.20900 40.51600
C  -11.81800 41.49700 40.44800
C  -13.24200 41.63600 40.90900
C  -13.68300 40.11600 41.19300
C  -12.45000 39.32800 40.86300
C  -13.50200 42.57200 42.04100
C  -14.88800 39.72400 40.29700
C  -16.21400 39.59000 41.09400
N  -10.10400 37.71800 40.44900
C  -11.24500 37.21000 40.91800
C  -11.03300 35.74900 41.11800
C  -9.85900 35.41800 40.43500
C  -9.31700 36.72200 40.07900
C  -12.10800 34.78500 41.71700
C  -9.03700 34.31700 39.89600
O  -9.09800 33.11200 39.94200
C  -7.81800 35.08400 39.13800
C  -6.59100 34.49000 39.69600
O  -5.96900 34.90700 40.69300
O  -6.30300 33.39400 38.87700
C  -5.21800 32.49100 39.35900
H  -5.41700 41.47800 38.80900
H  -11.58200 43.47200 40.41900
H  -13.24400 37.61000 41.71800
H  -5.42100 36.59900 38.33900
H  -4.79800 39.33900 37.66300
H  -3.10700 39.00900 39.00800
H  -4.10900 37.81300 39.95100
H  -4.15700 39.38300 40.44900
H  -6.16100 38.43200 36.10400
H  -7.33100 37.11300 36.45500
H  -5.16500 35.67000 36.21200
H  -4.73100 36.91800 34.99300
H  -6.05800 45.11800 39.28100
H  -6.13700 44.37100 37.67900
H  -5.36800 43.63000 38.97300
H  -11.16600 45.40900 39.48100
H  -10.49800 46.98500 40.03100
H  -10.69300 45.70900 41.21400
H  -13.87400 41.93500 40.07300
H  -13.68800 39.98500 42.27500
H  -12.59300 42.66200 42.63700
H  -14.29700 42.12300 42.63600
H  -13.89600 43.55800 41.79700
H  -14.54200 38.78700 39.86200
H  -15.12900 40.44700 39.51700
H  -16.88800 40.43500 40.95200
H  -15.95500 39.52300 42.15100
H  -16.70400 38.68600 40.73300
H  -12.00000 34.89600 42.79600
H  -11.88200 33.77700 41.36900
H  -13.11600 35.04100 41.39300
H  -7.83600 34.96000 38.05500
H  -5.38200 31.52000 38.89200
H  -5.37900 32.38600 40.43100
H  -4.26800 32.90700 39.02200

