158

Mg 7.46400 2.82400 28.58200
C  8.73900 1.50400 31.34700
C  5.25600 4.71100 30.29000
C  6.32200 4.11500 25.65200
C  9.24700 0.46500 26.76800
N  7.01700 2.99300 30.61100
C  7.81900 2.50100 31.60200
C  7.33100 3.02600 33.00800
C  5.93400 3.75700 32.60900
C  6.04600 3.83500 31.07700
C  4.71400 2.92400 33.01000
C  8.29700 4.03200 33.65600
C  8.07000 4.33600 35.12900
H  9.02600 3.72100 36.14500
N  6.00100 4.22200 28.03000
C  5.21000 4.95500 28.89200
C  4.51600 5.95300 28.12200
C  4.83400 5.76400 26.75500
C  5.80900 4.66400 26.74100
C  3.55700 6.96100 28.71200
C  4.47500 6.60900 25.59400
O  4.90800 6.42400 24.47500
C  3.48100 7.70100 25.79400
N  7.70400 2.32300 26.55600
C  7.18500 3.03500 25.46700
C  7.51600 2.53200 24.10600
C  8.65600 1.55000 24.44800
C  8.56100 1.40500 26.03300
C  6.33200 1.75800 23.34100
C  10.10400 2.10500 24.00400
C  10.52000 3.42200 24.76700
N  8.69400 1.14100 28.89100
C  9.43300 0.35700 28.10700
C  10.19700 -0.57200 28.89900
C  10.01800 -0.08600 30.19400
C  9.06500 0.90800 30.09500
C  10.80500 -1.73400 28.37600
C  10.44100 -0.21900 31.57500
O  11.31600 -0.94700 32.05600
C  9.53800 0.82800 32.37100
C  8.84000 0.03500 33.47500
O  7.72100 -0.48800 33.42400
O  9.63900 -0.08300 34.60700
C  9.03400 -0.74400 35.82400
H  4.66800 5.34400 30.95900
H  6.00600 4.55200 24.70300
H  9.78000 -0.27200 26.16300
H  7.12800 2.18200 33.66800
H  5.99800 4.76500 33.01800
H  4.77700 1.83800 33.07300
H  3.92900 3.17400 32.29600
H  4.20200 3.36000 33.86800
H  8.11500 4.99100 33.17000
H  9.32100 3.67300 33.55200
H  7.07500 3.97000 35.38000
H  8.05600 5.41500 35.28600
H  3.56300 6.96000 29.80200
H  2.53500 6.73000 28.41000
H  3.81300 7.97700 28.41200
H  3.92400 8.50700 26.37800
H  2.49100 7.30100 26.01600
H  3.49400 8.24400 24.84900
H  7.76500 3.35700 23.43900
H  8.56400 0.62200 23.88500
H  5.45100 2.09800 23.88700
H  6.28400 0.67100 23.28900
H  6.33400 2.17500 22.33400
H  10.08500 2.26000 22.92500
H  10.72600 1.23400 24.21000
H  9.72900 3.79800 25.41600
H  10.74400 4.20500 24.04300
H  11.48300 3.25800 25.25100
H  11.70800 -1.49900 27.81200
H  10.10200 -2.15800 27.65900
H  11.04700 -2.41000 29.19600
H  10.17300 1.48400 32.96600
H  8.18100 -1.30200 35.43800
H  8.76000 0.01800 36.55400
H  9.76800 -1.40800 36.28000
Mg 47.62500 25.98600 27.63200
C  48.55400 28.22900 30.18800
C  46.36300 23.91600 30.04800
C  47.19900 23.68000 25.27400
C  49.49600 28.05900 25.41600
N  47.59100 26.00400 29.81900
C  47.87000 27.11800 30.69200
C  47.36600 26.89200 32.10900
C  47.00200 25.33100 32.06700
C  46.86700 25.11400 30.54200
C  47.94600 24.33700 32.81800
C  46.17200 27.90900 32.54000
C  46.36700 28.65400 33.83300
H  45.36900 28.41500 34.97600
N  46.77200 24.04900 27.60700
C  46.26900 23.37500 28.71400
C  45.64700 22.11200 28.23600
C  45.86600 22.08600 26.83600
C  46.66300 23.29800 26.49100
C  44.87100 21.08100 29.10900
C  45.47500 21.02400 25.86400
O  45.83800 21.06800 24.67200
C  44.52400 19.90100 26.32500
N  48.58600 25.74400 25.70900
C  48.06800 24.70700 24.92600
C  48.47300 24.98400 23.43200
C  48.99800 26.48500 23.41500
C  49.02400 26.82100 24.96000
C  49.42800 23.96100 22.78100
C  48.07300 27.44900 22.54100
C  48.65400 27.82000 21.12300
N  48.72900 27.80400 27.70500
C  49.40000 28.51100 26.73300
C  49.98300 29.69800 27.28900
C  49.65400 29.67400 28.68400
C  48.90700 28.50600 28.88600
C  50.71200 30.78200 26.62400
C  49.74400 30.36700 30.00500
O  50.24400 31.46000 30.26400
C  48.96100 29.51500 30.97200
C  49.86700 29.15100 32.17700
O  50.89200 28.42600 32.09300
O  49.55700 29.86000 33.26900
C  50.32300 29.50100 34.47700
H  45.93800 23.28400 30.83000
H  47.03800 23.05000 24.39700
H  50.04600 28.73900 24.76200
H  48.16600 26.94900 32.84600
H  46.05100 25.06000 32.52600
H  47.54300 23.67900 33.58800
H  48.79400 24.78300 33.33800
H  48.33000 23.68200 32.03700
H  45.19300 27.43000 32.54700
H  46.03600 28.67200 31.77300
H  46.40600 29.71200 33.57200
H  47.40000 28.44200 34.10800
H  43.88000 20.95300 28.67300
H  44.75000 21.39100 30.14700
H  45.35300 20.10800 29.20100
H  45.01300 19.28500 27.08000
H  44.20500 19.23000 25.52800
H  43.67200 20.39200 26.79600
H  47.55100 25.03800 22.85400
H  50.02400 26.53000 23.05100
H  48.95100 23.32300 22.03700
H  49.75500 23.25300 23.54300
H  50.29200 24.41300 22.29600
H  48.00300 28.37300 23.11600
H  47.07500 27.02700 22.42200
H  49.39400 27.06300 20.86200
H  49.20300 28.76000 21.07500
H  47.85200 27.84100 20.38600
H  51.55900 31.15800 27.19800
H  50.17900 31.71100 26.42200
H  51.10700 30.37400 25.69300
H  48.08600 30.08400 31.28700
H  49.72900 28.83000 35.09800
H  50.57500 30.43100 34.98600
H  51.29700 29.01500 34.41500

