158

Mg 46.56900 24.37400 28.95500
C  47.63000 26.71400 31.29700
C  45.72100 22.32200 31.55800
C  46.10600 21.92700 26.70300
C  47.85500 26.48500 26.41800
N  46.79800 24.44600 31.21200
C  47.03400 25.61200 31.96800
C  46.76100 25.44000 33.47200
C  46.29900 23.95800 33.49700
C  46.18100 23.53600 32.03400
C  47.15600 22.99100 34.35700
C  45.69100 26.39900 33.97500
C  45.52500 26.83400 35.52800
H  46.33900 26.15700 36.70300
N  45.85200 22.45500 29.11100
C  45.52100 21.82000 30.26600
C  45.09100 20.45500 29.90900
C  45.10900 20.27200 28.50600
C  45.73800 21.53800 28.05000
C  44.66500 19.40600 30.89800
C  44.67900 19.13200 27.60200
O  44.71700 19.19100 26.37600
C  44.05600 18.06900 28.25900
N  47.19900 24.14800 26.88000
C  46.70100 23.09900 26.16200
C  46.93400 23.28400 24.64700
C  47.49600 24.71000 24.59100
C  47.47800 25.21900 26.01600
C  47.89500 22.24500 24.03500
C  46.79700 25.66900 23.56700
C  47.79200 26.53700 22.71500
N  47.66500 26.15800 28.86200
C  47.98400 26.94000 27.72600
C  48.67900 28.20100 28.15900
C  48.48300 28.12300 29.55100
C  47.93000 26.87300 29.93600
C  49.46900 29.14500 27.36400
C  48.75400 28.89800 30.77300
O  49.29800 29.99000 30.92200
C  48.13600 27.93000 31.91600
C  49.17900 27.89400 32.99500
O  50.31900 27.33100 32.92200
O  48.70900 28.43400 34.12500
C  49.50500 28.51700 35.37200
H  45.43800 21.68400 32.39800
H  46.07900 21.12800 25.95900
H  48.29600 27.15200 25.67500
H  47.69600 25.57400 34.01500
H  45.25400 23.85000 33.78800
H  47.79700 23.63600 34.95700
H  47.72200 22.37600 33.65700
H  46.51400 22.27600 34.87100
H  44.68500 26.10100 33.68000
H  45.90000 27.32300 33.43600
H  44.46600 26.70100 35.75100
H  45.54300 27.92300 35.57200
H  44.76700 19.67800 31.94800
H  45.32800 18.57200 30.66700
H  43.62800 19.13500 30.70100
H  43.16700 18.38900 28.80300
H  44.86400 17.63900 28.85000
H  43.86000 17.34200 27.47100
H  46.03200 23.14600 24.05000
H  48.53900 24.58500 24.30300
H  48.31100 21.68700 24.87400
H  48.77000 22.64100 23.52000
H  47.46500 21.58300 23.28400
H  46.15200 26.28300 24.19600
H  46.12800 25.14400 22.88600
H  47.43700 27.56700 22.69200
H  47.76700 26.25200 21.66300
H  48.79300 26.64100 23.13500
H  50.31000 29.45800 27.98200
H  48.92200 30.08300 27.27300
H  49.84800 28.64500 26.47300
H  47.36100 28.59000 32.30800
H  49.46900 29.55800 35.69500
H  50.53900 28.17300 35.33800
H  49.00600 27.83200 36.05700
Mg -2.25200 34.73100 26.66700
C  -3.83100 32.94200 29.06100
C  -1.22800 36.92700 29.09800
C  -1.20200 36.81100 24.26600
C  -4.15300 33.07300 24.20000
N  -2.65300 34.96900 28.81400
C  -3.10800 33.97500 29.64200
C  -2.88700 34.27200 31.11900
C  -2.08400 35.62500 31.10500
C  -2.01000 35.91100 29.60900
C  -2.69400 36.77500 31.92300
C  -2.31900 33.04100 31.97500
C  -2.96200 32.67400 33.38100
H  -2.08800 32.75900 34.61600
N  -1.07100 36.46200 26.71700
C  -0.72600 37.13500 27.81800
C  0.10100 38.19800 27.39000
C  0.16600 38.15500 26.00000
C  -0.77500 37.14600 25.58000
C  0.76900 39.16700 28.34100
C  0.92600 39.04100 25.00900
O  0.82800 38.84600 23.79000
C  1.79700 40.14500 25.39000
N  -2.84700 35.01200 24.57100
C  -2.12100 35.89300 23.75700
C  -2.73200 35.91100 22.34400
C  -3.38500 34.45800 22.29400
C  -3.38500 34.03600 23.76000
C  -3.79000 36.97200 22.11900
C  -2.68400 33.45400 21.39800
C  -1.34200 32.79300 21.85300
N  -3.74900 33.32900 26.57800
C  -4.37000 32.69600 25.53900
C  -5.32800 31.70900 25.99500
C  -5.11300 31.69700 27.43500
C  -4.16300 32.71400 27.68200
C  -6.10200 30.73200 25.05400
C  -5.52300 31.14700 28.66200
O  -6.23600 30.24900 29.02900
C  -4.67600 31.91500 29.77600
C  -5.76600 32.56800 30.63100
O  -6.66300 33.37200 30.32400
O  -5.66600 32.02600 31.88000
C  -6.64600 32.49900 32.90000
H  -0.91000 37.67900 29.82300
H  -0.91300 37.46100 23.43700
H  -4.66600 32.46100 23.45500
H  -3.81800 34.56200 31.60500
H  -1.10000 35.35000 31.48500
H  -3.23500 36.41600 32.79900
H  -3.36000 37.37900 31.30700
H  -1.88000 37.44300 32.20300
H  -1.25100 33.11200 32.18100
H  -2.37800 32.13200 31.37600
H  -3.22700 31.61700 33.35700
H  -3.83700 33.31700 33.48000
H  1.83800 38.96400 28.28200
H  0.62200 38.86700 29.37800
H  0.53400 40.22200 28.19900
H  2.52300 39.62600 26.01600
H  1.09900 40.67800 26.03500
H  2.27600 40.76500 24.63100
H  -1.94300 36.11600 21.62000
H  -4.42200 34.47100 21.95700
H  -3.62700 37.80900 22.79900
H  -4.79000 36.54200 22.16600
H  -3.58100 37.39800 21.13800
H  -2.47300 33.89100 20.42200
H  -3.36400 32.61700 21.24300
H  -0.54300 33.11100 21.18400
H  -1.42200 31.71800 21.69300
H  -1.03900 32.93100 22.89100
H  -5.37300 30.03400 24.64200
H  -6.57800 31.23200 24.21100
H  -6.91200 30.21600 25.57000
H  -4.13300 31.16200 30.34700
H  -7.57000 32.83700 32.43000
H  -6.11400 33.17300 33.57200
H  -6.89900 31.70300 33.60000

