158

Mg 35.96100 48.92100 26.21800
C  36.23800 46.79200 28.96500
C  34.61200 51.38100 28.44700
C  35.49500 50.91500 23.58400
C  37.01100 46.35300 24.21400
N  35.51400 49.03600 28.40900
C  35.82100 48.08100 29.30500
C  35.70400 48.63900 30.80600
C  34.95200 50.01300 30.57300
C  35.09000 50.16600 29.07200
C  33.34700 49.91300 30.96200
C  37.09700 48.81800 31.43600
C  37.27100 48.55500 32.95000
H  35.98900 48.46000 33.81800
N  35.24200 50.89600 26.04900
C  34.72400 51.72700 27.06900
C  34.31500 52.97000 26.40800
C  34.61200 52.88400 24.95800
C  35.14100 51.51700 24.80200
C  33.78200 54.19300 27.15600
C  34.32000 53.85400 23.94400
O  34.72300 53.73400 22.81000
C  33.37700 54.96300 24.13100
N  35.97400 48.53600 24.18700
C  35.84500 49.57900 23.32800
C  35.96300 49.01800 21.84600
C  36.75600 47.64900 22.09300
C  36.59800 47.48300 23.60100
C  34.58600 48.96600 21.15900
C  38.27500 47.49300 21.63000
C  39.18700 48.58700 22.11100
N  36.44700 47.03100 26.50600
C  36.98000 46.11000 25.56300
C  37.34900 44.86300 26.21500
C  37.05000 45.13200 27.55600
C  36.53800 46.42600 27.68400
C  38.03000 43.68600 25.57100
C  36.98800 44.61300 28.89700
O  37.34200 43.50900 29.23400
C  36.47300 45.63900 29.86600
C  35.25800 45.23500 30.55800
O  34.18500 44.90400 30.05400
O  35.46200 45.12500 31.91300
C  34.39200 44.70100 32.72800
H  34.10300 52.10600 29.08500
H  35.58000 51.47000 22.64800
H  37.35800 45.44100 23.72300
H  35.01900 48.04600 31.41200
H  35.31500 50.90600 31.08400
H  33.02800 48.95800 30.54400
H  32.80200 50.70700 30.45200
H  33.21800 49.99900 32.04100
H  37.35600 49.86100 31.25600
H  37.81700 48.14700 30.96600
H  37.83100 49.40100 33.34600
H  37.92000 47.68700 33.06800
H  32.69500 54.19200 27.07900
H  34.19400 55.06000 26.64100
H  34.23600 54.14100 28.14600
H  32.45900 54.65200 24.62900
H  33.05000 55.24200 23.12900
H  33.80500 55.88300 24.52800
H  36.61000 49.66500 21.25400
H  36.21600 46.83400 21.61100
H  34.54300 49.50600 20.21300
H  33.82400 49.37600 21.82200
H  34.26500 47.94700 20.94300
H  38.15200 47.60900 20.55300
H  38.48400 46.48300 21.98100
H  38.60700 49.48700 22.31700
H  39.99200 48.93000 21.46100
H  39.67500 48.25100 23.02600
H  38.75800 44.05100 24.84700
H  37.34900 42.97500 25.10400
H  38.47700 43.08400 26.36200
H  37.28300 45.79500 30.57900
H  34.79400 44.71200 33.74100
H  34.05500 43.68800 32.51000
H  33.67400 45.51900 32.78800
Mg 6.21200 53.29500 41.23300
C  5.33500 49.85000 40.99000
C  9.04500 52.63400 39.91300
C  6.48300 56.65300 40.72500
C  2.79500 53.86900 41.76100
N  7.00300 51.38400 40.22800
C  6.54300 50.11500 40.40200
C  7.63300 49.20500 39.78900
C  8.94200 50.01800 39.99200
C  8.27900 51.45000 39.96800
C  9.84100 49.74000 41.21600
C  7.27300 48.85700 38.34900
C  7.74200 49.68600 37.12900
H  6.88700 49.76700 35.85800
N  7.60200 54.45000 40.48400
C  8.79200 53.96000 40.05400
C  9.72900 55.07700 39.82300
C  9.05200 56.25200 40.15300
C  7.66100 55.86500 40.49600
C  11.08600 54.91800 39.21800
C  9.66100 57.71300 40.15600
O  10.88800 57.75900 39.85400
C  8.95600 58.93100 40.54200
N  4.81500 55.00600 41.17700
C  5.21900 56.26600 41.04700
C  4.10100 57.27600 41.06500
C  2.88500 56.35400 41.42800
C  3.50300 54.97300 41.36900
C  4.32900 58.42600 42.14200
C  1.68700 56.62200 40.44700
C  1.56100 55.71200 39.27500
N  4.52700 52.12300 41.64200
C  3.19300 52.49200 41.83200
C  2.30200 51.35800 42.13900
C  3.16100 50.25400 41.88600
C  4.43800 50.81300 41.46700
C  0.87300 51.38800 42.63300
C  3.23400 48.81200 41.71600
O  2.38600 47.92400 41.94400
C  4.67000 48.50600 41.23000
C  4.63900 47.61200 39.97300
O  4.08500 47.87000 38.92100
O  5.34100 46.40400 40.25600
C  5.25800 45.47600 39.08900
H  10.08500 52.39600 39.68000
H  6.63600 57.72700 40.59900
H  1.75900 54.19000 41.89100
H  7.88000 48.37200 40.44700
H  9.56100 50.01000 39.09500
H  10.83900 49.68400 40.78000
H  9.59100 48.76100 41.62500
H  9.81300 50.54000 41.95500
H  6.20200 48.66200 38.29500
H  7.75800 47.89500 38.17900
H  8.72100 49.35000 36.78900
H  7.77000 50.74100 37.40300
H  11.23200 55.74300 38.52000
H  11.17700 53.96100 38.70400
H  11.81400 54.93500 40.02900
H  9.60800 59.79600 40.42200
H  8.63800 58.69800 41.55800
H  8.15300 59.02300 39.81100
H  3.88700 57.69100 40.08000
H  2.65200 56.40000 42.49200
H  3.59600 58.48400 42.94600
H  4.19400 59.33500 41.55500
H  5.38300 58.50200 42.40700
H  1.57300 57.67200 40.17800
H  0.83300 56.45500 41.10400
H  2.58300 55.43300 39.01900
H  1.19300 56.26900 38.41400
H  0.90100 54.88500 39.54000
H  0.34100 52.17200 42.09500
H  0.78400 51.36200 43.71900
H  0.40400 50.44100 42.36500
H  5.17500 47.95300 42.02200
H  5.63100 44.50000 39.40000
H  5.91100 45.69400 38.24400
H  4.23200 45.34900 38.74300

