158

Mg -1.92700 16.58300 26.36600
C  -2.18300 14.52500 29.19900
C  -2.31900 19.35000 28.30400
C  -1.81800 18.28400 23.50400
C  -1.82600 13.59700 24.45200
N  -2.17400 16.88400 28.55700
C  -2.27800 15.89400 29.51700
C  -2.69700 16.55600 30.84900
C  -2.46700 18.09400 30.63400
C  -2.30500 18.12000 29.07700
C  -3.67600 19.06300 31.11100
C  -2.17800 15.89400 32.08500
C  -1.93200 16.82700 33.25700
H  -1.45900 16.08700 34.42800
N  -1.91600 18.53000 26.00900
C  -2.16800 19.52500 26.90400
C  -2.20400 20.85700 26.22900
C  -2.02500 20.55300 24.79200
C  -1.93400 19.06200 24.70000
C  -2.48200 22.18700 26.96600
C  -2.03300 21.50500 23.60800
O  -1.84500 21.10100 22.47400
C  -2.32200 22.94900 23.75300
N  -1.99300 16.01400 24.24300
C  -1.89700 16.94600 23.22600
C  -2.02600 16.31200 21.84500
C  -1.84000 14.80600 22.10700
C  -1.88200 14.78900 23.69100
C  -3.24500 16.68200 20.92000
C  -0.50600 14.26400 21.52700
C  0.74100 14.82600 22.24000
N  -2.13000 14.51100 26.67000
C  -1.97700 13.41000 25.77200
C  -2.03600 12.16600 26.51500
C  -2.10800 12.54100 27.83100
C  -2.10200 13.97000 27.91100
C  -1.98300 10.81000 25.97100
C  -2.25500 11.99900 29.15600
O  -2.36300 10.82800 29.54600
C  -2.34000 13.27400 30.06700
C  -1.22600 13.11100 31.11900
O  -0.10800 13.58300 30.87100
O  -1.58100 12.51700 32.26900
C  -0.56900 12.44000 33.36200
H  -2.33800 20.28600 28.86500
H  -1.86900 18.76200 22.52400
H  -1.62300 12.74200 23.80400
H  -3.75900 16.31200 30.83600
H  -1.58200 18.51100 31.11400
H  -4.30800 19.42200 30.30000
H  -3.37600 19.90700 31.73200
H  -4.28600 18.37400 31.69500
H  -1.16500 15.70200 31.73000
H  -2.67000 14.99500 32.45500
H  -2.87600 17.33300 33.46100
H  -1.15000 17.55500 33.04100
H  -3.35000 22.76100 26.64100
H  -1.70200 22.94300 26.86800
H  -2.63700 22.03200 28.03400
H  -2.36300 23.54100 22.83900
H  -1.65700 23.31800 24.53400
H  -3.35000 22.99200 24.11400
H  -1.20300 16.71200 21.25300
H  -2.68900 14.24000 21.72100
H  -4.12400 16.87200 21.53600
H  -3.39600 15.94700 20.12900
H  -3.19000 17.61600 20.36200
H  -0.42600 14.57900 20.48700
H  -0.50400 13.17400 21.52700
H  1.30700 15.37700 21.48900
H  1.29000 14.00000 22.69200
H  0.57200 15.57500 23.01400
H  -1.24500 10.27500 26.56900
H  -1.74200 10.76800 24.90900
H  -2.96200 10.36300 26.14500
H  -3.31100 13.29100 30.56300
H  -1.02900 12.70900 34.31300
H  0.30400 13.02000 33.06500
H  -0.27100 11.39400 33.43000
Mg 48.17300 34.55600 28.02400
C  46.08800 33.26200 30.61600
C  48.39700 37.43400 29.95100
C  49.35100 36.25900 25.42000
C  47.07900 32.07000 25.89600
N  47.36500 35.22300 30.03500
C  46.72800 34.43900 30.99700
C  46.89100 34.99200 32.39500
C  47.33000 36.46100 32.11800
C  47.66200 36.45300 30.58900
C  46.24600 37.50300 32.31400
C  48.03500 34.29100 33.22000
C  47.87200 34.29700 34.73900
H  47.18900 35.60300 35.29300
N  48.89800 36.53900 27.74000
C  48.90100 37.58000 28.67100
C  49.61500 38.72100 28.09000
C  49.88000 38.41200 26.68900
C  49.35400 37.02500 26.56400
C  50.04900 39.87300 28.94000
C  50.59100 39.24300 25.60600
O  50.99500 38.75900 24.55100
C  50.84800 40.68300 25.98000
N  48.24500 34.16800 25.96900
C  48.87400 34.94400 25.13500
C  48.98800 34.28400 23.73100
C  48.62500 32.78600 24.05300
C  47.88800 32.98500 25.31800
C  48.03100 34.95700 22.75200
C  49.79900 31.76800 24.14800
C  51.26300 32.18400 23.76200
N  46.98600 32.90500 28.20300
C  46.68400 31.90500 27.25800
C  45.81800 30.92600 27.86500
C  45.48100 31.49500 29.15400
C  46.28800 32.65200 29.34600
C  45.17200 29.64700 27.29500
C  44.68400 31.30500 30.26700
O  43.97100 30.34900 30.61300
C  44.95900 32.52000 31.28100
C  45.18900 31.94700 32.60200
O  46.12200 31.25800 32.94600
O  44.13800 32.36400 33.33000
C  44.08300 31.92500 34.77000
H  48.57600 38.34400 30.52800
H  49.78400 36.87500 24.63000
H  46.71800 31.21000 25.32700
H  45.99100 34.92100 33.00700
H  48.27300 36.76800 32.57000
H  46.44300 38.27600 33.05700
H  45.42400 36.87300 32.65300
H  45.85000 37.94100 31.39800
H  48.96800 34.71200 32.84600
H  48.00300 33.24000 32.93500
H  48.77400 34.05200 35.30000
H  47.13000 33.50900 34.86500
H  51.10100 40.14900 28.86600
H  49.84600 39.83200 30.01000
H  49.51900 40.74000 28.54700
H  51.61000 40.70900 26.75900
H  49.95200 41.21900 26.29500
H  51.19100 41.30600 25.15400
H  50.04100 34.46100 23.51500
H  47.83800 32.41100 23.39800
H  48.50500 35.00900 21.77300
H  47.66900 35.94000 23.05700
H  47.20400 34.26900 22.57600
H  49.66600 31.08500 23.30900
H  49.85000 31.27700 25.12000
H  51.91600 31.34900 24.01600
H  51.49800 33.11500 24.27700
H  51.38000 32.26300 22.68100
H  45.72300 29.31300 26.41600
H  44.12000 29.84100 27.08900
H  45.32300 28.85700 28.03000
H  44.11900 33.21200 31.33300
H  44.28300 32.83700 35.33200
H  44.72200 31.05800 34.94000
H  43.02300 31.76400 34.97000

