158

Mg 5.57200 54.12200 40.98300
C  4.61800 50.71500 40.32100
C  8.60300 53.46600 39.60500
C  6.13400 57.48600 41.16300
C  2.31900 54.51100 42.35700
N  6.30900 52.41600 39.81100
C  5.83700 51.14600 39.75600
C  6.78200 50.30400 38.93200
C  8.17900 51.01000 39.21200
C  7.67200 52.37500 39.60600
C  9.12000 50.42800 40.27600
C  6.33700 50.28800 37.42800
C  7.24600 49.39100 36.47300
H  6.30900 48.56600 35.50500
N  7.17900 55.34900 40.36400
C  8.34800 54.84300 39.94400
C  9.29400 55.97400 39.85100
C  8.51800 57.16500 40.09800
C  7.19800 56.72400 40.52900
C  10.65300 55.77900 39.39600
C  9.04100 58.50800 40.06500
O  10.18900 58.74700 39.63100
C  8.25500 59.73700 40.42200
N  4.34000 55.70100 41.48200
C  4.88200 56.95800 41.60000
C  3.93800 57.97100 42.31300
C  2.75600 57.02000 42.79900
C  3.16100 55.63200 42.21100
C  4.61600 58.86000 43.47800
C  1.30100 57.53300 42.33200
C  0.54100 58.30800 43.34500
N  3.72500 52.83300 41.25900
C  2.57800 53.18100 41.98300
C  1.77700 51.94200 42.12200
C  2.60400 50.99700 41.53400
C  3.68600 51.54900 40.96700
C  0.42900 51.81000 42.79600
C  2.51300 49.63100 41.27700
O  1.71500 48.78800 41.64700
C  3.93000 49.37000 40.43500
C  3.50500 48.62200 39.15600
O  2.45300 48.59200 38.50400
O  4.63200 47.87600 38.83200
C  4.70600 46.64000 38.10200
H  9.62200 53.25600 39.27300
H  6.33900 58.54200 41.35200
H  1.40500 54.73000 42.91400
H  6.95700 49.31500 39.35600
H  8.63600 51.11000 38.22800
H  10.12800 50.24600 39.90300
H  8.75000 49.47900 40.66400
H  9.15900 51.10100 41.13300
H  6.44400 51.29200 37.01700
H  5.29400 50.02300 37.25800
H  7.95400 48.62700 36.79100
H  7.82000 50.10900 35.88800
H  11.33000 56.24000 40.11600
H  10.66000 55.98100 38.32500
H  10.87600 54.72700 39.57100
H  8.91200 60.54600 40.10200
H  8.05600 59.74900 41.49400
H  7.37200 59.75300 39.78400
H  3.50700 58.60800 41.54100
H  2.63500 56.83400 43.86600
H  4.19100 58.71000 44.47000
H  4.26100 59.88200 43.34500
H  5.69700 58.73200 43.52600
H  0.72600 56.67400 41.98600
H  1.45000 58.15500 41.45000
H  -0.15200 58.98600 42.84700
H  1.23700 58.88700 43.95200
H  -0.02200 57.56600 43.91100
H  0.01100 50.88200 42.40600
H  -0.19900 52.66200 42.53800
H  0.64000 51.73700 43.86300
H  4.39000 48.65000 41.11100
H  4.15400 45.86000 38.62500
H  5.73800 46.35200 37.90300
H  4.32000 46.90400 37.11700
Mg -11.89800 17.56500 40.54900
C  -8.80800 15.62000 40.59900
C  -10.03000 20.16800 39.78700
C  -14.76200 19.09300 40.19400
C  -13.67200 14.47000 40.85000
N  -9.71200 17.75300 40.14800
C  -8.63000 16.97200 40.24600
C  -7.27400 17.76500 40.06600
C  -7.74300 19.25400 40.14000
C  -9.29600 19.04200 40.06800
C  -7.32900 20.13700 41.34000
C  -6.51000 17.44100 38.73700
C  -5.01100 17.36500 38.76500
H  -4.31800 17.17600 37.45500
N  -12.33800 19.47500 40.06700
C  -11.44600 20.44400 39.64800
C  -12.15100 21.67200 39.42100
C  -13.52300 21.34800 39.57000
C  -13.60100 19.92700 40.00500
C  -11.52100 23.04200 38.95600
C  -14.58100 22.32900 39.48000
O  -14.37900 23.54100 39.23800
C  -16.07600 21.94200 39.64900
N  -13.99500 16.83600 40.49300
C  -14.94600 17.73200 40.41900
C  -16.35700 17.06000 40.50000
C  -16.00900 15.53500 40.97700
C  -14.45300 15.58500 40.80500
C  -17.35000 17.75000 41.45800
C  -16.69500 14.50400 40.01800
C  -16.67800 13.06100 40.52100
N  -11.37800 15.49600 40.70500
C  -12.26800 14.43200 40.82900
C  -11.45700 13.18900 40.86900
C  -10.11100 13.67500 40.84300
C  -10.11300 15.05400 40.73100
C  -11.96700 11.78900 40.70500
C  -8.71500 13.22600 40.84400
O  -8.38700 12.07000 40.84200
C  -7.79900 14.48400 40.56800
C  -6.73500 14.59300 41.62400
O  -6.93700 15.28000 42.62600
O  -5.51100 14.01800 41.25800
C  -4.41700 14.23300 42.21300
H  -9.46200 21.09900 39.84200
H  -15.75900 19.53900 40.21300
H  -14.08200 13.49500 41.12000
H  -6.66100 17.40200 40.89100
H  -7.53300 19.85800 39.25700
H  -8.11300 20.10200 42.09700
H  -7.09700 21.18200 41.13300
H  -6.46300 19.55600 41.65700
H  -6.68400 18.18100 37.95600
H  -6.85700 16.53500 38.24000
H  -4.70800 16.55300 39.42700
H  -4.61000 18.27500 39.21000
H  -10.47500 22.91100 38.67900
H  -11.67700 23.76000 39.76100
H  -12.03100 23.34600 38.04100
H  -16.47900 21.26700 38.89400
H  -16.71400 22.82600 39.63700
H  -16.12900 21.45100 40.62100
H  -16.85600 16.96200 39.53600
H  -16.23300 15.38900 42.03400
H  -17.96500 17.05900 42.03500
H  -18.11500 18.25400 40.86800
H  -16.83800 18.54200 42.00400
H  -16.00500 14.65200 39.18800
H  -17.70200 14.87500 39.82700
H  -15.78200 12.62100 40.08200
H  -17.60700 12.57300 40.22600
H  -16.55500 13.00800 41.60200
H  -12.09300 11.43300 41.72800
H  -11.32400 11.13200 40.11900
H  -13.01500 11.82600 40.40900
H  -7.40700 14.46100 39.55000
H  -4.47000 15.10500 42.86500
H  -3.56200 14.26300 41.53800
H  -4.32700 13.29200 42.75600

