158

Mg 24.24900 -5.98700 45.06200
C  26.58700 -3.74200 43.82700
C  21.73500 -4.61400 43.24200
C  22.40100 -8.84000 45.56000
C  27.05100 -7.75600 46.62300
N  24.20600 -4.36400 43.69600
C  25.24500 -3.53600 43.37100
C  24.77500 -2.43500 42.42800
C  23.22600 -2.58700 42.51700
C  22.99800 -3.99900 43.09800
C  22.42500 -1.48600 43.23400
C  25.42300 -2.60000 40.96300
C  25.72400 -1.28200 40.30100
H  25.05000 -1.10000 38.91900
N  22.26500 -6.51500 44.67400
C  21.38200 -5.80000 43.89000
C  20.13700 -6.51800 43.81700
C  20.27000 -7.72900 44.53800
C  21.66500 -7.73900 44.94700
C  19.03900 -6.09200 42.91200
C  19.17000 -8.75000 44.62500
O  17.98800 -8.48300 44.35600
C  19.37700 -10.20900 45.16000
N  24.70000 -7.98800 45.88200
C  23.69300 -8.91200 45.95700
C  24.19300 -10.23200 46.52500
C  25.57400 -9.83500 47.12800
C  25.80300 -8.43400 46.58900
C  23.28500 -10.95600 47.61000
C  26.77800 -10.77200 46.77800
C  27.70100 -11.14500 48.01900
N  26.34300 -5.87700 45.23800
C  27.33400 -6.56400 45.97900
C  28.62200 -5.86000 45.91100
C  28.35100 -4.75000 45.06700
C  26.95400 -4.82300 44.69000
C  29.87500 -6.38100 46.58300
C  28.99700 -3.63400 44.41900
O  30.13200 -3.17000 44.42400
C  27.86800 -2.87900 43.65000
C  27.79500 -1.50000 44.08400
O  27.61100 -1.09300 45.23900
O  27.97500 -0.61100 43.00200
C  27.92300 0.79700 43.35300
H  20.91500 -4.25100 42.61800
H  21.79300 -9.73500 45.70900
H  27.94100 -8.25700 47.01100
H  24.99900 -1.45800 42.85600
H  22.73300 -2.40500 41.56300
H  21.56300 -1.12400 42.67400
H  23.02300 -0.58200 43.35300
H  22.17000 -1.77200 44.25500
H  24.63900 -3.13000 40.42300
H  26.34100 -3.17800 41.06400
H  26.78000 -1.19200 40.04900
H  25.38800 -0.45200 40.92300
H  18.62100 -6.92300 42.34300
H  19.27300 -5.21900 42.30400
H  18.27200 -5.70700 43.58500
H  18.35200 -10.57800 45.16300
H  19.83100 -10.02800 46.13400
H  20.09200 -10.70400 44.50300
H  24.25100 -10.90500 45.66900
H  25.50100 -9.74200 48.21100
H  24.04000 -11.40300 48.25700
H  22.68200 -11.73300 47.14000
H  22.59400 -10.22700 48.03400
H  27.30700 -10.30300 45.94800
H  26.38400 -11.66900 46.29900
H  27.78700 -12.22600 47.90600
H  27.20400 -10.88900 48.95500
H  28.63800 -10.58900 48.00300
H  30.02000 -7.45300 46.45200
H  29.81200 -6.24900 47.66300
H  30.70800 -5.79300 46.19800
H  28.22800 -2.84400 42.62200
H  28.73300 1.05000 44.03700
H  26.92900 1.06200 43.71500
H  28.10400 1.46500 42.51000
Mg 47.79400 15.28000 29.13800
C  45.96800 15.06300 32.01500
C  49.81100 17.71500 30.80700
C  49.45600 15.95900 26.21400
C  45.32500 13.42100 27.41900
N  47.74200 16.39000 31.07200
C  47.08600 15.81000 32.22900
C  47.70700 16.36200 33.53800
C  48.48200 17.53100 33.04800
C  48.72400 17.17200 31.51700
C  47.78700 19.01400 33.19400
C  48.42100 15.31900 34.38200
C  48.17900 15.36100 35.89900
H  47.86600 16.58400 36.67400
N  49.44700 16.53800 28.61200
C  50.15500 17.40800 29.46200
C  51.25200 18.02200 28.69700
C  51.13000 17.59100 27.33000
C  49.98400 16.63000 27.32300
C  52.14000 19.01300 29.31000
C  51.97900 17.96100 26.10800
O  51.84500 17.48000 25.03100
C  53.02300 19.00800 26.29700
N  47.43100 14.76700 27.08200
C  48.30700 15.14300 26.09700
C  47.82000 14.57700 24.77700
C  46.57500 13.73200 25.16300
C  46.40500 13.92400 26.64400
C  47.48500 15.71300 23.76000
C  46.68400 12.19400 24.86600
C  46.16600 11.86800 23.41700
N  45.94900 14.46300 29.51100
C  45.07300 13.72800 28.75300
C  43.93100 13.29200 29.57000
C  44.25600 13.81000 30.83800
C  45.47800 14.45300 30.76700
C  42.78600 12.41600 29.24400
C  43.79800 13.80000 32.23500
O  42.79200 13.26900 32.75100
C  44.88300 14.55500 32.97500
C  44.31700 15.67000 33.80400
O  44.04700 16.77300 33.44700
O  44.22600 15.28300 35.11100
C  43.86700 16.33900 36.05700
H  50.51400 18.35500 31.34400
H  50.04800 16.13400 25.31300
H  44.63700 12.71900 26.94300
H  46.87300 16.70300 34.15100
H  49.42400 17.61400 33.59100
H  48.24300 19.35800 34.12200
H  46.71800 18.96100 33.40000
H  48.00800 19.73300 32.40600
H  49.48900 15.52400 34.29900
H  48.35300 14.32000 33.95200
H  49.05000 14.90300 36.36700
H  47.28700 14.73300 35.90100
H  53.19400 18.76500 29.18400
H  51.92600 19.17900 30.36500
H  51.91900 20.00400 28.91200
H  52.62200 19.93400 26.71000
H  53.36100 19.16400 25.27300
H  53.83900 18.66200 26.93200
H  48.52900 13.91900 24.27500
H  45.74900 14.25000 24.67600
H  47.55600 16.66500 24.28600
H  46.47600 15.59100 23.36600
H  48.13500 15.74400 22.88600
H  46.18500 11.71500 25.70900
H  47.74300 11.96100 24.97800
H  45.37400 11.12000 23.46800
H  46.95500 11.39600 22.83100
H  45.81600 12.77700 22.92800
H  41.87000 12.71600 29.75400
H  43.06500 11.38100 29.44000
H  42.57900 12.43900 28.17400
H  45.26700 13.82400 33.68600
H  42.78400 16.46000 36.04100
H  44.22000 17.35300 35.86800
H  44.12400 16.12500 37.09400

