158

Mg 47.95800 44.75900 43.37700
C  44.59300 45.07800 42.26100
C  47.86700 41.40900 42.39900
C  51.44900 44.60600 43.75800
C  48.09900 48.27100 43.59800
N  46.45500 43.48300 42.44300
C  45.16000 43.74000 42.14600
C  44.53900 42.48000 41.50000
C  45.43300 41.35900 41.95600
C  46.67800 42.13500 42.28500
C  44.76600 40.54500 43.13300
C  44.35300 42.69200 39.98000
C  43.04500 42.20100 39.38700
H  43.11900 41.58300 37.97100
N  49.45100 43.20500 43.19100
C  49.16800 41.86600 42.88100
C  50.46500 41.05500 42.92900
C  51.50500 41.99400 43.28600
C  50.83500 43.34500 43.46200
C  50.55000 39.62600 42.57300
C  52.98800 41.65000 43.37400
O  53.38700 40.52300 43.00800
C  54.03700 42.71100 43.78000
N  49.56600 46.21500 43.40700
C  50.85200 45.93600 43.75600
C  51.67100 47.16900 44.03100
C  50.64600 48.28600 43.97300
C  49.35800 47.56900 43.65400
C  52.40700 47.05100 45.45500
C  51.06400 49.31500 42.92400
C  51.83400 50.61900 43.16100
N  46.57700 46.37300 43.15100
C  46.85900 47.73800 43.16800
C  45.62900 48.40400 42.88000
C  44.69200 47.42300 42.55200
C  45.34900 46.22600 42.67600
C  45.50000 49.93400 42.80100
C  43.32800 47.25300 42.00500
O  42.50700 48.02500 41.59100
C  43.26500 45.67300 41.90000
C  42.07700 45.02500 42.51400
O  41.46800 44.07000 41.96800
O  41.82800 45.55500 43.75000
C  40.85000 44.89500 44.64200
H  47.87000 40.34600 42.14900
H  52.52300 44.70500 43.93200
H  48.24000 49.34600 43.73600
H  43.52900 42.53200 41.90700
H  45.62800 40.69500 41.11400
H  44.84400 39.47800 42.92400
H  43.73200 40.85500 43.28300
H  45.40100 40.73500 43.99800
H  45.27700 42.24600 39.61200
H  44.37700 43.76800 39.81200
H  42.28600 42.97700 39.28900
H  42.69200 41.36600 39.99200
H  50.82100 39.47600 41.52800
H  49.55200 39.19600 42.66600
H  51.18000 39.11100 43.29900
H  54.93600 42.10400 43.88500
H  53.82000 43.08200 44.78200
H  54.22000 43.50700 43.05900
H  52.46600 47.37700 43.31500
H  50.67600 48.63700 45.00500
H  52.37000 47.98800 46.01000
H  53.48400 46.88000 45.44800
H  51.96900 46.22800 46.01900
H  50.10200 49.69100 42.57600
H  51.56900 48.89900 42.05200
H  51.29500 51.44700 42.70200
H  52.79800 50.50300 42.66600
H  52.04200 50.69400 44.22900
H  44.46500 50.25100 42.92500
H  45.90200 50.40500 41.90300
H  46.14300 50.26500 43.61600
H  43.11800 45.54900 40.82800
H  39.87900 45.37200 44.50800
H  41.20800 44.99400 45.66600
H  40.81500 43.82400 44.43700
Mg -10.89900 15.13900 42.52100
C  -7.67500 13.65500 41.94200
C  -10.12800 17.65300 40.46800
C  -14.15800 15.99600 42.71300
C  -11.80500 12.01400 44.15200
N  -9.06300 15.48900 41.31900
C  -7.82100 14.88700 41.28900
C  -6.89200 15.61000 40.25800
C  -7.68900 16.91600 40.00800
C  -9.08200 16.66400 40.58300
C  -6.95000 18.14000 40.64300
C  -6.40500 14.78500 39.01700
C  -4.95200 14.81500 38.81300
H  -4.38600 15.72400 37.67200
N  -11.99400 16.66500 41.74900
C  -11.49800 17.60800 40.90000
C  -12.44400 18.62600 40.75400
C  -13.60500 18.23900 41.47800
C  -13.35900 16.87100 41.99400
C  -12.22100 19.94600 40.02000
C  -14.93900 19.00800 41.50500
O  -15.00000 20.14600 41.04100
C  -16.18300 18.46700 42.17500
N  -12.73300 14.02000 43.28300
C  -13.89800 14.74600 43.30200
C  -14.94700 14.02600 44.20800
C  -14.28500 12.62600 44.55900
C  -12.85400 12.90300 44.00400
C  -15.26100 14.83800 45.48600
C  -14.95700 11.47400 43.81100
C  -15.08900 10.16900 44.76000
N  -9.87400 13.31100 43.20400
C  -10.46000 12.13600 43.73600
C  -9.36200 11.18500 43.95700
C  -8.27900 11.73100 43.18700
C  -8.66200 13.03000 42.76600
C  -9.44800 9.89700 44.75800
C  -6.92700 11.50600 42.62800
O  -6.20000 10.50000 42.72500
C  -6.42600 12.82300 41.94000
C  -5.39300 13.48600 42.78400
O  -5.35200 13.37700 44.04700
O  -4.44000 14.10100 41.98200
C  -3.56600 14.97600 42.67100
H  -9.67800 18.53500 40.00700
H  -15.17600 16.32800 42.92800
H  -12.00100 11.13900 44.77500
H  -6.04700 15.82800 40.91200
H  -7.70700 17.19700 38.95500
H  -7.44300 18.48200 41.55300
H  -6.90300 18.98100 39.95200
H  -5.88700 18.03800 40.86100
H  -6.78500 15.33900 38.15900
H  -6.81100 13.77400 39.01900
H  -4.57400 13.82200 38.57200
H  -4.36900 15.17900 39.65900
H  -11.16400 20.14600 39.84400
H  -12.63900 20.67300 40.71600
H  -12.80300 19.91500 39.09800
H  -16.91300 19.26800 42.29400
H  -15.84200 18.23300 43.18300
H  -16.67700 17.67000 41.62000
H  -15.87900 13.86300 43.66600
H  -14.16900 12.48900 45.63400
H  -14.76500 15.79500 45.64700
H  -15.12100 14.29900 46.42300
H  -16.30300 15.15400 45.53300
H  -14.37300 11.13600 42.95500
H  -15.96000 11.73300 43.47300
H  -15.98200 9.57700 44.55900
H  -14.97100 10.41200 45.81600
H  -14.28000 9.46000 44.58300
H  -9.37100 9.89400 45.84500
H  -8.65300 9.29900 44.31400
H  -10.40800 9.51300 44.41200
H  -5.99200 12.52500 40.98600
H  -2.96500 14.52200 43.45800
H  -4.14200 15.70100 43.24600
H  -2.82500 15.41800 42.00400

