158

Mg 8.27200 3.32800 27.31900
C  9.64100 1.72100 30.24800
C  6.55400 5.50000 29.44200
C  6.49400 4.38900 24.74200
C  9.77800 0.79200 25.43600
N  8.11100 3.49900 29.57900
C  8.78500 2.84700 30.54400
C  8.54000 3.43800 31.94300
C  7.42200 4.50900 31.71000
C  7.30000 4.50200 30.16100
C  6.17200 4.30000 32.61700
C  9.77400 3.97800 32.77700
C  10.00600 3.25100 34.13400
H  10.48300 4.21300 35.24900
N  6.89600 4.88600 27.06900
C  6.35100 5.68100 28.07400
C  5.49200 6.62400 27.42700
C  5.44400 6.31600 26.05400
C  6.25500 5.16400 25.88100
C  4.81900 7.81900 28.19700
C  4.74000 7.06600 24.98400
O  4.59600 6.68000 23.84200
C  3.93600 8.36200 25.29900
N  8.13400 2.59300 25.39700
C  7.29000 3.22000 24.48500
C  7.43800 2.44000 23.13500
C  8.57600 1.42100 23.35600
C  8.82400 1.64100 24.80700
C  6.00600 1.76900 22.79200
C  9.78100 1.61200 22.42600
C  9.85900 0.58300 21.16800
N  9.62800 1.67900 27.67500
C  10.12600 0.72800 26.81400
C  11.00400 -0.18000 27.55500
C  10.82000 0.15800 28.90300
C  9.88100 1.27100 28.92300
C  11.87200 -1.22800 26.98700
C  11.22500 -0.16900 30.31600
O  11.92200 -1.09200 30.79600
C  10.42400 0.99500 31.16900
C  9.61400 0.33200 32.27800
O  8.47100 -0.10500 32.15400
O  10.38400 0.28100 33.36800
C  9.72000 -0.43000 34.51000
H  5.93400 6.13800 30.07500
H  6.02500 4.72800 23.81600
H  10.16800 -0.01000 24.80500
H  8.06800 2.65800 32.54100
H  7.75800 5.51100 31.98000
H  6.38000 4.78000 33.57300
H  6.01600 3.31000 33.04500
H  5.29100 4.60800 32.05300
H  9.70900 5.05200 32.94700
H  10.67000 3.75900 32.19700
H  10.83700 2.54800 34.19500
H  9.09300 2.74300 34.44400
H  5.24700 8.72000 27.75900
H  5.13800 7.99200 29.22500
H  3.75700 7.65400 28.01600
H  3.06700 8.21100 25.93900
H  3.49200 8.74700 24.38000
H  4.61400 9.14800 25.63100
H  7.70800 3.23600 22.44200
H  8.24200 0.38400 23.39700
H  6.10700 0.69700 22.62200
H  5.66700 2.07200 21.80100
H  5.24800 1.93600 23.55700
H  10.69900 1.42800 22.98400
H  9.86700 2.64900 22.10300
H  10.12200 1.12700 20.26000
H  8.94300 0.00100 21.06200
H  10.71100 -0.03400 21.44900
H  12.41000 -1.70700 27.80500
H  12.56700 -1.02700 26.17100
H  11.12600 -1.89300 26.55200
H  11.17000 1.54600 31.74200
H  10.36800 -1.18300 34.95900
H  8.79700 -0.93300 34.22100
H  9.50200 0.33200 35.25900
Mg 47.51700 24.75700 29.10200
C  48.05100 27.20200 31.62500
C  46.56000 22.55200 31.52700
C  47.18100 22.32500 26.77200
C  48.92200 26.82700 26.78200
N  47.40000 24.90100 31.31600
C  47.59700 25.98000 32.10700
C  47.19500 25.71300 33.60700
C  46.83600 24.14500 33.52500
C  46.81600 23.84700 32.00900
C  47.83900 23.17800 34.34000
C  46.05800 26.65000 34.13200
C  46.28400 27.37800 35.47200
H  45.20700 27.24500 36.53800
N  46.81600 22.79300 29.10300
C  46.51100 22.08900 30.22400
C  46.20400 20.69200 29.88400
C  46.29400 20.64800 28.46400
C  46.79200 22.00400 28.06400
C  45.72300 19.51700 30.78300
C  46.00900 19.46500 27.52200
O  45.89500 19.55800 26.27800
C  45.76100 18.07900 28.03200
N  48.09100 24.57300 27.11300
C  47.82700 23.50800 26.32200
C  48.08800 23.76100 24.85800
C  48.32300 25.27600 24.87900
C  48.41200 25.61300 26.37300
C  49.31200 23.01000 24.30600
C  47.22200 26.05300 24.13000
C  45.80900 26.16500 24.75500
N  48.37000 26.67100 29.10500
C  48.93500 27.40200 28.10600
C  49.21100 28.76300 28.60200
C  48.88700 28.72200 29.92100
C  48.41600 27.41100 30.23200
C  49.84400 29.81500 27.77800
C  48.91800 29.45400 31.12700
O  49.29900 30.57300 31.29900
C  48.45300 28.47900 32.33800
C  49.62600 28.21900 33.24500
O  50.64400 27.71900 32.87700
O  49.30200 28.74700 34.42600
C  50.15400 28.20700 35.50400
H  46.33700 21.82500 32.31100
H  47.02800 21.61000 25.96100
H  49.38800 27.55500 26.11500
H  48.00800 25.91100 34.30400
H  45.81500 23.96700 33.86300
H  48.55000 22.64700 33.70700
H  47.38100 22.38200 34.92800
H  48.51100 23.77300 34.95900
H  45.19800 25.99400 34.26800
H  45.76600 27.38400 33.38200
H  46.46300 28.41600 35.18900
H  47.26000 27.14900 35.89900
H  46.40700 18.66900 30.80000
H  44.69300 19.27000 30.52300
H  45.83400 19.87300 31.80700
H  46.62200 17.86400 28.66500
H  45.82200 17.31800 27.25400
H  44.76000 18.04500 28.46400
H  47.20700 23.61100 24.23400
H  49.26400 25.51800 24.38300
H  50.18300 23.37100 24.85300
H  49.58700 23.14500 23.26000
H  49.08400 21.96100 24.49000
H  47.10700 25.66700 23.11700
H  47.69900 27.02900 24.03600
H  46.02400 27.06500 25.33200
H  45.54000 25.40100 25.48400
H  45.03400 26.35300 24.01200
H  49.49300 30.81300 28.04300
H  49.72300 29.63600 26.71000
H  50.90900 29.85200 28.00500
H  47.61900 28.95900 32.85000
H  51.10900 28.73300 35.48900
H  50.28500 27.13500 35.36100
H  49.61600 28.29900 36.44700

