158

Mg 42.56700 41.19500 26.39500
C  41.48400 43.38400 28.95500
C  43.81900 39.02100 28.87300
C  43.92600 39.31400 23.91000
C  41.50700 43.57600 24.06500
N  42.86800 41.35400 28.67300
C  42.10200 42.19400 29.42900
C  42.07000 41.78900 30.91700
C  42.89000 40.39000 30.84200
C  43.29400 40.27100 29.39700
C  44.00500 40.25000 31.88200
C  40.67400 41.61600 31.55100
C  40.38400 42.19900 32.95000
H  39.83300 41.19800 34.02400
N  43.75400 39.52900 26.36300
C  44.11700 38.76500 27.45200
C  44.81900 37.60000 26.98500
C  44.89700 37.70800 25.54800
C  44.10400 38.94600 25.17200
C  45.48600 36.56200 27.90800
C  45.60900 36.67800 24.64700
O  45.59300 36.77900 23.43400
C  46.34100 35.51500 25.16800
N  42.85700 41.50900 24.36100
C  43.31100 40.49500 23.55000
C  43.13700 40.82900 22.08000
C  42.12300 42.01400 22.11600
C  42.09100 42.35700 23.62300
C  44.40300 41.16700 21.28900
C  40.75900 41.56500 21.46800
C  39.97500 40.38800 22.07200
N  41.69500 43.11700 26.39900
C  41.35800 43.96400 25.39800
C  40.98600 45.24200 25.96900
C  40.85600 45.01900 27.36500
C  41.40800 43.72700 27.57500
C  40.56400 46.43400 25.25300
C  40.48900 45.62700 28.63100
O  40.02400 46.74500 28.88900
C  40.84300 44.57600 29.68700
C  41.61500 45.25700 30.78400
O  42.65500 45.81600 30.72000
O  40.73100 45.37200 31.84700
C  41.28400 46.08500 33.06500
H  44.21000 38.34400 29.63500
H  44.14100 38.69600 23.03600
H  41.04600 44.21400 23.30800
H  42.64800 42.56600 31.41800
H  42.20200 39.59400 31.12600
H  44.99300 40.42800 31.45600
H  43.93100 39.28800 32.38800
H  43.83300 41.08800 32.55800
H  40.29300 40.59500 31.57100
H  39.95600 42.05000 30.85600
H  39.58900 42.91700 32.75000
H  41.28900 42.70800 33.28300
H  44.81400 35.70500 27.87200
H  45.48300 36.79400 28.97300
H  46.48200 36.51500 27.46700
H  47.25300 35.86300 25.65300
H  46.64300 34.84300 24.36500
H  45.75800 34.83500 25.78900
H  42.75100 39.99500 21.49400
H  42.46700 42.93600 21.64800
H  45.31200 40.94900 21.84900
H  44.43900 42.19400 20.92500
H  44.56100 40.41800 20.51400
H  40.92100 41.41400 20.40100
H  40.11700 42.43900 21.35800
H  39.53600 39.79900 21.26700
H  39.15500 40.85300 22.61900
H  40.63200 39.79700 22.71100
H  40.52200 47.31000 25.90000
H  39.69100 46.42900 24.60100
H  41.42600 46.59500 24.60600
H  39.83900 44.32700 30.03200
H  42.09500 46.78900 32.87700
H  41.57000 45.43700 33.89300
H  40.52300 46.82600 33.31000
Mg -12.02700 38.08300 42.20600
C  -9.82000 35.28700 41.49500
C  -9.62500 40.10200 40.67100
C  -14.37900 40.44200 42.11300
C  -14.29100 35.74200 43.42300
N  -9.98400 37.67600 41.08500
C  -9.34300 36.49700 40.91800
C  -7.95400 36.69500 40.19000
C  -7.77500 38.33700 40.28800
C  -9.22900 38.76300 40.67400
C  -6.63300 38.94000 41.14000
C  -7.94300 36.13300 38.72800
C  -6.82400 35.06000 38.57200
H  -5.66400 35.31400 37.50300
N  -11.94800 40.03800 41.53400
C  -10.90800 40.67200 40.95900
C  -11.27200 42.07600 40.85100
C  -12.67700 42.24400 41.18100
C  -13.06600 40.84300 41.70900
C  -10.33000 43.16500 40.38600
C  -13.46600 43.57200 41.18200
O  -12.88500 44.65900 41.06800
C  -14.97000 43.61000 41.57500
N  -14.04600 38.00900 42.51700
C  -14.81700 39.15000 42.46300
C  -16.26300 38.82100 42.93200
C  -16.28800 37.27100 43.13900
C  -14.75700 36.97900 42.98900
C  -16.80500 39.65400 44.10800
C  -17.32800 36.37900 42.31100
C  -16.75300 35.78300 40.97200
N  -12.06800 35.97800 42.47100
C  -13.00500 35.24600 43.12900
C  -12.56400 33.90500 43.27800
C  -11.32200 33.85800 42.60700
C  -11.07200 35.19400 42.17800
C  -13.38300 32.83400 43.79900
C  -10.24600 33.04500 42.15300
O  -10.06700 31.83800 42.24000
C  -9.24100 33.91200 41.38800
C  -7.86000 33.74200 42.01300
O  -7.17600 32.76300 41.81100
O  -7.44200 34.82200 42.78500
C  -6.25900 34.58900 43.52900
H  -8.82800 40.79700 40.40000
H  -15.12300 41.23100 42.24500
H  -15.10300 35.02800 43.58000
H  -7.22100 36.23000 40.84900
H  -7.47300 38.63500 39.28400
H  -6.98900 39.87700 41.57000
H  -5.83200 39.10500 40.42000
H  -6.41600 38.24500 41.95000
H  -7.88500 36.95700 38.01700
H  -8.92300 35.70400 38.51700
H  -7.24500 34.06800 38.41200
H  -6.24800 35.03200 39.49700
H  -10.12200 43.85100 41.20700
H  -10.86500 43.76400 39.64900
H  -9.38500 42.80300 39.98300
H  -15.32000 43.31200 42.56400
H  -15.45700 42.87000 40.94000
H  -15.31700 44.60000 41.27800
H  -16.89500 38.97900 42.05800
H  -16.48400 37.05900 44.19000
H  -17.13800 38.98400 44.90000
H  -17.61300 40.28100 43.72900
H  -16.04700 40.35000 44.46800
H  -18.15900 37.00000 41.97700
H  -17.78000 35.62000 42.94900
H  -16.96800 34.72100 40.84700
H  -15.66900 35.77100 40.86200
H  -17.18200 36.21300 40.06700
H  -14.39100 32.88400 43.38800
H  -13.29000 32.82400 44.88500
H  -13.01700 31.86100 43.47200
H  -9.12300 33.56900 40.36000
H  -5.96200 33.54500 43.62800
H  -6.31700 34.96000 44.55300
H  -5.37900 35.09300 43.12900

