158

Mg 16.99400 -2.86500 27.99500
C  15.79500 -0.85600 30.64700
C  18.84200 -4.71000 30.32900
C  18.31200 -4.54300 25.44100
C  15.19400 -0.95600 25.79300
N  17.32700 -2.62000 30.27100
C  16.71200 -1.82500 31.12200
C  17.05100 -2.17300 32.58300
C  18.14000 -3.33100 32.37900
C  18.15400 -3.57600 30.86000
C  19.53900 -3.03700 32.88100
C  15.80800 -2.51600 33.51500
C  15.86300 -1.94400 34.95900
H  17.11700 -1.22700 35.53300
N  18.42100 -4.43700 27.93600
C  19.00700 -5.08500 28.98100
C  19.78900 -6.19000 28.44200
C  19.67600 -6.11700 27.02100
C  18.74800 -5.05000 26.74800
C  20.57800 -7.10400 29.30800
C  20.42100 -7.01000 25.93600
O  20.27800 -6.72700 24.72900
C  21.34800 -8.07900 26.35100
N  16.87300 -2.67400 25.87800
C  17.56800 -3.43400 24.99000
C  17.38100 -2.84800 23.53800
C  16.27400 -1.76100 23.66400
C  16.02600 -1.86100 25.22900
C  18.77800 -2.37900 22.82200
C  15.01400 -2.09200 22.76100
C  14.62800 -0.88600 21.83700
N  15.63000 -1.35400 28.18400
C  14.97100 -0.68300 27.15000
C  14.17800 0.36200 27.69900
C  14.44500 0.35300 29.12500
C  15.30100 -0.74000 29.36000
C  13.37200 1.39200 26.91900
C  14.20400 1.06300 30.32400
O  13.59300 2.10900 30.53800
C  15.02600 0.21600 31.45600
C  15.88500 1.16100 32.24900
O  17.07500 1.23100 32.22500
O  15.20800 1.91200 33.16000
C  15.81500 2.83100 34.12700
H  19.32400 -5.32900 31.08800
H  18.66000 -5.08600 24.56000
H  14.60500 -0.47900 25.00800
H  17.52300 -1.25500 32.93400
H  17.85500 -4.28700 32.81700
H  19.54600 -2.08300 33.40900
H  20.23300 -2.84700 32.06200
H  19.99800 -3.87800 33.40000
H  15.76700 -3.59400 33.66700
H  14.93600 -2.10600 33.00500
H  15.62900 -2.71800 35.69000
H  15.05400 -1.21300 34.95800
H  20.46700 -6.83300 30.35800
H  21.64500 -6.99000 29.11600
H  20.44300 -8.17900 29.19000
H  20.74100 -8.74300 26.96600
H  22.14100 -7.67600 26.98200
H  21.76800 -8.56900 25.47200
H  17.01100 -3.71700 22.99400
H  16.62600 -0.75600 23.43200
H  18.81800 -1.31400 22.58900
H  19.20500 -2.96300 22.00800
H  19.51000 -2.36400 23.63000
H  14.23500 -2.56600 23.35800
H  15.33800 -2.90300 22.10900
H  14.02800 -1.10300 20.95300
H  15.49700 -0.29600 21.54500
H  14.08400 -0.14900 22.42900
H  12.93400 0.90400 26.04900
H  14.01600 2.23300 26.66000
H  12.46700 1.64900 27.47000
H  14.35800 -0.29800 32.14800
H  16.03900 3.76500 33.61200
H  16.79700 2.53600 34.49600
H  15.03100 2.92400 34.87900
Mg 15.19400 51.20000 25.96400
C  17.68300 50.61800 28.45100
C  12.97000 51.58500 28.57600
C  12.98700 51.48700 23.66800
C  17.68900 50.65600 23.54700
N  15.38300 51.24500 28.24000
C  16.49200 51.05500 29.01500
C  16.25600 51.21200 30.53200
C  14.72300 51.12900 30.51600
C  14.32500 51.38300 29.07200
C  14.19000 49.78500 31.08000
C  16.79200 52.62100 30.99800
C  17.05200 52.83000 32.45300
H  16.34300 51.91200 33.47100
N  13.29200 51.44300 26.17000
C  12.48000 51.59900 27.23800
C  11.09200 51.67900 26.78200
C  11.02500 51.56900 25.34600
C  12.48100 51.46600 25.00800
C  9.89400 51.80900 27.75200
C  9.77500 51.56200 24.34100
O  9.99800 51.56600 23.15300
C  8.39600 51.56400 24.92300
N  15.39100 51.28600 23.85800
C  14.32100 51.42200 23.10000
C  14.60100 51.33800 21.61600
C  16.17500 51.35000 21.60600
C  16.45600 51.04900 23.09200
C  13.79300 50.15400 20.97500
C  16.80100 52.74200 21.23000
C  17.94000 52.69500 20.17900
N  17.23200 50.69800 25.90800
C  18.13700 50.47000 24.86300
C  19.42700 50.07700 25.32200
C  19.27700 50.12100 26.72200
C  17.94600 50.49700 27.06500
C  20.50900 49.70000 24.39000
C  19.99900 49.86700 27.97400
O  21.09500 49.38800 28.21500
C  18.99200 50.25900 29.16300
C  18.85500 49.11100 30.16400
O  18.22600 48.07600 30.08600
O  19.57500 49.51900 31.30200
C  19.34500 48.69800 32.52400
H  12.15600 51.64500 29.30200
H  12.26000 51.43900 22.85500
H  18.43600 50.54800 22.75800
H  16.68000 50.38200 31.09700
H  14.41300 51.95900 31.15100
H  13.28900 49.46700 30.55600
H  13.93300 49.81900 32.13900
H  14.99800 49.06000 30.98300
H  16.05900 53.41300 30.84900
H  17.68600 52.85900 30.42300
H  16.78700 53.85400 32.71700
H  18.13800 52.73900 32.47900
H  9.43300 50.82200 27.80200
H  9.16900 52.46400 27.26900
H  10.29900 52.07000 28.73000
H  8.11800 52.55100 25.29400
H  8.18000 50.88400 25.74700
H  7.63900 51.27000 24.19600
H  14.15200 52.25400 21.23200
H  16.62000 50.50900 21.07300
H  14.43200 49.48300 20.40100
H  13.06400 50.69700 20.37400
H  13.31700 49.52100 21.72400
H  17.29900 53.15100 22.10800
H  15.97000 53.39600 20.96500
H  17.40700 52.95900 19.26600
H  18.38200 51.70300 20.27000
H  18.60000 53.53300 20.40000
H  21.41200 50.17600 24.77300
H  20.30700 49.97400 23.35500
H  20.80500 48.65100 24.41700
H  19.53500 51.08200 29.62700
H  20.13900 48.96500 33.22200
H  19.35200 47.61000 32.46000
H  18.46200 49.11000 33.01300

