158

Mg 24.68900 -7.87000 45.87700
C  27.12600 -5.52000 45.00700
C  22.39600 -6.38600 43.96100
C  22.61400 -10.45000 46.64800
C  27.30500 -9.59300 47.73500
N  24.76900 -6.18100 44.62900
C  25.92000 -5.35800 44.40000
C  25.52900 -4.21400 43.32400
C  23.93500 -4.35000 43.20800
C  23.68900 -5.72200 43.92600
C  23.20200 -3.16300 43.84200
C  26.29600 -4.45500 42.00200
C  25.68600 -3.61000 40.85000
H  24.90200 -4.22700 39.69600
N  22.81300 -8.37900 45.33900
C  21.97300 -7.55500 44.65400
C  20.65300 -8.19700 44.55000
C  20.68100 -9.34600 45.33600
C  22.11300 -9.46500 45.81300
C  19.47100 -7.61500 43.67300
C  19.39600 -10.22600 45.68500
O  18.30400 -9.97500 45.16200
C  19.48400 -11.50000 46.41200
N  24.94300 -9.72800 46.92700
C  23.92600 -10.52500 47.14000
C  24.25100 -11.75600 48.05100
C  25.83900 -11.66800 48.19200
C  26.07500 -10.25600 47.53200
C  23.58800 -11.70200 49.45000
C  26.72900 -12.72800 47.45500
C  28.00000 -13.25900 48.25400
N  26.82800 -7.57900 46.36600
C  27.66900 -8.30800 47.14200
C  28.91400 -7.61600 47.24700
C  28.74500 -6.50300 46.42100
C  27.47300 -6.52100 45.86600
C  30.13600 -8.10000 48.05100
C  29.38100 -5.37500 45.85300
O  30.54200 -4.97400 46.06600
C  28.42300 -4.67100 44.81500
C  28.30200 -3.25200 45.09600
O  28.82800 -2.44900 44.32000
O  27.44800 -2.92600 46.13600
C  27.00500 -1.50400 46.17100
H  21.64600 -5.86900 43.35900
H  21.88900 -11.23300 46.88000
H  28.05600 -10.18500 48.26200
H  25.94900 -3.33900 43.82100
H  23.64300 -4.49900 42.16800
H  22.74200 -2.66000 42.99200
H  23.66600 -2.47900 44.55100
H  22.36300 -3.51900 44.44000
H  26.11400 -5.51100 41.80300
H  27.28900 -4.04100 42.17500
H  26.54500 -3.00200 40.56600
H  24.92500 -2.93000 41.23400
H  19.56400 -6.53700 43.53800
H  18.50000 -7.75400 44.14800
H  19.51700 -8.22300 42.76900
H  19.95100 -11.23700 47.36100
H  20.15600 -12.14800 45.84900
H  18.52300 -11.99900 46.53300
H  24.06400 -12.64400 47.44800
H  26.16800 -11.71500 49.23100
H  23.14900 -12.69800 49.52100
H  22.80700 -10.95100 49.57300
H  24.19600 -11.75600 50.35300
H  26.94800 -12.31600 46.47000
H  26.10500 -13.59500 47.23400
H  28.23900 -12.71500 49.16800
H  28.86600 -13.18400 47.59600
H  27.80400 -14.32600 48.36600
H  30.50700 -9.00900 47.57700
H  29.88500 -8.20000 49.10700
H  30.85500 -7.28700 47.94800
H  28.90100 -4.74500 43.83900
H  26.45000 -1.28500 45.25900
H  27.81200 -0.79400 45.99100
H  26.36200 -1.29800 47.02700
Mg 8.95500 48.29800 27.71800
C  7.08600 47.89100 30.64900
C  11.65900 48.90900 29.78100
C  10.73800 49.33700 25.08100
C  6.05900 48.70400 25.95000
N  9.24800 48.67100 29.95800
C  8.42900 48.18400 30.91800
C  9.07600 48.26700 32.36800
C  10.49800 48.80900 32.12400
C  10.49000 48.74700 30.49200
C  10.85800 50.22500 32.65200
C  8.98700 46.98800 33.28000
C  8.40400 47.18100 34.67200
H  8.50100 45.94300 35.59000
N  10.94500 48.85300 27.46700
C  11.90400 48.91500 28.42000
C  13.18000 49.18300 27.82900
C  12.91100 49.31700 26.42000
C  11.48400 49.16800 26.23700
C  14.46200 49.37600 28.67200
C  13.92700 49.50600 25.31000
O  13.51400 49.66000 24.13100
C  15.35000 49.48900 25.63200
N  8.50800 48.91500 25.71300
C  9.44300 49.28300 24.83300
C  8.75100 49.78700 23.59600
C  7.23600 49.48800 23.87300
C  7.27300 48.93300 25.25100
C  9.11300 51.21800 23.06300
C  6.53100 48.56800 22.84500
C  6.86200 48.76400 21.33100
N  6.92100 48.11900 28.08000
C  5.83700 48.27700 27.25300
C  4.62000 48.01200 28.04000
C  5.05800 47.89900 29.38300
C  6.47800 47.91300 29.34400
C  3.25500 48.03900 27.51200
C  4.64000 47.78200 30.78600
O  3.51600 47.73300 31.31000
C  5.92800 47.68300 31.63200
C  5.87200 46.21400 32.21000
O  6.12500 45.12300 31.68800
O  5.47600 46.32500 33.52300
C  5.40800 45.09100 34.27100
H  12.47200 49.16400 30.46400
H  11.27300 49.58300 24.16100
H  5.14600 48.90300 25.38600
H  8.48000 49.04200 32.85100
H  11.26300 48.13200 32.50200
H  10.07000 50.60400 33.30300
H  11.00400 50.95500 31.85600
H  11.78900 50.23900 33.21900
H  9.96400 46.58700 33.54900
H  8.50900 46.14200 32.78600
H  7.40700 47.58700 34.50400
H  8.96000 47.98100 35.16000
H  14.57200 50.46000 28.64300
H  15.33600 49.02100 28.12600
H  14.39200 48.94700 29.67100
H  15.71300 50.18900 26.38500
H  15.84200 49.81000 24.71400
H  15.66400 48.49200 25.94000
H  8.99700 49.06400 22.81800
H  6.76000 50.46200 23.98800
H  8.23900 51.83700 23.26800
H  9.37100 51.30400 22.00800
H  9.85000 51.74300 23.67100
H  5.48500 48.87300 22.87100
H  6.68300 47.52300 23.11200
H  7.27400 49.76700 21.22100
H  5.93300 48.81000 20.76200
H  7.52300 47.99500 20.93200
H  3.22200 48.93100 26.88700
H  2.45800 48.03600 28.25600
H  3.20800 47.12600 26.91900
H  5.97100 48.42700 32.42700
H  4.62200 44.39700 33.97200
H  5.35300 45.37500 35.32200
H  6.32600 44.52800 34.10200

