158

Mg 7.97100 2.54300 27.63500
C  9.36200 1.03400 30.44500
C  5.95600 4.35800 29.80600
C  6.38400 3.90400 24.94500
C  9.68200 0.43800 25.64800
N  7.62300 2.56700 29.91100
C  8.38700 1.98700 30.82200
C  7.95800 2.45300 32.24100
C  6.67300 3.36200 32.00300
C  6.70000 3.39500 30.48800
C  5.29300 2.92500 32.52500
C  9.08600 3.07500 33.12900
C  8.63000 3.53300 34.51600
H  9.51000 3.28700 35.72500
N  6.48800 4.04000 27.39000
C  5.78000 4.61300 28.43700
C  4.86800 5.56100 27.90500
C  4.99600 5.51100 26.49500
C  6.05700 4.50100 26.20600
C  3.80500 6.37800 28.73900
C  4.23800 6.30900 25.52500
O  4.43700 6.21500 24.30900
C  3.20600 7.27800 25.86300
N  7.88700 2.12700 25.61800
C  7.20200 2.78800 24.67200
C  7.41000 2.24900 23.26900
C  8.71300 1.32300 23.50700
C  8.84100 1.35800 25.01000
C  6.07000 1.58900 22.71500
C  10.03800 1.89100 22.83700
C  10.85100 0.80100 22.20400
N  9.13300 0.86100 27.95000
C  9.78200 0.15800 27.00000
C  10.75800 -0.68500 27.59200
C  10.61900 -0.43100 28.96600
C  9.57800 0.54200 29.12600
C  11.67400 -1.54200 26.84100
C  11.11300 -0.76500 30.28100
O  12.01500 -1.57500 30.52500
C  10.32200 0.15600 31.36000
C  9.61100 -0.78000 32.29900
O  8.97600 -1.74000 32.02400
O  9.78000 -0.37800 33.58100
C  8.85600 -0.88500 34.59800
H  5.28900 4.88900 30.48800
H  5.96700 4.41900 24.07700
H  10.33900 -0.05800 24.93100
H  7.79400 1.56800 32.85500
H  6.88700 4.31800 32.48200
H  4.59700 2.71500 31.71300
H  4.96900 3.60200 33.31500
H  5.48500 1.97000 33.01500
H  9.45700 3.92300 32.55300
H  9.92100 2.37500 33.15600
H  7.65000 3.10300 34.72400
H  8.43900 4.60500 34.45500
H  3.59800 6.04000 29.75400
H  2.77700 6.29900 28.38500
H  4.07600 7.43200 28.79900
H  2.76500 7.71200 24.96600
H  3.52400 8.09800 26.50700
H  2.32900 6.74100 26.22300
H  7.56700 3.04100 22.53700
H  8.54000 0.26600 23.30700
H  6.18700 0.51100 22.83000
H  5.80900 1.96700 21.72700
H  5.30700 1.85200 23.44700
H  10.64800 2.32400 23.63000
H  9.98600 2.71200 22.12100
H  10.63000 0.77300 21.13700
H  10.64900 -0.19200 22.60400
H  11.89300 1.10700 22.28900
H  12.12800 -2.24200 27.54300
H  12.53400 -1.06900 26.36800
H  11.10200 -2.11900 26.11500
H  10.97300 0.83000 31.91700
H  9.38900 -1.43700 35.37200
H  8.05700 -1.55300 34.27700
H  8.33000 -0.01900 34.99800
Mg 49.28900 35.55800 27.96900
C  47.07200 34.35700 30.32200
C  49.75100 38.42600 30.11600
C  51.12800 37.22300 25.62400
C  48.70900 32.99200 25.76800
N  48.50400 36.29100 30.01400
C  47.62600 35.53800 30.76200
C  47.36900 36.30900 32.07600
C  48.13400 37.72200 31.86600
C  48.81900 37.48200 30.51300
C  47.12600 38.87200 31.72100
C  47.72500 35.61900 33.39000
C  49.02500 34.76500 33.54100
H  50.28100 35.40700 34.10700
N  50.21300 37.57000 27.81600
C  50.34300 38.49800 28.80400
C  51.12300 39.65900 28.30800
C  51.49000 39.35100 26.94200
C  50.91600 37.99700 26.72200
C  51.36600 40.92700 29.22300
C  52.25600 40.16600 25.95700
O  52.64000 39.75100 24.86900
C  52.79700 41.48600 26.43700
N  49.86400 35.13700 26.00000
C  50.72700 35.89100 25.30500
C  51.21500 35.08400 24.07600
C  50.45200 33.72700 24.17600
C  49.60600 33.93800 25.36000
C  51.02500 35.84400 22.66200
C  51.36700 32.48700 24.16200
C  50.87500 31.40900 23.12400
N  48.18300 33.95700 28.02900
C  48.02800 33.00500 27.02800
C  46.85400 32.16200 27.51700
C  46.50000 32.59100 28.85100
C  47.33300 33.68600 29.05600
C  46.20500 31.01000 26.77500
C  45.58100 32.41000 29.88000
O  44.61800 31.62100 29.95600
C  45.85800 33.55600 30.93300
C  46.30500 32.76900 32.10100
O  47.36000 32.18400 32.21900
O  45.35300 32.83300 33.05400
C  45.59800 32.11300 34.29600
H  50.00100 39.26900 30.76400
H  51.80700 37.56500 24.84000
H  48.45300 32.13900 25.13700
H  46.29700 36.47400 31.97000
H  48.93200 37.97300 32.56400
H  46.82500 39.25200 32.69700
H  46.24200 38.72200 31.10100
H  47.65600 39.68000 31.21700
H  46.83100 35.02100 33.56700
H  47.85700 36.42200 34.11500
H  49.21100 34.39400 32.53300
H  48.76800 33.93700 34.20200
H  52.37700 41.03000 29.61600
H  50.65500 40.93600 30.05000
H  51.16100 41.81900 28.63200
H  52.15600 42.33700 26.66700
H  53.43400 41.90000 25.65500
H  53.44200 41.19700 27.26700
H  52.27400 34.84900 24.18200
H  49.86600 33.78000 23.25800
H  50.44700 36.76600 22.72000
H  50.64700 35.13300 21.92800
H  52.02800 36.05500 22.29200
H  51.29800 31.93500 25.09900
H  52.43500 32.69900 24.10800
H  51.78700 31.13600 22.59200
H  49.96600 31.66900 22.58200
H  50.61500 30.47000 23.61400
H  45.50400 30.48100 27.42100
H  46.97500 30.29000 26.49900
H  45.61800 31.25700 25.89000
H  44.88300 34.01100 31.10900
H  45.67000 31.03600 34.14500
H  44.81700 32.43800 34.98400
H  46.59200 32.29500 34.70400

