158

Mg 53.94500 25.17300 44.27200
C  51.31200 27.57200 43.61200
C  51.86100 22.76700 43.06900
C  56.67900 23.24300 44.16200
C  55.97300 27.98000 45.20300
N  51.89100 25.25600 43.26400
C  51.00500 26.32400 43.09000
C  49.69800 25.85400 42.43600
C  49.85200 24.29300 42.61100
C  51.30500 24.04100 42.95100
C  48.87400 23.78900 43.74400
C  49.48500 26.22400 40.92100
C  50.75000 26.56000 40.09300
H  50.95200 25.64000 38.84400
N  54.25300 23.19200 43.65300
C  53.21800 22.33600 43.36000
C  53.79800 21.01700 43.17700
C  55.21700 21.12100 43.51100
C  55.47000 22.53400 43.84000
C  53.03900 19.77100 42.79500
C  56.19300 20.00300 43.54800
O  55.69100 18.84400 43.35500
C  57.60800 20.15300 43.89400
N  56.01100 25.59300 44.56600
C  56.94900 24.58300 44.43700
C  58.37400 25.10900 44.59900
C  58.10400 26.66600 44.68400
C  56.61100 26.78600 44.83400
C  59.27700 24.53600 45.75700
C  58.58300 27.52300 43.50100
C  59.28600 28.86600 43.83200
N  53.65100 27.33900 44.55700
C  54.56200 28.27400 45.07400
C  53.81300 29.52200 45.30900
C  52.60700 29.23000 44.74100
C  52.52000 27.92800 44.22500
C  54.44200 30.74200 45.80400
C  51.35100 29.79500 44.45600
O  51.04600 30.93100 44.70900
C  50.47600 28.77800 43.72000
C  50.10600 29.30000 42.35400
O  50.86600 29.28500 41.38600
O  48.75300 29.67500 42.35500
C  48.19000 30.11700 40.99600
H  51.31100 21.86400 42.79700
H  57.68500 22.82400 44.23400
H  56.54000 28.89300 45.39700
H  48.91500 26.25300 43.08100
H  49.80700 23.76300 41.66000
H  48.71900 24.51500 44.54200
H  49.34900 22.85600 44.04600
H  47.92200 23.62300 43.24000
H  48.87600 27.12700 40.87400
H  48.89300 25.50200 40.36000
H  51.72500 26.56300 40.58000
H  50.56600 27.59200 39.79300
H  52.17500 20.08300 42.20900
H  52.62400 19.33900 43.70600
H  53.62300 19.03000 42.24900
H  58.11000 19.28700 44.32600
H  57.80400 20.83100 44.72400
H  58.13000 20.57100 43.03300
H  58.94500 24.87200 43.70100
H  58.42300 27.08900 45.63600
H  58.64500 23.95400 46.42700
H  59.75400 25.27900 46.39600
H  60.07600 23.89400 45.38700
H  57.86600 27.60900 42.68400
H  59.36800 26.91400 43.05300
H  59.33500 29.42500 42.89700
H  60.27400 28.67200 44.25100
H  58.78200 29.43000 44.61700
H  55.09400 30.36900 46.59300
H  53.86200 31.63400 46.04200
H  54.99800 31.00800 44.90400
H  49.53200 28.62600 44.24500
H  48.44700 29.37700 40.23800
H  48.58400 31.10500 40.75700
H  47.10400 30.20400 41.04500
Mg 48.21800 24.84300 29.70600
C  49.32000 27.33200 31.96600
C  46.52800 23.23100 32.35300
C  47.70500 22.30800 27.64200
C  50.04100 26.52300 27.26800
N  48.16500 25.18000 31.92200
C  48.55700 26.33700 32.56500
C  48.14000 26.26600 34.03700
C  47.54500 24.83100 34.17000
C  47.34100 24.37200 32.75000
C  48.45200 23.81000 34.87200
C  47.15200 27.44200 34.44900
C  47.72800 28.36000 35.50600
H  46.87100 28.57300 36.73000
N  47.11800 23.05300 29.93600
C  46.50500 22.60700 31.05400
C  45.74600 21.40100 30.67300
C  46.09000 21.06300 29.32500
C  47.05800 22.15800 28.91100
C  44.99100 20.53000 31.70100
C  45.67500 19.90700 28.52900
O  46.14700 19.70200 27.43400
C  44.63800 19.10000 28.98300
N  48.96000 24.43000 27.79100
C  48.45000 23.32400 27.14300
C  48.82900 23.41700 25.63200
C  49.27300 24.93100 25.42700
C  49.43600 25.32400 26.88100
C  49.90400 22.34300 25.26800
C  48.20400 25.86600 24.88600
C  48.77700 27.04100 23.98000
N  49.31000 26.60400 29.53800
C  49.98000 27.11200 28.49900
C  50.71500 28.33400 28.86200
C  50.39700 28.50600 30.26600
C  49.54000 27.38900 30.57600
C  51.58300 29.12700 28.00500
C  50.72300 29.33900 31.44100
O  51.37500 30.36800 31.53100
C  50.04200 28.52500 32.63200
C  51.07100 28.22100 33.69500
O  51.89000 27.33700 33.63200
O  51.01700 29.10700 34.74100
C  51.99600 29.01300 35.82100
H  45.99200 22.74600 33.17100
H  47.40100 21.47700 27.00200
H  50.53200 27.07300 26.46200
H  49.05000 26.33300 34.63400
H  46.55400 24.79000 34.62200
H  48.65200 22.97600 34.19900
H  47.88200 23.26800 35.62700
H  49.40700 24.19500 35.23000
H  46.24300 26.91800 34.74300
H  46.93400 27.99200 33.53300
H  47.88900 29.35500 35.09100
H  48.75300 28.18000 35.83200
H  45.23600 20.74900 32.74000
H  45.31900 19.49100 31.73700
H  43.91400 20.52800 31.53100
H  43.80500 19.75500 29.23900
H  45.03800 18.60900 29.87000
H  44.30200 18.40000 28.21700
H  47.95800 23.23900 25.00000
H  50.21000 25.10600 24.89800
H  49.42300 21.36500 25.26500
H  50.59100 22.00500 26.04400
H  50.36900 22.41200 24.28500
H  47.73700 26.43000 25.69400
H  47.51600 25.25100 24.30500
H  49.58400 26.58900 23.40200
H  49.12500 27.83100 24.64600
H  47.96300 27.30900 23.30700
H  51.29000 28.97700 26.96600
H  52.62500 28.87700 28.20200
H  51.38700 30.14900 28.32900
H  49.39800 29.28700 33.07000
H  52.01000 29.98300 36.31800
H  52.98800 28.76900 35.43900
H  51.58300 28.28800 36.52200

