158

Mg 49.79000 45.24500 43.21200
C  46.23700 45.62500 42.52000
C  49.53100 42.10400 42.22000
C  53.07400 45.22600 43.40500
C  49.89000 48.85300 43.32500
N  48.04200 44.06400 42.39600
C  46.73500 44.36900 42.26300
C  45.93500 43.08500 41.96600
C  47.02300 41.97300 42.05600
C  48.28700 42.71200 42.24900
C  46.79400 40.92700 43.21300
C  45.10400 43.00800 40.67400
C  45.63200 43.78100 39.45700
H  45.68400 42.90500 38.17000
N  51.09100 43.84500 42.96500
C  50.87000 42.51800 42.58200
C  52.07100 41.76900 42.64100
C  53.13400 42.65800 43.05800
C  52.46400 43.97000 43.14600
C  52.08600 40.29300 42.22800
C  54.58700 42.25500 43.28900
O  54.99800 41.13900 42.94000
C  55.64200 43.20200 43.85100
N  51.26100 46.80900 43.25900
C  52.53400 46.51200 43.52700
C  53.40800 47.74400 43.85200
C  52.48000 48.89700 43.51200
C  51.13700 48.19700 43.39200
C  54.04200 47.79500 45.38500
C  52.91400 49.57500 42.14500
C  52.37700 51.00000 41.82800
N  48.39200 46.90600 43.15800
C  48.59700 48.24500 43.08900
C  47.32000 48.94600 43.08000
C  46.40200 47.98500 42.77700
C  47.08000 46.72600 42.83500
C  47.07300 50.45600 43.27100
C  44.96200 47.75000 42.56400
O  44.03000 48.55100 42.46300
C  44.75900 46.19100 42.42000
C  43.74100 45.70800 43.37600
O  42.75700 45.16500 42.99600
O  44.08700 45.74800 44.70700
C  43.09900 45.12400 45.64900
H  49.38300 41.08600 41.85300
H  54.16300 45.20900 43.32200
H  49.98500 49.94100 43.32400
H  45.18700 42.96900 42.75000
H  47.04300 41.38200 41.14000
H  46.21600 40.12700 42.75000
H  46.37900 41.41400 44.09500
H  47.75400 40.46700 43.44700
H  44.13200 43.43100 40.93000
H  44.96700 41.94300 40.49100
H  46.62300 44.17800 39.68000
H  44.87700 44.56400 39.38300
H  53.04900 39.78600 42.17200
H  51.76500 40.12800 41.20000
H  51.38400 39.76800 42.87600
H  56.16800 43.69400 43.03300
H  56.41400 42.52700 44.21800
H  55.29200 43.84900 44.65500
H  54.27200 47.55900 43.21400
H  52.43300 49.57300 44.36600
H  55.05800 47.40000 45.39100
H  53.36000 47.16000 45.94900
H  53.95400 48.78200 45.83800
H  52.58300 48.91000 41.34700
H  53.98000 49.42700 41.97100
H  53.21800 51.61100 41.50200
H  51.77100 51.39300 42.64400
H  51.76300 50.85800 40.93900
H  47.53300 50.82600 44.18800
H  46.03800 50.79800 43.26800
H  47.62600 51.02500 42.52300
H  44.28600 46.03000 41.45100
H  43.20900 44.04200 45.71400
H  42.09300 45.46200 45.40000
H  43.35200 45.55300 46.61900
Mg -11.97400 16.21700 42.20900
C  -8.97300 14.66700 41.65600
C  -10.75200 19.08400 40.72500
C  -15.18600 17.36700 41.76000
C  -13.32500 13.19300 43.20500
N  -10.12800 16.77500 41.17300
C  -9.00400 15.98400 41.10500
C  -7.82700 16.67100 40.32500
C  -8.36800 18.13000 40.25900
C  -9.83600 17.99000 40.74700
C  -7.63100 19.22900 41.15200
C  -7.60900 15.92300 38.97200
C  -6.15400 15.73800 38.66800
H  -5.60300 16.36600 37.35200
N  -12.79900 18.03100 41.56900
C  -12.04200 19.08500 41.11100
C  -12.87100 20.22400 40.98800
C  -14.26500 19.83700 41.19400
C  -14.16700 18.35300 41.54000
C  -12.34200 21.61600 40.76000
C  -15.50400 20.68300 41.12400
O  -15.42400 21.86300 40.91100
C  -16.86200 20.08700 41.28400
N  -13.92500 15.33300 42.19900
C  -15.08300 16.00700 42.07000
C  -16.35000 15.19400 42.44200
C  -15.78600 13.96100 43.12100
C  -14.25000 14.14900 42.85400
C  -17.44900 15.92600 43.28900
C  -16.50900 12.64700 42.69200
C  -17.29500 11.79700 43.73200
N  -11.27800 14.26300 42.49000
C  -11.92500 13.12700 42.88100
C  -10.92700 12.11700 43.10400
C  -9.76400 12.65600 42.61400
C  -10.01100 13.97300 42.23400
C  -11.05600 10.75200 43.76200
C  -8.41600 12.34800 42.30400
O  -7.82800 11.28200 42.34900
C  -7.84900 13.61500 41.66600
C  -6.77800 14.15400 42.44200
O  -6.85600 14.45500 43.62700
O  -5.65100 14.33300 41.73500
C  -4.53700 14.98900 42.48600
H  -10.25900 19.96500 40.30900
H  -16.19200 17.75000 41.94400
H  -13.76900 12.37500 43.77800
H  -7.01500 16.71500 41.05100
H  -8.37900 18.36000 39.19300
H  -8.37300 19.66500 41.82100
H  -7.10700 19.89200 40.46300
H  -6.91200 18.83400 41.87000
H  -8.07000 16.44300 38.13200
H  -8.09500 14.95200 39.07500
H  -5.85800 14.68900 38.66900
H  -5.48900 16.06200 39.47000
H  -13.18000 22.27800 40.54000
H  -11.62400 21.61500 39.94000
H  -11.94900 22.11700 41.64500
H  -17.63800 20.71000 40.84000
H  -16.92200 19.93500 42.36200
H  -16.98300 19.18800 40.68000
H  -16.79400 15.00300 41.46500
H  -15.86600 14.11300 44.19700
H  -18.15800 16.36300 42.58700
H  -16.96400 16.63900 43.95700
H  -17.96700 15.20700 43.92400
H  -15.86100 11.94100 42.17400
H  -17.23400 12.91400 41.92400
H  -17.56300 12.36900 44.62100
H  -16.70600 10.97700 44.14300
H  -18.25900 11.40000 43.41400
H  -11.39100 10.00800 43.04000
H  -11.86800 10.73500 44.48900
H  -10.12800 10.41700 44.22500
H  -7.48500 13.27900 40.69500
H  -4.49300 14.68700 43.53300
H  -4.80100 16.04600 42.46500
H  -3.61700 14.68400 41.98600

