158

Mg 17.27700 -1.62500 27.17800
C  16.14000 0.23100 29.98000
C  19.07100 -3.64400 29.18700
C  18.59900 -3.14100 24.40000
C  15.54600 0.60500 25.14700
N  17.37900 -1.79100 29.38700
C  16.90300 -0.89200 30.28500
C  17.43300 -1.26200 31.66900
C  18.57000 -2.26800 31.31300
C  18.38200 -2.60700 29.87400
C  19.99100 -1.75300 31.75500
C  16.34700 -1.61300 32.76100
C  16.66800 -1.25500 34.23800
H  18.07100 -0.82600 34.70400
N  18.44100 -3.28300 26.85400
C  19.03600 -4.03000 27.85300
C  19.50200 -5.27700 27.16100
C  19.48000 -5.06500 25.75000
C  18.83500 -3.77300 25.61900
C  20.07600 -6.35900 28.04900
C  19.83400 -6.01000 24.66700
O  19.48700 -5.83800 23.47300
C  20.66300 -7.14300 24.91600
N  17.17700 -1.15900 25.15000
C  17.88700 -1.92400 24.15400
C  17.73700 -1.26100 22.80000
C  16.55000 -0.30100 23.04200
C  16.33200 -0.32800 24.54600
C  19.05200 -0.48000 22.35600
C  15.33300 -0.64000 22.20700
C  15.17100 0.21400 20.98400
N  16.06500 0.13000 27.44900
C  15.33100 0.86000 26.49800
C  14.50000 1.80700 27.22600
C  14.86800 1.70100 28.60600
C  15.78500 0.60100 28.67600
C  13.61600 2.70900 26.59200
C  14.68500 2.18300 29.92600
O  13.88000 3.02200 30.25400
C  15.52700 1.28500 30.92300
C  16.50400 2.21100 31.67500
O  17.64700 2.46000 31.28400
O  16.02600 2.55600 32.86200
C  16.97400 3.16400 33.82000
H  19.62000 -4.25500 29.90600
H  19.05700 -3.38300 23.43800
H  15.05000 1.36100 24.53600
H  17.87600 -0.37200 32.11300
H  18.49300 -3.21200 31.85300
H  19.92500 -0.69700 32.01600
H  20.60100 -1.90500 30.86400
H  20.32300 -2.18200 32.70100
H  16.14900 -2.68200 32.67700
H  15.42100 -1.09400 32.51500
H  16.37500 -2.21900 34.65400
H  15.99500 -0.46300 34.56800
H  21.16000 -6.31300 28.15600
H  19.70100 -7.32100 27.69800
H  19.64700 -6.20100 29.03800
H  20.11300 -7.96600 25.37300
H  21.45300 -6.71600 25.53400
H  21.12100 -7.51700 24.00100
H  17.44200 -1.99400 22.04900
H  16.82600 0.71900 22.77300
H  19.72500 -0.56600 23.20900
H  18.71900 0.48700 21.97900
H  19.34200 -1.01600 21.45300
H  14.41500 -0.56400 22.79000
H  15.24500 -1.66400 21.84600
H  16.06000 0.74000 20.63600
H  14.36300 0.93500 21.11000
H  14.93200 -0.30600 20.05700
H  12.63900 2.36300 26.92900
H  13.66700 2.61400 25.50700
H  13.75600 3.72000 26.97400
H  14.83700 0.85900 31.65200
H  17.21800 4.15100 33.42800
H  17.93400 2.64800 33.79800
H  16.59600 3.04100 34.83500
Mg -1.53600 34.03200 27.01700
C  -2.60500 32.38900 29.91400
C  0.27400 36.30100 29.12200
C  -0.90500 35.89000 24.33400
C  -3.64300 31.89100 25.16000
N  -1.28300 34.39700 29.28300
C  -1.67000 33.40700 30.22200
C  -1.05600 33.65600 31.58900
C  -0.21100 34.94700 31.34900
C  -0.40200 35.23900 29.84100
C  -0.58500 36.08700 32.29900
C  -0.37900 32.43200 32.32800
C  -0.97300 32.00600 33.68300
H  0.00700 31.78800 34.86100
N  -0.51300 35.90100 26.73300
C  0.23900 36.62400 27.66500
C  0.80300 37.75400 26.95100
C  0.37800 37.71400 25.63400
C  -0.40500 36.49800 25.50800
C  1.62900 38.79700 27.58900
C  0.71200 38.71400 24.53800
O  0.33400 38.50800 23.44500
C  1.57900 39.89700 24.72400
N  -2.29700 33.96700 25.02000
C  -1.75900 34.77100 24.10000
C  -2.32100 34.39600 22.71100
C  -2.92600 32.98400 22.91800
C  -2.96300 32.93200 24.45400
C  -3.35900 35.47000 22.15300
C  -2.08000 31.94300 22.23600
C  -0.63000 31.69500 22.90000
N  -2.81600 32.44500 27.37600
C  -3.61400 31.67700 26.55800
C  -4.51300 30.80600 27.29500
C  -4.05000 30.99900 28.63100
C  -3.06500 32.02100 28.61300
C  -5.60000 29.91200 26.73900
C  -4.31200 30.58800 29.99600
O  -5.14400 29.78100 30.44400
C  -3.38100 31.48600 30.88100
C  -4.34800 32.21300 31.69100
O  -5.22600 33.01400 31.36800
O  -4.19800 31.78900 32.99800
C  -4.94100 32.36500 34.11400
H  1.07400 36.84100 29.63200
H  -0.79700 36.48400 23.42400
H  -4.27200 31.16200 24.64600
H  -1.98700 33.88100 32.11000
H  0.81600 34.70000 31.61700
H  -0.99100 35.68300 33.22700
H  -1.41700 36.61000 31.82800
H  0.17600 36.84400 32.49000
H  0.63000 32.75600 32.57900
H  -0.34100 31.65000 31.56900
H  -1.51500 31.08500 33.46800
H  -1.84100 32.59400 33.98300
H  1.81800 38.52500 28.62700
H  1.12700 39.76100 27.67300
H  2.62000 38.86400 27.13900
H  1.54900 40.48000 23.80300
H  2.51800 39.47100 25.08000
H  1.11600 40.51500 25.49300
H  -1.45800 34.51800 22.05600
H  -3.99200 33.05000 22.70000
H  -2.95600 35.89200 21.23200
H  -3.56400 36.21000 22.92700
H  -4.36100 35.10000 21.93500
H  -1.91400 32.22500 21.19600
H  -2.52400 30.94900 22.28100
H  0.08100 31.86600 22.09200
H  -0.62800 30.65500 23.22800
H  -0.37400 32.26800 23.79100
H  -5.96000 30.18300 25.74600
H  -6.42900 29.88300 27.44600
H  -5.22400 28.88900 26.71800
H  -2.88300 30.75500 31.51800
H  -5.80900 31.71300 34.20900
H  -5.25100 33.38900 33.90300
H  -4.29300 32.39100 34.99000

