158

Mg 0.79400 8.26600 26.86700
C  1.42900 10.04100 29.91400
C  0.67900 5.28800 28.72000
C  0.73200 6.65000 24.05200
C  1.40200 11.22200 25.21100
N  0.97800 7.77500 29.03800
C  1.25400 8.68400 30.11700
C  1.10000 7.96300 31.44200
C  1.22700 6.45000 31.07400
C  0.91000 6.47800 29.56100
C  2.50800 5.68600 31.47500
C  -0.13900 8.29900 32.22800
C  0.10600 8.73100 33.70400
H  1.19500 7.90300 34.56200
N  0.57900 6.25900 26.43500
C  0.46100 5.18500 27.28700
C  0.11000 3.96800 26.53500
C  0.01700 4.39800 25.19400
C  0.50600 5.85900 25.14000
C  0.03500 2.61500 27.12200
C  -0.41100 3.54000 24.09000
O  -0.51800 3.97700 22.95000
C  -0.97600 2.05600 24.24300
N  1.30900 8.82200 24.89100
C  1.09400 7.96800 23.86600
C  1.29100 8.64000 22.48500
C  1.16100 10.12500 22.92800
C  1.33100 10.05100 24.44000
C  2.52700 8.19200 21.74300
C  -0.12400 10.76800 22.50900
C  -1.47800 10.32700 23.09600
N  1.27400 10.28900 27.44000
C  1.45000 11.37900 26.61400
C  1.74300 12.59400 27.33800
C  1.78200 12.13600 28.70100
C  1.54000 10.70100 28.69100
C  1.84700 14.00400 26.81200
C  1.89100 12.49200 30.06800
O  2.19200 13.61800 30.51400
C  1.65100 11.22400 30.92400
C  2.72300 11.07900 31.93500
O  3.84500 10.64900 31.72400
O  2.20200 11.42900 33.14100
C  3.22000 11.37000 34.14000
H  0.96500 4.38700 29.26800
H  0.61300 6.06900 23.13600
H  1.56800 12.14700 24.65500
H  1.98500 8.33600 31.95800
H  0.45300 5.96800 31.67100
H  2.24000 4.66600 31.74900
H  3.03300 6.21800 32.26800
H  3.10200 5.66600 30.56100
H  -0.72400 7.38400 32.32300
H  -0.68600 9.05200 31.66000
H  -0.81900 8.58400 34.26200
H  0.32900 9.79800 33.68400
H  0.66200 1.80400 26.75100
H  -0.99100 2.26700 27.00800
H  0.22200 2.67500 28.19400
H  -0.27800 1.24900 24.46500
H  -1.54100 1.85600 23.33200
H  -1.74900 2.11200 25.00900
H  0.42000 8.38100 21.88200
H  2.01700 10.66500 22.52300
H  2.22500 7.23800 21.31200
H  3.29700 8.00700 22.49300
H  2.77500 8.91000 20.96100
H  -0.18700 10.49900 21.45500
H  -0.14800 11.85600 22.55900
H  -2.04100 11.18900 23.45500
H  -1.39300 9.50200 23.80400
H  -2.04200 9.84700 22.29600
H  2.21000 14.13000 25.79200
H  2.53400 14.58700 27.42600
H  0.85000 14.44400 26.78800
H  0.75500 11.31200 31.53900
H  3.60200 10.34900 34.14600
H  2.80100 11.62500 35.11300
H  4.00900 12.06400 33.85200
Mg 55.39900 25.74300 44.62100
C  52.35600 27.35300 43.76900
C  53.98700 22.86300 43.66300
C  58.38700 24.48800 44.59300
C  56.62200 28.96900 45.72900
N  53.41500 25.20700 43.38000
C  52.28600 25.98300 43.43100
C  51.12000 25.14200 42.96700
C  51.60300 23.72600 43.50500
C  53.14400 23.93600 43.46300
C  51.15000 23.40200 45.00300
C  50.57700 25.17000 41.51700
C  49.11100 24.73600 41.39400
H  48.72000 23.73300 40.25600
N  56.12700 23.83300 44.16900
C  55.33700 22.82000 43.77800
C  56.17100 21.66800 43.78100
C  57.48500 22.08100 44.12200
C  57.43500 23.53900 44.31300
C  55.61200 20.26400 43.46300
C  58.62000 21.12700 44.07000
O  58.43000 19.90800 43.73400
C  60.05700 21.65500 44.22900
N  57.14900 26.59600 45.11300
C  58.28100 25.80700 45.03500
C  59.58400 26.72400 45.33500
C  58.97400 28.05200 45.85800
C  57.49700 27.85200 45.52600
C  60.58400 26.12800 46.38600
C  59.69600 29.35000 45.32000
C  59.09800 30.06200 44.08100
N  54.69100 27.75800 44.80300
C  55.23500 28.87200 45.42600
C  54.19600 29.90700 45.49100
C  53.09000 29.38200 44.84700
C  53.40000 28.00600 44.47400
C  54.30300 31.24700 46.04400
C  51.77600 29.67800 44.37000
O  51.21200 30.70600 44.51000
C  51.24500 28.42300 43.63100
C  51.06800 28.75500 42.19900
O  51.94600 29.17900 41.47100
O  49.79400 28.50900 41.86100
C  49.47500 29.09500 40.55600
H  53.56700 21.85700 43.60600
H  59.38600 24.04700 44.59700
H  57.07300 29.90200 46.07200
H  50.25800 25.46200 43.55200
H  51.24100 22.91000 42.87900
H  52.03200 23.29700 45.63400
H  50.67400 22.43500 44.84200
H  50.39100 24.12100 45.31200
H  51.15300 24.47900 40.90100
H  50.71500 26.20900 41.21900
H  48.59300 25.66600 41.15800
H  48.71700 24.34100 42.33000
H  55.63100 20.13600 42.38100
H  54.55800 20.20200 43.73500
H  56.09000 19.43500 43.98500
H  60.37300 22.38500 43.48400
H  60.80300 20.86000 44.21500
H  60.16100 22.15400 45.19200
H  59.98100 26.83200 44.32500
H  59.09300 27.99500 46.94000
H  60.86200 26.76900 47.22200
H  61.46500 25.70700 45.90200
H  60.01800 25.34400 46.88700
H  60.73000 29.05400 45.14600
H  59.69200 30.10200 46.11000
H  59.99600 30.22100 43.48300
H  58.55700 30.94800 44.41100
H  58.35200 29.42300 43.61000
H  53.68000 31.29700 46.93700
H  53.96600 31.99200 45.32400
H  55.32000 31.50200 46.34100
H  50.39800 28.03500 44.19600
H  50.15400 29.84600 40.15200
H  48.42400 29.38200 40.61200
H  49.45300 28.33600 39.77400

