158

Mg 40.22800 9.94900 29.39700
C  41.94200 10.76700 32.15300
C  37.45900 9.09800 31.32000
C  38.64300 8.82200 26.55200
C  42.91900 11.00000 27.33000
N  39.78400 9.95400 31.47000
C  40.63000 10.39800 32.40000
C  40.05400 10.20800 33.86100
C  38.55200 9.70400 33.46700
C  38.60100 9.54200 31.97300
C  38.08000 8.34100 34.19800
C  40.00500 11.36800 34.71800
C  40.82500 11.23000 36.07400
H  41.30400 12.41900 36.85400
N  38.24800 9.11900 28.99400
C  37.30700 8.92500 29.92600
C  36.11600 8.32500 29.23700
C  36.53500 8.13400 27.87500
C  37.89100 8.70000 27.77600
C  34.92300 7.86000 30.03800
C  35.70800 7.54700 26.74100
O  36.18500 7.27600 25.68000
C  34.25900 7.13800 27.01200
N  40.81800 9.72800 27.35900
C  39.91700 9.29200 26.38300
C  40.47300 9.42300 24.96500
C  41.79300 10.33200 25.19800
C  41.79600 10.35100 26.76600
C  40.74600 8.12700 24.15100
C  41.79500 11.71100 24.45900
C  41.30800 12.92100 25.22000
N  42.15300 10.67100 29.71700
C  43.12900 11.05200 28.80100
C  44.28400 11.49100 29.59800
C  43.90500 11.30300 30.96700
C  42.60500 10.78300 30.94200
C  45.58600 12.03300 29.03400
C  44.32200 11.59200 32.33500
O  45.37400 12.11700 32.79200
C  43.05500 11.14400 33.16600
C  43.46900 10.23400 34.24400
O  43.72900 9.06700 34.13400
O  43.79700 11.05000 35.35000
C  44.40900 10.30100 36.43400
H  36.63800 8.89300 32.01000
H  38.17900 8.50300 25.61600
H  43.67400 11.33600 26.61700
H  40.56700 9.35300 34.30200
H  37.77500 10.41700 33.74300
H  39.00000 8.02200 34.68900
H  37.73400 7.61100 33.46600
H  37.21400 8.52300 34.83300
H  38.97300 11.67900 34.88000
H  40.48900 12.21000 34.22300
H  41.60100 10.46600 36.03100
H  40.10500 10.82200 36.78400
H  34.98100 8.47800 30.93500
H  35.06800 6.83000 30.36400
H  33.95200 8.00000 29.56300
H  33.70700 8.07000 27.13300
H  34.03900 6.46900 27.84400
H  33.84700 6.62700 26.14200
H  39.80600 10.14700 24.49700
H  42.74500 9.90700 24.88100
H  40.02200 7.99700 23.34600
H  40.72100 7.31200 24.87400
H  41.74300 8.18700 23.71600
H  41.11600 11.61100 23.61300
H  42.80600 11.92100 24.11100
H  40.88900 12.74700 26.21100
H  40.49500 13.56100 24.87600
H  42.15900 13.60000 25.26100
H  45.36300 12.73300 28.22900
H  46.24900 11.23500 28.69800
H  46.16100 12.53300 29.81300
H  42.66500 11.97700 33.75100
H  45.44100 10.04800 36.19000
H  43.87800 9.36700 36.61500
H  44.31500 10.95800 37.29900
Mg 30.29000 57.79300 40.48400
C  27.57400 55.96400 39.29400
C  32.42600 55.30400 39.30400
C  32.77900 59.99800 40.58100
C  28.07800 60.49100 41.18400
N  30.00300 55.88400 39.31100
C  28.79200 55.28600 38.99000
C  29.11200 53.98800 38.33400
C  30.52300 53.60100 38.80700
C  31.03700 55.01000 39.19700
C  30.55100 52.61600 40.08100
C  29.01500 53.83400 36.83600
C  28.05100 52.64500 36.35000
H  27.15400 53.04900 35.18300
N  32.33100 57.68700 39.95200
C  33.00900 56.57900 39.53200
C  34.38900 56.83200 39.52500
C  34.50100 58.21200 39.94700
C  33.15400 58.72200 40.16800
C  35.45300 55.82200 39.11600
C  35.86400 58.96400 40.10300
O  36.87900 58.41100 39.78500
C  36.13100 60.29800 40.72600
N  30.40000 59.98400 40.82400
C  31.56600 60.58400 40.87900
C  31.42300 62.07300 41.16800
C  29.84400 62.13500 41.55300
C  29.38500 60.82700 41.09400
C  32.39300 62.52700 42.35800
C  28.96500 63.33000 41.05300
C  29.63000 64.65100 40.84500
N  28.29300 58.09000 40.53900
C  27.52800 59.22000 40.83200
C  26.11100 58.98800 40.67000
C  26.15600 57.68700 40.06700
C  27.44000 57.24800 39.95100
C  25.06500 59.85600 41.17100
C  25.19400 56.63700 39.51100
O  23.96900 56.57300 39.34200
C  26.12700 55.45800 39.00800
C  25.80300 54.27400 39.78300
O  25.62400 54.25100 40.96000
O  25.58400 53.20700 38.94400
C  25.17800 51.96800 39.59200
H  32.99000 54.40000 39.06500
H  33.61700 60.69800 40.60900
H  27.45600 61.27900 41.61400
H  28.39600 53.29900 38.78200
H  31.11800 53.15100 38.01200
H  30.81100 51.70500 39.54200
H  29.66800 52.29000 40.63200
H  31.27000 52.95700 40.82600
H  29.97400 53.80100 36.31900
H  28.61800 54.76200 36.42400
H  27.42300 52.48500 37.22700
H  28.57300 51.74500 36.02600
H  35.36800 55.60400 38.05100
H  35.33400 54.86900 39.63200
H  36.39100 56.20700 39.51500
H  37.21400 60.39500 40.80600
H  35.60300 60.39000 41.67500
H  35.68700 61.05700 40.08300
H  31.56800 62.57800 40.21300
H  29.76600 62.21700 42.63700
H  33.09000 63.32200 42.09000
H  32.89700 61.71300 42.87800
H  31.81400 62.98800 43.15800
H  28.28000 63.39000 41.89800
H  28.49900 63.05100 40.10800
H  30.49300 64.55500 41.50400
H  28.88000 65.41700 41.04100
H  29.80000 64.69300 39.76900
H  25.47400 60.29500 42.08100
H  24.26300 59.17700 41.46100
H  24.70700 60.59300 40.45300
H  26.00400 55.27600 37.94000
H  24.52300 51.36100 38.96800
H  24.77600 52.06700 40.60000
H  26.10700 51.40900 39.70600

