158

Mg 26.13600 0.34200 29.69000
C  27.97300 0.17400 32.55500
C  23.10900 0.43900 31.62200
C  24.17500 0.64500 26.85700
C  28.82600 -0.28000 27.73100
N  25.58000 0.23500 31.78900
C  26.56600 0.43300 32.76100
C  25.92800 0.74300 34.07700
C  24.40800 0.38300 33.83800
C  24.36200 0.47000 32.30700
C  24.02900 -1.02000 34.39900
C  26.25000 2.12000 34.71000
C  26.89100 2.10100 36.13700
H  26.91300 3.29400 37.08500
N  24.01200 0.43600 29.36200
C  22.93600 0.42400 30.25000
C  21.70300 0.73000 29.50100
C  21.99300 0.84500 28.16300
C  23.50000 0.62200 28.11700
C  20.46300 0.85200 30.24900
C  21.04700 0.99900 26.92200
O  21.46100 0.95800 25.79300
C  19.51000 1.19200 27.16700
N  26.49800 0.13900 27.60600
C  25.57600 0.38900 26.61300
C  26.09600 0.16700 25.17600
C  27.55600 -0.32600 25.45700
C  27.66400 -0.13300 26.98500
C  25.20600 -0.86100 24.39700
C  28.64700 0.44100 24.65600
C  29.27300 -0.50500 23.56400
N  28.00800 -0.03600 30.01000
C  29.08300 -0.15900 29.15600
C  30.24300 -0.50900 29.89400
C  29.91000 -0.32000 31.26700
C  28.57300 -0.00500 31.22500
C  31.56400 -1.07000 29.45600
C  30.33000 -0.20400 32.69100
O  31.48700 -0.36200 33.20400
C  29.09400 0.03600 33.51900
C  28.88800 -0.93000 34.67900
O  28.59300 -2.13400 34.48500
O  29.25800 -0.43100 35.93600
C  29.08700 -1.45200 36.98700
H  22.34600 0.45700 32.40400
H  23.57500 0.75500 25.95200
H  29.74100 -0.54900 27.19800
H  26.28500 0.04300 34.83200
H  23.76000 1.19900 34.15700
H  23.67000 -0.95700 35.42600
H  24.88700 -1.68900 34.46200
H  23.21600 -1.44200 33.80800
H  25.24500 2.53900 34.67500
H  26.84900 2.70100 34.00900
H  27.96300 1.93100 36.04500
H  26.38600 1.27500 36.63900
H  20.56300 0.81100 31.33300
H  19.82500 -0.01200 30.06300
H  20.04000 1.81500 29.96300
H  19.00300 1.69600 26.34400
H  19.33900 1.94500 27.93600
H  18.98200 0.25900 27.36000
H  26.04800 1.17500 24.76500
H  27.60600 -1.40500 25.31500
H  24.57600 -1.53600 24.97600
H  25.70300 -1.41700 23.60200
H  24.47300 -0.18000 23.96500
H  29.47000 0.85000 25.24200
H  28.21200 1.27100 24.10000
H  29.49100 0.13100 22.70600
H  28.64600 -1.33300 23.23300
H  30.22700 -0.76700 24.02200
H  31.62700 -0.97400 28.37200
H  31.64900 -2.07700 29.86300
H  32.31700 -0.47200 29.97000
H  29.33100 1.00600 33.95700
H  29.67400 -2.35000 36.79100
H  28.05600 -1.72200 37.21700
H  29.44800 -1.19400 37.98300
Mg 17.15800 51.80400 26.01600
C  19.02900 50.41200 28.69200
C  14.74200 52.91100 28.33700
C  15.32700 52.63600 23.51000
C  19.35400 50.04400 23.85800
N  16.92000 51.60000 28.26000
C  17.92100 51.16500 29.10300
C  17.57100 51.54200 30.51700
C  16.11100 52.06100 30.42000
C  15.88400 52.19100 28.91500
C  15.04000 51.11900 31.01300
C  18.61100 52.56900 31.19700
C  18.71100 52.56100 32.80600
H  17.70200 51.72500 33.59800
N  15.21500 52.68100 25.94100
C  14.45500 53.10100 26.94200
C  13.25200 53.65600 26.38000
C  13.39200 53.63000 24.95600
C  14.68400 52.93500 24.73500
C  12.07200 54.14400 27.25900
C  12.38900 54.02500 23.89400
O  12.68600 54.06400 22.70600
C  11.10800 54.55600 24.29500
N  17.35400 51.42400 23.91700
C  16.51600 52.05900 23.02700
C  16.92500 51.74500 21.56400
C  18.30500 51.07200 21.79200
C  18.32900 50.79400 23.24300
C  15.89200 50.87400 20.72700
C  19.64600 51.81900 21.39500
C  19.57200 53.36300 21.55300
N  18.90900 50.54800 26.14000
C  19.68700 49.92800 25.22700
C  20.75200 49.20000 25.88100
C  20.54700 49.35500 27.24800
C  19.41700 50.21400 27.40700
C  21.70700 48.42800 25.07500
C  21.07400 48.99200 28.57700
O  21.96200 48.24800 28.85500
C  20.14800 49.74400 29.55100
C  19.53500 48.80600 30.66700
O  18.45500 48.20900 30.55200
O  20.44100 48.71800 31.72400
C  20.07500 47.98100 32.95200
H  13.98800 53.23900 29.05600
H  14.84700 53.02700 22.61100
H  20.11000 49.63300 23.18600
H  17.55200 50.60100 31.06600
H  16.04000 53.08100 30.79600
H  14.28800 51.72300 31.52200
H  15.46000 50.44100 31.75500
H  14.44900 50.47600 30.36000
H  18.29900 53.60700 31.07900
H  19.61000 52.43100 30.78400
H  18.62500 53.59500 33.14000
H  19.74100 52.32700 33.07600
H  11.26400 53.46300 26.99500
H  11.74800 55.15800 27.02200
H  12.03800 54.03000 28.34300
H  11.29400 55.55900 24.67900
H  10.57700 53.87200 24.95600
H  10.47900 54.55100 23.40500
H  16.94300 52.71800 21.07400
H  18.27500 50.09300 21.31200
H  14.92600 50.67400 21.19000
H  16.28400 49.89200 20.46200
H  15.83200 51.46000 19.81000
H  19.78700 51.60300 20.33600
H  20.46000 51.45100 22.02000
H  20.47900 53.66000 22.08000
H  18.73700 53.50400 22.24000
H  19.46100 53.95800 20.64600
H  22.30500 49.11900 24.48200
H  21.33400 47.81400 24.25600
H  22.29900 47.91100 25.83000
H  20.58600 50.52100 30.17700
H  18.99300 48.04600 33.07200
H  20.58600 48.45300 33.79100
H  20.37200 46.93500 33.03300

