158

Mg -11.90100 37.60800 42.21800
C  -9.76500 35.20000 40.92000
C  -9.96900 40.08600 40.82000
C  -14.45300 39.84400 42.64200
C  -14.12900 34.91100 43.10400
N  -10.07200 37.59800 40.94800
C  -9.43100 36.47100 40.55800
C  -8.15400 36.91100 39.77200
C  -8.19600 38.50800 39.75200
C  -9.45200 38.78000 40.58500
C  -6.92100 39.21600 40.36300
C  -7.98100 36.24400 38.34500
C  -6.67500 35.42400 38.11300
H  -5.81000 35.74400 36.90100
N  -12.10600 39.70700 41.91500
C  -11.19000 40.55400 41.36600
C  -11.64200 41.86200 41.33800
C  -12.96600 41.84200 41.92700
C  -13.24700 40.39100 42.20700
C  -10.84100 43.04400 40.83100
C  -13.79100 43.04500 42.16900
O  -13.32100 44.17100 42.01100
C  -15.13900 42.93000 42.69400
N  -13.91100 37.46400 42.72000
C  -14.75700 38.52300 42.92500
C  -16.10400 38.04600 43.49900
C  -15.95700 36.56000 43.71300
C  -14.59700 36.23200 43.10500
C  -16.76000 38.82100 44.71100
C  -17.12200 35.61200 43.10300
C  -17.47000 34.45000 44.05600
N  -11.91600 35.45700 42.18700
C  -12.83900 34.58600 42.67400
C  -12.30500 33.25100 42.53500
C  -11.09900 33.42400 41.79400
C  -10.93400 34.81600 41.62400
C  -13.00000 32.04100 42.92600
C  -9.93200 32.74700 41.15000
O  -9.63200 31.59100 41.03600
C  -8.99200 33.95000 40.60100
C  -7.70100 33.86500 41.24500
O  -6.59900 33.67100 40.63800
O  -7.88800 33.85800 42.61800
C  -6.66000 34.07800 43.35500
H  -9.31400 40.87300 40.44100
H  -15.36100 40.44300 42.73400
H  -14.74700 34.13000 43.55000
H  -7.22100 36.65300 40.27300
H  -8.22900 38.93800 38.75100
H  -6.69800 40.05400 39.70200
H  -6.10800 38.49000 40.37600
H  -7.12300 39.57800 41.37100
H  -8.01800 36.91000 37.48300
H  -8.84000 35.59000 38.19700
H  -6.92000 34.37900 37.92300
H  -5.96300 35.41100 38.93800
H  -10.13200 43.37700 41.58900
H  -11.42500 43.91300 40.53000
H  -10.24200 42.87100 39.93600
H  -15.50600 43.95600 42.71600
H  -15.15600 42.49800 43.69500
H  -15.75000 42.28600 42.06100
H  -16.80600 38.12800 42.66900
H  -15.80800 36.27400 44.75500
H  -16.16000 39.65300 45.08100
H  -17.23900 38.25400 45.51000
H  -17.55500 39.36200 44.19800
H  -16.78600 35.23000 42.13900
H  -17.96100 36.29700 42.98700
H  -16.67600 34.17600 44.75100
H  -17.67200 33.50600 43.55000
H  -18.40500 34.60400 44.59400
H  -13.25100 31.47500 42.02900
H  -13.82000 32.29900 43.59600
H  -12.29400 31.49900 43.55500
H  -8.86200 33.72800 39.54200
H  -6.83700 34.98300 43.93600
H  -5.74200 34.13200 42.77000
H  -6.55600 33.23000 44.03200
Mg -1.82300 34.17700 25.94000
C  -3.16800 32.58200 28.66300
C  -0.51700 36.65100 28.13900
C  -0.59200 35.89700 23.31900
C  -3.95800 32.48100 23.87300
N  -2.06100 34.68800 28.12200
C  -2.47600 33.73600 29.01000
C  -2.17400 34.18400 30.44900
C  -1.47600 35.57000 30.26200
C  -1.34100 35.67600 28.75000
C  -2.36900 36.68000 30.73200
C  -1.46500 33.06800 31.32300
C  -2.15900 32.58400 32.59500
H  -1.26100 32.53200 33.85100
N  -0.48800 35.87300 25.77200
C  -0.06700 36.71800 26.78700
C  0.98400 37.58200 26.23400
C  1.02800 37.33100 24.87100
C  -0.04700 36.39200 24.57700
C  1.82900 38.53100 27.05200
C  1.96200 38.00100 23.79300
O  1.69500 37.99900 22.57000
C  3.20400 38.68200 24.24300
N  -2.35500 34.34000 23.94700
C  -1.67100 35.05200 23.00700
C  -2.12500 34.75400 21.57600
C  -3.12200 33.54000 21.76300
C  -3.16900 33.41200 23.30800
C  -2.81400 35.93900 20.89200
C  -2.67500 32.21500 21.03600
C  -1.61600 31.32400 21.74700
N  -3.31700 32.82400 26.20700
C  -4.06600 32.14300 25.25200
C  -4.74200 30.97400 25.97300
C  -4.44000 31.16400 27.27000
C  -3.58500 32.24700 27.38700
C  -5.54800 29.86200 25.40500
C  -4.58300 30.55900 28.53100
O  -5.07700 29.51800 28.86800
C  -3.85000 31.53000 29.57600
C  -4.97300 32.00600 30.49300
O  -5.81000 32.88800 30.37200
O  -4.98600 31.15700 31.49600
C  -5.90500 31.24300 32.61500
H  -0.07400 37.28100 28.91300
H  -0.16800 36.47000 22.49100
H  -4.52700 31.77300 23.26800
H  -3.13700 34.42200 30.90000
H  -0.53300 35.63100 30.80400
H  -2.45600 37.47800 29.99500
H  -1.82800 37.15300 31.55100
H  -3.33100 36.47600 31.20200
H  -0.48200 33.39900 31.65800
H  -1.15800 32.20300 30.73500
H  -2.51800 31.57800 32.37800
H  -2.97200 33.27600 32.81600
H  1.43500 38.68600 28.05700
H  1.80200 39.56400 26.70700
H  2.85800 38.17400 27.01100
H  3.78200 38.11100 24.97000
H  2.82900 39.58600 24.72400
H  3.73400 39.08500 23.38000
H  -1.25600 34.55500 20.94900
H  -4.14600 33.78300 21.47900
H  -2.79200 36.72500 21.64700
H  -3.78800 35.72700 20.45100
H  -2.13400 36.31700 20.12900
H  -2.18800 32.69100 20.18500
H  -3.60500 31.78100 20.66800
H  -1.36300 31.55100 22.78300
H  -0.69300 31.32900 21.16800
H  -2.12100 30.35800 21.75600
H  -5.27500 28.93800 25.91600
H  -5.28500 29.77100 24.35200
H  -6.62900 29.92900 25.52200
H  -3.20800 30.89900 30.19000
H  -5.97500 30.26500 33.09200
H  -6.83900 31.72300 32.32100
H  -5.38400 31.92700 33.28500

