158

Mg 25.51400 1.66800 29.73000
C  27.53600 1.74100 32.53000
C  22.74800 2.04700 31.80000
C  23.54500 1.83900 26.97100
C  28.25000 1.00300 27.72600
N  25.24100 1.82700 32.01700
C  26.20600 1.89700 32.94400
C  25.64700 2.02500 34.33100
C  24.05700 1.98600 34.10300
C  23.96600 1.91500 32.56300
C  23.42500 0.73500 34.82700
C  26.17500 3.38000 35.02200
C  26.89900 3.19000 36.40500
H  26.29800 4.10400 37.59800
N  23.46200 1.95800 29.39700
C  22.47500 2.08100 30.42300
C  21.17500 2.13100 29.76500
C  21.39600 2.00200 28.36800
C  22.87000 1.88300 28.17900
C  19.88700 2.30600 30.46500
C  20.33200 1.78900 27.32100
O  20.58800 1.54700 26.18300
C  18.89500 1.82000 27.65300
N  25.78300 1.39700 27.62800
C  24.87400 1.65700 26.65000
C  25.47300 1.69300 25.26500
C  26.98100 1.67100 25.55400
C  27.08700 1.27700 27.05200
C  24.94300 0.62100 24.28400
C  27.75100 2.92200 25.25100
C  27.46300 4.17100 26.09300
N  27.51500 1.37800 30.02500
C  28.47900 1.03400 29.11300
C  29.72400 0.85700 29.76900
C  29.45700 1.13300 31.14500
C  28.00900 1.41300 31.25400
C  31.14200 0.49400 29.14300
C  30.01900 1.27000 32.54600
O  31.18300 1.18400 32.91300
C  28.75800 1.57200 33.42500
C  28.70200 0.36400 34.27600
O  28.04100 -0.60300 34.11800
O  29.36400 0.70300 35.37400
C  29.46900 -0.31900 36.42700
H  21.85500 2.28800 32.38200
H  22.90600 1.94600 26.09200
H  29.05000 0.75400 27.02500
H  26.06700 1.17600 34.87000
H  23.55300 2.84600 34.54300
H  24.00600 -0.16800 35.01700
H  22.72900 0.38300 34.06500
H  22.66600 0.97200 35.57300
H  25.28300 3.97400 35.21900
H  26.82100 4.03000 34.43200
H  27.98100 3.28300 36.30900
H  26.59400 2.20700 36.76300
H  19.37900 3.23500 30.20400
H  20.12200 2.29500 31.53000
H  19.14100 1.51800 30.36300
H  18.61200 2.81800 27.98700
H  18.44600 0.98900 28.19700
H  18.37300 1.62400 26.71700
H  25.24100 2.68600 24.87900
H  27.45600 0.88900 24.96300
H  25.71200 -0.11100 24.03900
H  24.75700 1.13600 23.34200
H  23.97900 0.17000 24.51900
H  27.56700 3.10200 24.19200
H  28.79000 2.59100 25.25800
H  27.95800 3.98600 27.04600
H  26.37700 4.26300 26.09800
H  27.79600 5.07700 25.58500
H  31.93400 0.55600 29.89000
H  31.49600 1.11000 28.31700
H  31.07000 -0.54900 28.83300
H  28.83400 2.48600 34.01300
H  28.57400 -0.06100 36.99200
H  30.38700 -0.24300 37.00900
H  29.42000 -1.34800 36.07100
Mg 44.19800 5.23900 47.92000
C  42.08300 7.94400 46.97800
C  41.79300 3.13700 47.26100
C  46.53900 2.85000 48.04000
C  46.73300 7.64500 48.30200
N  42.14600 5.59600 47.26800
C  41.49000 6.73900 46.85400
C  40.08400 6.34500 46.33800
C  39.89700 4.86200 46.84500
C  41.38500 4.52000 47.13700
C  38.97000 4.70000 48.08000
C  40.02100 6.36700 44.78500
C  39.15900 7.48600 44.14500
H  39.92200 8.48200 43.24600
N  44.14900 3.30800 47.73000
C  43.04700 2.59900 47.56100
C  43.40200 1.20100 47.56500
C  44.85300 1.10400 47.68800
C  45.25900 2.48600 47.73600
C  42.37500 0.09000 47.47000
C  45.60700 -0.19300 47.65000
O  44.98300 -1.24600 47.81100
C  47.10300 -0.31800 47.38400
N  46.36800 5.29900 47.90200
C  47.07800 4.17900 48.16400
C  48.57000 4.41600 48.38800
C  48.66200 6.00400 48.28200
C  47.16800 6.34800 48.19600
C  49.07300 3.83500 49.79600
C  49.57300 6.58100 47.17300
C  50.65400 7.57300 47.61700
N  44.41600 7.35600 47.76500
C  45.50900 8.16700 47.96500
C  45.12800 9.57800 47.81600
C  43.77300 9.51400 47.42200
C  43.44000 8.15300 47.37900
C  45.96300 10.83600 47.90800
C  42.68400 10.33300 47.08800
O  42.56000 11.53900 46.97500
C  41.50700 9.34700 46.79000
C  40.58100 9.71400 47.87800
O  40.58000 9.20700 49.04300
O  39.68900 10.67000 47.54400
C  38.66500 11.03900 48.54100
H  40.87000 2.55400 47.30200
H  47.33300 2.12400 48.22600
H  47.48600 8.41100 48.49800
H  39.35200 7.00600 46.80200
H  39.39500 4.28800 46.06600
H  38.42800 5.62800 48.26100
H  39.51200 4.35100 48.95900
H  38.22800 3.94700 47.81400
H  39.70800 5.40800 44.37300
H  41.02500 6.53000 44.39200
H  38.63600 8.03300 44.92900
H  38.31400 7.16600 43.53500
H  42.40600 -0.72200 48.19500
H  42.42400 -0.34100 46.47000
H  41.44300 0.65000 47.54800
H  47.44600 0.28300 46.54200
H  47.40400 -1.35600 47.24000
H  47.66700 -0.01500 48.26700
H  49.20300 3.94400 47.63700
H  48.86200 6.48600 49.23900
H  48.34400 3.09800 50.13300
H  49.33500 4.65900 50.45900
H  50.00000 3.26200 49.76800
H  48.86100 7.07400 46.51000
H  49.99500 5.80000 46.54100
H  50.14500 8.50900 47.84800
H  51.51300 7.68700 46.95700
H  51.08500 7.29700 48.57900
H  45.38000 11.73700 48.09600
H  46.59900 10.90200 47.02500
H  46.50100 10.78600 48.85500
H  41.05600 9.47900 45.80700
H  37.75000 10.53100 48.23500
H  38.67000 12.12900 48.52800
H  38.80800 10.72600 49.57600

