158

Mg 1.82000 -2.12200 44.63000
C  5.18600 -1.67200 44.46600
C  1.41300 0.42100 42.33200
C  -1.41600 -2.77800 44.65700
C  2.50600 -5.12100 46.49400
N  3.17100 -0.69600 43.58800
C  4.49100 -0.72800 43.73800
C  5.17000 0.16400 42.70900
C  3.95700 0.99300 42.04000
C  2.76600 0.23400 42.71700
C  3.89300 2.50600 42.36700
C  5.92400 -0.68400 41.56900
C  7.37000 -0.20600 41.37900
H  7.87200 0.23300 39.98200
N  0.19900 -1.19500 43.70500
C  0.19800 -0.20500 42.80600
C  -1.15400 0.13600 42.42800
C  -2.00700 -0.74500 43.13900
C  -1.06100 -1.66500 43.89200
C  -1.57200 1.27900 41.52700
C  -3.48600 -0.79600 42.98700
O  -4.09600 -0.06300 42.16400
C  -4.35900 -1.64800 43.92600
N  0.68300 -3.70600 45.42400
C  -0.72500 -3.69800 45.38200
C  -1.30300 -4.96700 46.16100
C  0.03100 -5.57100 46.77700
C  1.15200 -4.75900 46.24800
C  -2.32300 -4.46600 47.20600
C  0.15200 -7.03400 46.51000
C  0.55400 -7.84200 47.74300
N  3.47200 -3.18500 45.40300
C  3.61800 -4.36000 46.11700
C  4.97600 -4.62900 46.35000
C  5.71000 -3.56800 45.75400
C  4.73600 -2.77600 45.19000
C  5.56000 -5.81900 47.10100
C  6.96800 -2.95500 45.54500
O  8.12800 -3.31900 45.82100
C  6.67600 -1.70800 44.67300
C  7.15600 -0.45900 45.39500
O  6.63000 -0.01500 46.39100
O  8.22600 0.07500 44.81500
C  8.59700 1.46000 45.17800
H  1.23400 1.15900 41.54800
H  -2.48300 -3.00700 44.61200
H  2.72100 -6.00200 47.10200
H  5.76000 0.92700 43.21800
H  3.99300 0.94900 40.95200
H  4.47300 2.75700 43.25500
H  2.88600 2.73700 42.71600
H  4.23300 3.09700 41.51700
H  5.41000 -0.52300 40.62100
H  5.88300 -1.76200 41.72200
H  7.87300 -1.10600 41.73100
H  7.54300 0.60500 42.08600
H  -2.13700 0.87400 40.68900
H  -0.70300 1.79700 41.12000
H  -2.31400 1.90100 42.02800
H  -3.94200 -1.57400 44.93000
H  -4.37700 -2.68100 43.57800
H  -5.38300 -1.28100 43.99100
H  -1.79400 -5.68600 45.50500
H  -0.00500 -5.25100 47.81900
H  -2.79600 -3.52800 46.91700
H  -1.90000 -4.48400 48.21100
H  -3.08800 -5.22500 47.04000
H  0.86200 -7.27800 45.71900
H  -0.74400 -7.52900 46.13500
H  -0.02000 -8.76800 47.79100
H  0.53400 -7.22900 48.64500
H  1.57100 -8.21800 47.63300
H  6.57500 -5.59900 47.43100
H  5.46900 -6.69300 46.45700
H  5.07000 -6.00600 48.05700
H  7.22400 -1.97600 43.76900
H  8.06200 2.13700 44.51300
H  9.65000 1.69600 45.03000
H  8.36800 1.67100 46.22300
Mg 17.35900 51.94300 26.35200
C  19.44700 50.73000 28.81100
C  15.08300 52.85800 28.74700
C  15.39100 53.17600 23.83600
C  19.69000 50.91000 23.90300
N  17.28400 51.74800 28.51700
C  18.28300 51.32500 29.30500
C  17.98900 51.49700 30.79400
C  16.46600 51.83600 30.75200
C  16.23300 52.21000 29.28600
C  15.56700 50.60700 31.11900
C  18.91700 52.55600 31.42500
C  18.86500 52.71700 32.95200
H  17.82700 51.92700 33.74900
N  15.47500 52.90900 26.30100
C  14.71500 53.21500 27.39200
C  13.62400 53.96000 26.89700
C  13.63400 54.01200 25.49500
C  14.82000 53.31900 25.15000
C  12.67300 54.57100 27.95800
C  12.69900 54.77600 24.51100
O  13.00300 54.79100 23.38200
C  11.44100 55.54300 25.05300
N  17.47900 51.87900 24.15000
C  16.56000 52.55100 23.38100
C  16.84100 52.32600 21.87600
C  18.32200 51.71800 21.94700
C  18.53400 51.56600 23.46900
C  15.83700 51.34600 21.17600
C  19.34500 52.58500 21.23300
C  19.51200 54.02900 21.87200
N  19.13300 50.89700 26.28400
C  19.96900 50.58000 25.26100
C  21.16500 49.89500 25.80000
C  20.97400 49.92000 27.20500
C  19.74600 50.54800 27.41400
C  22.31600 49.25800 25.03300
C  21.56100 49.57800 28.48300
O  22.62100 48.99800 28.76900
C  20.64300 50.13800 29.55100
C  20.25600 48.96400 30.37400
O  19.71900 47.99100 29.85600
O  20.50900 49.17900 31.68400
C  20.03300 48.09900 32.59000
H  14.34500 53.20500 29.47400
H  14.77600 53.49500 22.99200
H  20.38600 50.51900 23.15800
H  18.26200 50.67000 31.45000
H  16.25300 52.72300 31.34900
H  15.08900 50.83400 32.07200
H  16.23800 49.75500 31.22800
H  14.77200 50.55200 30.37500
H  18.65300 53.56100 31.09800
H  19.92100 52.36800 31.04400
H  18.74400 53.77800 33.17400
H  19.86500 52.36400 33.20400
H  12.61000 54.03500 28.90500
H  11.63700 54.64600 27.63000
H  13.13300 55.52900 28.20000
H  11.84300 56.21200 25.81300
H  10.84700 54.74000 25.49000
H  11.00000 56.11000 24.23300
H  16.85900 53.29600 21.37900
H  18.28500 50.74800 21.45000
H  15.26800 50.81700 21.94000
H  16.38000 50.76200 20.43200
H  15.17800 51.87800 20.49100
H  19.00300 52.65600 20.20100
H  20.33400 52.12600 21.21600
H  18.96300 54.70400 21.21600
H  20.56200 54.31200 21.78700
H  19.18300 54.01700 22.91100
H  22.14200 48.19000 24.90200
H  23.27400 49.50800 25.48800
H  22.47700 49.74000 24.06900
H  21.21300 50.75300 30.24700
H  19.09200 47.64300 32.28400
H  20.07500 48.60900 33.55300
H  20.73000 47.26100 32.57400

