158

Mg 40.81800 9.89600 28.80800
C  42.73400 10.83000 31.60700
C  38.64300 8.36800 30.97300
C  39.03200 8.92900 26.10700
C  43.36600 11.14100 26.73200
N  40.72500 9.64200 31.06300
C  41.51100 10.20600 31.96700
C  40.95700 10.02500 33.43700
C  39.83000 9.00300 33.11200
C  39.64000 9.03500 31.63700
C  39.98900 7.54000 33.60900
C  40.68800 11.44400 34.15300
C  39.79300 11.38800 35.36500
H  40.32900 11.99100 36.78000
N  39.09100 8.85300 28.57400
C  38.38800 8.29300 29.62300
C  37.25600 7.49300 28.98400
C  37.26400 7.73100 27.55500
C  38.45700 8.61000 27.38200
C  36.20200 6.76600 29.73900
C  36.20800 7.28200 26.50300
O  36.30900 7.62100 25.31500
C  34.92900 6.45400 26.89400
N  41.26100 9.87100 26.72400
C  40.27100 9.49300 25.81800
C  40.66800 9.87400 24.35500
C  41.99800 10.73300 24.56100
C  42.27400 10.55800 26.06600
C  40.75400 8.63300 23.39700
C  41.92100 12.29100 24.17600
C  40.76400 13.04300 24.80900
N  42.70300 10.63700 29.04300
C  43.67100 11.18700 28.19300
C  44.72800 11.78700 28.93700
C  44.37500 11.59900 30.27200
C  43.15600 10.89900 30.27200
C  45.94000 12.47900 28.38300
C  44.81900 11.98600 31.56800
O  45.83700 12.53700 31.97300
C  43.72900 11.50300 32.44500
C  44.27800 10.67700 33.50100
O  44.83400 9.58700 33.38000
O  44.14100 11.28600 34.71100
C  44.50700 10.54500 35.91700
H  38.08800 7.73400 31.66700
H  38.47500 8.75000 25.18500
H  44.08000 11.74700 26.17200
H  41.62200 9.48000 34.10700
H  38.93900 9.40600 33.59300
H  40.03500 6.80300 32.80700
H  39.29700 7.32600 34.42400
H  40.94100 7.42200 34.12800
H  40.22700 12.08000 33.39800
H  41.58000 11.92300 34.55700
H  39.40500 10.40200 35.62200
H  38.98000 12.06200 35.09500
H  36.62700 6.63400 30.73500
H  36.19100 5.80300 29.22900
H  35.24100 7.27500 29.66300
H  34.31400 6.31700 26.00500
H  34.26700 6.93500 27.61300
H  35.32800 5.50100 27.24300
H  39.88000 10.56000 24.04100
H  42.80200 10.29100 23.97300
H  40.49100 7.69700 23.89000
H  41.75200 8.57200 22.96500
H  40.03100 8.79600 22.59700
H  41.94600 12.48400 23.10300
H  42.90700 12.67000 24.44500
H  40.21000 13.41900 23.94900
H  41.20400 13.92500 25.27400
H  40.07000 12.47800 25.43100
H  45.71600 12.91600 27.41000
H  46.76000 11.77500 28.24800
H  46.30100 13.25100 29.06300
H  43.22000 12.32300 32.95200
H  45.58800 10.41000 35.96100
H  44.15700 9.51300 35.91500
H  44.12500 11.07500 36.79000
Mg 47.72600 25.68400 28.96000
C  48.53800 27.81800 31.60600
C  46.28800 23.56400 31.28700
C  47.35600 23.30400 26.65800
C  49.67100 27.64600 26.80300
N  47.41300 25.74200 31.15400
C  47.83200 26.70400 32.03100
C  47.22200 26.61700 33.37600
C  46.64600 25.15700 33.35700
C  46.71500 24.75900 31.82400
C  47.24500 24.10500 34.34500
C  46.15100 27.71400 33.76300
C  46.23200 28.30900 35.15800
H  46.70900 27.51900 36.35600
N  46.85700 23.75800 28.95000
C  46.19300 23.11600 29.97200
C  45.66000 21.86600 29.52100
C  46.03400 21.70500 28.21300
C  46.76700 22.92900 27.86500
C  44.85400 20.90800 30.41300
C  45.69200 20.60700 27.22900
O  45.98300 20.66500 26.04600
C  44.89500 19.39000 27.65200
N  48.42600 25.49200 27.11100
C  48.03200 24.42900 26.34000
C  48.62700 24.51800 24.90800
C  49.17600 26.00500 24.87500
C  49.12100 26.41500 26.35000
C  49.67600 23.43500 24.67000
C  48.49100 27.05600 23.93100
C  49.45100 28.11800 23.35300
N  48.83700 27.46200 29.08100
C  49.59600 28.15500 28.16400
C  50.11100 29.37600 28.76700
C  49.69200 29.27900 30.11900
C  49.02000 28.02600 30.24600
C  50.77800 30.45200 27.95600
C  49.80100 29.97900 31.35900
O  50.31400 31.03500 31.62200
C  49.12400 29.08300 32.32800
C  50.14800 28.76300 33.44600
O  51.01600 27.91100 33.33800
O  49.86000 29.41600 34.58200
C  50.81800 29.39400 35.71600
H  45.71100 22.98900 32.01500
H  47.06900 22.63600 25.84300
H  50.22200 28.19600 26.03800
H  48.11800 26.50500 33.98600
H  45.61600 25.13300 33.71400
H  47.85000 24.68600 35.04100
H  47.91600 23.42600 33.82000
H  46.45800 23.57000 34.87700
H  45.10000 27.42600 33.73700
H  46.24800 28.56800 33.09300
H  45.21800 28.64700 35.37300
H  46.70700 29.29000 35.12300
H  45.36000 19.94400 30.36300
H  43.83500 20.79000 30.04400
H  44.93500 21.23000 31.45200
H  45.44400 18.94100 28.48000
H  44.76800 18.71700 26.80400
H  43.89800 19.73600 27.92700
H  47.81000 24.43800 24.19000
H  50.23500 26.03700 24.62100
H  49.62400 23.28700 23.59200
H  49.30300 22.52300 25.13600
H  50.63300 23.64300 25.15000
H  47.78600 27.57800 24.57800
H  48.01800 26.51800 23.10900
H  49.08900 29.11500 23.60300
H  49.45200 28.12600 22.26300
H  50.51200 27.95300 23.54100
H  50.75600 30.27000 26.88200
H  51.81100 30.66400 28.23200
H  50.26700 31.40000 28.12100
H  48.32900 29.66400 32.79600
H  50.48900 28.77800 36.55200
H  50.85000 30.41700 36.09100
H  51.79600 29.07500 35.35300

