158

Mg 42.36500 42.20200 26.31700
C  41.54300 44.46300 28.89300
C  43.46900 39.96900 28.71900
C  43.64400 40.30400 23.77500
C  41.91500 44.83900 24.04200
N  42.64500 42.27800 28.56800
C  42.06700 43.24700 29.36900
C  42.06400 42.75200 30.83500
C  42.86500 41.40100 30.77800
C  42.92600 41.13400 29.26300
C  44.21900 41.41700 31.58400
C  40.59000 42.65100 31.23400
C  40.23600 42.77600 32.73000
H  41.18500 43.12400 33.88300
N  43.26400 40.26200 26.25800
C  43.69600 39.55400 27.36100
C  44.20200 38.29700 26.86700
C  44.08300 38.22700 25.40400
C  43.60900 39.64700 25.06200
C  44.75400 37.22800 27.79700
C  44.38200 37.18100 24.43000
O  44.04200 37.23800 23.24700
C  45.08000 35.90900 24.90000
N  42.93400 42.57600 24.28100
C  43.34700 41.57300 23.42000
C  43.23700 41.96400 21.95800
C  42.41500 43.30000 22.02400
C  42.43900 43.68500 23.49200
C  44.59000 41.92900 21.13700
C  41.02500 43.19600 21.45700
C  40.02600 42.31500 22.28400
N  41.85800 44.23600 26.35500
C  41.76500 45.20900 25.36800
C  41.23200 46.48700 25.92900
C  41.08700 46.18100 27.24400
C  41.52700 44.86600 27.47900
C  40.87300 47.64100 25.05700
C  40.68000 46.71600 28.51400
O  40.17400 47.79800 28.76600
C  41.01700 45.61500 29.61000
C  41.89000 46.12300 30.72900
O  42.97600 46.63600 30.54200
O  41.40600 45.86800 32.05400
C  42.20700 46.46600 33.11800
H  43.68100 39.20000 29.46500
H  43.90800 39.60800 22.97600
H  41.85100 45.50200 23.17600
H  42.58800 43.42200 31.51600
H  42.22700 40.57500 31.09400
H  44.92700 40.68400 31.19500
H  44.01200 41.12600 32.61400
H  44.64000 42.42000 31.64700
H  40.34400 41.60000 31.08200
H  39.97900 43.32800 30.63700
H  39.62900 41.90200 32.96400
H  39.61300 43.67000 32.68100
H  45.74900 36.86900 27.53600
H  44.17600 36.30400 27.79600
H  44.93000 37.61900 28.80000
H  44.45800 35.34100 25.59200
H  45.97500 36.14300 25.47700
H  45.42500 35.31100 24.05600
H  42.63700 41.20300 21.46100
H  42.98000 44.12200 21.58600
H  45.39200 41.46100 21.70700
H  44.95800 42.90500 20.82200
H  44.47500 41.30400 20.25100
H  41.03900 42.78700 20.44700
H  40.53500 44.16400 21.35400
H  39.52600 42.98700 22.98200
H  40.54500 41.55900 22.87200
H  39.27500 41.79000 21.69400
H  40.38400 48.36700 25.70700
H  40.26100 47.30300 24.22100
H  41.81900 48.11800 24.80000
H  40.06900 45.44500 30.12000
H  42.48200 47.47700 32.81900
H  43.12500 45.95600 33.41000
H  41.63900 46.48000 34.04800
Mg 7.14000 55.39100 41.68000
C  5.98800 52.27600 40.56700
C  10.14000 54.57800 40.78600
C  7.75200 58.74400 41.52700
C  3.91500 56.18200 42.58500
N  7.91700 53.60800 40.76900
C  7.33000 52.46200 40.43300
C  8.34600 51.38700 40.06100
C  9.73600 52.04600 40.45100
C  9.28400 53.48800 40.70600
C  10.47900 51.25900 41.60900
C  8.29000 50.88100 38.59500
C  8.89200 49.51000 38.39600
H  9.53700 49.44500 36.98500
N  8.75900 56.57600 41.28600
C  9.96900 55.96700 40.90900
C  10.93900 56.99900 40.77100
C  10.21500 58.22400 40.79100
C  8.82600 57.88200 41.20900
C  12.41800 56.69900 40.56400
C  10.71700 59.60900 40.49900
O  11.89700 59.79300 40.12600
C  9.97500 60.89600 40.68300
N  5.96600 57.26700 42.14300
C  6.48000 58.49000 42.02900
C  5.39200 59.49800 42.47700
C  4.24100 58.68500 43.03200
C  4.65100 57.33200 42.47800
C  6.09900 60.47700 43.47100
C  2.80100 59.17000 42.53700
C  1.73100 58.94600 43.59300
N  5.30500 54.43300 41.62900
C  4.08700 54.85300 42.05100
C  3.16400 53.77200 41.99600
C  3.79500 52.69700 41.25200
C  5.12300 53.19400 41.12800
C  1.79800 53.73200 42.61000
C  3.71200 51.30800 40.75300
O  2.83300 50.43300 40.86800
C  5.13400 51.01900 40.17400
C  4.85100 51.00400 38.74000
O  4.47300 52.02000 38.14800
O  5.13100 49.74600 38.15500
C  4.96400 49.70100 36.67900
H  11.20400 54.42500 40.59500
H  7.95000 59.81800 41.51300
H  2.93200 56.23500 43.05700
H  8.17100 50.54000 40.72400
H  10.31200 51.98300 39.52800
H  10.20500 51.57900 42.61400
H  11.50900 51.34900 41.26200
H  10.19900 50.21400 41.47300
H  8.93200 51.58900 38.07000
H  7.26800 50.93900 38.22100
H  8.04300 48.85100 38.57900
H  9.66600 49.29000 39.13100
H  12.45900 56.11200 39.64700
H  12.79000 56.12600 41.41400
H  13.00000 57.62100 40.55400
H  10.00100 61.21400 41.72500
H  8.95500 60.86100 40.29900
H  10.64800 61.60200 40.19700
H  5.29500 60.09600 41.57100
H  4.26400 58.57300 44.11600
H  7.18000 60.35400 43.54100
H  5.52200 60.48200 44.39500
H  5.94400 61.47200 43.05200
H  2.62800 58.46900 41.72100
H  2.90700 60.13600 42.04400
H  1.96300 58.25400 44.40300
H  0.92500 58.38400 43.12200
H  1.20500 59.85900 43.87300
H  1.40100 54.73900 42.73700
H  1.80000 53.22200 43.57400
H  1.13600 53.24400 41.89500
H  5.57100 50.04400 40.38900
H  5.48000 50.53400 36.20100
H  3.89800 49.90900 36.59300
H  5.15600 48.69100 36.31600

