158

Mg 2.55600 -2.20300 43.94900
C  5.89500 -1.07900 44.30700
C  1.70300 0.88400 42.56000
C  -0.35900 -3.35100 42.83600
C  3.68900 -5.45600 44.73600
N  3.69200 -0.29200 43.38500
C  5.02700 -0.10400 43.65000
C  5.39300 1.40800 43.50200
C  3.98800 2.02700 43.26900
C  3.04800 0.82500 43.04900
C  3.43600 3.03000 44.33900
C  6.39000 1.63800 42.31300
C  6.05300 0.87400 40.99500
H  6.13400 1.59800 39.64800
N  0.78500 -1.26300 43.12300
C  0.71700 -0.07400 42.49200
C  -0.54400 0.11900 41.88100
C  -1.25300 -1.07000 42.08000
C  -0.25300 -1.98600 42.66000
C  -0.92800 1.25500 41.09500
C  -2.67100 -1.36900 41.70700
O  -3.34500 -0.46600 41.15500
C  -3.41200 -2.72000 42.08200
N  1.73400 -4.09600 43.91000
C  0.48800 -4.27600 43.46200
C  0.03800 -5.71200 43.76000
C  1.31000 -6.40900 44.44100
C  2.33000 -5.26500 44.42300
C  -1.29000 -5.84900 44.51900
C  1.78500 -7.67100 43.66400
C  2.60800 -7.52000 42.29600
N  4.46300 -3.21400 44.44100
C  4.72800 -4.50600 44.71100
C  6.10200 -4.57800 45.09900
C  6.63900 -3.29500 45.03900
C  5.61000 -2.49600 44.52900
C  6.80600 -5.84300 45.63600
C  7.78000 -2.46800 45.30900
O  8.92500 -2.69400 45.65700
C  7.32100 -1.00700 44.84900
C  7.40000 -0.03300 45.96900
O  6.67400 -0.04300 46.98700
O  8.29400 0.97300 45.68200
C  8.45900 1.88600 46.78900
H  1.42300 1.87900 42.20600
H  -1.32000 -3.77000 42.52900
H  3.92600 -6.47800 45.04100
H  5.76000 1.75700 44.46700
H  3.95600 2.63200 42.36300
H  2.88500 3.84400 43.86900
H  4.28300 3.46700 44.86800
H  2.92900 2.46900 45.12400
H  7.33300 1.26700 42.71100
H  6.52600 2.69300 42.07300
H  5.05700 0.43700 40.93900
H  6.73300 0.02800 41.08900
H  -1.62900 0.95200 40.31800
H  -0.13900 1.73600 40.51700
H  -1.22200 2.00000 41.83500
H  -4.49700 -2.75700 41.98800
H  -3.20000 -2.96700 43.12300
H  -2.94500 -3.50200 41.48400
H  -0.24100 -6.08600 42.77500
H  1.16000 -6.68100 45.48500
H  -1.02600 -6.10700 45.54400
H  -1.89800 -6.61900 44.04300
H  -1.84400 -4.91500 44.43200
H  0.93400 -8.32300 43.46700
H  2.26900 -8.30200 44.40900
H  3.60200 -7.91400 42.50500
H  2.64700 -6.49000 41.94000
H  2.03400 -8.06500 41.54600
H  6.08400 -6.16400 46.38600
H  7.85700 -5.70700 45.89400
H  6.72500 -6.59700 44.85300
H  7.99500 -0.59700 44.09700
H  7.80400 1.83300 47.65800
H  8.59700 2.89300 46.39500
H  9.41800 1.60500 47.22400
Mg -1.38300 34.23600 26.62900
C  -3.19800 32.46200 29.16700
C  0.12500 36.09500 29.23700
C  -0.13800 36.28800 24.30800
C  -3.00000 32.48800 24.22400
N  -1.57700 34.23200 28.92300
C  -2.25400 33.40200 29.73900
C  -2.08700 33.59800 31.25700
C  -1.09600 34.84700 31.23300
C  -0.78300 35.04000 29.64400
C  -1.55500 36.14300 31.89600
C  -1.47200 32.37400 31.92600
C  -2.14000 31.81100 33.16900
H  -1.42900 31.92600 34.48200
N  -0.20100 36.00200 26.72600
C  0.41300 36.52300 27.87500
C  1.18400 37.69700 27.51700
C  1.09700 37.69500 26.12800
C  0.29100 36.64300 25.63800
C  1.91600 38.56000 28.49800
C  1.55400 38.73100 25.14100
O  1.32500 38.77400 23.93400
C  2.31400 39.93900 25.57500
N  -1.64000 34.38300 24.57900
C  -0.92700 35.27400 23.84200
C  -0.96300 34.95900 22.33400
C  -1.74100 33.52700 22.35000
C  -2.22800 33.47900 23.75900
C  -1.75400 36.11300 21.57500
C  -0.96800 32.26100 21.93800
C  0.36200 31.84900 22.57500
N  -2.83300 32.83000 26.64300
C  -3.41600 32.27000 25.61900
C  -4.34300 31.30300 26.08000
C  -4.26900 31.32300 27.46500
C  -3.37400 32.34000 27.74700
C  -5.11600 30.38400 25.24200
C  -4.75000 30.67500 28.65700
O  -5.54500 29.70900 28.76200
C  -4.08700 31.42800 29.87600
C  -5.05600 32.05200 30.76100
O  -5.51300 33.22800 30.73200
O  -5.46500 31.15400 31.76400
C  -6.40600 31.69800 32.71000
H  0.49100 36.70900 30.06200
H  0.40000 36.63500 23.42300
H  -3.43300 31.80100 23.49300
H  -3.05000 33.87000 31.69000
H  -0.11000 34.64000 31.64900
H  -0.64900 36.51000 32.37900
H  -2.32100 35.92200 32.63900
H  -1.75800 36.92400 31.16300
H  -0.44500 32.62500 32.19100
H  -1.46500 31.60000 31.15800
H  -2.36900 30.75800 33.00000
H  -3.16000 32.18400 33.25500
H  2.43600 39.45700 28.16200
H  2.67900 37.95100 28.98300
H  1.24400 38.81300 29.31700
H  2.41700 40.59600 24.71200
H  3.29000 39.57800 25.90000
H  1.81900 40.50000 26.36800
H  0.02200 34.78200 21.90400
H  -2.64600 33.69000 21.76400
H  -1.79300 36.99000 22.22100
H  -2.77900 35.76900 21.43600
H  -1.33500 36.35200 20.59800
H  -0.90400 32.51900 20.88100
H  -1.66100 31.46000 22.19800
H  0.34100 32.40600 23.51200
H  1.29800 32.14800 22.10300
H  0.45200 30.82100 22.92600
H  -4.63600 30.16400 24.28800
H  -6.11200 30.76000 25.00800
H  -5.12800 29.38300 25.67200
H  -3.47600 30.71000 30.42300
H  -7.25400 32.26900 32.33100
H  -5.96300 32.48500 33.32100
H  -6.71600 30.85100 33.32300

