158

Mg 35.77900 1.63300 29.89900
C  33.52300 2.79400 32.19700
C  38.23600 1.90200 32.36200
C  38.16600 1.13500 27.50700
C  33.39500 2.04100 27.52600
N  35.90900 2.54400 31.98800
C  34.80200 2.69700 32.71100
C  35.08300 2.76000 34.21900
C  36.69900 2.72700 34.24300
C  36.98300 2.31400 32.77900
C  37.32600 4.12100 34.62400
C  34.32500 1.61300 34.97500
C  33.81600 1.94000 36.40400
H  34.36600 3.32800 36.95500
N  37.87600 1.36800 29.92100
C  38.63800 1.42600 31.07400
C  39.93200 0.97800 30.71600
C  39.98200 0.69200 29.30500
C  38.64700 1.04000 28.84600
C  41.11600 0.79600 31.67800
C  41.09400 0.26400 28.39600
O  41.00600 -0.08500 27.27500
C  42.50800 0.27300 28.98100
N  35.83400 1.67900 27.79700
C  36.90600 1.39900 27.00000
C  36.48700 1.41700 25.47100
C  34.92900 1.72200 25.59800
C  34.72300 1.72900 27.09800
C  37.42800 2.26100 24.51300
C  34.00100 0.62700 24.77500
C  33.33100 1.37300 23.53400
N  33.76100 2.20500 29.80400
C  32.92000 2.34100 28.78100
C  31.66900 2.85800 29.17800
C  31.82400 2.98700 30.60100
C  33.11600 2.65900 30.85300
C  30.44700 3.04900 28.34700
C  31.17200 3.42200 31.79600
O  30.06800 3.90600 32.00500
C  32.19800 3.27100 32.91400
C  32.33300 4.69600 33.45900
O  33.09500 5.57800 33.03100
O  31.55500 4.94900 34.52900
C  31.49500 6.35400 35.06300
H  38.97300 1.95700 33.16500
H  38.89800 0.97400 26.71300
H  32.76400 2.19000 26.64800
H  34.79300 3.70300 34.68200
H  37.20200 1.97700 34.85300
H  38.25600 3.93200 35.16000
H  36.70000 4.81700 35.18200
H  37.67700 4.62200 33.72100
H  35.01800 0.77400 35.03400
H  33.51000 1.18900 34.38900
H  34.19200 1.14100 37.04200
H  32.72800 1.94200 36.45100
H  41.90500 1.54700 31.64700
H  41.60400 -0.15600 31.46900
H  40.67600 0.72600 32.67300
H  43.22700 0.04600 28.19400
H  42.70800 -0.58400 29.62400
H  42.64400 1.24400 29.45700
H  36.66300 0.38300 25.17300
H  34.70500 2.71100 25.19800
H  36.84900 3.04700 24.02600
H  37.90100 1.53200 23.85600
H  38.09100 2.81300 25.17900
H  33.20100 0.20200 25.38200
H  34.61000 -0.13200 24.28400
H  32.89400 0.60400 22.89500
H  33.99100 1.94500 22.88200
H  32.50100 1.98900 23.87700
H  30.26300 2.11100 27.82500
H  30.75200 3.77200 27.59100
H  29.65700 3.44600 28.98500
H  31.67100 2.58300 33.57500
H  32.52300 6.70000 35.17400
H  31.15700 6.39100 36.09800
H  30.79800 6.84300 34.38200
Mg -2.32800 34.91100 25.62000
C  -3.69900 33.12200 28.24800
C  -0.85600 37.11900 27.99400
C  -1.77000 37.13400 23.32900
C  -4.35300 33.07500 23.47900
N  -2.25900 35.17000 27.88100
C  -2.79400 34.11800 28.68100
C  -2.47100 34.41000 30.21000
C  -1.50000 35.64500 30.13700
C  -1.54900 36.08000 28.59600
C  -1.71200 36.79100 31.11800
C  -1.80300 33.12000 30.87700
C  -2.34700 32.68100 32.23300
H  -1.52000 32.84800 33.52400
N  -1.32900 36.72800 25.63700
C  -0.71200 37.44300 26.66200
C  0.06200 38.49800 26.13200
C  -0.05300 38.45900 24.72200
C  -1.10700 37.47100 24.49700
C  0.84100 39.45100 27.05900
C  0.61100 39.35500 23.68400
O  0.22600 39.45200 22.51500
C  1.80600 40.20600 24.13700
N  -2.92700 35.05000 23.70700
C  -2.61300 36.09000 22.94000
C  -3.21500 36.07400 21.50100
C  -3.75800 34.60300 21.45800
C  -3.60600 34.17900 22.93500
C  -4.30300 37.12500 21.30200
C  -3.02400 33.75100 20.42600
C  -1.61700 33.26000 20.79500
N  -3.72700 33.38600 25.76500
C  -4.40400 32.67400 24.79300
C  -5.22400 31.63800 25.41900
C  -4.96300 31.74500 26.80900
C  -4.08400 32.85100 26.96900
C  -6.19300 30.71300 24.74400
C  -5.33600 31.21000 28.10400
O  -6.07700 30.29600 28.45800
C  -4.52500 32.14900 29.08000
C  -5.49300 32.82800 29.91400
O  -6.17300 33.82300 29.65500
O  -5.51100 32.03200 31.06500
C  -6.27500 32.56000 32.23700
H  -0.32400 37.66000 28.77900
H  -1.66600 37.89900 22.55600
H  -5.13400 32.62800 22.86100
H  -3.39500 34.79100 30.64600
H  -0.49900 35.27700 30.35900
H  -2.36000 36.43300 31.91800
H  -2.02200 37.66600 30.54700
H  -0.73200 37.12700 31.45700
H  -0.74000 33.29500 31.03900
H  -1.72100 32.24100 30.23800
H  -2.61100 31.62500 32.16300
H  -3.24600 33.23100 32.51200
H  0.67600 40.46900 26.70600
H  1.88400 39.14700 27.15500
H  0.36400 39.38900 28.03700
H  1.44800 41.13700 24.57700
H  2.28900 40.51700 23.21000
H  2.48600 39.66300 24.79300
H  -2.48800 36.36200 20.74200
H  -4.80200 34.53700 21.15200
H  -4.60600 37.61300 22.22800
H  -5.01100 36.66000 20.61600
H  -3.84300 37.87500 20.65900
H  -2.88000 34.41700 19.57500
H  -3.67900 32.92900 20.13700
H  -1.24300 33.53300 21.78100
H  -0.94200 33.81700 20.14400
H  -1.49100 32.18400 20.67200
H  -6.08100 29.74400 25.23100
H  -5.99100 30.56400 23.68400
H  -7.18600 31.09600 24.97800
H  -3.84300 31.42900 29.53300
H  -6.58400 33.57400 31.98300
H  -5.87200 32.46600 33.24500
H  -7.20400 31.98900 32.22500

