158

Mg 45.01800 4.10900 48.59500
C  43.11900 6.89100 48.01300
C  42.25700 2.11800 47.96500
C  47.06700 1.43000 48.09000
C  47.89000 6.16000 48.37300
N  42.99300 4.51900 47.91200
C  42.36200 5.71700 47.74300
C  40.92800 5.56900 47.29400
C  40.62300 4.04600 47.66800
C  42.07600 3.50900 47.90400
C  39.56400 3.85900 48.88600
C  40.72900 5.95100 45.76300
C  39.53000 6.94700 45.43000
H  38.85800 6.71700 44.23700
N  44.68700 2.04800 48.37300
C  43.44600 1.44000 48.11800
C  43.68500 0.03200 47.95900
C  45.12600 -0.24600 47.99600
C  45.65900 1.12600 48.04100
C  42.58500 -0.91600 47.61800
C  45.80900 -1.58400 47.75800
O  45.05300 -2.55600 47.62000
C  47.33500 -1.81000 47.85100
N  47.19200 3.85900 48.44000
C  47.75500 2.60800 48.28600
C  49.27900 2.68100 48.13500
C  49.58200 4.20600 48.18400
C  48.14400 4.82100 48.33000
C  50.11100 1.98300 49.22500
C  50.32800 4.79300 46.99600
C  51.45000 4.03100 46.22400
N  45.43500 6.10400 48.40000
C  46.64200 6.78400 48.40100
C  46.36200 8.21700 48.35000
C  44.95000 8.27000 48.33900
C  44.50100 6.99200 48.31500
C  47.27700 9.42900 48.34100
C  43.81300 9.23000 48.22800
O  43.84700 10.46900 48.12400
C  42.54700 8.35800 47.94700
C  41.53700 8.63900 49.06700
O  41.32400 7.98200 50.09200
O  40.78600 9.71300 48.62500
C  39.45100 9.88400 49.23500
H  41.34700 1.51600 47.91400
H  47.77900 0.69300 47.71100
H  48.75600 6.81300 48.49900
H  40.39700 6.25100 47.95900
H  40.28300 3.45300 46.81900
H  39.19700 4.80100 49.29400
H  40.15900 3.28400 49.59500
H  38.72100 3.20800 48.65600
H  40.66500 5.12200 45.05900
H  41.53300 6.63400 45.48800
H  39.92200 7.95900 45.53200
H  38.75300 6.77500 46.17500
H  42.74000 -1.14800 46.56400
H  41.55100 -0.60700 47.76700
H  42.61900 -1.77400 48.28900
H  47.68400 -1.67000 46.82800
H  47.56100 -2.85900 48.04400
H  47.79100 -1.12700 48.56800
H  49.49800 2.15000 47.20900
H  50.06500 4.54800 49.09900
H  50.59400 1.06400 48.89200
H  49.43300 1.60900 49.99300
H  50.90200 2.59900 49.65300
H  50.65000 5.77800 47.33500
H  49.55900 4.97300 46.24400
H  51.69300 3.07800 46.69300
H  52.33800 4.66300 46.26600
H  51.11500 3.93200 45.19200
H  46.70200 10.19900 48.85600
H  47.39100 9.54700 47.26300
H  48.25200 9.36900 48.82300
H  42.14700 8.72500 47.00100
H  38.68000 9.58100 48.52600
H  39.14800 10.90100 49.48200
H  39.36400 9.37600 50.19500
Mg 36.26400 49.78200 24.60000
C  36.15500 48.24200 27.67300
C  34.98200 52.65700 25.91400
C  36.05100 51.23800 21.43300
C  37.07100 46.75800 23.16300
N  35.73900 50.34800 26.55000
C  35.73600 49.56800 27.70400
C  35.36800 50.38300 28.96900
C  34.89400 51.82800 28.36100
C  35.14600 51.64300 26.84600
C  33.43500 52.22600 28.65200
C  36.62400 50.50700 29.82700
C  36.49600 49.90100 31.21200
H  35.36900 50.23500 32.19900
N  35.77100 51.74700 23.85800
C  35.26800 52.79200 24.53800
C  35.01100 53.91200 23.68000
C  35.12200 53.43400 22.36500
C  35.65200 52.02700 22.52900
C  34.46900 55.20400 24.26300
C  34.86500 54.04700 20.97800
O  35.11400 53.51000 19.89800
C  34.23600 55.41100 20.98500
N  36.48800 49.04800 22.59800
C  36.43600 49.88800 21.48000
C  36.73700 49.12000 20.19200
C  37.16900 47.63300 20.74300
C  36.82600 47.76000 22.26400
C  35.57300 48.97100 19.12800
C  38.64300 47.22400 20.53300
C  39.76300 48.19100 20.82400
N  36.62700 47.80600 25.26100
C  36.95500 46.70100 24.55700
C  37.20500 45.60600 25.48400
C  36.91100 46.15700 26.74300
C  36.53700 47.51500 26.55400
C  37.64800 44.16500 25.16800
C  36.80800 45.93400 28.17600
O  37.15400 45.00800 28.87300
C  36.25600 47.23900 28.83200
C  35.03200 46.91600 29.62400
O  33.90800 47.01600 29.23300
O  35.40200 46.50400 30.91000
C  34.19200 46.27600 31.74200
H  34.49800 53.49300 26.42300
H  35.92500 51.54400 20.39200
H  37.54300 45.90400 22.67400
H  34.54700 49.89400 29.49500
H  35.57900 52.60900 28.69100
H  32.92400 52.29600 27.69200
H  33.51800 53.17100 29.18900
H  32.96700 51.38800 29.16900
H  36.93600 51.55000 29.87000
H  37.53600 50.05600 29.43400
H  37.44500 50.29200 31.57800
H  36.67100 48.82600 31.18100
H  35.13800 56.02200 23.99400
H  34.37300 55.18300 25.34900
H  33.51200 55.36800 23.76700
H  33.21400 55.13500 21.24300
H  34.19900 55.89000 20.00600
H  34.70400 56.07900 21.70800
H  37.56500 49.61200 19.68300
H  36.56100 46.86900 20.25800
H  34.62200 49.33700 19.51400
H  35.31800 47.93500 18.90200
H  35.93300 49.54700 18.27600
H  38.75100 47.07000 19.45900
H  38.88200 46.25700 20.97600
H  40.51600 48.23900 20.03700
H  40.28700 47.71000 21.65000
H  39.38700 49.20500 20.96100
H  36.92700 43.53300 24.65100
H  37.92600 43.77800 26.14900
H  38.49900 44.33100 24.50700
H  37.12700 47.48700 29.43900
H  34.13300 45.19200 31.83700
H  33.23400 46.67000 31.40200
H  34.43900 46.64600 32.73700

