158

Mg 46.86800 24.34300 27.97400
C  47.45700 26.88600 30.33000
C  46.27900 22.17100 30.36500
C  46.67600 22.15300 25.55800
C  47.91000 26.80300 25.51800
N  46.99200 24.51500 30.11000
C  47.09400 25.63400 30.88700
C  46.70700 25.33700 32.35500
C  46.62200 23.75900 32.26500
C  46.63500 23.44900 30.82200
C  47.71400 23.02700 33.13000
C  45.42300 25.98000 32.89300
C  45.03500 25.51500 34.31100
H  44.80900 26.60500 35.40000
N  46.51600 22.36300 27.97100
C  46.12100 21.62400 29.02800
C  45.96200 20.25100 28.60800
C  46.04000 20.24200 27.15700
C  46.49000 21.60500 26.84900
C  45.54800 19.12900 29.55600
C  45.73800 19.06600 26.22800
O  45.71500 19.18400 24.97400
C  45.37900 17.65600 26.78000
N  47.26100 24.45400 25.86900
C  47.08400 23.34500 25.09100
C  47.34700 23.66100 23.62700
C  47.61900 25.16100 23.57700
C  47.52100 25.51000 25.08100
C  48.69500 22.95200 23.15000
C  46.59000 25.99800 22.68400
C  45.35800 26.56200 23.39200
N  47.47900 26.42300 27.86400
C  47.89400 27.23200 26.79100
C  48.28500 28.53100 27.25100
C  48.15800 28.48500 28.63500
C  47.66700 27.21500 28.94200
C  48.84500 29.52900 26.34600
C  48.39300 29.12100 29.94300
O  48.92300 30.19100 30.10200
C  47.69200 28.21800 31.05600
C  48.47200 28.10200 32.32600
O  49.53400 27.45600 32.51200
O  47.75400 28.70900 33.36000
C  48.45200 28.57800 34.63500
H  45.99000 21.40100 31.08400
H  46.47300 21.48800 24.71600
H  48.18800 27.37300 24.62900
H  47.60300 25.67800 32.87400
H  45.61600 23.47100 32.57100
H  47.43900 22.88500 34.17400
H  48.56300 23.70700 33.20400
H  48.10800 22.10300 32.70700
H  44.51500 25.77800 32.32600
H  45.53400 27.06000 32.80100
H  45.78700 24.85300 34.74200
H  44.12200 24.92500 34.23400
H  44.62300 18.70300 29.16600
H  45.49000 19.48300 30.58500
H  46.38400 18.42900 29.54600
H  46.04100 17.39200 27.60500
H  45.51800 16.93700 25.97200
H  44.31400 17.72300 27.00100
H  46.57100 23.21400 23.00600
H  48.60400 25.47800 23.23600
H  48.95900 22.10300 23.78200
H  49.51600 23.66500 23.08300
H  48.51500 22.48200 22.18400
H  46.16700 25.29800 21.96400
H  47.16200 26.80600 22.22800
H  45.42600 26.30500 24.44900
H  44.40500 26.12400 23.09400
H  45.40800 27.64800 23.31100
H  48.69600 30.50400 26.81000
H  48.25500 29.51800 25.43000
H  49.90800 29.37200 26.16100
H  46.69200 28.55100 31.33500
H  48.23700 29.46300 35.23300
H  49.54100 28.61000 34.66800
H  48.11300 27.70600 35.19400
Mg 47.78900 34.58700 27.00200
C  45.99900 32.98200 29.59500
C  47.95500 37.35400 29.06400
C  49.22100 35.97400 24.50600
C  46.99600 31.76600 24.99100
N  46.94700 35.08700 29.12200
C  46.48800 34.23400 30.01600
C  46.39600 34.88400 31.38600
C  46.68800 36.39300 31.09400
C  47.16600 36.35000 29.63400
C  45.49900 37.33500 31.27400
C  47.49400 34.25700 32.27500
C  47.04700 33.87100 33.71300
H  47.68700 34.76700 34.77000
N  48.40300 36.50700 26.70700
C  48.54500 37.45800 27.73300
C  49.28700 38.60100 27.15500
C  49.63600 38.23100 25.82200
C  49.07700 36.84000 25.61900
C  49.50600 39.84800 27.88700
C  50.45200 38.98700 24.80600
O  50.65900 38.57900 23.66800
C  51.00100 40.42600 25.10100
N  47.92900 33.91000 24.92500
C  48.69300 34.73000 24.09800
C  49.01300 33.96300 22.73000
C  48.32200 32.60300 22.99200
C  47.74800 32.73000 24.37500
C  48.47300 34.68300 21.45700
C  49.22400 31.29300 22.93100
C  48.61400 30.04900 22.21400
N  46.71700 32.78600 27.18700
C  46.44100 31.81800 26.26400
C  45.55800 30.81200 26.87800
C  45.47600 31.19800 28.20500
C  46.15100 32.41700 28.34200
C  45.04800 29.49500 26.23200
C  44.90200 30.80200 29.49000
O  44.19700 29.82200 29.79800
C  45.05700 32.08000 30.37000
C  45.58500 31.46900 31.59200
O  46.75300 31.12800 31.76300
O  44.54100 31.36000 32.52000
C  44.82400 30.97500 33.89000
H  48.02900 38.22100 29.72200
H  49.84800 36.30700 23.67600
H  46.87800 30.84400 24.41900
H  45.37800 34.78500 31.76300
H  47.39600 36.78700 31.82200
H  45.75300 38.31300 31.68200
H  44.69700 36.93000 31.89100
H  45.01900 37.50800 30.31100
H  48.36500 34.90900 32.34000
H  47.89700 33.31800 31.89500
H  47.54700 32.91700 33.88100
H  45.99000 33.67700 33.89200
H  49.26500 39.77100 28.94700
H  48.98600 40.69600 27.44100
H  50.55000 40.15000 27.80600
H  51.53500 40.77400 24.21700
H  51.73600 40.31500 25.89800
H  50.20100 41.07800 25.45300
H  50.07200 33.75400 22.57600
H  47.34600 32.56600 22.50800
H  48.11200 35.62700 21.86600
H  47.69500 34.10600 20.95600
H  49.32200 35.01400 20.85900
H  49.31700 30.85000 23.92300
H  50.17400 31.60100 22.49500
H  49.35500 29.48700 21.64400
H  47.76800 30.19500 21.54300
H  48.23900 29.33800 22.95000
H  44.05400 29.73400 25.85400
H  44.89300 28.75200 27.01400
H  45.84800 29.14000 25.58300
H  44.05800 32.48200 30.53700
H  45.91300 30.94500 33.94300
H  44.47100 30.04200 34.33000
H  44.43600 31.71900 34.58600

