158

Mg 35.74600 2.89900 30.28500
C  33.19600 3.70900 32.44300
C  38.08500 3.12900 32.79200
C  38.16300 2.25400 27.97600
C  33.41200 2.86200 27.69500
N  35.62400 3.27900 32.32000
C  34.47100 3.54600 33.05700
C  34.76400 3.39800 34.51000
C  36.29200 3.71300 34.57200
C  36.70800 3.30300 33.08900
C  36.67600 5.14600 34.91500
C  34.35400 2.08600 35.20700
C  33.88300 2.27500 36.65900
H  34.66100 3.32200 37.47100
N  37.85800 2.64400 30.36000
C  38.61100 2.71100 31.57100
C  40.01100 2.43800 31.22200
C  40.08900 2.19800 29.77000
C  38.68200 2.36400 29.29000
C  41.01700 2.45000 32.31100
C  41.19600 1.79300 28.90600
O  41.19000 1.70300 27.68400
C  42.49600 1.45600 29.57200
N  35.71000 2.66200 28.11300
C  36.86700 2.50500 27.40400
C  36.57400 2.11100 25.93300
C  35.01700 2.28300 25.86600
C  34.66300 2.43700 27.31500
C  37.39100 2.82900 24.90200
C  34.40400 1.00900 25.23300
C  34.00400 1.18900 23.73000
N  33.76700 3.32600 30.12200
C  32.94400 3.21900 28.97700
C  31.58900 3.63200 29.32400
C  31.57200 3.73500 30.70000
C  32.94400 3.56100 31.11400
C  30.46900 3.55100 28.43800
C  30.85400 3.88100 31.89800
O  29.64800 3.96300 32.16200
C  31.91000 3.86900 33.06200
C  31.73500 5.11900 33.85900
O  31.66600 6.23600 33.40200
O  31.75900 4.82200 35.20900
C  31.64300 5.95900 36.10800
H  38.81600 3.32800 33.57900
H  38.88600 1.96200 27.21200
H  32.61000 2.94200 26.95900
H  34.21400 4.25000 34.90800
H  36.80200 3.00400 35.22400
H  35.95100 5.70700 35.50400
H  37.02400 5.70700 34.04700
H  37.53500 5.08100 35.58300
H  35.09700 1.29000 35.17000
H  33.51500 1.66600 34.65200
H  33.85000 1.31600 37.17700
H  32.81000 2.47100 36.66200
H  41.60900 3.29600 31.96000
H  41.56000 1.51000 32.40400
H  40.69600 2.68600 33.32600
H  43.22300 1.36700 28.76400
H  42.41100 0.47400 30.03500
H  42.99700 2.15500 30.24200
H  36.92400 1.07900 25.95300
H  34.76500 3.24500 25.42100
H  38.22400 2.19400 24.60000
H  37.87800 3.76000 25.19300
H  36.73300 2.95100 24.04100
H  33.50700 0.68900 25.76400
H  35.08500 0.16300 25.32700
H  34.79400 1.63500 23.12600
H  33.10400 1.80300 23.69100
H  33.55900 0.26400 23.36400
H  30.57300 2.93000 27.54800
H  30.09200 4.53200 28.14900
H  29.69900 3.00900 28.98700
H  31.84100 2.96500 33.66600
H  32.33600 6.74800 35.81800
H  31.90900 5.62200 37.11000
H  30.58900 6.22800 36.03800
Mg -12.47700 38.32900 42.56300
C  -9.83600 36.05200 41.92900
C  -10.68300 40.69800 40.85700
C  -15.19200 39.99100 42.45000
C  -14.27700 35.40600 43.66000
N  -10.53900 38.35300 41.46100
C  -9.66700 37.28300 41.31800
C  -8.49800 37.78800 40.42000
C  -8.55100 39.38300 40.49800
C  -9.99800 39.51800 40.95700
C  -7.49100 40.12400 41.36400
C  -8.63000 37.19100 39.02600
C  -7.54900 36.11600 38.73500
H  -6.58900 36.39300 37.64100
N  -12.88900 40.14700 41.89900
C  -11.96000 41.04400 41.29400
C  -12.60400 42.27400 41.06000
C  -13.99100 42.07000 41.47900
C  -14.07400 40.65700 41.97300
C  -11.94900 43.40800 40.41300
C  -15.05400 43.18200 41.50200
O  -14.78200 44.24200 40.91300
C  -16.37300 43.06600 42.20300
N  -14.51700 37.67400 42.70100
C  -15.46300 38.62100 42.80000
C  -16.77900 38.07900 43.30200
C  -16.47300 36.58700 43.53000
C  -15.01300 36.51700 43.26400
C  -17.24200 38.80900 44.63300
C  -17.32300 35.59600 42.68000
C  -17.60400 34.23200 43.37400
N  -12.07100 36.17100 42.95500
C  -12.90900 35.18900 43.41000
C  -12.11200 33.97300 43.60500
C  -10.85200 34.25400 43.07000
C  -10.97300 35.62000 42.61400
C  -12.41600 32.69000 44.22300
C  -9.44000 33.78900 42.82700
O  -8.95600 32.70600 43.13100
C  -8.79500 34.90600 41.97900
C  -7.38700 35.11500 42.45800
O  -6.35900 34.46800 42.17100
O  -7.40700 36.27000 43.14800
C  -6.21800 36.95000 43.54900
H  -10.04700 41.47200 40.42300
H  -16.15700 40.49400 42.53900
H  -14.88700 34.56600 43.99600
H  -7.54000 37.49800 40.85200
H  -8.31700 39.84900 39.54100
H  -7.96100 40.72800 42.14100
H  -6.75300 40.72900 40.83800
H  -6.95300 39.38800 41.96100
H  -8.43300 37.96100 38.27900
H  -9.61900 36.74700 38.90700
H  -8.06800 35.29500 38.24000
H  -7.07500 35.76500 39.65200
H  -12.45800 43.77800 39.52200
H  -10.94200 43.17400 40.06900
H  -11.84300 44.23500 41.11400
H  -16.17300 42.72100 43.21700
H  -17.00900 42.38000 41.64300
H  -16.91700 44.00600 42.29400
H  -17.56800 38.17700 42.55700
H  -16.58300 36.31900 44.58100
H  -17.87900 38.25300 45.32200
H  -17.83100 39.67200 44.32400
H  -16.30800 39.10200 45.11300
H  -16.68800 35.50800 41.79900
H  -18.26800 36.07200 42.41900
H  -18.67200 34.01900 43.40800
H  -17.08500 34.21000 44.33300
H  -17.18700 33.35900 42.87200
H  -13.27700 32.89200 44.86100
H  -11.60400 32.28000 44.82200
H  -12.63900 31.95300 43.45100
H  -8.67200 34.54500 40.95800
H  -6.54900 37.87400 44.02200
H  -5.59200 37.13200 42.67500
H  -5.70600 36.34900 44.30100

