158

Mg 35.18600 2.92600 29.89300
C  33.07300 4.16600 32.32200
C  37.87900 3.30400 32.04700
C  37.14500 1.95400 27.23000
C  32.37000 2.76600 27.74700
N  35.50400 3.78900 31.83800
C  34.45800 3.97700 32.71500
C  35.03600 3.90500 34.23000
C  36.49800 4.09700 33.91800
C  36.65900 3.71900 32.52400
C  37.14400 5.48200 34.20800
C  34.51400 2.72200 35.10100
C  34.13300 3.18200 36.56300
H  35.01600 4.21900 37.34300
N  37.27500 2.59800 29.72500
C  38.22300 2.70100 30.77100
C  39.45900 2.16300 30.20500
C  39.31500 1.87200 28.81100
C  37.85700 2.09800 28.55300
C  40.73700 2.24300 30.98600
C  40.30200 1.31400 27.65700
O  39.89500 1.04100 26.49000
C  41.77100 1.03000 27.91400
N  34.86600 2.50400 27.80300
C  35.79700 2.18800 26.90100
C  35.30200 2.05000 25.52100
C  33.76200 2.07900 25.67800
C  33.60400 2.43800 27.21400
C  35.90000 2.92700 24.41600
C  32.99500 0.83800 25.18600
C  32.64300 -0.27300 26.16200
N  33.09800 3.41900 29.91500
C  32.06000 3.26400 28.98800
C  30.84900 3.78400 29.54000
C  31.11200 4.10900 30.89600
C  32.53000 3.89500 31.04300
C  29.53800 3.90600 28.78700
C  30.65800 4.53000 32.12000
O  29.50400 4.75100 32.51600
C  31.88900 4.51300 33.19100
C  32.02900 5.83500 33.79600
O  32.58400 6.77900 33.24800
O  31.41900 5.72900 35.02800
C  31.57800 6.91900 35.89700
H  38.74600 3.30700 32.71000
H  37.77100 1.74100 26.36000
H  31.53200 2.76200 27.04800
H  34.57500 4.82400 34.59300
H  36.99700 3.37400 34.56400
H  36.48600 6.18200 34.72300
H  37.46200 5.99800 33.30300
H  38.03000 5.45100 34.84100
H  35.27900 1.94700 35.13100
H  33.60300 2.30900 34.66900
H  34.14400 2.31200 37.21900
H  33.07000 3.41700 36.61900
H  41.58100 2.72700 30.49400
H  41.00400 1.20700 31.19300
H  40.66900 2.70200 31.97300
H  42.17200 0.36400 27.15000
H  41.77500 0.60200 28.91600
H  42.25800 2.00500 27.95900
H  35.65400 1.02500 25.40200
H  33.47800 2.94000 25.07400
H  36.51600 3.70600 24.86400
H  35.21000 3.47700 23.77400
H  36.47600 2.22200 23.81700
H  33.62100 0.44600 24.38400
H  32.02600 0.99800 24.71400
H  32.89900 -1.21400 25.67600
H  31.57900 -0.15300 26.36300
H  33.24000 -0.21600 27.07200
H  29.43100 3.28000 27.90100
H  29.34500 4.94900 28.53700
H  28.72300 3.55400 29.41900
H  31.63200 3.78800 33.96400
H  32.30500 6.64800 36.66200
H  30.59600 7.08000 36.34200
H  31.88100 7.85200 35.42100
Mg 42.37100 42.20400 26.83400
C  41.56900 44.58400 29.11100
C  43.44900 40.09300 29.39700
C  43.66100 40.01700 24.53900
C  41.92200 44.63100 24.25100
N  42.61600 42.39100 28.95900
C  42.09200 43.41300 29.72000
C  41.99200 43.01600 31.26800
C  42.61400 41.55400 31.29400
C  42.97700 41.30400 29.81100
C  43.71400 41.32100 32.30000
C  40.49900 43.11000 31.72000
C  40.08000 42.23400 32.91600
H  39.38700 42.83600 34.14000
N  43.26000 40.27500 26.93600
C  43.71300 39.67400 28.10000
C  44.35500 38.48200 27.77300
C  44.44100 38.42300 26.33000
C  43.79400 39.63200 25.89800
C  44.78100 37.46100 28.74500
C  45.11900 37.38100 25.32300
O  45.18300 37.52800 24.09100
C  45.86400 36.16700 25.94500
N  42.80800 42.32600 24.69300
C  43.17600 41.22500 23.95300
C  43.09800 41.52800 22.49400
C  42.27800 42.86300 22.40200
C  42.39400 43.39800 23.82700
C  44.45200 41.74500 21.74500
C  40.79100 42.76200 21.93300
C  39.79700 41.87500 22.81400
N  41.78800 44.17500 26.68100
C  41.59000 44.95500 25.59800
C  41.09600 46.29000 26.06100
C  41.06800 46.06500 27.45500
C  41.61000 44.87200 27.74500
C  40.70900 47.45600 25.20900
C  40.52900 46.71800 28.63000
O  39.91900 47.75100 28.83300
C  40.90400 45.77100 29.75900
C  41.71800 46.46700 30.80800
O  42.91900 46.55100 30.82300
O  40.81300 46.87700 31.74900
C  41.47800 47.02300 33.04100
H  43.75200 39.46500 30.23700
H  43.92900 39.31300 23.74800
H  41.67500 45.41900 23.53600
H  42.62400 43.68200 31.85400
H  41.85200 40.81500 31.54000
H  43.50400 40.33100 32.70500
H  43.62100 42.08600 33.07100
H  44.73100 41.36800 31.90900
H  39.79200 43.08400 30.89000
H  40.32000 44.11400 32.10400
H  40.99800 41.71700 33.19300
H  39.47200 41.46200 32.44400
H  44.61400 36.44300 28.39500
H  44.20900 37.34600 29.66600
H  45.83900 37.66500 28.90600
H  46.30800 36.56100 26.85900
H  46.69800 35.85200 25.31700
H  45.17600 35.35500 26.18100
H  42.55100 40.66000 22.12300
H  42.69100 43.52300 21.64000
H  44.82500 42.76200 21.62500
H  44.41200 41.31400 20.74500
H  45.17800 41.17900 22.33000
H  40.83600 42.28500 20.95300
H  40.41100 43.78300 21.90300
H  40.37100 41.36200 23.58500
H  39.25500 41.12000 22.24500
H  38.99800 42.43600 23.30000
H  39.64900 47.69200 25.11400
H  40.89400 47.24600 24.15600
H  41.29100 48.30600 25.56700
H  39.98900 45.44200 30.25200
H  42.30700 47.72900 32.98800
H  41.82700 46.10000 33.50500
H  40.82700 47.52000 33.76100

