158

Mg 23.81700 -5.43500 46.49600
C  26.09700 -3.42800 44.79200
C  21.32500 -4.58700 44.35100
C  22.14400 -8.18900 47.42600
C  26.69900 -7.12300 47.85600
N  23.78800 -4.16100 44.84500
C  24.76000 -3.33600 44.36400
C  24.22100 -2.44400 43.26200
C  22.62200 -2.80800 43.23500
C  22.59300 -3.89500 44.27800
C  21.71900 -1.56100 43.50700
C  25.01000 -2.69300 41.83600
C  25.48600 -1.49200 41.06100
H  25.44400 -1.61600 39.55000
N  21.95000 -6.17400 46.11600
C  21.04500 -5.65900 45.21800
C  19.79600 -6.38100 45.29800
C  20.02900 -7.44700 46.17500
C  21.44000 -7.30400 46.64400
C  18.53700 -6.07200 44.52200
C  18.93600 -8.42400 46.64300
O  17.89700 -8.48000 46.06900
C  19.24500 -9.45600 47.75300
N  24.40400 -7.39200 47.62000
C  23.38600 -8.27100 47.93600
C  23.99300 -9.46200 48.71100
C  25.54600 -9.03900 48.93500
C  25.57000 -7.81200 48.06200
C  23.21800 -9.90800 49.97000
C  26.56300 -10.23300 48.70100
C  27.10800 -10.48500 47.38600
N  25.91400 -5.19600 46.57900
C  26.90600 -5.89400 47.19700
C  28.17400 -5.27400 46.92100
C  27.88000 -4.25400 46.06600
C  26.48900 -4.25100 45.81600
C  29.47300 -5.82200 47.38000
C  28.51700 -3.30300 45.18900
O  29.70500 -3.01000 45.04500
C  27.32500 -2.69300 44.35200
C  27.16500 -1.21300 44.68200
O  26.78900 -0.79300 45.75200
O  27.56800 -0.42700 43.61100
C  27.77100 0.98500 43.85700
H  20.58100 -4.36800 43.58300
H  21.70500 -9.12400 47.78100
H  27.59100 -7.59900 48.26700
H  24.38200 -1.43100 43.63100
H  22.43300 -3.12600 42.21000
H  21.95000 -1.20900 44.51200
H  20.69400 -1.91700 43.40100
H  22.09900 -0.84400 42.78000
H  24.34600 -3.12400 41.08700
H  25.85600 -3.37000 41.95500
H  26.50300 -1.45100 41.45200
H  24.87200 -0.71200 41.51100
H  18.57400 -5.12200 43.98900
H  17.66700 -6.07900 45.17900
H  18.29000 -6.78900 43.74000
H  18.28600 -9.91800 47.98700
H  19.54700 -8.97700 48.68500
H  19.99400 -10.20900 47.50900
H  23.86500 -10.33000 48.06400
H  25.59900 -8.69500 49.96800
H  23.84400 -10.06300 50.84900
H  22.66600 -10.79700 49.66600
H  22.49900 -9.09200 50.04800
H  26.06400 -11.17700 48.92000
H  27.43000 -10.14800 49.35500
H  28.18200 -10.65800 47.31100
H  26.85600 -9.77500 46.59900
H  26.72100 -11.46500 47.10600
H  29.68000 -6.73100 46.81600
H  29.45400 -5.94500 48.46300
H  30.35900 -5.22900 47.15100
H  27.54800 -2.90800 43.30600
H  27.28400 1.47600 43.01400
H  28.81000 1.31200 43.89000
H  27.27600 1.32600 44.76600
Mg 25.56400 0.18100 29.58100
C  27.48000 0.29900 32.54000
C  22.75900 0.89200 31.37000
C  23.85400 0.27100 26.63800
C  28.47800 -0.83100 27.92800
N  25.24900 0.67800 31.71600
C  26.15200 0.70200 32.74600
C  25.46400 0.90700 34.09600
C  23.93800 0.88700 33.65200
C  23.98000 0.79400 32.16800
C  22.95400 -0.00600 34.49000
C  25.88700 2.18100 34.91500
C  26.53800 1.94700 36.34500
H  26.39000 2.94100 37.51200
N  23.54900 0.38400 29.05600
C  22.56200 0.79600 29.93700
C  21.28600 1.03800 29.16200
C  21.67700 0.95400 27.77100
C  23.08700 0.56400 27.76000
C  20.01000 1.20600 29.81100
C  20.84600 1.22800 26.59600
O  21.26500 1.28100 25.43400
C  19.41000 1.66400 26.71000
N  25.95000 -0.27400 27.58500
C  25.16100 -0.13300 26.49900
C  25.87900 -0.42400 25.12800
C  27.38100 -0.42700 25.56800
C  27.25100 -0.55500 27.15200
C  25.45100 -1.69600 24.41300
C  28.08800 0.90000 25.23500
C  28.90500 0.95800 23.93100
N  27.55100 -0.30200 30.09300
C  28.66600 -0.64600 29.33400
C  29.87100 -0.76900 30.15100
C  29.46500 -0.34200 31.37800
C  28.04400 -0.11200 31.35200
C  31.18800 -1.23600 29.72400
C  29.84600 -0.04700 32.80400
O  30.93600 -0.23200 33.29800
C  28.60800 0.40700 33.63200
C  28.48800 -0.47900 34.79000
O  27.83800 -1.51700 34.85000
O  29.32300 -0.00700 35.73300
C  29.10600 -0.69500 37.04000
H  21.85700 1.27300 31.85400
H  23.35400 0.41400 25.67700
H  29.42600 -1.05400 27.43500
H  25.74800 0.07200 34.73700
H  23.51900 1.87500 33.84400
H  23.51500 -0.63000 35.18500
H  22.40000 -0.70900 33.86800
H  22.34800 0.60900 35.15500
H  25.07900 2.90200 35.03500
H  26.61100 2.76900 34.35000
H  27.62000 1.97900 36.22200
H  26.27000 0.94400 36.67700
H  19.78500 2.27300 29.79400
H  19.96000 0.88700 30.85200
H  19.26100 0.64900 29.24800
H  18.84900 0.89100 27.23500
H  18.99900 1.77300 25.70600
H  19.28300 2.61200 27.23200
H  25.65500 0.38800 24.43700
H  27.95600 -1.27300 25.19000
H  26.32200 -2.03000 23.85000
H  24.76700 -1.44500 23.60200
H  24.95900 -2.48200 24.98500
H  28.78700 1.06800 26.05400
H  27.28600 1.63700 25.26600
H  29.99000 1.04200 23.98300
H  28.56200 1.73000 23.24200
H  28.71500 0.02800 23.39400
H  31.12300 -1.88400 28.85000
H  31.62800 -1.78600 30.55600
H  31.68400 -0.28800 29.52100
H  28.60700 1.46800 33.88500
H  28.05300 -0.65200 37.31900
H  29.66400 -0.06800 37.73600
H  29.49200 -1.71400 37.07900

