158

Mg 6.49900 55.01500 40.72300
C  5.15700 51.65600 40.15300
C  9.37100 54.02300 39.20300
C  7.15500 58.34200 40.24400
C  3.16800 55.81900 41.61200
N  7.12600 53.04100 39.85700
C  6.45400 51.85000 39.61500
C  7.33700 50.91300 38.74400
C  8.77000 51.48900 38.98200
C  8.46700 52.91500 39.41400
C  9.65200 50.71700 40.01600
C  6.91600 50.90300 37.25700
C  6.85500 49.48800 36.56200
H  7.60600 49.45000 35.25800
N  8.07200 56.02600 39.85800
C  9.21900 55.42800 39.43200
C  10.22000 56.47600 39.23900
C  9.58300 57.70500 39.46600
C  8.19600 57.39600 39.93400
C  11.67200 56.24300 38.90600
C  10.30600 58.94900 39.29400
O  11.41500 59.04400 38.77500
C  9.80700 60.22500 40.05600
N  5.25300 56.82200 40.72100
C  5.80700 58.09900 40.70800
C  4.81300 59.17500 41.19400
C  3.57100 58.30900 41.47200
C  4.05900 56.90400 41.37300
C  5.21300 60.17800 42.41600
C  2.35900 58.53000 40.59700
C  1.17800 59.16800 41.34100
N  4.67500 53.92200 41.17000
C  3.46200 54.45400 41.61000
C  2.60300 53.33800 41.89800
C  3.16100 52.20700 41.22500
C  4.42600 52.66200 40.81400
C  1.22700 53.38100 42.57200
C  2.99200 50.79100 40.92000
O  2.09300 50.01100 41.12700
C  4.35100 50.40400 40.30400
C  4.15100 49.60200 39.05200
O  4.02000 50.02200 37.93500
O  4.21700 48.26900 39.29800
C  3.87700 47.36000 38.11800
H  10.37900 53.67900 38.96000
H  7.43500 59.38500 40.08300
H  2.12700 56.09700 41.79300
H  7.34700 49.90900 39.16600
H  9.31900 51.50400 38.04000
H  9.42800 49.66000 39.87100
H  9.47600 50.98000 41.06000
H  10.69600 50.94300 39.80200
H  7.53400 51.59900 36.69100
H  5.95200 51.41200 37.26700
H  5.84200 49.08700 36.52200
H  7.35600 48.82800 37.27000
H  12.00200 56.85300 38.06500
H  11.99000 55.22000 38.70500
H  12.24200 56.58600 39.76900
H  10.63000 60.89500 40.30900
H  9.41200 59.72400 40.94000
H  9.07800 60.64900 39.36600
H  4.62800 59.78500 40.31000
H  3.24500 58.48300 42.49800
H  6.17800 59.89000 42.83100
H  4.53600 60.13900 43.27000
H  5.39200 61.19300 42.06200
H  1.92800 57.72900 39.99600
H  2.66400 59.24700 39.83500
H  1.37500 60.23600 41.43800
H  1.01700 58.93900 42.39500
H  0.29400 58.98100 40.73000
H  0.49400 53.34000 41.76600
H  1.12500 54.32000 43.11500
H  1.08600 52.53200 43.24200
H  4.88100 49.64600 40.88200
H  2.80100 47.22700 38.22600
H  4.40900 46.41800 38.24900
H  4.11400 47.61900 37.08600
Mg -10.77800 38.23100 40.72000
C  -8.30700 35.80100 40.47400
C  -8.62400 40.54900 39.52900
C  -13.44400 40.33600 40.30800
C  -13.11800 35.63300 41.37500
N  -8.71800 38.15900 40.07500
C  -7.94300 37.07000 39.94700
C  -6.56300 37.33800 39.26100
C  -6.65000 38.90800 39.17200
C  -8.09500 39.26700 39.62800
C  -5.52600 39.69800 39.94500
C  -6.42600 36.51800 37.92000
C  -5.07900 35.84200 37.66200
H  -4.13200 36.31900 36.53800
N  -10.96600 40.22700 40.16600
C  -9.90900 41.03000 39.81000
C  -10.40200 42.30800 39.59100
C  -11.81300 42.34800 39.71100
C  -12.15300 40.91700 40.09100
C  -9.53500 43.54600 39.13700
C  -12.70000 43.52800 39.72300
O  -12.23500 44.67900 39.52700
C  -14.11700 43.48700 40.01300
N  -12.98400 38.03500 40.79000
C  -13.82000 39.06900 40.58400
C  -15.27200 38.65000 40.90100
C  -15.14900 37.10900 41.19300
C  -13.65000 36.86400 41.04100
C  -15.93400 39.46700 42.03300
C  -16.04700 36.18700 40.28900
C  -15.47300 35.54300 38.99200
N  -10.76600 36.11500 40.98900
C  -11.74300 35.24200 41.37900
C  -11.20300 33.95100 41.67900
C  -9.84300 34.11600 41.29000
C  -9.63600 35.45200 40.96400
C  -12.01100 32.66800 42.03600
C  -8.56100 33.46700 41.03200
O  -8.27500 32.26600 41.04300
C  -7.51100 34.49600 40.47800
C  -6.35900 34.47700 41.35800
O  -5.50300 33.64100 41.35800
O  -6.37100 35.62100 42.12900
C  -5.28500 35.86300 43.04100
H  -8.05200 41.37600 39.10300
H  -14.23700 41.07000 40.15700
H  -13.79400 34.86500 41.75700
H  -5.76500 37.12900 39.97400
H  -6.52700 39.19600 38.12800
H  -4.88800 40.12000 39.16800
H  -4.88100 39.15600 40.63600
H  -5.90100 40.57400 40.47400
H  -6.55500 37.28000 37.15300
H  -7.24500 35.80100 37.86100
H  -5.36900 34.81700 37.42900
H  -4.51300 35.74700 38.58800
H  -8.55800 43.33600 38.70200
H  -9.39200 44.34400 39.86500
H  -10.08500 43.94200 38.28300
H  -14.58200 42.83100 39.27800
H  -14.60800 44.46000 40.05500
H  -14.23800 42.99700 40.97900
H  -16.03900 38.71000 40.12900
H  -15.65900 36.98400 42.14800
H  -15.33500 40.33800 42.29900
H  -16.16300 38.87600 42.92000
H  -16.88000 39.88400 41.68600
H  -17.00500 36.62600 40.01100
H  -16.26800 35.34100 40.93800
H  -16.26400 35.39800 38.25700
H  -14.99700 34.59600 39.24800
H  -14.77300 36.23500 38.52300
H  -11.42500 31.75600 41.92800
H  -12.81700 32.71300 41.30300
H  -12.36500 32.53900 43.05900
H  -7.29000 34.11600 39.48000
H  -4.45100 36.12500 42.39000
H  -5.10800 34.97300 43.64500
H  -5.51300 36.67700 43.72900

