158

Mg 8.70000 4.34500 27.83300
C  9.98200 2.41300 30.45900
C  6.62000 6.03000 29.99900
C  7.17200 5.55600 25.25700
C  10.25700 1.77000 25.70300
N  8.29800 4.14800 29.96300
C  9.05000 3.39400 30.87800
C  8.76800 3.90300 32.31400
C  7.71100 5.06700 32.10500
C  7.44600 5.05400 30.58600
C  6.45200 4.81600 32.92100
C  10.07300 4.42000 32.97100
C  9.95800 5.26400 34.31500
H  10.12300 4.52500 35.65100
N  7.26600 5.82600 27.67500
C  6.44200 6.34500 28.64900
C  5.66100 7.37800 28.02800
C  5.91800 7.39500 26.61900
C  6.85600 6.22100 26.43400
C  4.66900 8.21900 28.83400
C  5.42200 8.33300 25.50000
O  5.79800 8.23300 24.35000
C  4.49000 9.41600 25.88000
N  8.62900 3.66000 25.80400
C  7.98000 4.45500 24.98800
C  8.06500 3.85500 23.54000
C  9.13300 2.71000 23.64800
C  9.28000 2.73400 25.15600
C  6.76400 3.50400 22.89800
C  10.45600 2.92500 22.89200
C  11.05800 1.59200 22.33000
N  9.99800 2.55000 27.96400
C  10.48900 1.64900 27.07100
C  11.45600 0.77900 27.66800
C  11.28200 1.00100 29.07000
C  10.31700 2.06900 29.16500
C  12.38200 -0.15600 27.02000
C  11.64300 0.57300 30.36200
O  12.33700 -0.35000 30.75400
C  10.90400 1.57400 31.31200
C  10.12500 0.76800 32.28000
O  9.05800 0.26500 31.99300
O  10.78400 0.65000 33.47200
C  10.02600 0.02000 34.53000
H  6.02200 6.59000 30.72100
H  6.55300 6.04400 24.50200
H  10.67800 1.05800 24.99000
H  8.43300 3.00500 32.83300
H  8.06100 6.07000 32.35100
H  5.63500 5.01000 32.22600
H  6.39500 5.39000 33.84500
H  6.25700 3.75600 33.08600
H  10.59900 5.07600 32.27700
H  10.75200 3.57900 33.11000
H  9.09500 5.92700 34.37100
H  10.78200 5.96800 34.19700
H  5.10000 9.20500 29.00600
H  4.53000 7.71600 29.79100
H  3.74800 8.35600 28.26700
H  4.29900 10.00000 24.98000
H  5.07000 9.99600 26.59700
H  3.53600 9.20700 26.36400
H  8.38600 4.63900 22.85400
H  8.66300 1.76600 23.37300
H  5.94400 3.62800 23.60600
H  7.00400 2.52500 22.48500
H  6.57500 4.05100 21.97400
H  11.18700 3.39000 23.55400
H  10.29100 3.66400 22.10800
H  12.00300 1.46600 22.85900
H  11.29100 1.72600 21.27400
H  10.35100 0.80700 22.60000
H  13.02900 0.41700 26.35600
H  11.89100 -0.94500 26.45100
H  13.06800 -0.68700 27.68100
H  11.75100 2.14100 31.70000
H  9.77500 0.84900 35.19200
H  10.67400 -0.59600 35.15300
H  9.26100 -0.69500 34.22700
Mg 24.34100 -6.37600 45.31700
C  26.42100 -4.14900 43.76500
C  21.70700 -5.38200 43.40000
C  22.72500 -9.34800 46.14000
C  27.17600 -7.65900 47.08800
N  24.13300 -4.94500 43.79200
C  25.11200 -4.08600 43.33000
C  24.51800 -3.02600 42.29500
C  22.94400 -3.28000 42.34000
C  22.89900 -4.67000 43.14000
C  22.10300 -2.14200 43.05400
C  25.11700 -3.32200 40.81100
C  25.32900 -2.00200 40.04400
H  24.87400 -1.87900 38.55900
N  22.42200 -7.18900 45.00400
C  21.47800 -6.62100 44.14500
C  20.29100 -7.49200 44.15500
C  20.50300 -8.48400 45.10100
C  21.92500 -8.41300 45.38300
C  19.06600 -7.18300 43.31400
C  19.47100 -9.36700 45.68300
O  18.36000 -9.10000 45.39900
C  19.82800 -10.34600 46.60000
N  24.97000 -8.32100 46.36100
C  24.07700 -9.34300 46.58800
C  24.63700 -10.41200 47.56700
C  26.05900 -9.76800 47.90600
C  26.07500 -8.50000 47.12200
C  23.74100 -11.03000 48.72600
C  27.26200 -10.80300 47.64000
C  28.46600 -10.96300 48.64300
N  26.40200 -6.03300 45.30400
C  27.38400 -6.55500 46.17100
C  28.67100 -5.82300 46.01700
C  28.31400 -4.93000 44.94500
C  26.99800 -5.08200 44.65300
C  29.89200 -5.97700 46.69600
C  28.86800 -3.87700 44.09700
O  29.95400 -3.38500 44.01000
C  27.58800 -3.33800 43.31500
C  27.54100 -1.86300 43.53700
O  26.90600 -1.31900 44.39300
O  28.34700 -1.21200 42.66700
C  28.43300 0.26800 42.87200
H  20.85900 -5.01800 42.81600
H  22.19000 -10.26600 46.39300
H  28.06100 -7.96800 47.64700
H  24.78500 -2.00100 42.55200
H  22.58100 -3.34100 41.31400
H  22.71700 -1.24500 43.14200
H  21.84600 -2.42600 44.07400
H  21.17000 -2.11800 42.49200
H  24.37800 -3.95400 40.31800
H  25.99400 -3.95200 40.96400
H  26.39100 -1.75800 40.01300
H  24.96800 -1.10500 40.54800
H  19.32800 -6.80700 42.32500
H  18.32800 -6.58800 43.85200
H  18.55100 -8.11900 43.09500
H  20.38800 -9.85400 47.39500
H  20.41400 -11.13900 46.13600
H  18.97800 -10.88300 47.02100
H  24.98500 -11.17100 46.86600
H  25.96400 -9.35900 48.91200
H  24.39200 -11.30500 49.55600
H  23.10900 -11.80600 48.29400
H  23.14700 -10.26200 49.22200
H  27.65200 -10.33100 46.73800
H  26.84500 -11.80500 47.53800
H  28.09900 -11.70500 49.35200
H  28.75100 -9.98200 49.02300
H  29.32900 -11.32100 48.08100
H  29.68800 -6.04600 47.76400
H  30.48500 -5.08500 46.48900
H  30.52000 -6.82300 46.41800
H  27.63300 -3.44400 42.23100
H  28.59300 0.52600 43.91900
H  27.46500 0.66000 42.55900
H  29.18800 0.83700 42.32900

