158

Mg -1.67400 17.53500 26.29600
C  -1.78700 15.16800 28.84200
C  -2.39200 19.95000 28.69900
C  -2.02000 19.84600 23.86600
C  -1.68100 14.90700 23.98300
N  -2.17300 17.50300 28.39800
C  -1.92400 16.47400 29.28900
C  -2.35200 16.84000 30.71700
C  -2.79000 18.33900 30.60500
C  -2.45100 18.62200 29.11100
C  -4.31900 18.63700 30.83100
C  -1.42600 16.59900 31.89300
C  -2.22800 15.97100 33.05400
H  -1.32800 15.38100 34.13500
N  -2.02100 19.66600 26.27100
C  -2.23500 20.44200 27.35600
C  -2.28600 21.83800 26.95200
C  -2.15900 21.80500 25.53300
C  -2.15000 20.41100 25.16600
C  -2.47200 22.97000 27.86600
C  -2.04600 22.89900 24.58800
O  -2.08300 22.76800 23.41600
C  -1.62700 24.35000 25.09500
N  -2.06900 17.36400 24.21900
C  -1.98800 18.49700 23.47800
C  -1.80700 18.15000 21.98800
C  -1.54500 16.61100 22.00100
C  -1.75600 16.26900 23.48100
C  -3.09900 18.57300 21.19500
C  -0.14300 16.28400 21.45700
C  -0.06100 15.50900 20.14200
N  -1.70500 15.45700 26.34700
C  -1.69800 14.51700 25.34100
C  -1.61900 13.25000 25.94000
C  -1.60600 13.46000 27.32100
C  -1.67400 14.80000 27.52900
C  -1.53300 11.95300 25.17400
C  -1.44000 12.84700 28.56900
O  -1.33200 11.63700 28.86700
C  -1.66200 13.86600 29.63300
C  -0.43500 13.79500 30.49500
O  0.65700 14.27600 30.25300
O  -0.73100 12.99900 31.56000
C  0.35700 12.77500 32.60200
H  -2.45700 20.70800 29.48300
H  -2.00100 20.51600 23.00400
H  -1.67300 14.00400 23.36800
H  -3.31300 16.36700 30.92000
H  -2.18700 19.00300 31.22400
H  -4.89600 17.83000 31.28100
H  -4.77600 18.97900 29.90200
H  -4.35700 19.55400 31.41900
H  -1.13100 17.58500 32.25200
H  -0.53800 16.07000 31.54800
H  -2.95900 15.19800 32.81700
H  -2.74900 16.85000 33.43400
H  -2.81400 22.65800 28.85300
H  -3.18600 23.71100 27.50700
H  -1.50900 23.43300 28.08300
H  -0.61200 24.36800 25.49200
H  -2.31600 24.81300 25.80100
H  -1.60600 25.10800 24.31200
H  -1.00300 18.77600 21.60100
H  -2.30800 16.08000 21.43000
H  -3.76800 19.09100 21.88300
H  -3.54600 17.76000 20.62200
H  -2.87900 19.37600 20.49300
H  0.36900 15.62400 22.15800
H  0.45800 17.17600 21.28100
H  0.51300 16.01800 19.36700
H  -1.04000 15.29700 19.71300
H  0.51100 14.61200 20.38000
H  -0.61900 11.39400 25.37600
H  -1.58200 12.05900 24.09100
H  -2.40300 11.38600 25.50600
H  -2.48300 13.52300 30.26200
H  -0.07800 12.77600 33.60100
H  1.06200 13.60600 32.62300
H  1.00000 11.91700 32.40500
Mg 9.20800 3.72400 27.47700
C  10.42300 2.15600 30.46300
C  7.58000 5.96100 29.58100
C  8.00100 5.00400 24.85500
C  10.48500 0.92800 25.61300
N  8.91900 3.92700 29.82700
C  9.67200 3.31200 30.77400
C  9.47700 3.97200 32.17300
C  8.37100 5.07000 31.86100
C  8.25700 4.96400 30.34600
C  6.98100 4.69600 32.51200
C  10.83100 4.67800 32.62900
C  10.93300 5.37800 33.95300
H  10.22200 4.79600 35.22300
N  7.96200 5.20000 27.26400
C  7.41900 6.06300 28.19700
C  6.53500 7.09800 27.54500
C  6.71600 6.85000 26.18400
C  7.59000 5.65500 26.03100
C  5.77500 8.21900 28.21700
C  6.14900 7.68200 24.97600
O  6.44800 7.36200 23.83500
C  5.27200 8.87700 25.22700
N  9.47000 3.14100 25.42100
C  8.72400 3.86300 24.57200
C  8.78100 3.15600 23.17400
C  9.72000 1.89600 23.33600
C  9.90900 1.97200 24.82200
C  7.46700 2.85800 22.55100
C  11.06200 2.00900 22.53900
C  11.08700 1.11100 21.29400
N  10.29900 1.95500 27.87700
C  10.74800 0.93600 27.01800
C  11.40400 -0.11500 27.80500
C  11.38600 0.39000 29.11900
C  10.63800 1.59700 29.16200
C  12.01000 -1.35400 27.20700
C  11.82200 0.07300 30.48700
O  12.51800 -0.80900 30.85500
C  11.17800 1.20200 31.39600
C  10.27800 0.57900 32.39500
O  9.44900 -0.18100 32.06700
O  10.59600 0.90600 33.70900
C  9.91000 0.10600 34.71200
H  7.15500 6.78700 30.15600
H  7.68000 5.42000 23.89800
H  10.96700 0.06500 25.14800
H  9.21400 3.28700 32.97800
H  8.73500 6.06600 32.11200
H  7.05100 3.90000 33.25300
H  6.43800 4.38500 31.61900
H  6.65900 5.68300 32.84500
H  11.24100 5.24400 31.79300
H  11.39800 3.74800 32.64800
H  10.86800 6.46600 33.95600
H  11.98000 5.29800 34.24700
H  5.95100 8.36100 29.28400
H  4.72200 7.96200 28.11000
H  5.95300 9.20600 27.79000
H  5.95800 9.70600 25.39800
H  4.53400 8.62100 25.98800
H  4.74200 9.04600 24.29000
H  9.33100 3.76800 22.45900
H  9.14800 1.02000 23.03100
H  7.31100 1.81400 22.27900
H  7.39700 3.41000 21.61400
H  6.66000 3.15800 23.21800
H  11.84500 1.59600 23.17400
H  11.32800 3.05200 22.36400
H  10.04900 0.93400 21.01400
H  11.70900 0.22500 21.41900
H  11.48300 1.68900 20.45900
H  12.08800 -2.13500 27.96200
H  13.02200 -1.14100 26.86000
H  11.37500 -1.74100 26.41000
H  12.00900 1.66400 31.92900
H  9.09100 -0.54200 34.40000
H  9.47800 0.81900 35.41400
H  10.66200 -0.41500 35.30400

