158

Mg 44.90000 4.30200 46.64500
C  42.82600 7.07200 46.49500
C  42.11800 2.23300 46.37200
C  46.85900 1.50600 46.30800
C  47.61400 6.42300 46.33700
N  42.71400 4.65100 46.40300
C  42.11800 5.83000 46.47500
C  40.56300 5.72600 46.58700
C  40.32700 4.16100 46.64000
C  41.78300 3.60100 46.48400
C  39.66900 3.67700 47.97300
C  39.80300 6.32300 45.42200
C  40.35700 6.03300 44.00000
H  40.16900 7.08300 42.90900
N  44.53300 2.17100 46.34600
C  43.30500 1.60200 46.25800
C  43.46800 0.12400 46.12000
C  44.83600 -0.14400 46.10700
C  45.48300 1.20500 46.20300
C  42.28100 -0.82100 46.05800
C  45.45200 -1.46100 45.85300
O  44.80800 -2.48300 45.94400
C  46.90200 -1.57000 45.36000
N  46.91000 4.00900 46.14400
C  47.50200 2.76200 46.18700
C  49.03100 2.92800 46.35300
C  49.23600 4.51300 46.35700
C  47.87200 5.06500 46.25200
C  49.60300 2.05000 47.53100
C  50.14700 5.05900 45.18600
C  51.48600 5.58000 45.70800
N  45.26300 6.34800 46.59100
C  46.40500 7.06600 46.40400
C  46.14100 8.44800 46.62400
C  44.73600 8.53000 46.56400
C  44.27400 7.15600 46.55700
C  47.26100 9.43500 46.63400
C  43.60800 9.36800 46.60200
O  43.55700 10.60200 46.55200
C  42.33000 8.44300 46.52500
C  41.48900 8.71300 47.70600
O  41.70100 8.28500 48.83000
O  40.44000 9.47600 47.35400
C  39.37100 9.62800 48.26200
H  41.22500 1.63900 46.58000
H  47.55900 0.67900 46.44400
H  48.43900 7.09300 46.58500
H  40.36500 6.22000 47.53900
H  39.59600 3.81400 45.91000
H  38.76400 3.09700 47.79500
H  39.39400 4.43800 48.70300
H  40.43600 3.14600 48.53600
H  39.82300 7.40600 45.54200
H  38.75300 6.03100 45.39000
H  39.78300 5.16300 43.68400
H  41.36700 5.62500 43.95800
H  42.38700 -1.37500 45.12500
H  41.29900 -0.35200 45.98600
H  42.37100 -1.57700 46.83800
H  47.48600 -1.56100 46.28000
H  47.21400 -0.80800 44.64600
H  47.00700 -2.54000 44.87500
H  49.43400 2.47300 45.44800
H  49.58400 4.88200 47.32200
H  49.88000 1.01700 47.31900
H  48.88400 1.93100 48.34200
H  50.48800 2.57100 47.89500
H  49.71200 5.86200 44.59000
H  50.16600 4.22400 44.48600
H  51.62200 6.61300 45.39000
H  52.35700 5.12500 45.23700
H  51.59400 5.59400 46.79200
H  47.94000 9.28300 47.47300
H  46.81600 10.42800 46.58800
H  47.87400 9.29500 45.74300
H  41.78200 8.77900 45.64500
H  39.06000 10.64800 48.03700
H  39.68600 9.66000 49.30500
H  38.55200 8.94700 48.03200
Mg 47.36000 25.36200 28.54800
C  47.80700 27.41400 31.31500
C  46.07200 22.90500 30.52900
C  47.27300 23.28100 25.87900
C  48.37100 27.93800 26.42600
N  46.73700 25.29100 30.72400
C  47.20600 26.19300 31.66900
C  46.83400 25.69800 33.00900
C  46.34700 24.20400 32.82900
C  46.49200 24.06000 31.29300
C  47.09000 23.10900 33.60200
C  45.75400 26.56800 33.68500
C  46.18500 27.20700 34.98500
H  45.17300 27.39300 36.11200
N  46.69800 23.39900 28.25400
C  46.15500 22.56700 29.21700
C  45.78100 21.28400 28.60300
C  46.16800 21.35600 27.20900
C  46.69700 22.72300 27.06900
C  45.19600 20.22400 29.39400
C  46.07900 20.25900 26.22700
O  46.53700 20.34500 25.07100
C  45.55500 18.89900 26.69900
N  47.68400 25.61100 26.40200
C  47.59900 24.66700 25.50400
C  48.22400 25.01400 24.10900
C  48.30600 26.56100 24.26200
C  48.11200 26.76600 25.80200
C  49.58500 24.33400 23.64900
C  47.34500 27.42600 23.49300
C  47.87200 28.01900 22.18100
N  47.97200 27.30400 28.79200
C  48.34200 28.20100 27.84100
C  48.77100 29.44400 28.47600
C  48.65200 29.20400 29.83400
C  48.09700 27.87100 30.00100
C  49.31600 30.70000 27.84000
C  48.86500 29.65200 31.16300
O  49.34500 30.76500 31.54100
C  48.42600 28.49000 32.13100
C  49.64100 28.00000 32.78600
O  50.75600 27.94300 32.34100
O  49.38800 27.72000 34.06500
C  50.51900 27.23800 34.88600
H  45.67800 22.16000 31.22300
H  47.20000 22.69000 24.96400
H  48.72500 28.68000 25.70800
H  47.83100 25.69600 33.45000
H  45.28600 24.08000 33.04900
H  47.71500 23.69700 34.27300
H  47.73700 22.59100 32.89400
H  46.52300 22.31800 34.09400
H  44.74600 26.17700 33.82800
H  45.53200 27.36700 32.97800
H  46.38500 28.24800 34.73300
H  47.09900 26.78200 35.39900
H  44.27700 19.91500 28.89400
H  44.82000 20.46000 30.38900
H  45.93900 19.43300 29.49600
H  46.11400 18.65300 27.60200
H  45.56300 18.17600 25.88300
H  44.49900 18.95900 26.95900
H  47.42100 24.70100 23.44100
H  49.32700 26.89200 24.07100
H  49.87200 23.60700 24.40900
H  50.30600 25.11900 23.42400
H  49.43400 23.60100 22.85600
H  46.98100 28.27900 24.06600
H  46.50000 26.76900 23.28400
H  48.88500 27.71200 21.91900
H  47.89300 29.08300 22.41600
H  47.19500 27.78700 21.35900
H  50.40200 30.60500 27.79900
H  49.07300 31.55700 28.46800
H  49.06900 30.83800 26.78800
H  47.66900 28.89500 32.80200
H  50.17900 27.27600 35.92100
H  51.34400 27.92400 34.69400
H  50.75800 26.23300 34.53700

