158

Mg 1.02500 7.51400 26.13000
C  1.81400 9.78000 28.74300
C  1.40100 4.99700 28.32000
C  0.78600 5.58500 23.51900
C  1.51900 10.31500 23.92700
N  1.54400 7.47700 28.30900
C  1.68400 8.47800 29.20700
C  1.72500 7.92600 30.65800
C  1.94700 6.44100 30.40700
C  1.53600 6.28600 28.92500
C  3.36500 5.98300 30.71900
C  0.32800 8.20400 31.37100
C  0.50200 8.68000 32.84500
H  1.70400 8.04100 33.64100
N  0.94000 5.53200 25.94900
C  1.08900 4.66500 26.96900
C  0.77400 3.37200 26.51000
C  0.67300 3.43000 25.13000
C  0.76300 4.87900 24.74900
C  0.73100 2.19900 27.42500
C  0.43300 2.31500 24.05300
O  0.26900 2.53900 22.87100
C  0.48600 0.90100 24.43600
N  1.27900 7.87800 24.03700
C  0.90300 6.88500 23.17300
C  0.85300 7.40600 21.68900
C  1.17200 8.95800 21.80500
C  1.31900 9.06000 23.36400
C  1.90100 6.58500 20.81000
C  0.04900 9.99200 21.23100
C  0.51000 11.29600 20.71300
N  1.49200 9.62500 26.22800
C  1.54600 10.61700 25.27200
C  1.69400 11.91200 25.88900
C  1.73800 11.64200 27.25700
C  1.65800 10.21600 27.40000
C  1.68500 13.30000 25.19300
C  1.89800 12.22600 28.56200
O  2.08300 13.33400 28.93700
C  1.90800 11.04800 29.55900
C  2.99800 11.12200 30.49400
O  4.13800 10.73500 30.25800
O  2.57600 11.65300 31.67100
C  3.54400 11.68600 32.77700
H  1.42500 4.15000 29.00900
H  0.65900 4.90300 22.67600
H  1.67400 11.24600 23.37900
H  2.50700 8.44100 31.21600
H  1.23600 5.94100 31.06500
H  3.91000 6.90200 30.93600
H  3.78100 5.46700 29.85400
H  3.39900 5.28900 31.55800
H  -0.31400 7.32600 31.29400
H  -0.08500 9.04300 30.81100
H  -0.41900 8.47200 33.39000
H  0.61900 9.76400 32.84500
H  -0.12200 1.64100 27.03800
H  0.50700 2.44500 28.46300
H  1.71500 1.73100 27.40300
H  0.26500 0.35600 23.51800
H  -0.23700 0.57400 25.18300
H  1.39600 0.71600 25.00700
H  -0.18900 7.25000 21.41200
H  2.11300 9.26900 21.35100
H  2.49700 5.90100 21.41300
H  2.45700 7.35900 20.28000
H  1.40700 5.93300 20.09000
H  -0.78500 10.16400 21.91200
H  -0.37800 9.44700 20.38900
H  1.39900 11.16000 20.09700
H  0.78700 12.02800 21.47100
H  -0.33800 11.74700 20.19800
H  1.36200 14.12000 25.83300
H  1.05400 13.25600 24.30600
H  2.70600 13.49100 24.86100
H  0.98700 11.21100 30.11900
H  4.41900 12.23700 32.43400
H  3.85300 10.66800 33.01500
H  3.15600 12.14900 33.68400
Mg 8.71800 47.70700 25.35000
C  6.55200 47.81000 27.95000
C  11.32700 48.84800 27.44300
C  10.72600 48.51600 22.68000
C  6.00200 47.34300 23.15200
N  8.87200 48.26100 27.52100
C  7.87900 48.07400 28.43100
C  8.40700 48.24600 29.86200
C  9.79900 48.94800 29.62000
C  10.05300 48.69400 28.08300
C  9.86000 50.44200 30.00500
C  8.54400 46.91700 30.70200
C  9.27600 47.15400 32.08400
H  8.90100 46.27300 33.26100
N  10.81200 48.22900 25.10400
C  11.70500 48.64300 26.07200
C  13.06400 48.78200 25.58900
C  12.89500 48.62900 24.15800
C  11.39000 48.46400 23.90300
C  14.21600 49.17100 26.46500
C  13.98900 48.45700 23.11000
O  13.73000 48.15300 21.98900
C  15.39600 48.62100 23.52000
N  8.37700 47.99600 23.22600
C  9.37200 48.26000 22.30700
C  8.80300 48.41600 20.84600
C  7.31100 48.09800 21.07600
C  7.20000 47.78600 22.56800
C  8.95200 49.77500 20.16900
C  6.70100 46.79900 20.30200
C  5.39400 46.94600 19.51700
N  6.69900 47.49500 25.44900
C  5.73200 47.34300 24.53700
C  4.40000 47.11900 25.15200
C  4.70700 47.40300 26.50800
C  6.08800 47.54100 26.64000
C  3.11600 46.80300 24.52600
C  4.16000 47.52300 27.81800
O  3.01000 47.51500 28.27700
C  5.34000 47.71100 28.84300
C  5.43400 46.44900 29.67600
O  5.62300 45.31000 29.24600
O  5.08600 46.66400 31.01300
C  4.82400 45.45600 31.79300
H  12.05000 49.21400 28.17500
H  11.44900 48.90400 21.96000
H  5.10900 47.11700 22.56500
H  7.69800 48.89600 30.37500
H  10.62700 48.44400 30.11700
H  10.39700 50.60200 30.94000
H  8.84800 50.83000 30.11900
H  10.39500 50.97400 29.21900
H  8.92600 46.07200 30.12900
H  7.53900 46.62800 31.00900
H  9.09100 48.21600 32.24300
H  10.32700 46.97900 31.85400
H  13.97500 49.43900 27.49300
H  14.80000 49.98100 26.02800
H  14.91200 48.33500 26.52900
H  15.45500 49.54400 24.09700
H  15.97800 48.77200 22.61100
H  15.68800 47.63900 23.89300
H  9.25400 47.67600 20.18400
H  6.67300 48.95700 20.86800
H  9.81600 49.96100 19.53100
H  8.99500 50.48000 20.99900
H  8.03200 50.00400 19.63100
H  6.61200 45.94800 20.97700
H  7.51600 46.62000 19.60000
H  5.58800 47.66100 18.71700
H  4.72700 47.52900 20.15200
H  4.95100 46.07900 19.02600
H  3.34000 46.26000 23.60800
H  2.40600 47.62600 24.45300
H  2.65100 46.09200 25.20900
H  5.07400 48.57200 29.45600
H  3.97400 45.72900 32.41800
H  5.64400 45.31600 32.49800
H  4.71400 44.45400 31.37800

