158

Mg 35.31100 1.79700 29.95700
C  32.83000 2.84200 32.17700
C  37.54800 1.85700 32.64100
C  37.71800 1.19800 27.83400
C  32.90000 2.10300 27.35700
N  35.23700 2.48300 32.08400
C  34.10000 2.71600 32.80000
C  34.31500 2.85100 34.27100
C  35.89100 2.85800 34.47200
C  36.29300 2.40300 32.92400
C  36.54800 4.29300 34.78400
C  33.69500 1.63100 35.08500
C  33.60700 1.86700 36.60500
H  34.03500 3.22800 37.27500
N  37.32200 1.47500 30.22900
C  38.05100 1.48200 31.36500
C  39.44700 0.95700 31.18600
C  39.53300 0.78200 29.73300
C  38.16400 1.14300 29.17300
C  40.56400 0.89600 32.25900
C  40.56400 0.09700 28.89100
O  40.39000 -0.25300 27.72100
C  41.88300 -0.28700 29.54200
N  35.21500 1.72200 27.94300
C  36.42000 1.34900 27.30700
C  36.08200 1.18700 25.78500
C  34.56400 1.55400 25.65600
C  34.17000 1.85400 27.04400
C  36.98700 2.09100 24.84100
C  33.70700 0.46300 24.92300
C  33.35700 0.75300 23.43500
N  33.19800 2.30800 29.69500
C  32.36100 2.35300 28.63900
C  31.00800 2.63800 29.04900
C  31.10900 2.83900 30.44100
C  32.53600 2.65800 30.78800
C  29.73300 2.84900 28.30600
C  30.40700 3.11200 31.65800
O  29.19200 3.18500 31.82200
C  31.50800 3.18500 32.77300
C  31.42200 4.60200 33.33400
O  31.84900 5.62500 32.78600
O  30.88800 4.48100 34.60300
C  30.64900 5.75300 35.19600
H  38.27100 1.69600 33.44400
H  38.49600 0.86700 27.14200
H  32.16000 2.22100 26.56300
H  33.96800 3.83000 34.60100
H  36.22300 2.15300 35.23500
H  37.29200 4.41300 33.99700
H  37.17800 4.16400 35.66400
H  35.83500 5.10400 34.93300
H  34.42700 0.82300 35.07500
H  32.77200 1.37900 34.56300
H  34.17900 1.03900 37.02200
H  32.57100 1.81500 36.93800
H  40.58500 -0.12100 32.65100
H  40.47900 1.67000 33.02200
H  41.54100 1.16500 31.85800
H  41.76300 -0.91300 30.42600
H  42.42000 0.62600 29.79800
H  42.39500 -0.87000 28.77600
H  36.24400 0.12000 25.63000
H  34.65000 2.47500 25.08000
H  37.53500 1.39700 24.20400
H  37.62600 2.73600 25.44400
H  36.46400 2.76500 24.16200
H  32.82500 0.25300 25.52800
H  34.14400 -0.53500 24.93600
H  33.46300 -0.11900 22.78900
H  33.89000 1.63300 23.07300
H  32.28700 0.95400 23.46700
H  29.20100 1.93200 28.05400
H  30.03100 3.36700 27.39400
H  29.21900 3.66300 28.81700
H  31.18800 2.41300 33.47400
H  31.36600 6.51600 34.89400
H  30.76200 5.52300 36.25600
H  29.62200 6.10700 35.10600
Mg 35.99500 49.02500 24.91200
C  36.21200 47.53400 28.07700
C  34.63800 51.85300 26.25000
C  35.47900 50.06900 21.77700
C  36.94100 45.93300 23.49000
N  35.59500 49.57200 26.92700
C  35.77200 48.82300 28.11100
C  35.40200 49.66100 29.30200
C  34.75200 50.97500 28.69800
C  35.01200 50.81500 27.18200
C  33.31200 51.35300 29.01500
C  36.63600 49.87400 30.20200
C  36.39700 49.75700 31.74600
H  35.50800 50.80400 32.42500
N  35.14400 50.71900 24.08600
C  34.68000 51.80300 24.83400
C  34.24100 52.85700 23.91400
C  34.34900 52.27800 22.58000
C  35.03000 50.93600 22.76000
C  33.74700 54.18500 24.35000
C  33.94200 52.82800 21.24800
O  34.09200 52.26400 20.15900
C  33.25600 54.14200 21.25200
N  36.38300 48.20100 22.90000
C  36.05900 48.83500 21.74700
C  36.39300 47.97200 20.49700
C  37.00900 46.71600 21.15700
C  36.79500 46.94200 22.63600
C  35.14500 47.73100 19.58100
C  38.53600 46.54800 20.77200
C  39.58400 47.60400 21.10700
N  36.45200 47.13600 25.57900
C  36.79400 46.00600 24.91300
C  37.01700 44.86800 25.85600
C  36.74100 45.41700 27.06300
C  36.50200 46.77900 26.86600
C  37.56900 43.48600 25.53000
C  36.56100 45.11700 28.41900
O  36.68700 44.07800 29.02300
C  36.28400 46.50300 29.18200
C  34.98900 46.28900 29.74100
O  33.92500 46.24700 29.12100
O  35.09000 45.99200 31.13200
C  33.84100 45.69700 31.84300
H  34.26300 52.74400 26.75800
H  35.33300 50.50900 20.78900
H  37.19000 44.93500 23.12200
H  34.64600 49.16600 29.91200
H  35.39600 51.79900 29.00300
H  33.23900 52.35000 29.44900
H  32.94000 50.63800 29.74800
H  32.72400 51.37200 28.09800
H  37.00700 50.88200 30.01800
H  37.47400 49.22100 29.95800
H  37.30000 49.56000 32.32500
H  35.74000 48.88800 31.77700
H  33.92000 54.32300 25.41700
H  32.72300 54.23900 23.97900
H  34.30300 55.02200 23.92700
H  33.94700 54.89600 21.62800
H  32.34000 54.09600 21.84000
H  32.96700 54.29100 20.21100
H  37.06300 48.61100 19.92300
H  36.30700 45.90600 20.95700
H  34.97000 48.69300 19.09900
H  34.24400 47.58700 20.17700
H  35.27000 46.97100 18.80900
H  38.55000 46.54500 19.68200
H  38.92800 45.60600 21.15600
H  39.09800 48.29400 21.79800
H  39.88700 48.19300 20.24100
H  40.44500 47.24300 21.66900
H  37.98300 43.41800 24.52400
H  36.81500 42.72100 25.71600
H  38.45700 43.30900 26.13700
H  37.00300 46.74300 29.96500
H  32.95500 46.17600 31.42500
H  33.90000 45.93300 32.90600
H  33.69300 44.62200 31.74400

