158

Mg 35.86800 2.14100 30.76800
C  33.23500 3.30300 32.85500
C  37.73900 1.84100 33.57100
C  38.44200 1.45600 28.75300
C  33.82400 2.52000 28.07800
N  35.47200 2.64900 32.95400
C  34.39200 3.06900 33.58800
C  34.48800 2.90100 35.08100
C  36.01500 2.82300 35.32400
C  36.44800 2.37600 33.85000
C  36.69000 4.18700 35.83300
C  33.69800 1.70300 35.62000
C  32.73800 2.13800 36.74500
H  33.40600 3.11800 37.68900
N  37.86900 1.83600 31.15200
C  38.37000 1.58700 32.37600
C  39.71600 1.02700 32.23500
C  40.01300 0.97800 30.82200
C  38.75500 1.43800 30.13000
C  40.71000 0.67100 33.32000
C  41.24800 0.61900 30.11900
O  41.42800 0.58400 28.94000
C  42.51000 0.24400 30.95700
N  36.16100 2.20100 28.68200
C  37.33000 1.86900 28.05500
C  37.21300 1.90100 26.45400
C  35.61400 1.98800 26.26500
C  35.16800 2.25700 27.72900
C  37.93200 3.07200 25.75400
C  34.96100 0.67800 25.61700
C  34.05600 0.87800 24.38100
N  33.91800 2.78500 30.44000
C  33.20300 2.80800 29.24300
C  31.87100 3.14700 29.53800
C  31.81200 3.37400 30.95900
C  33.09200 3.10100 31.47700
C  30.75900 3.36200 28.58800
C  30.95800 3.82500 32.09300
O  29.80000 4.24000 32.16400
C  31.91400 3.80700 33.34900
C  31.97400 5.16700 34.01000
O  32.37200 6.19500 33.53000
O  31.53800 5.01100 35.32200
C  31.42500 6.33300 36.11400
H  38.27300 1.48600 34.45500
H  39.36700 1.46200 28.17200
H  33.15600 2.53500 27.21300
H  34.21100 3.85800 35.52200
H  36.29200 1.97400 35.94900
H  37.44200 4.45800 35.09200
H  37.19800 4.10500 36.79400
H  35.90300 4.93700 35.90900
H  34.27600 0.83800 35.94400
H  33.03300 1.31400 34.84800
H  32.48800 1.21700 37.27200
H  31.82500 2.52500 36.29200
H  40.77700 -0.41600 33.28200
H  40.29000 0.96800 34.28100
H  41.60400 1.25200 33.09500
H  42.37900 -0.44400 31.79300
H  42.92500 1.11800 31.45700
H  43.29700 -0.19800 30.34600
H  37.65000 0.94800 26.15300
H  35.28000 2.78700 25.60400
H  38.39100 3.68400 26.53100
H  37.25200 3.72400 25.20600
H  38.71700 2.64100 25.13300
H  34.46900 0.16000 26.44000
H  35.76800 -0.00400 25.34900
H  34.43600 1.79600 23.93200
H  33.02100 0.87400 24.72400
H  34.21500 0.00700 23.74600
H  30.87500 2.82700 27.64600
H  30.64900 4.44400 28.51600
H  29.92700 2.95100 29.16000
H  31.47900 3.15500 34.10500
H  30.71300 6.21300 36.93000
H  31.15900 7.18700 35.49100
H  32.32500 6.58200 36.67700
Mg -9.56300 17.67400 41.62300
C  -5.98700 17.53800 41.52200
C  -9.18400 21.05400 40.59900
C  -12.73000 17.71800 40.99900
C  -9.61300 14.26100 42.45700
N  -7.78000 19.08000 40.96100
C  -6.43600 18.77100 40.98800
C  -5.60000 19.90800 40.50000
C  -6.65500 21.12300 40.66500
C  -7.96700 20.40000 40.68300
C  -6.35800 21.97400 41.94700
C  -5.18800 19.64100 39.05600
C  -3.77400 19.12600 38.93200
H  -3.50300 17.62500 38.51900
N  -10.80000 19.17100 41.00400
C  -10.47700 20.52700 40.60900
C  -11.68000 21.21500 40.29900
C  -12.72900 20.32800 40.47100
C  -12.11900 18.99200 40.74300
C  -11.58300 22.74700 39.85700
C  -14.15900 20.64700 40.08400
O  -14.55200 21.73800 39.87400
C  -15.15800 19.59100 39.85900
N  -10.90300 16.15400 41.51700
C  -12.18500 16.45600 41.35900
C  -13.01000 15.20200 41.46100
C  -12.08400 14.15000 42.06200
C  -10.78300 14.83600 41.86500
C  -14.32200 15.40600 42.31900
C  -12.18800 12.72500 41.38100
C  -12.40900 11.50500 42.25800
N  -8.15200 16.20200 42.01300
C  -8.31800 14.87900 42.46300
C  -7.03600 14.32200 42.77500
C  -6.10200 15.40100 42.43100
C  -6.83800 16.45300 41.98900
C  -6.81200 13.01500 43.25300
C  -4.71900 15.73100 42.36600
O  -3.73400 15.04800 42.60600
C  -4.56400 17.21300 41.91300
C  -4.07400 18.07100 43.05100
O  -4.87600 18.74100 43.70000
O  -2.73100 18.00600 43.22700
C  -2.08700 18.82500 44.21800
H  -9.02100 22.13200 40.66000
H  -13.80100 17.67500 40.78800
H  -9.81700 13.22500 42.73500
H  -4.71300 20.08500 41.10800
H  -6.74600 21.81800 39.83000
H  -6.73400 21.63600 42.91300
H  -6.76100 22.95900 41.71000
H  -5.27100 22.00800 42.01800
H  -5.25800 20.57700 38.50100
H  -5.89200 18.90800 38.66300
H  -3.19400 19.26600 39.84500
H  -3.28900 19.86300 38.29200
H  -12.32100 22.81200 39.05700
H  -10.61000 22.96500 39.41700
H  -11.94600 23.38800 40.66100
H  -16.04300 19.97000 39.34800
H  -15.51600 19.28500 40.84200
H  -14.83700 18.74700 39.24800
H  -13.34100 14.90600 40.46600
H  -12.27800 14.21900 43.13200
H  -14.04300 16.12100 43.09200
H  -14.43200 14.43600 42.80500
H  -15.07800 15.67800 41.58200
H  -11.18700 12.62600 40.96300
H  -12.83100 12.75700 40.50100
H  -11.49400 10.92800 42.39000
H  -13.15100 10.90500 41.73200
H  -12.65900 11.70600 43.30000
H  -6.51500 12.43700 42.37800
H  -7.70200 12.65100 43.76600
H  -5.95800 13.04300 43.93000
H  -3.91200 17.26300 41.04100
H  -1.53600 18.23800 44.95300
H  -2.76300 19.50600 44.73600
H  -1.49800 19.57900 43.69500

