158

Mg 6.32300 57.03800 41.26000
C  5.17400 53.84600 41.35700
C  9.50500 55.81000 40.35400
C  7.49400 60.25100 40.72700
C  3.12300 58.18800 42.10700
N  7.14700 55.11700 40.59300
C  6.40000 53.92200 40.74100
C  7.29900 52.72500 40.35500
C  8.72900 53.42200 40.33600
C  8.51000 54.87500 40.54700
C  9.80400 52.58500 41.18000
C  7.03600 52.23900 38.85600
C  7.55400 50.90400 38.39400
H  7.00200 50.34500 37.09200
N  8.25900 57.89200 40.51300
C  9.41100 57.22900 40.20600
C  10.42800 58.17600 39.81000
C  9.87300 59.47700 40.11800
C  8.46300 59.30900 40.41800
C  11.86600 57.77500 39.45100
C  10.68200 60.69500 40.08000
O  11.87300 60.59300 39.76700
C  10.18800 62.02600 40.33600
N  5.47400 58.85000 41.32400
C  6.19000 60.12100 41.19500
C  5.27400 61.34500 41.55500
C  3.91400 60.62800 41.86800
C  4.19500 59.08900 41.79700
C  5.85300 62.24700 42.59700
C  2.67000 61.07500 40.93100
C  1.37800 61.43700 41.66900
N  4.46600 56.22100 41.83200
C  3.23600 56.81600 42.03300
C  2.27900 55.74300 42.27100
C  2.97700 54.55200 42.13000
C  4.28100 54.90800 41.73000
C  0.77300 55.91600 42.57100
C  2.89200 53.13800 42.07400
O  1.86900 52.44300 42.19500
C  4.37600 52.63900 41.66700
C  4.09900 51.65900 40.55500
O  3.21300 51.64300 39.75900
O  5.03000 50.62100 40.69200
C  4.81900 49.39100 39.86700
H  10.53200 55.44200 40.41600
H  7.75100 61.31200 40.70700
H  2.22000 58.77400 42.29200
H  7.22300 51.80600 40.93800
H  9.12300 53.49500 39.32200
H  10.59700 52.24900 40.51200
H  9.32200 51.68500 41.56400
H  10.28000 53.09600 42.01700
H  7.35000 53.04300 38.19000
H  5.95000 52.25100 38.76500
H  7.51100 50.19700 39.22300
H  8.58900 50.97600 38.05900
H  11.88100 56.70300 39.25100
H  12.47900 57.99300 40.32600
H  12.15300 58.37000 38.58400
H  9.74200 62.12500 41.32600
H  9.46900 62.32800 39.57500
H  11.07600 62.65500 40.39900
H  5.26400 61.76600 40.55000
H  3.64600 60.90500 42.88800
H  6.84900 61.85300 42.79800
H  5.27900 62.27000 43.52300
H  5.99900 63.23900 42.17000
H  2.39100 60.49000 40.05500
H  2.95400 62.00500 40.43800
H  0.50500 61.07000 41.12900
H  1.40600 62.49100 41.94300
H  1.35800 60.87700 42.60400
H  0.83500 56.24400 43.60900
H  0.33200 54.91900 42.56800
H  0.19400 56.61200 41.96400
H  4.83100 52.07000 42.47800
H  4.02500 48.86900 40.40100
H  5.72100 48.78300 39.79800
H  4.60000 49.57400 38.81500
Mg -2.65800 34.59900 27.05200
C  -3.60000 32.66300 30.05600
C  -0.99600 36.68300 29.18800
C  -2.08800 36.56800 24.39000
C  -4.60300 32.37800 25.16900
N  -2.30600 34.50600 29.36100
C  -2.69400 33.64000 30.35100
C  -2.22100 34.10200 31.76500
C  -1.57800 35.57700 31.41000
C  -1.64700 35.59500 29.87300
C  -2.26200 36.75800 32.15900
C  -1.32100 33.02900 32.42700
C  -1.82000 32.57800 33.76000
H  -0.78800 32.66600 34.88000
N  -1.64600 36.37200 26.80000
C  -0.96500 37.05200 27.77900
C  -0.35100 38.25400 27.21200
C  -0.62500 38.22100 25.77000
C  -1.46700 37.01400 25.57500
C  0.42200 39.22900 27.96200
C  -0.11900 39.11100 24.58900
O  -0.59000 39.09300 23.42700
C  0.88900 40.12600 24.93500
N  -3.29200 34.46400 25.09800
C  -2.97000 35.43200 24.16200
C  -3.45100 35.09700 22.82500
C  -4.19100 33.75400 22.98400
C  -4.08500 33.50500 24.52500
C  -4.30700 36.23400 22.14200
C  -3.62900 32.54900 22.21100
C  -2.40900 31.80900 22.89500
N  -3.77900 32.80200 27.48800
C  -4.47400 31.98700 26.57100
C  -5.18600 30.90900 27.28100
C  -4.91100 31.21200 28.64100
C  -4.04500 32.31900 28.70700
C  -6.06000 29.89900 26.64900
C  -5.18800 30.78700 29.96300
O  -5.86300 29.86800 30.39300
C  -4.44000 31.78800 30.95000
C  -5.48300 32.53400 31.68800
O  -6.31400 33.37300 31.21600
O  -5.34100 32.23500 32.97700
C  -6.15000 33.07700 33.84200
H  -0.36800 37.29400 29.84000
H  -2.04200 37.18600 23.49100
H  -5.21500 31.69700 24.57300
H  -3.20000 34.22000 32.23100
H  -0.51700 35.58600 31.65900
H  -2.61400 37.59000 31.54900
H  -1.68100 37.18200 32.97800
H  -3.12300 36.37900 32.71100
H  -0.27300 33.32100 32.49400
H  -1.33100 32.21800 31.69900
H  -2.04700 31.52000 33.62700
H  -2.75000 33.08500 34.01700
H  0.28200 40.23600 27.57100
H  1.48100 38.98100 28.03400
H  0.22400 39.21300 29.03400
H  0.33800 40.87800 25.50100
H  1.24400 40.63500 24.03900
H  1.78900 39.82400 25.47000
H  -2.56200 34.87800 22.23200
H  -5.24800 33.79900 22.72100
H  -3.62900 36.64700 21.39500
H  -4.45200 37.01500 22.88800
H  -5.23500 35.93400 21.65500
H  -3.27500 32.84500 21.22400
H  -4.39300 31.79500 22.02200
H  -1.62300 31.88500 22.14400
H  -2.83500 30.80800 22.96500
H  -2.02200 32.00800 23.89500
H  -5.70500 29.56700 25.67300
H  -7.06900 30.29700 26.53500
H  -6.26800 29.05500 27.30600
H  -3.79800 31.24300 31.64300
H  -7.10500 33.42400 33.44800
H  -5.69600 34.01500 34.16100
H  -6.46200 32.55600 34.74700

