158

Mg 23.77500 -5.72500 45.05700
C  25.84500 -3.30700 43.68900
C  21.15700 -4.50800 43.11900
C  22.08800 -8.56100 45.57800
C  26.53700 -7.16400 46.51900
N  23.62700 -4.22400 43.35000
C  24.57200 -3.24900 43.09500
C  23.99200 -2.12800 42.14300
C  22.41500 -2.40900 42.18100
C  22.38400 -3.82900 42.90000
C  21.36500 -1.40800 42.83200
C  24.57900 -2.41000 40.69200
C  25.10300 -1.11400 40.02600
H  24.75100 -0.95000 38.46000
N  21.78200 -6.38000 44.57100
C  20.88500 -5.70200 43.79400
C  19.60400 -6.35200 43.99200
C  19.83500 -7.65300 44.51000
C  21.27000 -7.63200 44.87400
C  18.31500 -5.81600 43.40500
C  18.83500 -8.68600 44.74400
O  17.66300 -8.40100 44.49700
C  19.12800 -10.01600 45.39000
N  24.23300 -7.61600 45.84500
C  23.32900 -8.57700 46.06600
C  23.82700 -9.68000 46.91900
C  25.29200 -9.10500 47.28300
C  25.34500 -7.91700 46.45100
C  22.95800 -10.15400 48.13300
C  26.48900 -10.11200 47.04400
C  27.37500 -10.43500 48.26800
N  25.75600 -5.40900 45.12200
C  26.78300 -6.02500 45.79600
C  27.99800 -5.22700 45.74100
C  27.66100 -4.23800 44.83200
C  26.30700 -4.31500 44.53000
C  29.31800 -5.64100 46.37700
C  28.19800 -3.14800 44.08600
O  29.33600 -2.69900 44.09100
C  27.02700 -2.55700 43.23000
C  26.82500 -1.09700 43.45600
O  26.20400 -0.52000 44.39700
O  27.51500 -0.41000 42.51100
C  27.46300 1.08200 42.50100
H  20.25300 -3.98100 42.80500
H  21.69000 -9.54100 45.84700
H  27.40000 -7.48100 47.10900
H  24.14600 -1.17900 42.65700
H  22.05800 -2.60400 41.16900
H  20.96400 -0.72500 42.08300
H  21.95100 -0.83100 43.54800
H  20.52800 -1.91000 43.31600
H  23.79400 -2.78800 40.03700
H  25.31600 -3.21300 40.67300
H  26.13700 -1.05300 40.36400
H  24.65300 -0.22800 40.47600
H  18.31100 -6.08300 42.34800
H  18.29300 -4.72700 43.40300
H  17.44600 -6.13600 43.98100
H  18.28300 -10.70200 45.33700
H  19.45000 -9.82900 46.41400
H  19.98800 -10.46800 44.89500
H  23.85100 -10.54800 46.26000
H  25.36600 -8.61600 48.25400
H  23.54000 -10.28600 49.04500
H  22.59000 -11.12400 47.79800
H  22.15800 -9.41800 48.22100
H  27.18400 -9.57000 46.40300
H  26.14200 -11.06200 46.63800
H  28.34000 -9.96000 48.09400
H  27.51800 -11.48700 48.51700
H  26.93900 -10.08600 49.20400
H  29.05000 -5.97900 47.37800
H  30.07600 -4.86900 46.24600
H  29.62900 -6.46300 45.73200
H  27.21200 -2.82600 42.19000
H  28.31600 1.61100 42.92500
H  26.70300 1.39000 43.21900
H  27.18000 1.46700 41.52200
Mg 47.63700 17.10500 28.73900
C  45.47500 16.28300 31.45300
C  49.72700 18.60800 31.09800
C  49.69000 18.13100 26.33400
C  45.46400 15.65000 26.55500
N  47.57200 17.39500 31.03200
C  46.61700 16.93000 31.91000
C  46.94700 17.32200 33.34300
C  48.05900 18.45400 33.09300
C  48.56200 18.06900 31.65100
C  47.63100 19.95200 33.25100
C  47.39400 16.04000 34.08500
C  47.02700 16.01300 35.64100
H  46.99600 17.35700 36.39000
N  49.55000 18.25600 28.75300
C  50.21800 18.72600 29.81100
C  51.48200 19.30200 29.35400
C  51.50900 19.12600 27.95500
C  50.21700 18.43700 27.62900
C  52.47000 19.94400 30.25100
C  52.59000 19.39400 26.99100
O  52.56300 18.93000 25.82500
C  53.68400 20.31500 27.34300
N  47.58200 16.89600 26.76300
C  48.56400 17.44100 25.94700
C  48.11500 17.22500 24.46300
C  47.00600 16.11300 24.57500
C  46.62200 16.24100 26.01100
C  47.66100 18.49800 23.67600
C  47.42800 14.59800 24.26100
C  46.46000 13.76700 23.37800
N  45.82100 16.06800 28.89800
C  45.04100 15.56400 27.87100
C  43.87300 14.97200 28.53200
C  43.91400 15.16700 29.87800
C  45.14700 15.90700 30.10000
C  42.76500 14.07200 27.80000
C  43.34900 15.00700 31.20400
O  42.31400 14.49000 31.50400
C  44.28900 15.65100 32.29000
C  43.54900 16.73100 33.10900
O  43.11800 17.81900 32.78000
O  43.57300 16.30200 34.36700
C  43.35700 17.28800 35.42200
H  50.27000 19.11300 31.90000
H  50.21500 18.47100 25.43900
H  44.78800 15.15500 25.85500
H  46.01100 17.70400 33.75000
H  48.85300 18.36800 33.83400
H  46.71600 19.79000 33.82100
H  47.58200 20.36800 32.24500
H  48.32800 20.52400 33.86400
H  48.48200 15.98400 34.13000
H  47.11400 15.09700 33.61400
H  47.83600 15.50500 36.16600
H  46.10800 15.42700 35.64200
H  53.45000 19.52900 30.01500
H  52.27000 19.65700 31.28300
H  52.37200 21.01200 30.05600
H  54.48300 19.81700 27.89300
H  53.21400 21.14000 27.87900
H  54.16000 20.70900 26.44500
H  48.97900 16.80300 23.94900
H  46.14800 16.39500 23.96500
H  46.68100 18.33400 23.22800
H  48.33700 18.74000 22.85700
H  47.61000 19.36700 24.33200
H  47.42200 14.17800 25.26700
H  48.43100 14.63300 23.83500
H  46.89200 13.60700 22.39000
H  45.49000 14.26200 23.33500
H  46.52400 12.80400 23.88500
H  43.31400 13.48900 27.06100
H  41.90300 14.51400 27.29900
H  42.41200 13.36300 28.54900
H  44.67400 14.83600 32.90200
H  43.72600 16.95000 36.39000
H  42.28800 17.36600 35.62000
H  43.63900 18.31400 35.18600

