158

Mg -0.13400 7.42400 26.57500
C  0.92700 9.52500 29.23200
C  -0.57400 5.02900 28.82600
C  -0.95500 5.47400 24.02600
C  0.16500 10.15400 24.37500
N  0.23500 7.37400 28.76900
C  0.50400 8.33700 29.69300
C  0.45100 7.82500 31.09900
C  -0.03700 6.30500 30.89700
C  -0.14600 6.17400 29.37900
C  0.79300 5.14500 31.63000
C  -0.50500 8.62000 32.11800
C  0.09400 8.81100 33.55900
H  1.20300 7.93000 34.13300
N  -0.65500 5.47100 26.43800
C  -0.78100 4.64300 27.52600
C  -1.31500 3.34400 27.04300
C  -1.54100 3.42300 25.62400
C  -0.99000 4.77200 25.32200
C  -1.64400 2.25100 28.05200
C  -2.18300 2.42300 24.67000
O  -2.30900 2.67600 23.48900
C  -2.67200 1.08900 25.11400
N  -0.29300 7.81100 24.46700
C  -0.73800 6.81500 23.68600
C  -1.12800 7.38100 22.26400
C  -0.75600 8.88600 22.35400
C  -0.36400 8.99700 23.85400
C  -0.33800 6.64900 21.18500
C  -2.05500 9.76400 22.15000
C  -2.06600 10.72700 20.97100
N  0.54700 9.36200 26.63700
C  0.60400 10.38600 25.70100
C  1.10700 11.61000 26.27100
C  1.32100 11.28200 27.67700
C  0.93200 9.96200 27.83500
C  1.39700 12.97000 25.59400
C  1.64100 11.91300 28.96400
O  2.06200 13.03800 29.23000
C  1.37200 10.73100 30.01900
C  2.65800 10.45100 30.71200
O  3.54300 9.77800 30.19100
O  2.66000 11.06900 31.98100
C  3.89000 10.91700 32.72400
H  -0.82800 4.29200 29.59100
H  -1.17600 4.81000 23.18700
H  0.10800 11.05000 23.75400
H  1.47600 7.78400 31.46700
H  -1.03000 6.13100 31.31200
H  1.66600 5.56100 32.13200
H  1.13500 4.37000 30.94400
H  0.17100 4.69300 32.40300
H  -1.51200 8.21200 32.21200
H  -0.72400 9.63700 31.79200
H  -0.65000 8.63600 34.33700
H  0.44900 9.84100 33.58500
H  -2.68600 2.26800 28.37400
H  -1.08300 2.33400 28.98300
H  -1.36900 1.31400 27.56900
H  -1.93000 0.36500 25.45000
H  -3.20000 0.61900 24.28500
H  -3.48300 1.36000 25.79100
H  -2.20400 7.22000 22.18900
H  0.06100 9.17900 21.69500
H  -0.94100 6.02400 20.52700
H  0.49400 6.08000 21.60000
H  0.23000 7.27700 20.49800
H  -2.09000 10.46500 22.98400
H  -2.93500 9.12000 22.14500
H  -3.01400 10.45600 20.50500
H  -1.28700 10.51300 20.23900
H  -2.07500 11.79500 21.18600
H  1.28500 13.78800 26.30500
H  0.65800 13.09300 24.80300
H  2.44000 12.99700 25.27700
H  0.55000 11.09900 30.63400
H  4.13000 11.97200 32.86000
H  4.67400 10.34500 32.22800
H  3.50300 10.50800 33.65700
Mg 47.69700 16.96200 29.17800
C  45.56400 16.52000 31.95600
C  49.65800 18.94700 31.11000
C  49.59000 17.47800 26.50600
C  45.22100 15.54100 27.21900
N  47.61300 17.74700 31.36100
C  46.71600 17.22900 32.34000
C  47.29100 17.52800 33.65000
C  48.32200 18.64100 33.41200
C  48.57700 18.40700 31.86300
C  47.92800 20.13700 33.75700
C  47.81900 16.24100 34.32100
C  47.91800 16.04000 35.94000
H  47.58100 17.19000 36.91900
N  49.51200 17.83500 28.94600
C  50.16000 18.69800 29.84600
C  51.40700 19.12600 29.21000
C  51.38800 18.72600 27.90000
C  50.17900 17.92100 27.73600
C  52.41400 19.92700 30.05900
C  52.39600 18.95500 26.78700
O  52.26200 18.35900 25.74500
C  53.50200 19.88600 26.92700
N  47.37500 16.59200 27.15300
C  48.36500 16.89800 26.24700
C  47.84500 16.69200 24.79700
C  46.56300 15.85500 25.05000
C  46.33600 16.03200 26.56800
C  47.54300 17.98000 23.87900
C  46.65100 14.30500 24.79000
C  46.05800 13.81300 23.42500
N  45.75500 16.22400 29.45100
C  44.91800 15.61900 28.61400
C  43.66900 15.30400 29.30700
C  43.91400 15.56000 30.66400
C  45.20300 16.08200 30.68600
C  42.39400 14.74000 28.71700
C  43.38500 15.44200 32.02100
O  42.36800 14.88000 32.45300
C  44.46800 16.08000 32.92500
C  43.94900 17.13200 33.84300
O  43.70400 18.31900 33.56700
O  43.68500 16.60500 35.07500
C  43.17200 17.57700 36.03300
H  50.30000 19.49500 31.80200
H  50.08300 17.58900 25.53700
H  44.49800 14.96100 26.64100
H  46.55800 17.94100 34.34400
H  49.35200 18.56700 33.76100
H  47.84700 20.63300 32.79000
H  48.72000 20.69000 34.26200
H  46.94200 20.28200 34.20000
H  48.78200 16.00600 33.86800
H  47.25300 15.37900 33.96600
H  48.91200 15.70300 36.23500
H  47.17600 15.28000 36.18500
H  52.03300 20.22400 31.03600
H  52.48200 20.87700 29.52900
H  53.39900 19.47800 30.18900
H  53.06600 20.85700 26.69500
H  54.13800 19.47000 26.14600
H  54.02400 19.76800 27.87700
H  48.54500 16.04900 24.26400
H  45.71500 16.35400 24.58100
H  47.93900 17.76700 22.88600
H  48.22900 18.71600 24.29800
H  46.49400 18.26200 23.96600
H  46.09300 13.84100 25.60400
H  47.62900 13.87100 24.99600
H  46.93800 13.58100 22.82500
H  45.51500 14.64300 22.97200
H  45.39600 12.95400 23.53000
H  42.51300 14.99800 27.66400
H  41.53400 15.29200 29.09600
H  42.21200 13.69300 28.96200
H  44.88100 15.25700 33.50700
H  43.10900 17.08600 37.00400
H  42.14900 17.79400 35.72500
H  43.77700 18.48300 36.06600

