158

Mg 53.60900 23.78200 44.44800
C  50.84900 25.90000 44.05200
C  51.65300 20.98800 43.92800
C  56.35500 21.81200 44.28800
C  55.58000 26.58600 44.78200
N  51.54800 23.48900 44.00600
C  50.58900 24.52700 43.88700
C  49.18800 23.91700 43.73200
C  49.45700 22.37400 43.91700
C  50.99500 22.25000 43.99300
C  48.76600 21.81300 45.17800
C  48.46500 24.33900 42.38500
C  49.32000 24.12700 41.10200
H  48.66500 23.19900 40.00800
N  54.00300 21.66700 44.10400
C  53.07300 20.75300 43.87300
C  53.72600 19.46500 43.71100
C  55.11800 19.63000 43.76600
C  55.22300 21.08200 44.02000
C  52.93800 18.15900 43.40500
C  56.16100 18.50300 43.66200
O  55.77400 17.32900 43.63500
C  57.66000 18.77100 43.46800
N  55.63800 24.11900 44.43100
C  56.53100 23.11100 44.47000
C  57.97500 23.67100 44.42500
C  57.75300 25.25000 44.51200
C  56.23100 25.31800 44.65300
C  58.90300 23.04800 45.41700
C  58.35300 26.12200 43.35000
C  58.58800 27.64000 43.74700
N  53.34400 25.88600 44.51500
C  54.25400 26.84600 44.85500
C  53.60400 28.09300 45.07400
C  52.22400 27.79700 44.63600
C  52.12100 26.43000 44.39700
C  54.19300 29.40900 45.48600
C  50.88300 28.29900 44.40600
O  50.52900 29.48000 44.55700
C  49.92200 27.10100 44.04300
C  49.52200 27.47500 42.65000
O  50.24300 27.31300 41.65800
O  48.33600 28.06700 42.71600
C  47.63000 28.61800 41.55900
H  50.88600 20.22700 43.76700
H  57.19000 21.16400 44.56400
H  56.26300 27.38200 45.08700
H  48.66600 24.38800 44.56400
H  49.12800 21.82300 43.03600
H  48.35000 22.56000 45.85400
H  49.53100 21.23000 45.69200
H  47.97200 21.13600 44.86300
H  48.05900 25.34900 42.41800
H  47.53400 23.77600 42.32400
H  50.28200 23.64800 41.28400
H  49.57900 25.09800 40.67900
H  53.44400 17.56400 42.64400
H  51.88100 18.33200 43.20300
H  53.00400 17.38200 44.16600
H  57.95300 17.89300 42.89300
H  58.16100 18.68100 44.43200
H  57.76200 19.70800 42.92000
H  58.35200 23.55700 43.40900
H  58.12400 25.69100 45.43700
H  59.60500 23.78300 45.81200
H  59.53600 22.34200 44.87900
H  58.36400 22.50900 46.19600
H  57.66600 26.13200 42.50400
H  59.31500 25.70800 43.04900
H  59.36600 28.11300 43.14800
H  58.75700 27.71000 44.82200
H  57.69400 28.21300 43.50200
H  53.53900 30.20600 45.13000
H  55.20500 29.42200 45.08300
H  54.29100 29.44100 46.57100
H  49.14600 27.12100 44.80900
H  47.89900 27.89200 40.79100
H  48.04000 29.62300 41.46000
H  46.57400 28.40700 41.72400
Mg 41.15000 41.33900 27.05100
C  40.26200 43.71200 29.47200
C  42.04200 39.28500 29.61300
C  42.30300 39.14400 24.80400
C  40.77300 43.80800 24.58500
N  41.07900 41.51800 29.16100
C  40.52900 42.44900 29.95500
C  40.57800 42.14500 31.44700
C  41.17300 40.67500 31.51400
C  41.51600 40.49300 30.00200
C  42.36200 40.48000 32.49900
C  39.23800 42.29400 32.21100
C  39.20900 41.61000 33.56200
H  38.46100 42.24200 34.72100
N  42.06700 39.46200 27.22000
C  42.37900 38.77600 28.39400
C  42.69700 37.42900 28.04800
C  42.63800 37.30400 26.64200
C  42.30000 38.65800 26.12200
C  42.94300 36.34900 29.14000
C  42.90300 36.01600 25.75500
O  42.96000 36.02700 24.51400
C  42.86800 34.73000 26.55100
N  41.63800 41.46300 25.05400
C  42.07400 40.43200 24.33000
C  41.99500 40.69100 22.80400
C  41.40700 42.15200 22.72800
C  41.19900 42.48300 24.21600
C  43.38300 40.46900 22.00000
C  40.15700 42.33700 21.79500
C  38.77700 42.20900 22.44500
N  40.57700 43.31200 26.96000
C  40.53200 44.21900 25.89800
C  39.96800 45.41700 26.37800
C  39.87100 45.30400 27.77100
C  40.29700 44.05900 28.07200
C  39.77400 46.61700 25.56600
C  39.44500 45.99300 29.00700
O  38.94100 47.07100 29.13400
C  39.63700 44.98700 30.11400
C  40.56700 45.61600 31.09700
O  41.78500 45.61100 30.97700
O  39.94000 46.27300 32.17700
C  40.82100 46.83700 33.24800
H  42.35500 38.59300 30.39800
H  42.53800 38.46600 23.98100
H  40.59000 44.46500 23.73200
H  41.36100 42.80500 31.82100
H  40.42900 39.91200 31.74300
H  43.29500 40.23100 31.99400
H  42.06000 39.74300 33.24300
H  42.49400 41.40800 33.05700
H  38.32700 42.00100 31.69000
H  38.95500 43.32800 32.41000
H  40.26900 41.58300 33.81300
H  38.79900 40.60600 33.46000
H  42.51100 36.64600 30.09600
H  44.02100 36.21300 29.23000
H  42.41500 35.43300 28.87700
H  41.93400 34.64200 27.10600
H  43.72000 34.67200 27.22900
H  42.84700 33.91800 25.82400
H  41.24700 40.04400 22.34500
H  42.23600 42.83100 22.52800
H  43.17100 39.70900 21.24800
H  44.09200 40.09400 22.73800
H  43.61100 41.44900 21.58100
H  40.39200 41.73800 20.91600
H  40.06200 43.40200 21.58500
H  38.15300 41.49600 21.90700
H  38.25200 43.15300 22.59400
H  38.93200 41.85900 23.46600
H  39.17700 47.36900 26.08200
H  39.24800 46.28400 24.67100
H  40.60400 47.20600 25.17500
H  38.68200 44.76000 30.58800
H  40.45700 46.60300 34.24800
H  40.95100 47.89700 33.02700
H  41.78600 46.35800 33.41600

