158

Mg 44.88600 4.07000 46.33600
C  42.93100 7.09000 46.18900
C  41.73700 2.40600 45.72900
C  46.48200 1.43000 45.86600
C  47.68400 6.07800 45.99500
N  42.57500 4.73600 45.63000
C  42.10200 5.98700 45.81700
C  40.58400 6.04700 45.54700
C  40.17100 4.49100 45.61300
C  41.57300 3.80500 45.65500
C  39.27800 4.00300 46.76600
C  40.00800 6.93500 44.37500
C  40.65000 6.78100 42.93300
H  39.85700 6.86000 41.64400
N  44.20300 2.15500 45.82700
C  42.93100 1.62800 45.79600
C  43.07900 0.16500 45.73500
C  44.43100 -0.13700 45.49300
C  45.09300 1.16800 45.74200
C  41.79600 -0.72900 45.59700
C  45.04400 -1.46400 45.20800
O  44.37900 -2.44400 45.03000
C  46.49700 -1.67900 45.03600
N  46.78700 3.89900 45.69000
C  47.28000 2.63100 45.94500
C  48.81000 2.58300 45.99200
C  49.22600 4.10400 45.88900
C  47.77900 4.79200 45.76700
C  49.44600 1.76200 47.12900
C  50.10400 4.32300 44.67100
C  51.55500 4.53700 45.03400
N  45.26800 6.14500 46.38700
C  46.48600 6.78200 46.24700
C  46.33700 8.14300 46.52200
C  44.97100 8.33800 46.53200
C  44.34000 7.03400 46.41100
C  47.46700 9.11000 46.47000
C  43.96500 9.35000 46.72700
O  44.05500 10.57100 46.83100
C  42.57700 8.56700 46.47400
C  41.87500 8.85100 47.70300
O  41.88100 8.20000 48.71400
O  41.16500 9.99200 47.53300
C  40.57800 10.59900 48.69300
H  40.82300 1.82200 45.60000
H  47.18000 0.59100 45.83600
H  48.56500 6.69700 46.17700
H  40.02800 6.47500 46.38200
H  39.81400 4.16900 44.63400
H  38.55600 3.21200 46.56500
H  38.73800 4.72100 47.38300
H  39.96400 3.47300 47.42700
H  40.02700 8.00100 44.60300
H  38.97400 6.68500 44.13900
H  41.14400 5.81000 42.95600
H  41.35300 7.60900 42.84300
H  41.82100 -1.64700 46.18600
H  41.91300 -1.10600 44.58100
H  40.84100 -0.22700 45.74700
H  46.76600 -2.69600 44.75100
H  46.94000 -1.52900 46.02100
H  46.96900 -1.08200 44.25600
H  49.18700 2.02300 45.13600
H  49.69800 4.45700 46.80600
H  50.27100 1.13600 46.79000
H  48.70200 1.13000 47.61300
H  49.77600 2.40200 47.94700
H  49.58700 5.19200 44.26500
H  50.11900 3.44000 44.03200
H  51.78600 3.99700 45.95300
H  51.70100 5.61000 45.15800
H  52.16200 4.15100 44.21500
H  47.19700 10.06300 46.92400
H  47.78500 9.21000 45.43200
H  48.33700 8.76100 47.02800
H  41.94200 8.99200 45.69700
H  39.65700 10.07200 48.94300
H  40.39300 11.62600 48.37900
H  41.28700 10.62400 49.52100
Mg 49.71800 47.41700 43.16400
C  46.33400 47.36600 42.31500
C  50.01700 44.24800 42.03800
C  53.15600 47.68300 43.36600
C  49.51400 50.89300 43.70300
N  48.25800 46.05400 42.23000
C  46.96900 46.14800 42.01500
C  46.33900 44.90300 41.46900
C  47.49300 43.85400 41.65800
C  48.71100 44.75800 42.02800
C  47.14700 42.69300 42.65400
C  46.01200 45.00700 39.93500
C  44.65800 44.36400 39.60500
H  44.73600 43.36800 38.47300
N  51.32500 46.15100 42.78500
C  51.16800 44.85700 42.31900
C  52.46400 44.23900 42.22200
C  53.47500 45.20000 42.65200
C  52.64500 46.40500 42.94400
C  52.73600 42.84000 41.70200
C  54.99500 45.01400 42.73500
O  55.45400 43.99500 42.24000
C  55.95000 45.97700 43.30000
N  51.17300 49.12900 43.48400
C  52.50500 48.91800 43.56100
C  53.19900 50.18200 44.06200
C  52.08400 51.25200 44.15800
C  50.82200 50.40500 43.81100
C  54.11500 49.99900 45.22500
C  52.21800 52.43000 43.14000
C  53.24700 53.48300 43.60900
N  48.28100 48.83300 43.22500
C  48.29100 50.21500 43.36700
C  46.94400 50.73100 43.24700
C  46.19200 49.63700 42.87800
C  47.01000 48.49700 42.86500
C  46.49400 52.14100 43.47900
C  44.85500 49.33900 42.50900
O  43.84400 50.01200 42.39500
C  44.92400 47.89500 42.07400
C  44.07100 47.01600 42.85200
O  43.99400 47.16700 44.08300
O  43.38600 46.09100 42.05400
C  42.51400 45.24500 42.79800
H  50.12800 43.22200 41.68200
H  54.24300 47.71400 43.46300
H  49.48800 51.96800 43.89000
H  45.44900 44.60400 42.02300
H  47.67400 43.31700 40.72600
H  46.81400 41.78900 42.14300
H  46.39500 43.08300 43.33900
H  47.98000 42.44800 43.31200
H  46.82800 44.57400 39.35600
H  45.96300 46.08300 39.77300
H  43.99400 45.17200 39.29900
H  44.12700 43.96800 40.47100
H  53.55000 42.83700 40.97600
H  51.92400 42.31000 41.20400
H  53.02200 42.33500 42.62400
H  55.71700 45.99600 44.36500
H  55.90900 46.92300 42.76000
H  56.96500 45.59300 43.19400
H  53.83600 50.62800 43.29700
H  51.81500 51.59600 45.15600
H  53.50500 49.65900 46.06200
H  54.54700 50.95300 45.52800
H  54.90800 49.27400 45.04300
H  51.23400 52.87600 43.00000
H  52.46600 51.95400 42.19200
H  54.13100 53.33100 42.99000
H  53.45400 53.45600 44.67900
H  52.81300 54.45400 43.37200
H  47.18200 52.69400 44.11900
H  45.49800 52.02700 43.90700
H  46.55800 52.61500 42.50000
H  44.74800 47.84700 40.99900
H  42.93400 44.79600 43.69900
H  42.23700 44.35500 42.23300
H  41.55900 45.70700 43.04900

