158

Mg 17.54500 -2.33900 27.83000
C  16.68600 -0.23500 30.49900
C  19.58100 -4.11600 30.11500
C  18.84400 -3.96500 25.24100
C  15.78300 -0.14400 25.74900
N  18.07700 -2.16400 30.02800
C  17.44100 -1.32200 30.93200
C  17.89100 -1.56600 32.35400
C  18.96400 -2.70000 32.13900
C  18.88100 -3.06900 30.63000
C  20.43500 -2.33200 32.51300
C  16.82300 -1.96400 33.40900
C  16.96400 -1.21700 34.80900
H  18.40800 -0.94000 35.24000
N  18.83000 -3.93000 27.67300
C  19.56400 -4.54500 28.75800
C  20.27500 -5.66300 28.26000
C  19.97000 -5.71200 26.89100
C  19.23600 -4.50600 26.50600
C  21.17300 -6.54400 29.10900
C  20.46600 -6.65400 25.85100
O  20.28200 -6.50800 24.62700
C  21.34200 -7.87200 26.36200
N  17.16600 -2.26000 25.84600
C  17.92500 -2.92600 24.93400
C  17.61800 -2.60400 23.39500
C  16.51900 -1.45800 23.64900
C  16.43100 -1.27800 25.15100
C  18.91200 -2.08500 22.51300
C  15.12100 -1.60500 22.97600
C  14.85000 -0.88800 21.65600
N  16.51800 -0.49100 28.00200
C  15.76800 0.19100 27.08000
C  15.07400 1.33200 27.68500
C  15.45800 1.17300 29.10900
C  16.27900 0.08400 29.16100
C  14.19200 2.25900 27.02200
C  15.12900 1.66700 30.36700
O  14.33600 2.51100 30.70000
C  16.08900 0.84100 31.34000
C  17.10000 1.72000 32.02400
O  18.21500 1.99600 31.51000
O  16.59800 2.15700 33.22000
C  17.41200 3.17300 33.87800
H  20.06600 -4.75500 30.85600
H  19.18000 -4.39000 24.29300
H  15.32900 0.52700 25.01700
H  18.35300 -0.61800 32.62700
H  18.69400 -3.62700 32.64600
H  20.38100 -1.32000 32.91600
H  21.12700 -2.29700 31.67100
H  20.71000 -3.10400 33.23200
H  16.77200 -3.00900 33.71500
H  15.87300 -1.78900 32.90300
H  16.59800 -1.79100 35.66000
H  16.50700 -0.23600 34.67700
H  21.08200 -7.61100 28.90800
H  20.88200 -6.48500 30.15800
H  22.15700 -6.16800 28.83100
H  21.73400 -8.50600 25.56700
H  20.63700 -8.54800 26.84400
H  22.15100 -7.43000 26.94500
H  17.13400 -3.46900 22.94100
H  16.97400 -0.54800 23.25900
H  18.75300 -1.10300 22.06700
H  18.97000 -2.88800 21.77800
H  19.76400 -1.99900 23.18700
H  14.44200 -1.13700 23.68800
H  14.81500 -2.65000 22.92100
H  13.89600 -0.39000 21.82800
H  14.92900 -1.50000 20.75700
H  15.57100 -0.07500 21.57500
H  13.17700 2.15900 27.40700
H  14.22300 2.08000 25.94700
H  14.53700 3.28100 27.17500
H  15.47400 0.40400 32.12600
H  17.20700 4.08800 33.32300
H  18.45400 2.87400 34.00000
H  16.93000 3.33100 34.84200
Mg -5.30100 24.86400 26.18600
C  -3.58700 26.55600 28.68500
C  -6.49300 22.67500 28.57100
C  -6.92800 23.17800 23.73700
C  -3.84100 27.06000 23.83300
N  -5.00200 24.63300 28.30500
C  -4.40100 25.55000 29.21400
C  -4.65400 25.25700 30.66700
C  -5.25300 23.79200 30.50900
C  -5.71400 23.73400 29.00900
C  -4.31900 22.64800 30.86100
C  -5.67600 26.24400 31.27700
C  -5.62100 26.38200 32.83900
H  -5.58700 25.06500 33.65300
N  -6.48600 23.11300 26.12600
C  -6.86200 22.35100 27.25100
C  -7.68300 21.31300 26.85800
C  -7.80200 21.39000 25.45400
C  -7.13100 22.63100 25.01200
C  -8.30800 20.27700 27.75300
C  -8.47200 20.44300 24.46600
O  -8.46300 20.66700 23.27000
C  -8.99500 19.12700 24.92200
N  -5.51700 25.16800 24.08900
C  -6.12500 24.25600 23.23300
C  -5.80600 24.56200 21.75700
C  -5.05000 25.88500 21.84100
C  -4.80900 26.11200 23.36600
C  -5.17600 23.33500 21.20900
C  -5.80400 27.11700 21.15300
C  -4.99200 27.80000 20.01100
N  -3.94900 26.50200 26.19400
C  -3.45100 27.30100 25.19400
C  -2.47400 28.28400 25.77400
C  -2.62700 28.09700 27.10900
C  -3.49800 27.02500 27.34800
C  -1.76900 29.45100 25.16800
C  -2.19000 28.59100 28.46000
O  -1.50000 29.56700 28.78400
C  -2.81200 27.60000 29.47700
C  -1.61900 26.96000 30.23800
O  -0.76400 26.16400 29.82800
O  -1.69400 27.38000 31.53700
C  -0.75500 26.79500 32.36000
H  -6.95500 22.08500 29.36500
H  -7.40500 22.63400 22.91900
H  -3.45500 27.73200 23.06400
H  -3.73700 25.31000 31.25400
H  -6.14000 23.67700 31.13200
H  -4.30100 21.80600 30.16900
H  -4.35300 22.40500 31.92300
H  -3.30100 22.98700 30.67000
H  -6.68800 25.95500 30.99400
H  -5.38400 27.20400 30.85300
H  -6.50500 26.93800 33.14900
H  -4.76200 27.01900 33.05300
H  -7.85100 19.32700 27.47400
H  -9.38600 20.26200 27.58900
H  -8.11900 20.40900 28.81800
H  -8.15900 18.49700 25.22700
H  -9.40400 18.50100 24.12900
H  -9.81100 19.23300 25.63800
H  -6.67800 24.58900 21.10300
H  -4.15200 25.78400 21.23200
H  -5.61100 22.38700 21.52300
H  -4.12600 23.43000 21.48500
H  -5.29100 23.38500 20.12600
H  -5.85100 27.96600 21.83400
H  -6.80200 26.89500 20.77500
H  -5.55700 27.54600 19.11400
H  -3.97600 27.40700 19.97600
H  -4.84300 28.87400 20.11500
H  -0.77400 29.25500 24.76800
H  -1.65300 30.18700 25.96400
H  -2.34500 29.90700 24.36300
H  -3.37600 28.14200 30.23600
H  0.18000 27.05400 31.86300
H  -0.92200 25.72900 32.51100
H  -0.73600 27.36500 33.29000

