158

Mg 24.01000 -5.82300 45.63100
C  26.19400 -3.43700 44.30800
C  21.47800 -4.32400 43.80700
C  22.03700 -8.45400 46.39600
C  26.88900 -7.62000 46.83500
N  23.94700 -4.28200 44.07200
C  24.96700 -3.43900 43.70000
C  24.51300 -2.40800 42.71900
C  22.93200 -2.49200 42.81800
C  22.77400 -3.80000 43.54400
C  22.12700 -1.30000 43.58800
C  25.17900 -2.70400 41.29100
C  25.76300 -1.45400 40.59500
H  25.78000 -1.49100 39.00500
N  22.00400 -6.31800 45.28300
C  21.15100 -5.45600 44.58400
C  19.82300 -6.15500 44.64600
C  19.95400 -7.41200 45.29300
C  21.34200 -7.45300 45.73700
C  18.57200 -5.57100 43.97500
C  18.77200 -8.30300 45.64300
O  17.59700 -8.06500 45.37400
C  19.00400 -9.54500 46.43300
N  24.40600 -7.72800 46.57700
C  23.34700 -8.55200 46.87500
C  23.85000 -9.84300 47.47500
C  25.40000 -9.57600 47.68500
C  25.57400 -8.23000 47.02000
C  22.99500 -10.29500 48.73000
C  26.35700 -10.65100 47.05700
C  25.98000 -12.17800 47.23300
N  26.05200 -5.52300 45.83500
C  27.06900 -6.31500 46.29300
C  28.30100 -5.62900 46.05700
C  28.00600 -4.44800 45.30400
C  26.64200 -4.43700 45.15800
C  29.64600 -6.08700 46.57500
C  28.54700 -3.30000 44.58800
O  29.72700 -3.06100 44.43600
C  27.39200 -2.54600 43.96000
C  27.27900 -1.16900 44.50900
O  26.39400 -0.75900 45.26200
O  28.22500 -0.38600 43.95600
C  28.19300 1.06600 44.23300
H  20.68100 -3.81000 43.26500
H  21.49400 -9.38400 46.57500
H  27.64300 -8.31000 47.21900
H  24.76500 -1.39400 43.02700
H  22.53000 -2.60800 41.81200
H  21.91300 -1.49400 44.63900
H  21.21000 -1.31600 42.99900
H  22.63500 -0.34200 43.47900
H  24.50700 -3.16200 40.56500
H  26.00100 -3.41300 41.39400
H  26.83100 -1.51900 40.80100
H  25.30700 -0.52100 40.92600
H  18.33600 -6.20200 43.11800
H  18.80700 -4.56900 43.61600
H  17.66700 -5.47000 44.57400
H  18.12000 -10.18100 46.38000
H  19.26900 -9.14200 47.41100
H  19.72600 -10.23200 45.99300
H  23.73600 -10.54200 46.64700
H  25.72000 -9.45800 48.72100
H  22.05200 -9.75900 48.84200
H  23.51100 -10.05400 49.65900
H  22.85300 -11.37500 48.74900
H  27.38400 -10.50200 47.38800
H  26.48300 -10.46700 45.99100
H  25.89600 -12.62200 46.24100
H  25.02200 -12.29200 47.74000
H  26.67000 -12.67400 47.91500
H  29.90100 -6.93400 45.93900
H  29.63900 -6.46100 47.59800
H  30.33100 -5.24100 46.51700
H  27.58800 -2.58200 42.88800
H  28.50200 1.30500 45.25100
H  27.16700 1.43300 44.20200
H  28.73900 1.72900 43.56200
Mg 30.44600 56.97400 40.57500
C  27.75900 54.90900 39.76300
C  32.56600 54.31900 39.77800
C  33.11500 59.08200 40.63200
C  28.30000 59.67000 40.92700
N  30.13600 54.90400 39.73300
C  28.93700 54.24500 39.63200
C  29.09100 52.75900 39.48500
C  30.68800 52.58600 39.76100
C  31.20600 54.03200 39.72900
C  30.98600 51.98100 41.15300
C  28.70900 52.15600 38.10300
C  29.11700 52.76100 36.77800
H  28.10400 53.19300 35.70700
N  32.48500 56.70000 40.33000
C  33.16100 55.54000 40.03800
C  34.57800 55.81700 39.99700
C  34.75800 57.20500 40.25200
C  33.39300 57.73700 40.51300
C  35.70600 54.88300 39.49400
C  36.19300 57.90400 40.30200
O  37.23100 57.28300 40.08900
C  36.23600 59.44300 40.53500
N  30.67400 59.08200 40.68800
C  31.83900 59.71200 40.88100
C  31.71300 61.21200 41.29400
C  30.17700 61.26800 41.42500
C  29.65900 59.90800 40.96000
C  32.49300 61.71600 42.55400
C  29.53200 62.52600 40.70300
C  29.46200 63.66100 41.74400
N  28.42000 57.27900 40.35200
C  27.68900 58.44700 40.62700
C  26.27600 58.12200 40.44700
C  26.26400 56.77000 40.05800
C  27.64600 56.25400 40.04200
C  25.06800 59.12600 40.58500
C  25.41400 55.71200 39.65900
O  24.19300 55.68500 39.39500
C  26.29400 54.43600 39.46600
C  25.81200 53.38300 40.39900
O  26.28700 53.07200 41.49400
O  24.74800 52.75800 39.84100
C  23.95500 51.83900 40.69600
H  33.20600 53.43600 39.73000
H  33.94000 59.76600 40.84400
H  27.63300 60.49400 41.18700
H  28.49500 52.32400 40.28700
H  31.11300 51.97900 38.96100
H  30.03900 51.63900 41.57100
H  31.47800 52.63500 41.87300
H  31.64800 51.12400 41.03000
H  27.63200 52.01500 38.19100
H  29.22000 51.19400 38.15900
H  29.88600 52.11200 36.35700
H  29.65100 53.66900 37.06000
H  36.58400 54.76800 40.12900
H  36.00800 55.31200 38.53800
H  35.24000 53.90900 39.34200
H  35.98500 59.75200 41.55000
H  35.56200 59.93800 39.83600
H  37.18500 59.91200 40.27500
H  32.10900 61.89900 40.54700
H  30.01500 61.26100 42.50300
H  33.28200 61.03200 42.86700
H  31.88800 61.92800 43.43600
H  33.12600 62.57600 42.33200
H  28.50000 62.21600 40.53600
H  29.93000 62.85500 39.74300
H  30.30700 63.75500 42.42700
H  28.57300 63.65600 42.37500
H  29.42400 64.58800 41.17300
H  25.35800 60.07800 41.03100
H  24.10400 58.82300 40.99400
H  24.75800 59.33300 39.56100
H  26.14600 54.12700 38.43100
H  24.61800 50.99400 40.88000
H  23.22900 51.43900 39.98800
H  23.53700 52.28600 41.59700

