158

Mg 16.29300 -1.48100 27.88200
C  15.13400 0.47500 30.50300
C  18.42300 -3.10800 30.03300
C  17.90400 -3.00800 25.29600
C  14.58700 0.43600 25.58800
N  16.69000 -1.22200 30.05400
C  16.15200 -0.41300 30.97000
C  16.79200 -0.58900 32.39000
C  17.86300 -1.62100 32.08600
C  17.63700 -1.97300 30.58500
C  19.36900 -1.32200 32.31300
C  15.73200 -0.96800 33.39500
C  15.73100 -0.13300 34.75100
H  16.94200 0.66600 35.14700
N  17.75700 -3.14200 27.67900
C  18.43700 -3.67600 28.76700
C  19.22400 -4.80900 28.26600
C  19.23400 -4.66600 26.85000
C  18.22200 -3.64500 26.55200
C  20.09300 -5.66600 29.15300
C  20.04300 -5.35000 25.66100
O  19.68500 -5.35200 24.48300
C  21.08100 -6.29400 26.08200
N  16.39600 -1.20800 25.78300
C  17.06200 -2.00500 24.94300
C  16.79300 -1.63500 23.47000
C  15.60900 -0.69000 23.50400
C  15.49800 -0.50300 25.06500
C  18.08000 -1.13400 22.75900
C  14.28100 -1.15300 22.71600
C  13.49500 -0.07000 21.96800
N  14.96900 -0.06700 27.96300
C  14.35600 0.68800 26.94100
C  13.50600 1.67000 27.54100
C  13.75100 1.63600 28.90700
C  14.74900 0.61500 29.14500
C  12.65700 2.68600 26.87900
C  13.48900 2.31000 30.18700
O  12.70600 3.23300 30.45100
C  14.37000 1.55400 31.26300
C  15.21900 2.57900 31.86400
O  16.15500 3.13500 31.29300
O  14.59700 3.02700 32.99600
C  15.16000 4.20400 33.60200
H  19.17900 -3.44400 30.74500
H  18.54100 -3.39900 24.50000
H  14.05900 0.96400 24.79200
H  17.31000 0.34300 32.61500
H  17.66300 -2.57200 32.58000
H  19.45600 -0.61500 33.13800
H  19.81000 -0.94200 31.39100
H  19.90000 -2.19500 32.69300
H  15.86400 -2.01500 33.66600
H  14.74600 -0.79700 32.96300
H  15.44300 -0.75900 35.59600
H  14.96500 0.60200 34.50500
H  20.13700 -6.65600 28.69900
H  19.67100 -5.74500 30.15400
H  21.07400 -5.19100 29.19200
H  20.67800 -7.19000 26.55400
H  21.82100 -5.75300 26.67200
H  21.64600 -6.55800 25.18900
H  16.51000 -2.59300 23.03400
H  15.93300 0.28700 23.14400
H  18.55800 -0.36100 23.35900
H  17.98100 -0.63700 21.79400
H  18.86700 -1.85500 22.53700
H  13.68700 -1.58900 23.52000
H  14.57000 -1.94800 22.02800
H  13.70000 -0.21000 20.90700
H  13.91000 0.84800 22.38500
H  12.41600 -0.21500 22.03100
H  12.83800 2.62600 25.80500
H  12.92400 3.68400 27.22600
H  11.59800 2.44300 26.95500
H  13.78000 1.08000 32.04600
H  14.75200 4.23900 34.61200
H  14.81500 5.05100 33.00900
H  16.24800 4.20300 33.66700
Mg 4.91600 53.26000 41.16100
C  3.05500 50.31000 41.23500
C  7.40700 51.60300 39.60500
C  6.12500 56.28200 40.39800
C  1.81600 55.01000 42.00400
N  4.97200 51.15400 40.22200
C  4.23500 50.08600 40.47500
C  4.81400 48.80700 39.90500
C  6.30400 49.16000 39.81900
C  6.25600 50.74100 39.85000
C  7.20200 48.51600 40.85300
C  4.19500 48.47000 38.52300
C  4.29300 47.06500 37.99400
H  4.94900 46.89200 36.61400
N  6.57000 53.83100 40.31300
C  7.49500 53.01200 39.59900
C  8.52800 53.74700 39.04700
C  8.29300 55.08500 39.42500
C  6.89700 55.13800 40.00300
C  9.70800 53.04600 38.42800
C  9.29600 56.24700 39.30300
O  10.32100 56.09400 38.66200
C  9.13900 57.50300 40.01600
N  4.12200 55.33900 41.38700
C  4.89900 56.35800 40.94500
C  4.21200 57.67400 41.01300
C  2.78500 57.24300 41.54500
C  2.91400 55.79600 41.61100
C  4.86800 58.78400 41.93700
C  1.52800 57.74900 40.65000
C  0.35700 58.39700 41.44200
N  2.96600 52.77000 41.76300
C  1.80400 53.57100 42.03800
C  0.70300 52.67200 42.40000
C  1.24400 51.35600 42.22600
C  2.51000 51.52600 41.69700
C  -0.65600 53.09900 42.84100
C  0.89800 49.98800 42.22900
O  -0.14900 49.34800 42.42300
C  2.16800 49.27400 41.82800
C  1.77000 48.12600 41.02500
O  1.04700 48.22500 40.02200
O  2.27700 46.93300 41.53300
C  2.07400 45.71500 40.85200
H  8.19400 51.00300 39.14400
H  6.60200 57.16500 39.96700
H  0.92500 55.56800 42.29800
H  4.75900 48.01200 40.64900
H  6.63500 48.78500 38.85100
H  8.16800 48.13700 40.51800
H  6.74100 47.74700 41.47200
H  7.47500 49.30400 41.55600
H  4.51000 49.19600 37.77400
H  3.11600 48.62500 38.51300
H  3.33800 46.54000 37.99100
H  4.86200 46.50500 38.73700
H  10.35900 53.74200 37.89800
H  9.45500 52.16900 37.83200
H  10.30000 52.69100 39.27100
H  10.05800 58.08900 40.00700
H  8.85400 57.24500 41.03600
H  8.37100 58.18400 39.65000
H  4.02100 57.92400 39.97000
H  2.59200 57.68000 42.52500
H  5.89300 58.49600 42.16900
H  4.35000 58.86600 42.89300
H  4.82000 59.74600 41.42700
H  1.15600 56.89300 40.08700
H  1.93900 58.55200 40.03800
H  0.25200 59.42000 41.07900
H  0.45600 58.44300 42.52600
H  -0.62500 57.98400 41.21200
H  -1.33600 52.56800 42.17500
H  -0.81200 54.16000 42.64400
H  -0.84200 52.83200 43.88200
H  2.56500 48.88200 42.76400
H  2.98400 45.36500 40.36700
H  1.41500 45.90800 40.00600
H  1.55200 45.01100 41.50100

