158

Mg 17.69500 53.31100 26.01000
C  19.58800 51.89300 28.66300
C  15.46200 54.30600 28.43500
C  15.77300 54.28500 23.64900
C  20.00800 51.89500 23.72300
N  17.53400 53.13800 28.33600
C  18.42100 52.51100 29.17200
C  17.95900 52.68000 30.59900
C  16.54900 53.24600 30.44600
C  16.56700 53.71500 29.02100
C  15.48200 52.14900 30.71300
C  18.91600 53.67900 31.39800
C  19.07500 53.45000 32.90900
H  18.04500 52.66600 33.72500
N  15.80700 54.20300 26.07700
C  15.09500 54.61800 27.12500
C  13.85700 55.30300 26.67400
C  13.89900 55.20500 25.23600
C  15.20000 54.52800 24.93600
C  12.77600 55.64200 27.60800
C  12.85300 55.65500 24.21700
O  13.00300 55.57400 23.03200
C  11.53200 56.31400 24.70200
N  17.91300 53.13100 24.02500
C  16.94500 53.60600 23.18800
C  17.43500 53.79100 21.77800
C  18.83300 53.07100 21.82800
C  18.98300 52.73500 23.28800
C  16.55700 53.34500 20.53600
C  20.06600 54.00200 21.33800
C  21.29400 53.26500 20.82300
N  19.46800 52.27100 26.08900
C  20.32900 51.79200 25.08900
C  21.44100 51.03200 25.68600
C  21.14700 51.07300 27.05900
C  19.96200 51.78800 27.25700
C  22.50800 50.36800 24.96400
C  21.66200 50.65200 28.31700
O  22.65600 49.95700 28.55600
C  20.72500 51.25300 29.43100
C  20.28300 50.20300 30.36300
O  19.46800 49.35300 30.08100
O  20.81900 50.46900 31.61000
C  20.55400 49.54300 32.72500
H  14.72500 54.68500 29.14600
H  15.22100 54.63600 22.77500
H  20.82800 51.54800 23.09100
H  18.00800 51.73100 31.13300
H  16.37900 54.12800 31.06400
H  15.08600 51.90700 29.72700
H  14.67800 52.51100 31.35300
H  15.76500 51.24900 31.25900
H  18.71600 54.72500 31.16400
H  19.89100 53.53000 30.93500
H  19.07900 54.43700 33.37100
H  20.07700 53.07100 33.10600
H  11.76400 55.44900 27.25300
H  12.78300 56.68200 27.93400
H  12.93800 55.09600 28.53700
H  11.76300 56.98000 25.53300
H  10.92400 55.48500 25.06500
H  11.10100 56.79500 23.82400
H  17.59100 54.84400 21.54300
H  18.95600 52.08200 21.38500
H  15.53700 53.02300 20.74900
H  16.97900 52.42900 20.12400
H  16.67200 54.01400 19.68300
H  20.34100 54.51500 22.25900
H  19.67300 54.74500 20.64400
H  21.30100 52.18200 20.94800
H  22.17000 53.75900 21.24200
H  21.32700 53.46900 19.75300
H  23.43400 50.37200 25.54000
H  22.77900 51.07600 24.18200
H  22.35100 49.31200 24.74500
H  21.27700 51.99100 30.01300
H  20.99500 48.57300 32.49600
H  19.48800 49.44600 32.92700
H  20.99800 49.85200 33.67100
Mg 1.30800 42.89900 25.95400
C  2.67600 42.89400 29.14900
C  -1.40000 41.37700 26.98700
C  0.62000 42.03300 22.75400
C  4.41400 44.01600 24.80800
N  0.71200 42.32800 27.83500
C  1.32200 42.39800 29.06000
C  0.40300 42.21900 30.31000
C  -0.78500 41.60400 29.50200
C  -0.48300 41.77400 28.01600
C  -1.17900 40.18200 29.98100
C  0.15600 43.62100 31.01200
C  0.30000 43.65100 32.53300
H  0.40300 42.26400 33.29100
N  -0.24800 41.88100 24.94900
C  -1.29400 41.30900 25.55700
C  -2.14400 40.66300 24.57100
C  -1.48400 40.74600 23.33800
C  -0.29300 41.62600 23.64800
C  -3.30900 39.88800 25.01400
C  -1.73600 40.05200 22.03500
O  -0.96200 40.03300 21.06300
C  -2.98200 39.28500 21.80600
N  2.30000 43.07000 24.03700
C  1.77500 42.86200 22.87900
C  2.67300 43.21700 21.65900
C  3.72200 44.16300 22.43500
C  3.43600 43.77000 23.84200
C  3.26900 42.03300 20.87400
C  3.58300 45.76200 22.14400
C  2.95900 46.73200 23.20800
N  3.16900 43.49600 26.74400
C  4.31600 43.90600 26.14600
C  5.39400 43.99400 27.13900
C  4.76000 43.62000 28.33600
C  3.44900 43.22800 28.00400
C  6.78500 44.51900 26.90400
C  4.92300 43.57800 29.73000
O  5.85400 43.87000 30.48100
C  3.58900 42.97300 30.32800
C  3.99100 41.74500 30.99700
O  3.94500 40.58600 30.66900
O  4.56900 42.13100 32.20100
C  5.06100 40.99500 32.95700
H  -2.23700 40.87100 27.47300
H  0.43300 41.73800 21.71900
H  5.35100 44.47500 24.48500
H  0.92300 41.41400 30.83000
H  -1.65100 42.22000 29.74200
H  -1.22900 39.44200 29.18200
H  -2.21300 40.33700 30.29100
H  -0.51200 39.83000 30.76800
H  -0.86400 43.96000 30.83200
H  0.83600 44.33500 30.54700
H  -0.60200 44.08100 32.96800
H  1.11800 44.31500 32.81300
H  -3.04000 38.83600 25.11000
H  -4.17300 39.99000 24.35600
H  -3.62900 40.25800 25.98800
H  -3.00800 38.41300 22.46000
H  -3.06500 39.03000 20.74900
H  -3.82400 39.92400 22.07000
H  1.98000 43.72800 20.99100
H  4.73300 43.75600 22.40400
H  2.93500 41.10000 21.32700
H  4.34900 41.95600 20.99900
H  2.90100 42.05300 19.84800
H  3.04400 45.77300 21.19700
H  4.64600 45.98100 22.04500
H  2.99100 46.28700 24.20200
H  1.91100 46.91000 22.96500
H  3.50000 47.67800 23.20900
H  6.78900 45.60100 27.03400
H  7.18000 44.08900 25.98300
H  7.45600 44.19900 27.70100
H  3.22300 43.72800 31.02300
H  4.25100 40.28600 33.12700
H  5.27000 41.44800 33.92600
H  5.98800 40.64200 32.50500

