158

Mg 0.49700 7.65900 26.45300
C  1.39000 9.93300 29.09000
C  0.89000 5.13900 28.63200
C  0.37500 5.49100 23.83700
C  1.11500 10.32700 24.24500
N  0.90200 7.61100 28.70800
C  1.17200 8.60700 29.55300
C  1.33900 8.06000 30.95500
C  1.33900 6.50900 30.70400
C  1.07000 6.37000 29.22400
C  2.70400 5.77300 31.09400
C  0.34700 8.67600 32.03100
C  0.96000 9.18000 33.33500
H  2.15900 8.53400 33.86000
N  0.35400 5.65200 26.27700
C  0.51500 4.75100 27.31700
C  0.44600 3.44800 26.79600
C  0.33500 3.50500 25.38500
C  0.36900 4.92400 25.06700
C  0.33700 2.29600 27.81600
C  0.22200 2.41700 24.31800
O  -0.01000 2.64300 23.11100
C  0.50100 0.98900 24.69200
N  0.78000 7.87500 24.41400
C  0.57400 6.82100 23.52500
C  0.61900 7.34100 22.09600
C  0.54700 8.87800 22.25300
C  0.85800 9.05300 23.71900
C  1.97100 6.90100 21.42000
C  -0.85700 9.37400 21.84700
C  -0.78100 10.64600 20.97200
N  1.19000 9.71300 26.58700
C  1.38400 10.65900 25.59900
C  1.81200 11.95200 26.22500
C  1.79000 11.64800 27.55900
C  1.45700 10.29400 27.76500
C  1.82400 13.22100 25.51100
C  1.86400 12.32200 28.85000
O  2.18700 13.46600 29.00600
C  1.65700 11.15700 29.91100
C  2.95500 11.21500 30.75900
O  3.92500 10.49600 30.51100
O  2.72300 12.07500 31.84500
C  3.87500 12.28100 32.76200
H  1.08200 4.22700 29.20000
H  0.35200 4.79000 23.00100
H  1.24200 11.18600 23.58200
H  2.33400 8.38700 31.25700
H  0.57900 5.96400 31.26200
H  3.42400 6.37500 31.64800
H  3.22100 5.28200 30.27000
H  2.38300 4.96900 31.75600
H  -0.43100 7.95900 32.29700
H  -0.26000 9.39200 31.47600
H  0.19300 9.03400 34.09600
H  1.14200 10.24800 33.21600
H  0.14700 1.35500 27.30100
H  -0.47400 2.46800 28.52300
H  1.29300 2.24000 28.33700
H  -0.47400 0.63400 25.02800
H  1.28700 1.06500 25.44200
H  0.73800 0.39300 23.81000
H  -0.23400 6.90600 21.57600
H  1.33800 9.40600 21.72000
H  2.62300 7.74400 21.19200
H  1.77200 6.40100 20.47300
H  2.47200 6.20000 22.08800
H  -1.35900 9.67100 22.76800
H  -1.49600 8.64700 21.34600
H  -1.68800 10.84200 20.40000
H  0.09000 10.75500 20.32600
H  -0.69800 11.51200 21.62800
H  0.92800 13.43800 24.93000
H  2.61400 13.29100 24.76300
H  1.94600 14.01300 26.25000
H  0.77500 11.37500 30.51300
H  3.51800 12.89600 33.58800
H  4.65100 12.82200 32.21900
H  4.19400 11.35900 33.24700
Mg 25.21700 -7.57800 46.70700
C  27.99100 -5.52500 45.91300
C  23.39000 -5.73500 44.43100
C  23.03600 -10.02100 46.72000
C  27.38100 -9.58500 48.53500
N  25.69300 -5.77800 45.31700
C  26.87000 -5.12900 45.17200
C  26.75800 -3.90600 44.26000
C  25.26700 -3.91500 43.85200
C  24.73100 -5.19700 44.62000
C  24.39500 -2.69400 44.13700
C  27.68400 -3.96800 43.03100
C  28.21100 -2.71800 42.36300
H  27.82000 -2.65600 40.93500
N  23.49800 -7.83000 45.69900
C  22.84000 -6.97600 44.82300
C  21.66800 -7.68100 44.30500
C  21.53000 -8.91900 44.97900
C  22.72800 -8.99100 45.82700
C  20.65100 -7.01500 43.36400
C  20.35500 -9.92000 44.70100
O  19.34700 -9.56700 44.10300
C  20.36100 -11.25200 45.27300
N  25.17800 -9.43700 47.61700
C  24.15900 -10.26300 47.49600
C  24.50500 -11.66500 47.85600
C  25.83500 -11.46500 48.64300
C  26.20300 -10.11000 48.15700
C  23.45300 -12.47600 48.57300
C  26.94500 -12.58000 48.33400
C  27.82500 -12.90700 49.48600
N  27.27800 -7.50400 47.27400
C  27.96200 -8.34600 48.15300
C  29.27800 -7.78400 48.46300
C  29.33200 -6.74000 47.52600
C  28.11600 -6.66300 46.80200
C  30.29300 -8.39900 49.43900
C  30.18500 -5.58900 47.17000
O  31.29700 -5.29300 47.55800
C  29.36800 -4.79700 46.03800
C  29.29700 -3.38100 46.38900
O  28.88500 -2.89900 47.43000
O  29.65100 -2.67200 45.25500
C  29.23000 -1.24700 45.24400
H  22.75000 -5.12400 43.79100
H  22.25300 -10.78000 46.79100
H  27.93400 -10.19900 49.24900
H  26.94000 -2.97700 44.80000
H  24.96200 -4.10100 42.82200
H  23.94900 -2.34700 43.20500
H  25.11300 -1.89500 44.32100
H  23.69300 -2.82700 44.96000
H  27.09300 -4.39400 42.22000
H  28.49300 -4.61000 43.37900
H  29.29700 -2.77800 42.44100
H  27.98100 -1.78100 42.87200
H  20.27900 -7.62200 42.53800
H  20.98500 -6.06500 42.94800
H  19.77400 -6.78500 43.96800
H  21.28100 -11.74500 44.95900
H  19.47400 -11.78900 44.93900
H  20.36200 -11.36000 46.35700
H  24.81900 -12.22300 46.97400
H  25.57700 -11.30000 49.68900
H  23.99800 -13.25100 49.11300
H  22.88500 -12.95600 47.77600
H  22.74100 -11.92100 49.18300
H  27.58000 -12.10900 47.58400
H  26.52600 -13.41000 47.76500
H  27.75700 -12.20900 50.32100
H  28.85600 -12.84800 49.14000
H  27.72300 -13.92600 49.86000
H  31.26400 -8.53400 48.96400
H  29.96100 -9.37300 49.80100
H  30.29200 -7.76800 50.32800
H  29.93000 -4.80500 45.10400
H  29.43800 -0.73900 44.30200
H  29.66400 -0.59000 45.99800
H  28.15700 -1.09100 45.35600

