158

Mg 44.46300 3.69600 48.11800
C  42.39600 6.42400 47.54700
C  41.83700 1.61300 46.97000
C  46.54600 0.96800 48.10100
C  47.15400 5.89500 48.14500
N  42.38300 4.04100 47.18500
C  41.73900 5.22900 47.18500
C  40.22100 5.01700 46.71700
C  40.03400 3.47100 46.75700
C  41.51700 3.02900 46.95700
C  39.15700 2.94800 47.92300
C  39.84700 5.58900 45.38800
C  38.55400 6.45000 45.51000
H  37.62200 6.38600 44.30900
N  44.18600 1.62300 47.76400
C  43.04100 0.97100 47.32600
C  43.26900 -0.47200 47.36400
C  44.63800 -0.69200 47.71100
C  45.17800 0.66900 47.92300
C  42.12600 -1.49700 46.97400
C  45.29000 -2.08800 47.89900
O  44.65900 -3.08900 47.62500
C  46.68600 -2.23300 48.21000
N  46.53200 3.45200 48.04700
C  47.10100 2.23200 48.18200
C  48.64000 2.38500 48.26200
C  48.85400 3.93700 48.15000
C  47.37700 4.46100 48.20400
C  49.44200 1.75800 49.55300
C  49.67900 4.36000 46.94400
C  51.20900 4.35500 47.12500
N  44.72000 5.79100 48.06900
C  45.88800 6.53100 48.06000
C  45.53600 7.89800 47.89000
C  44.13500 7.94200 47.86400
C  43.70900 6.63200 47.86000
C  46.56600 9.02500 47.89500
C  42.90200 8.78800 47.73400
O  42.89300 10.02100 47.58900
C  41.73400 7.80700 47.56400
C  40.68900 7.95800 48.62700
O  40.49300 7.27100 49.60800
O  39.75800 8.90600 48.21000
C  38.79000 9.33600 49.22800
H  41.00100 0.98700 46.65200
H  47.31300 0.20700 48.26300
H  47.99500 6.56200 48.34500
H  39.70000 5.52500 47.52900
H  39.62600 3.06500 45.83200
H  38.69500 3.74100 48.51200
H  39.68100 2.27300 48.60000
H  38.35500 2.33000 47.52000
H  39.68800 4.77700 44.67800
H  40.72900 6.15000 45.07900
H  38.78300 7.51500 45.52300
H  37.92100 6.25700 46.37700
H  42.44700 -2.28200 46.28900
H  41.30300 -1.02700 46.43500
H  41.89100 -2.00800 47.90800
H  47.40200 -1.84400 47.48700
H  46.97800 -3.26900 48.38300
H  46.85400 -1.65200 49.11700
H  49.04600 1.92700 47.36000
H  49.33500 4.24600 49.07800
H  48.96900 0.92300 50.07100
H  49.85400 2.56600 50.15700
H  50.25500 1.27700 49.00900
H  49.46600 5.39600 46.67700
H  49.38500 3.70800 46.12200
H  51.62700 5.27100 46.70800
H  51.59100 3.51300 46.54900
H  51.59500 4.22200 48.13500
H  46.71200 9.50200 48.86500
H  46.23400 9.73600 47.13900
H  47.56000 8.68000 47.61300
H  41.32400 8.00000 46.57200
H  37.85800 9.75700 48.85000
H  39.21200 10.02400 49.96100
H  38.36800 8.48200 49.75900
Mg -9.71700 39.37800 42.43300
C  -8.07600 36.42500 41.50200
C  -7.16000 41.17500 40.92700
C  -11.65100 42.19100 42.46600
C  -12.50500 37.50100 43.43800
N  -7.95000 38.89200 41.18200
C  -7.36100 37.60400 41.10400
C  -6.08500 37.64400 40.19200
C  -5.60600 39.11600 40.54600
C  -6.96900 39.79400 40.85500
C  -4.60300 39.46900 41.65500
C  -6.17100 37.42200 38.64300
C  -5.74200 36.04700 38.15900
H  -4.57000 35.94100 37.10500
N  -9.42400 41.39700 41.88400
C  -8.29100 41.96300 41.33700
C  -8.41700 43.37300 41.23400
C  -9.63300 43.72700 41.83600
C  -10.34400 42.40400 42.09100
C  -7.37300 44.22600 40.63500
C  -10.18300 45.15800 41.96200
O  -9.51900 46.11100 41.49200
C  -11.46800 45.39300 42.69400
N  -11.79800 39.81000 42.87100
C  -12.28900 40.99800 42.78900
C  -13.76100 41.04300 43.37200
C  -14.08800 39.59100 43.69300
C  -12.68200 38.90000 43.43600
C  -14.00900 42.04300 44.51800
C  -15.24200 39.01400 42.84600
C  -14.93800 38.78800 41.31700
N  -10.19300 37.33500 42.66300
C  -11.38500 36.74300 43.06700
C  -11.10400 35.25900 42.95400
C  -9.82900 35.15600 42.42200
C  -9.34100 36.44000 42.15400
C  -11.97800 34.12000 43.40300
C  -8.76800 34.18200 41.98400
O  -8.77000 32.97000 42.01000
C  -7.55700 35.05900 41.41000
C  -6.36800 34.90700 42.33600
O  -5.89900 35.75700 43.13700
O  -5.75700 33.69500 42.13100
C  -4.61700 33.23500 43.01100
H  -6.21800 41.60400 40.58100
H  -12.25900 43.08800 42.59900
H  -13.44000 37.13600 43.86800
H  -5.20000 37.11500 40.54600
H  -5.28900 39.53700 39.59200
H  -4.75400 40.43700 42.13300
H  -3.57800 39.46000 41.28400
H  -4.60900 38.65200 42.37600
H  -5.52700 38.07500 38.05500
H  -7.20800 37.60800 38.36500
H  -6.66800 35.63100 37.76200
H  -5.41000 35.50400 39.04500
H  -6.95700 44.83900 41.43400
H  -7.71500 44.89500 39.84600
H  -6.51200 43.67500 40.25500
H  -12.30000 45.14500 42.03500
H  -11.52100 46.45300 42.94100
H  -11.47400 44.89000 43.66100
H  -14.38100 41.38700 42.54500
H  -14.42300 39.43700 44.71900
H  -14.40400 41.53700 45.40000
H  -14.64700 42.87800 44.22700
H  -13.00700 42.29900 44.86400
H  -16.12900 39.64800 42.85900
H  -15.71800 38.14600 43.30400
H  -13.91900 38.92600 40.95700
H  -15.64100 39.33700 40.69000
H  -15.05400 37.71700 41.15500
H  -11.43600 33.20000 43.18300
H  -12.95600 34.24100 42.93700
H  -12.03000 34.16600 44.49100
H  -7.34200 34.77900 40.37900
H  -4.85600 33.00200 44.04900
H  -3.83500 33.99400 43.05400
H  -4.15900 32.37600 42.52000

