158

Mg 49.29900 35.00700 28.11000
C  47.03300 33.75700 30.57400
C  49.56000 37.89000 29.93100
C  51.15400 36.31700 25.71700
C  48.60700 32.18900 26.28900
N  48.32700 35.77600 30.03100
C  47.52300 35.01400 30.85600
C  47.23300 35.77900 32.23600
C  47.81500 37.20600 31.85800
C  48.69300 36.98300 30.55200
C  46.75800 38.36400 31.72600
C  47.94700 35.04100 33.43000
C  48.90500 35.78600 34.40000
H  48.22200 36.75400 35.39000
N  50.18500 36.92500 27.85600
C  50.19000 37.93800 28.71300
C  51.04100 39.02400 28.25700
C  51.71600 38.51400 27.10100
C  51.04800 37.22700 26.85000
C  51.26500 40.35400 29.06400
C  52.95000 39.06400 26.40000
O  53.42000 38.44300 25.45900
C  53.50600 40.45500 26.70700
N  49.63200 34.45300 26.28500
C  50.43200 35.17600 25.44300
C  50.65900 34.36000 24.15300
C  50.15100 32.91400 24.40800
C  49.43900 33.18600 25.71500
C  50.08100 34.97500 22.90600
C  51.15300 31.79800 24.56600
C  51.00500 30.57400 23.57200
N  48.20200 33.23900 28.43300
C  47.94600 32.22100 27.50700
C  47.04800 31.26900 28.08300
C  46.66800 31.84000 29.28000
C  47.36100 33.05000 29.45800
C  46.63100 30.00500 27.38200
C  45.74600 31.61900 30.37200
O  44.99500 30.69800 30.68400
C  46.03400 32.76600 31.32500
C  46.39000 32.19200 32.67200
O  47.45500 31.63000 32.97000
O  45.30800 32.42700 33.47900
C  45.74100 32.34500 34.91500
H  49.56400 38.78600 30.55500
H  51.81300 36.67700 24.92500
H  48.51700 31.23000 25.77400
H  46.15200 35.78900 32.37200
H  48.49700 37.59300 32.61400
H  47.05300 39.16800 32.40100
H  45.72000 38.05700 31.85800
H  46.82400 38.69100 30.68800
H  48.44400 34.11200 33.15100
H  47.14800 34.66700 34.07100
H  49.60700 36.30000 33.74400
H  49.40000 34.91300 34.82600
H  52.15400 40.20700 29.67700
H  50.46800 40.43700 29.80400
H  51.31700 41.23600 28.42600
H  52.56600 41.00500 26.68000
H  54.25400 40.65700 25.94100
H  53.91500 40.40600 27.71700
H  51.74500 34.30500 24.08500
H  49.41100 32.75100 23.62500
H  50.86800 35.46300 22.33000
H  49.31800 35.69700 23.19600
H  49.76200 34.25200 22.15600
H  51.17200 31.35400 25.56100
H  52.15800 32.17500 24.37800
H  50.39900 30.79600 22.69400
H  50.38600 29.85500 24.10800
H  52.03700 30.41200 23.26000
H  45.73400 30.22600 26.80300
H  46.42800 29.26400 28.15500
H  47.43800 29.70500 26.71400
H  45.03800 33.19700 31.43200
H  46.68600 32.86600 35.06600
H  45.80900 31.30800 35.24100
H  44.99200 32.81400 35.55400
Mg 16.75100 51.54200 26.40400
C  18.67500 49.99900 29.02000
C  14.36000 52.30400 28.60100
C  15.03000 52.45100 23.72700
C  19.38500 50.30900 24.13600
N  16.59600 51.16600 28.52600
C  17.48800 50.63300 29.41500
C  17.02500 50.84000 30.89600
C  15.51100 51.32300 30.68700
C  15.47200 51.64100 29.16000
C  14.41500 50.34800 31.17400
C  17.99500 51.88500 31.61600
C  18.45700 51.52700 32.97300
H  17.36000 50.76900 33.89800
N  14.98700 52.31600 26.17300
C  14.12600 52.64200 27.24000
C  12.99000 53.33000 26.69800
C  13.20000 53.43700 25.28700
C  14.49900 52.79100 24.98100
C  11.88500 53.78900 27.58300
C  12.45500 54.21400 24.26300
O  12.82800 54.39400 23.10000
C  11.10400 54.87800 24.67000
N  17.21900 51.32800 24.25300
C  16.25300 51.81200 23.39000
C  16.57200 51.26100 21.97600
C  18.10200 50.99600 22.04500
C  18.33300 50.93400 23.58200
C  15.62800 50.11300 21.58400
C  19.09900 51.99500 21.35500
C  18.76200 53.50100 21.54000
N  18.64700 50.48900 26.53100
C  19.60600 50.07900 25.57000
C  20.69200 49.34500 26.15800
C  20.35400 49.31900 27.51900
C  19.10600 49.94100 27.68200
C  22.01600 48.77100 25.46200
C  20.83200 48.83500 28.74300
O  21.86300 48.21800 28.90400
C  19.86700 49.36000 29.82400
C  19.38300 48.27100 30.51800
O  18.99100 47.27300 29.98900
O  19.45600 48.45500 31.88200
C  18.93400 47.31600 32.62000
H  13.61700 52.58500 29.35100
H  14.35100 52.69600 22.90700
H  20.11400 49.95400 23.40500
H  17.06400 49.92000 31.47800
H  15.28400 52.18000 31.32000
H  13.90900 50.59400 32.10800
H  14.86100 49.36500 31.32400
H  13.76000 50.28200 30.30500
H  17.48300 52.84200 31.71200
H  18.91900 52.06400 31.06600
H  18.78100 52.38800 33.55800
H  19.24200 50.79500 32.78400
H  11.18000 52.98900 27.81000
H  11.38500 54.69200 27.23200
H  12.28600 54.03500 28.56600
H  10.37200 54.17800 25.07300
H  10.77700 55.34100 23.73900
H  11.34200 55.66400 25.38800
H  16.50600 52.12700 21.31700
H  18.32600 50.08900 21.48300
H  15.17200 50.46100 20.65700
H  14.85000 49.92200 22.32300
H  16.23900 49.34800 21.10400
H  18.93900 51.76400 20.30200
H  20.10000 51.66100 21.62700
H  19.64400 54.14000 21.51300
H  18.50600 53.60600 22.59400
H  18.02400 53.90600 20.84700
H  22.21500 49.06200 24.43000
H  21.86000 47.70300 25.31200
H  22.91500 48.90900 26.06200
H  20.34000 50.01200 30.55800
H  17.94300 46.96600 32.33100
H  18.83100 47.64700 33.65400
H  19.70400 46.54500 32.58100

