158

Mg -2.50000 17.93600 26.78700
C  -2.64800 15.54000 29.52900
C  -2.52300 20.38900 29.13900
C  -2.56700 20.00000 24.27400
C  -2.90700 15.14600 24.59700
N  -2.45800 17.91300 29.13800
C  -2.49000 16.87500 30.00400
C  -2.36800 17.43100 31.45100
C  -2.28800 19.00000 31.18700
C  -2.51600 19.13700 29.73700
C  -3.32100 19.80800 32.12600
C  -1.15500 16.76100 32.24300
C  -0.17300 17.68400 33.02000
H  0.15400 17.13200 34.40200
N  -2.58600 19.93800 26.71300
C  -2.61700 20.80500 27.80700
C  -2.57900 22.16300 27.31000
C  -2.56700 22.08300 25.87600
C  -2.60900 20.63700 25.57300
C  -2.47200 23.36300 28.18000
C  -2.38600 23.16300 24.82100
O  -2.35200 22.91500 23.60400
C  -2.21900 24.54300 25.23900
N  -2.84900 17.60800 24.78700
C  -2.80300 18.65300 23.83600
C  -2.74700 18.11100 22.37400
C  -2.67000 16.54800 22.63500
C  -2.86000 16.42900 24.10000
C  -3.93600 18.48900 21.47500
C  -1.47200 15.86400 21.92300
C  -0.21300 15.67500 22.81000
N  -2.68800 15.84200 26.97000
C  -2.81400 14.89200 25.95300
C  -2.75900 13.62000 26.54400
C  -2.67300 13.76800 27.92300
C  -2.72000 15.19400 28.14000
C  -2.91400 12.28700 25.90100
C  -2.68900 13.04900 29.28400
O  -2.77600 11.86000 29.61400
C  -2.74200 14.20500 30.27400
C  -1.56000 13.81400 31.14200
O  -0.40800 13.74400 30.80500
O  -2.09000 13.35900 32.35200
C  -0.95500 12.96600 33.27700
H  -2.48800 21.21000 29.85800
H  -2.67200 20.73300 23.47200
H  -2.85200 14.24900 23.97700
H  -3.29600 17.02800 31.85600
H  -1.28900 19.41300 31.32400
H  -3.08200 19.49000 33.14000
H  -4.30900 19.56200 31.73600
H  -3.20700 20.88800 32.21900
H  -0.59900 16.39900 31.37800
H  -1.51000 15.95800 32.88900
H  -0.58900 18.68200 33.16000
H  0.78200 17.84600 32.52000
H  -1.70900 24.06000 27.83000
H  -2.40600 23.20600 29.25600
H  -3.43300 23.87300 28.10900
H  -3.12900 24.70900 25.81600
H  -2.09500 25.19400 24.37300
H  -1.26700 24.51100 25.77000
H  -1.89700 18.46800 21.79300
H  -3.60000 16.16200 22.21800
H  -4.74500 17.75900 21.50800
H  -3.59600 18.49400 20.44000
H  -4.25500 19.50800 21.69600
H  -1.04200 16.38400 21.06700
H  -1.72800 14.84200 21.64700
H  -0.32600 16.09700 23.80900
H  0.66000 16.12000 22.33300
H  0.19000 14.68200 23.00800
H  -2.51800 12.08600 24.90500
H  -3.96600 12.01000 25.82900
H  -2.39900 11.58900 26.56200
H  -3.60900 14.18300 30.93400
H  -1.35100 12.93500 34.29200
H  -0.10600 13.64700 33.22900
H  -0.65600 11.96700 32.96200
Mg 29.90800 58.62500 39.67700
C  27.19100 56.51600 38.70900
C  31.98500 56.22100 38.47700
C  32.44100 60.95600 39.91800
C  27.55600 61.32500 39.99700
N  29.56600 56.66600 38.56200
C  28.43800 55.91900 38.47000
C  28.71300 54.41800 38.08300
C  30.26400 54.54600 37.89300
C  30.65300 55.89900 38.40300
C  31.04200 53.34100 38.52900
C  27.87300 53.86300 36.91400
C  27.75800 54.66000 35.66200
H  28.09600 54.11500 34.30100
N  31.96700 58.47300 39.53500
C  32.63300 57.45000 38.90200
C  33.97900 57.79500 38.86900
C  34.17200 59.09100 39.46700
C  32.82500 59.56100 39.71300
C  35.02800 56.78500 38.50300
C  35.49800 59.74600 39.73600
O  36.50500 59.14700 39.44100
C  35.62400 61.03100 40.59400
N  29.88700 60.80100 39.88900
C  31.12800 61.45500 40.05500
C  30.92100 63.00600 40.25000
C  29.34800 63.09700 40.11300
C  28.86600 61.64000 39.96700
C  31.39200 63.61600 41.52700
C  28.86400 63.99700 38.93600
C  27.68500 64.92500 39.22000
N  27.79400 58.84300 39.54600
C  27.04300 60.00100 39.83500
C  25.63900 59.61500 39.66500
C  25.65500 58.22500 39.29900
C  27.02100 57.86700 39.14200
C  24.45600 60.60200 39.68700
C  24.78100 57.15600 38.88400
O  23.55600 57.16000 38.71900
C  25.75300 55.98000 38.56400
C  25.47700 54.93600 39.59000
O  26.08400 54.95100 40.65900
O  24.49000 54.08900 39.13200
C  24.03700 53.04000 40.02600
H  32.52300 55.35000 38.09700
H  33.18300 61.72800 40.13200
H  26.83300 62.13600 39.88100
H  28.49900 53.94100 39.03900
H  30.50000 54.47900 36.83000
H  31.93700 53.00800 38.00300
H  30.33600 52.51800 38.64300
H  31.31600 53.63800 39.54200
H  26.89400 53.85400 37.39400
H  28.19700 52.86000 36.63900
H  28.62900 55.31100 35.74000
H  26.88600 55.31100 35.61300
H  35.74000 57.24200 37.81700
H  34.58900 55.85200 38.14700
H  35.50200 56.53100 39.45100
H  34.92700 61.13500 41.42500
H  35.42700 61.83800 39.88800
H  36.68500 61.15900 40.80700
H  31.39100 63.54300 39.42700
H  28.82500 63.50300 40.97900
H  31.66700 62.89600 42.29800
H  30.59700 64.25700 41.90700
H  32.31900 64.11000 41.23700
H  28.41600 63.27700 38.25100
H  29.67300 64.47700 38.38600
H  26.95900 64.44400 39.87600
H  27.09800 65.06800 38.31200
H  28.05700 65.83200 39.69500
H  24.74200 61.45400 39.07100
H  24.20500 60.88100 40.71100
H  23.65800 60.15000 39.09800
H  25.48100 55.58600 37.58500
H  24.04800 53.43400 41.04200
H  24.81100 52.28600 39.88200
H  23.09000 52.69400 39.61300

