158

Mg 3.29900 -1.69200 43.70300
C  6.48700 -0.16700 43.35100
C  1.96600 1.27800 42.51800
C  0.34200 -3.12200 43.64200
C  4.79000 -4.50300 44.98600
N  4.19400 0.24900 42.82300
C  5.47700 0.70800 42.87900
C  5.57200 2.16000 42.38900
C  4.09400 2.56600 42.26400
C  3.37600 1.25300 42.54300
C  3.61100 3.56300 43.28000
C  6.37500 2.34400 41.07000
C  5.82900 1.62300 39.79600
H  6.58400 2.01000 38.51000
N  1.40500 -1.03500 42.99000
C  1.06900 0.21500 42.52800
C  -0.34300 0.19600 42.13600
C  -0.86100 -0.95900 42.69500
C  0.27800 -1.76500 43.18400
C  -1.06200 1.36000 41.38300
C  -2.41200 -1.25100 42.63200
O  -3.33100 -0.50200 42.18900
C  -2.91000 -2.66400 43.12200
N  2.64600 -3.51400 44.29600
C  1.38100 -3.92500 44.05400
C  1.17900 -5.43400 44.45600
C  2.64800 -5.89700 44.76700
C  3.41600 -4.56500 44.63300
C  0.16000 -5.58300 45.67900
C  3.18300 -7.13700 43.89400
C  2.92800 -8.57700 44.34000
N  5.13700 -2.23400 44.11800
C  5.63800 -3.42500 44.68600
C  7.01200 -3.29000 44.96400
C  7.43200 -2.07800 44.35800
C  6.27100 -1.47000 43.88800
C  7.80800 -4.30300 45.58200
C  8.56900 -1.30400 44.10300
O  9.75700 -1.47600 44.21400
C  7.99700 -0.00300 43.42400
C  8.45100 1.20200 44.26000
O  9.31300 1.95200 43.76900
O  7.88600 1.34900 45.52600
C  8.19300 2.61000 46.15700
H  1.54000 2.24200 42.23200
H  -0.51600 -3.78800 43.52300
H  5.11800 -5.44000 45.44000
H  6.03400 2.78100 43.15600
H  3.77500 2.91400 41.28200
H  4.44500 4.18900 43.59900
H  3.15300 3.02900 44.11200
H  2.87500 4.23300 42.83600
H  7.44000 2.17800 41.23100
H  6.54500 3.40200 40.86700
H  4.78300 1.87800 39.62600
H  5.88400 0.54300 39.93300
H  -2.10000 1.20900 41.08600
H  -0.46000 1.61400 40.51100
H  -1.13300 2.24000 42.02300
H  -2.51500 -2.90100 44.11000
H  -2.76900 -3.44900 42.37900
H  -3.96200 -2.54400 43.37900
H  0.77600 -6.09100 43.68500
H  2.80700 -6.27200 45.77800
H  -0.87600 -5.79000 45.40900
H  0.06500 -4.55700 46.03600
H  0.53900 -6.21100 46.48400
H  4.25100 -6.99100 43.73000
H  2.70700 -7.01500 42.92000
H  2.42600 -9.22700 43.62300
H  2.28500 -8.56100 45.22000
H  3.80400 -9.13400 44.67400
H  7.74900 -4.01000 46.63000
H  8.73700 -4.30700 45.01200
H  7.29300 -5.26400 45.58100
H  8.50000 0.18600 42.47600
H  8.08900 2.53900 47.23900
H  7.57600 3.34900 45.64700
H  9.18200 3.04900 46.02600
Mg 35.37600 1.21300 29.25800
C  33.30500 2.29300 31.85400
C  37.83200 0.87500 31.63700
C  37.73600 0.46500 26.84200
C  32.95300 1.84500 26.96300
N  35.56200 1.76900 31.50800
C  34.55000 1.98200 32.31300
C  34.98600 1.91300 33.76200
C  36.52300 1.75100 33.67100
C  36.68800 1.45800 32.20100
C  37.56100 2.75300 34.32400
C  34.18200 0.88900 34.61600
C  33.97400 1.14300 36.10700
H  34.72000 2.29100 36.74800
N  37.48400 0.83400 29.20700
C  38.25900 0.64400 30.27800
C  39.53500 0.09200 29.85300
C  39.60200 0.17500 28.47200
C  38.23500 0.50300 28.11800
C  40.60200 -0.26800 30.91300
C  40.76900 -0.07400 27.49800
O  40.58100 0.08200 26.29900
C  42.01400 -0.58100 27.94000
N  35.27600 1.15000 27.19900
C  36.41200 0.87400 26.39100
C  36.02100 0.67600 24.92000
C  34.49300 1.10600 24.98700
C  34.21300 1.32600 26.49000
C  36.81000 1.39600 23.79200
C  33.52000 0.15600 24.27800
C  33.12000 -1.14500 25.05600
N  33.50100 2.00700 29.29600
C  32.64400 2.14100 28.27900
C  31.39200 2.54400 28.78900
C  31.56300 2.68200 30.18400
C  32.83700 2.23400 30.49300
C  30.08500 2.66800 28.05800
C  30.90500 2.95300 31.46600
O  29.72200 3.20800 31.77700
C  31.99500 2.63400 32.55600
C  32.00200 3.85500 33.43200
O  32.72100 4.78000 33.34900
O  31.10300 3.66200 34.51100
C  31.06000 4.83100 35.45400
H  38.48000 0.75200 32.50700
H  38.44100 0.09800 26.09400
H  32.16800 2.08600 26.24400
H  34.78000 2.87000 34.24200
H  36.66900 0.79500 34.17400
H  38.20800 2.29000 35.07000
H  36.91600 3.50600 34.77400
H  38.11100 3.36000 33.60500
H  34.71200 -0.06400 34.62300
H  33.21300 0.68800 34.15900
H  34.06800 0.21900 36.67700
H  32.89900 1.31400 36.16500
H  40.20900 -0.37500 31.92400
H  41.50900 0.32700 30.80700
H  41.00600 -1.22900 30.59300
H  42.56100 0.25700 28.37300
H  42.62400 -0.97700 27.12900
H  41.88200 -1.39800 28.64900
H  36.00000 -0.37300 24.62600
H  34.35800 2.06100 24.47800
H  37.07000 0.67800 23.01400
H  37.69900 1.94700 24.10000
H  36.14400 2.14400 23.36300
H  34.01200 -0.21000 23.37700
H  32.66700 0.72300 23.90500
H  33.92600 -1.55300 25.66500
H  32.78500 -1.81100 24.26100
H  32.18800 -1.01200 25.60600
H  29.29800 2.33500 28.73500
H  29.96800 2.08900 27.14200
H  29.90700 3.69600 27.74500
H  31.58600 1.78200 33.09900
H  31.90400 4.73500 36.13600
H  30.12600 4.71700 36.00400
H  31.05400 5.78800 34.93200

