158

Mg 25.14800 -4.87500 45.75500
C  26.69600 -2.14700 44.19000
C  22.36200 -4.08500 43.63500
C  24.09500 -7.95700 46.14100
C  28.30300 -5.71900 47.18400
N  24.65200 -3.27000 44.13500
C  25.44600 -2.30800 43.59800
C  24.76700 -1.43200 42.52100
C  23.32500 -1.97500 42.52300
C  23.43200 -3.16000 43.53600
C  22.18700 -0.90600 42.65900
C  25.46400 -1.40200 41.20400
C  24.74200 -0.69500 39.98000
H  25.34500 -0.98700 38.60100
N  23.44000 -5.90700 45.00700
C  22.42300 -5.37000 44.23100
C  21.35600 -6.39400 44.22300
C  21.76000 -7.54300 44.99100
C  23.16000 -7.16900 45.41500
C  19.99400 -6.08300 43.60800
C  20.88000 -8.73700 45.18900
O  19.77400 -8.80500 44.75500
C  21.45100 -9.98000 45.99200
N  25.98300 -6.54700 46.60400
C  25.29500 -7.70000 46.74000
C  26.19400 -8.77200 47.38000
C  27.55700 -8.08900 47.63000
C  27.31600 -6.70500 47.03300
C  25.55900 -9.43100 48.63900
C  28.76500 -8.84700 46.87200
C  30.09700 -9.00000 47.64200
N  27.16400 -4.12700 45.83300
C  28.26900 -4.50600 46.50500
C  29.18600 -3.42500 46.47500
C  28.67800 -2.52600 45.50900
C  27.39100 -2.98400 45.16000
C  30.49000 -3.38200 47.24400
C  28.96200 -1.28700 44.82800
O  29.88800 -0.51500 44.90100
C  27.74100 -1.08900 43.89700
C  27.21800 0.20900 44.17300
O  26.65000 0.54700 45.18300
O  27.19500 1.03800 43.10300
C  26.65200 2.40000 43.19400
H  21.47900 -3.86500 43.03200
H  23.72400 -8.95900 46.37000
H  29.24700 -5.94900 47.68200
H  24.92200 -0.41700 42.88700
H  23.15400 -2.39000 41.53000
H  21.55600 -0.77500 41.78100
H  22.62800 0.04300 42.96700
H  21.56400 -1.26500 43.47800
H  25.56500 -2.46700 40.99600
H  26.47600 -1.00500 41.28400
H  24.88300 0.37200 40.14900
H  23.67400 -0.91300 39.94600
H  20.01000 -6.31600 42.54300
H  19.85700 -5.01300 43.76300
H  19.14000 -6.65300 43.97300
H  20.67000 -10.73600 46.07600
H  21.70400 -9.63000 46.99300
H  22.25600 -10.49500 45.46700
H  26.24500 -9.61800 46.69500
H  27.68600 -8.00000 48.70900
H  26.14800 -9.23700 49.53600
H  25.53000 -10.51200 48.50300
H  24.53100 -9.10900 48.80600
H  28.96200 -8.25100 45.98100
H  28.45800 -9.85200 46.58300
H  30.19600 -10.01400 48.03000
H  30.13400 -8.32700 48.49800
H  31.05600 -8.78100 47.17200
H  31.32700 -3.07100 46.61800
H  30.74000 -4.40300 47.53000
H  30.44700 -2.65100 48.05200
H  28.06300 -1.04100 42.85600
H  25.96500 2.58900 42.36800
H  27.45300 3.13700 43.24200
H  26.02600 2.49500 44.08100
Mg 6.97300 53.47100 41.24500
C  6.31400 50.16100 40.43600
C  9.87000 53.27400 39.34100
C  7.18000 56.86100 41.39700
C  3.50500 53.76300 42.38000
N  7.89800 51.98400 40.05400
C  7.50700 50.66900 39.90000
C  8.52000 49.98200 38.83700
C  9.79800 50.80300 39.11000
C  9.15100 52.10300 39.52600
C  10.72900 50.33600 40.24100
C  7.94900 50.14800 37.31300
C  8.23200 48.95100 36.49000
H  7.42000 48.67200 35.26900
N  8.46700 54.82300 40.61000
C  9.52000 54.54200 39.81300
C  10.24500 55.71900 39.56600
C  9.59400 56.87100 40.28500
C  8.36000 56.22500 40.83400
C  11.42900 55.65900 38.55900
C  10.12500 58.30800 40.34800
O  11.12900 58.65200 39.74300
C  9.56300 59.37000 41.36500
N  5.51800 55.11300 41.73400
C  5.93500 56.37300 41.80600
C  4.73400 57.24100 42.18900
C  3.65000 56.25200 42.76600
C  4.24200 54.91800 42.21900
C  5.05900 58.45100 43.11400
C  2.13800 56.52600 42.26700
C  1.19200 56.45800 43.48200
N  5.28500 52.24100 41.44400
C  3.98500 52.43600 41.97900
C  3.32700 51.21200 42.05900
C  4.15700 50.24700 41.48800
C  5.32700 50.94500 41.11200
C  1.99300 50.88600 42.54400
C  4.33200 48.79900 41.19600
O  3.62700 47.83000 41.48700
C  5.79700 48.79800 40.45900
C  5.70800 48.00100 39.29100
O  4.80500 48.17200 38.44300
O  6.59100 46.90500 39.25600
C  6.43200 45.94900 38.18400
H  10.81100 53.16000 38.79800
H  7.12000 57.94600 41.28700
H  2.52200 53.92900 42.82700
H  8.71700 48.94300 39.10200
H  10.39900 50.90600 38.20700
H  10.69300 51.04100 41.07100
H  11.74100 50.21500 39.85500
H  10.36000 49.44000 40.74000
H  8.42400 51.00900 36.84300
H  6.88300 50.25000 37.51600
H  8.11400 48.04900 37.09000
H  9.22200 49.23000 36.12900
H  11.29000 54.98000 37.71800
H  12.26600 55.22400 39.10500
H  11.81600 56.59300 38.15000
H  9.04200 58.96400 42.23200
H  8.93200 60.03800 40.77800
H  10.43100 59.91400 41.73900
H  4.33600 57.63200 41.25300
H  3.71400 56.21600 43.85400
H  4.82800 59.38900 42.60900
H  6.13900 58.34900 43.21500
H  4.54600 58.43700 44.07500
H  1.80100 55.87600 41.45900
H  2.04000 57.52300 41.83700
H  1.70100 56.35000 44.44000
H  0.49200 55.63000 43.37600
H  0.65500 57.40000 43.37400
H  1.36200 50.28000 41.89300
H  1.35500 51.76900 42.50900
H  2.16900 50.49500 43.54600
H  6.50500 48.31200 41.13100
H  6.41100 45.00300 38.72400
H  7.33100 45.81300 37.58300
H  5.49200 46.00700 37.63500

