158

Mg 8.32100 3.45600 27.65800
C  9.56800 1.86100 30.45300
C  6.14700 5.32200 29.62700
C  7.15100 4.82700 24.83000
C  9.96400 0.98400 25.65000
N  7.88100 3.54600 29.78200
C  8.58100 2.88000 30.77800
C  8.10300 3.25900 32.12000
C  6.96100 4.28600 31.85200
C  7.00200 4.48100 30.34700
C  5.56300 3.94100 32.40200
C  9.19700 3.86200 32.98200
C  8.72300 4.47400 34.34400
H  9.61200 4.17800 35.54000
N  6.85100 4.86000 27.25400
C  6.03800 5.52100 28.19000
C  5.18600 6.46100 27.53800
C  5.56600 6.42300 26.11800
C  6.60200 5.35800 25.99800
C  4.31500 7.45800 28.38900
C  5.08500 7.22700 24.92400
O  5.64000 7.18800 23.81100
C  4.04000 8.32900 25.17900
N  8.70100 3.12600 25.54600
C  8.06600 3.84000 24.58600
C  8.47100 3.38900 23.15600
C  9.11200 1.98700 23.42800
C  9.33100 2.00600 24.99100
C  7.30000 3.26600 22.07400
C  10.46100 1.75500 22.56000
C  10.54400 0.56600 21.59100
N  9.43600 1.68100 27.92600
C  10.13900 0.89800 27.03500
C  10.84500 -0.07000 27.83000
C  10.78800 0.39300 29.13700
C  9.83400 1.44100 29.18800
C  11.54900 -1.23100 27.32300
C  11.24600 0.05400 30.43600
O  12.02600 -0.84300 30.86500
C  10.42500 1.04100 31.35900
C  9.65100 0.32100 32.34800
O  8.55700 -0.18200 32.21900
O  10.29500 0.40800 33.58200
C  9.65000 -0.33800 34.73700
H  5.45300 5.86800 30.27000
H  6.64000 5.33000 24.00700
H  10.28000 0.21200 24.94500
H  7.72000 2.38000 32.63800
H  7.20800 5.25600 32.28300
H  5.22400 4.75000 33.05000
H  5.55600 3.04900 33.02800
H  4.74300 3.79300 31.70000
H  9.65800 4.69000 32.44300
H  9.92900 3.13400 33.33000
H  7.82200 3.95400 34.66800
H  8.55900 5.54200 34.19900
H  3.37500 7.60500 27.85800
H  4.76900 8.44800 28.41700
H  3.93400 6.98900 29.29600
H  4.49200 9.15400 25.73000
H  3.19100 7.99500 25.77500
H  3.63800 8.48300 24.17800
H  9.24700 4.02700 22.73500
H  8.46200 1.12800 23.26300
H  6.29700 3.62500 22.30400
H  7.32900 2.25900 21.65900
H  7.64000 3.95900 21.30500
H  11.18800 1.72600 23.37100
H  10.76400 2.64200 22.00400
H  10.88300 0.87200 20.60100
H  9.63600 -0.03200 21.52200
H  11.33900 -0.13900 21.83400
H  12.16600 -0.93600 26.47400
H  10.80200 -1.97700 27.05100
H  12.12200 -1.58900 28.17800
H  11.09500 1.72800 31.87500
H  9.13000 -1.26500 34.49600
H  8.88400 0.28100 35.20500
H  10.30300 -0.53500 35.58700
Mg 17.32900 51.13400 25.96000
C  19.23800 50.27500 28.75100
C  14.80000 52.10900 28.20600
C  15.59100 52.16800 23.38700
C  19.66500 49.72200 23.84500
N  17.22300 51.32900 28.27600
C  18.07600 50.88800 29.17500
C  17.54000 51.14700 30.64800
C  16.02100 51.42500 30.46700
C  15.98300 51.64800 28.84200
C  15.09400 50.28900 30.82600
C  18.27400 52.20800 31.41300
C  17.72400 52.57200 32.83700
H  16.77900 51.65800 33.61700
N  15.41500 51.91400 25.84800
C  14.62800 52.36000 26.83200
C  13.67500 53.25000 26.32900
C  13.79700 53.28900 24.87800
C  14.99100 52.43100 24.63800
C  12.60600 53.98100 27.16200
C  13.05000 54.05500 23.78100
O  13.31700 53.87800 22.60200
C  11.78400 54.84500 24.07600
N  17.48600 50.68800 23.87900
C  16.73200 51.49500 23.06000
C  17.28500 51.35400 21.60200
C  18.79800 50.81900 21.83000
C  18.64500 50.34200 23.29100
C  16.46300 50.59600 20.55600
C  19.97300 51.86000 21.62200
C  21.18300 51.35300 20.87600
N  19.13600 50.12500 26.18100
C  19.94400 49.54000 25.27700
C  21.12000 48.97500 25.97100
C  20.88600 49.12700 27.33200
C  19.65100 49.95800 27.40600
C  22.26200 48.41700 25.29000
C  21.37000 48.92900 28.66300
O  22.37800 48.37600 29.10000
C  20.27200 49.60000 29.65600
C  19.62100 48.60400 30.57600
O  18.73600 47.84400 30.30100
O  20.06300 48.83200 31.88700
C  19.31900 48.14500 32.92500
H  13.97000 52.29300 28.89100
H  15.19500 52.66100 22.49700
H  20.44700 49.43600 23.13900
H  17.73400 50.21100 31.17200
H  15.75400 52.36700 30.94500
H  14.17100 50.64800 31.28100
H  15.63600 49.60500 31.47900
H  14.68400 49.75700 29.96800
H  18.37200 53.12800 30.83700
H  19.29100 51.81800 31.46100
H  17.24200 53.52300 32.60900
H  18.55800 52.76300 33.51200
H  12.92600 55.01200 27.30900
H  12.39800 53.48400 28.10900
H  11.62900 53.97400 26.67900
H  11.94900 55.66600 24.77400
H  11.21400 54.11600 24.65200
H  11.06100 54.92900 23.26500
H  17.37200 52.39000 21.27700
H  18.86700 49.92600 21.20900
H  16.55600 51.00900 19.55200
H  15.40200 50.64500 20.80100
H  16.83400 49.57100 20.52800
H  20.17100 52.32900 22.58600
H  19.58000 52.68300 21.02500
H  21.32500 52.01900 20.02500
H  21.24200 50.31600 20.54400
H  22.07500 51.60100 21.45100
H  22.12800 48.38600 24.20900
H  22.32200 47.38900 25.64500
H  23.21000 48.88600 25.55500
H  20.69900 50.36700 30.30200
H  19.14200 48.90700 33.68400
H  20.11800 47.52800 33.33800
H  18.42100 47.56000 32.72900

