158

Mg 35.38200 48.60100 25.57000
C  36.08500 46.93500 28.52100
C  34.00500 51.19000 27.35000
C  34.57100 50.28400 22.61700
C  36.58400 45.92300 23.67400
N  34.98400 48.97300 27.70900
C  35.43700 48.15600 28.75100
C  35.16000 48.87900 30.12900
C  34.27700 50.19000 29.77000
C  34.41100 50.13100 28.20900
C  32.75600 50.17100 30.14500
C  36.44900 49.19000 30.92400
C  36.54200 49.18400 32.43500
H  35.22500 49.15900 33.27600
N  34.43500 50.45400 25.07200
C  33.99800 51.41900 25.97900
C  33.58600 52.65400 25.27300
C  33.73600 52.34400 23.86600
C  34.27900 50.95300 23.82600
C  33.01700 53.81300 26.07000
C  33.38600 53.26800 22.69900
O  33.59000 52.99000 21.53100
C  32.86900 54.66000 22.87100
N  35.45200 48.06600 23.50000
C  35.11400 48.97400 22.47900
C  35.37900 48.33800 21.07200
C  36.20100 47.06000 21.37700
C  36.05600 47.00000 22.95200
C  34.06700 48.12400 20.28800
C  37.68700 47.27800 20.96800
C  38.59400 48.09900 21.88800
N  36.17200 46.75400 25.95200
C  36.62900 45.75600 25.11400
C  37.24800 44.68400 25.99400
C  36.94800 45.07700 27.32200
C  36.33400 46.34500 27.26100
C  37.91400 43.48300 25.37000
C  37.16400 44.67200 28.65700
O  37.73600 43.74800 29.10100
C  36.56300 45.93100 29.53700
C  35.51000 45.30700 30.38500
O  34.37700 44.99400 30.03800
O  36.03200 45.15500 31.68000
C  35.12000 44.78900 32.80400
H  33.53600 51.91300 28.02000
H  34.44700 50.84100 21.68600
H  36.98000 45.05000 23.15200
H  34.53600 48.21200 30.72400
H  34.78600 51.11300 30.04700
H  32.17900 50.14800 29.22100
H  32.52600 51.00200 30.81200
H  32.66700 49.26600 30.74700
H  36.76200 50.16300 30.54500
H  37.24200 48.59000 30.47600
H  37.10200 50.02900 32.83600
H  37.12300 48.27200 32.57900
H  32.74600 54.71000 25.51300
H  33.78200 54.01300 26.82100
H  32.09400 53.55000 26.58700
H  31.79600 54.53800 23.02000
H  32.83200 55.02900 21.84600
H  33.44000 55.28500 23.55900
H  35.93500 49.03700 20.44700
H  35.75900 46.18500 20.90000
H  33.79200 47.07100 20.24500
H  34.24500 48.45800 19.26600
H  33.28800 48.62200 20.86600
H  37.79100 47.74200 19.98700
H  37.93900 46.22700 20.82200
H  38.15800 49.09200 21.99600
H  39.50500 48.21500 21.30100
H  38.97300 47.63100 22.79700
H  38.48800 42.98100 26.14800
H  38.45100 43.77200 24.46700
H  37.00100 42.93800 25.13300
H  37.33300 46.43800 30.11800
H  35.22900 45.51600 33.60900
H  35.57000 43.84400 33.10800
H  34.08700 44.61300 32.50200
Mg -2.04100 34.13600 26.83200
C  -3.81300 32.37500 29.46700
C  -0.52200 36.06200 29.39700
C  -1.27500 36.43400 24.53500
C  -3.85700 32.28800 24.61100
N  -2.29400 34.29900 29.18900
C  -2.97500 33.42400 30.04200
C  -2.71900 33.75100 31.46300
C  -1.78500 35.01300 31.38100
C  -1.48600 35.12800 29.93600
C  -2.49900 36.36500 31.85800
C  -2.08700 32.44400 32.11200
C  -2.79200 31.80200 33.24100
H  -2.01900 31.72700 34.58400
N  -0.85700 35.86800 26.90700
C  -0.26100 36.41800 28.01800
C  0.57600 37.54600 27.53600
C  0.35200 37.61900 26.17200
C  -0.62000 36.64200 25.81200
C  1.50500 38.37100 28.46400
C  1.04800 38.50700 25.21100
O  0.99800 38.39900 23.96800
C  1.95500 39.60100 25.75400
N  -2.39900 34.31600 24.86600
C  -2.07900 35.43300 24.06300
C  -2.66500 35.22200 22.64000
C  -2.97600 33.68700 22.66200
C  -3.06900 33.36700 24.14000
C  -3.79100 36.17600 22.11600
C  -1.98700 32.74000 21.93300
C  -2.48500 32.08300 20.60500
N  -3.40500 32.51100 26.96700
C  -4.09600 31.87700 25.93600
C  -4.86200 30.74600 26.44800
C  -4.79000 30.93000 27.83700
C  -3.91400 32.01000 28.14700
C  -5.67100 29.73300 25.66100
C  -5.31700 30.41600 29.03300
O  -6.07900 29.46900 29.23600
C  -4.65900 31.29000 30.15800
C  -5.80500 31.89000 30.95100
O  -6.39600 32.95800 30.74300
O  -6.15600 31.07600 31.97000
C  -7.22400 31.41800 32.95800
H  0.03000 36.58600 30.18000
H  -1.16500 37.31200 23.89600
H  -4.37400 31.71000 23.84200
H  -3.64800 33.94100 32.00000
H  -0.89800 34.78300 31.97200
H  -3.51200 36.05700 32.11600
H  -2.48300 37.01300 30.98200
H  -2.07600 36.86800 32.72700
H  -1.13400 32.69900 32.57500
H  -1.81900 31.85400 31.23500
H  -3.01700 30.76900 32.97800
H  -3.76800 32.27400 33.35600
H  2.52600 38.28700 28.09100
H  1.36000 37.94400 29.45600
H  1.26600 39.43100 28.54200
H  1.39400 40.15800 26.50400
H  2.31800 40.18500 24.90800
H  2.86900 39.22300 26.21200
H  -1.81000 35.36600 21.98000
H  -4.01300 33.55900 22.35200
H  -4.28900 36.47200 23.03900
H  -4.49100 35.69100 21.43600
H  -3.31000 37.00700 21.60100
H  -1.75900 31.98100 22.68100
H  -1.04100 33.22000 21.68400
H  -1.66300 32.20300 19.90000
H  -3.45700 32.50200 20.34200
H  -2.66000 31.00800 20.63500
H  -5.77700 28.80000 26.21500
H  -5.33700 29.57200 24.63600
H  -6.67700 30.15400 25.64800
H  -4.09500 30.63100 30.81700
H  -6.78500 31.64000 33.93100
H  -7.77300 30.48400 33.08100
H  -7.83700 32.19300 32.49800

