158

Mg 17.06300 -1.15500 27.68400
C  16.32500 1.12000 30.34200
C  18.74400 -3.19600 29.87600
C  17.91700 -2.93500 24.99800
C  15.34700 1.18600 25.57900
N  17.43800 -1.03800 29.88400
C  17.11700 0.01300 30.69500
C  17.66800 -0.34600 32.10500
C  18.58800 -1.62200 31.91200
C  18.22000 -2.01400 30.47700
C  20.07100 -1.33400 32.29600
C  16.58500 -0.35000 33.21400
C  16.91600 0.26100 34.57000
H  18.42900 0.44700 34.98700
N  18.28400 -2.80400 27.49800
C  18.79700 -3.53300 28.50200
C  19.41200 -4.73400 27.91900
C  19.19400 -4.74200 26.47400
C  18.44400 -3.45400 26.25800
C  20.12100 -5.70000 28.79300
C  19.56400 -5.67600 25.36100
O  19.23300 -5.45200 24.16500
C  20.27800 -7.05300 25.68000
N  16.83800 -0.82200 25.57500
C  17.27600 -1.70400 24.62600
C  17.05500 -1.20200 23.19700
C  16.11900 0.10100 23.38400
C  15.98000 0.11200 24.92200
C  18.35600 -0.97900 22.45400
C  14.64700 0.00900 22.73000
C  14.41700 1.06800 21.55100
N  15.98000 0.74300 27.86500
C  15.28200 1.49700 26.99800
C  14.64400 2.60500 27.57700
C  15.09000 2.54500 28.91100
C  15.85900 1.37200 29.05000
C  13.72000 3.70000 26.97400
C  15.03600 3.22500 30.19900
O  14.60800 4.33000 30.45400
C  15.72800 2.24500 31.23100
C  16.66700 3.03600 32.05400
O  17.78400 3.39300 31.74500
O  16.07500 3.43200 33.20400
C  16.90500 4.28200 34.08100
H  19.21800 -3.88500 30.57800
H  18.10700 -3.41200 24.03400
H  14.83200 1.88800 24.92000
H  18.25000 0.56400 32.24600
H  18.32200 -2.38400 32.64500
H  20.32900 -0.29700 32.51100
H  20.67300 -1.51000 31.40400
H  20.30500 -2.07900 33.05600
H  16.38400 -1.38300 33.49900
H  15.62400 0.07600 32.92400
H  16.44300 -0.37200 35.32100
H  16.35100 1.19200 34.51400
H  20.48400 -6.51500 28.16700
H  19.56300 -6.10400 29.63700
H  21.01200 -5.18700 29.15500
H  20.06000 -7.61500 26.58800
H  21.33800 -6.80000 25.65000
H  19.99400 -7.74000 24.88400
H  16.46800 -2.04100 22.82400
H  16.66900 0.98900 23.07300
H  18.18000 -0.04400 21.92100
H  18.42500 -1.82600 21.77200
H  19.11800 -0.93800 23.23200
H  13.92600 0.11700 23.54000
H  14.42300 -0.97300 22.31400
H  14.21100 0.54400 20.61800
H  15.16500 1.85900 21.49500
H  13.53600 1.61500 21.88900
H  12.72500 3.44500 26.60800
H  14.31800 4.02400 26.12200
H  13.63800 4.52200 27.68500
H  14.88100 1.91900 31.83600
H  16.24600 4.56800 34.90100
H  17.20600 5.28000 33.76000
H  17.80300 3.83900 34.51100
Mg 47.98200 15.91700 27.87500
C  45.97600 15.87200 30.71500
C  50.12200 18.13900 29.58500
C  49.76400 16.48600 24.96600
C  45.51300 14.35800 26.12400
N  47.99500 16.90000 29.89400
C  47.19300 16.57500 30.92500
C  47.58300 17.09900 32.27900
C  48.74400 17.99600 31.82500
C  49.00700 17.67800 30.37300
C  48.49500 19.55100 32.10400
C  48.10500 15.92400 33.26400
C  48.20400 16.30500 34.83100
H  47.44500 17.57800 35.27600
N  49.75300 17.02600 27.42300
C  50.48200 17.82500 28.23700
C  51.68800 18.19300 27.57600
C  51.71100 17.57200 26.24200
C  50.38500 16.95200 26.20500
C  52.79800 19.00500 28.24100
C  52.73200 17.54000 25.18500
O  52.59300 16.82700 24.20400
C  54.00400 18.16700 25.43800
N  47.71000 15.38400 25.88500
C  48.51300 15.88000 24.86400
C  47.91600 15.57100 23.50700
C  46.78300 14.55100 23.85000
C  46.63300 14.76000 25.40100
C  47.38400 16.89000 22.87200
C  47.03300 13.08200 23.59300
C  45.94700 12.37400 22.80600
N  46.13600 15.27500 28.26800
C  45.21600 14.64000 27.44800
C  44.04200 14.38000 28.23300
C  44.29900 14.80700 29.53700
C  45.58100 15.39400 29.46400
C  42.85100 13.76000 27.63600
C  43.78100 14.83200 30.79700
O  42.65700 14.42600 31.10400
C  44.86300 15.55600 31.67200
C  44.19200 16.71800 32.31200
O  44.04900 17.81500 31.82600
O  43.74900 16.33300 33.57400
C  42.93000 17.34100 34.24600
H  50.84900 18.71100 30.16500
H  50.28900 16.60100 24.01600
H  44.73000 13.95500 25.47900
H  46.79500 17.69700 32.73600
H  49.65500 17.76800 32.37800
H  47.58400 19.81500 32.64000
H  48.56200 20.07800 31.15200
H  49.23900 20.10600 32.67500
H  49.12400 15.65700 32.98300
H  47.44900 15.05500 33.22100
H  49.28800 16.25900 34.93300
H  47.73900 15.58900 35.50900
H  53.23100 19.68400 27.50600
H  53.63600 18.40700 28.60000
H  52.48000 19.50600 29.15600
H  54.46500 17.62400 26.26300
H  53.80100 19.23500 25.51200
H  54.62400 18.01600 24.55500
H  48.65500 15.14900 22.82500
H  45.89500 15.01000 23.41500
H  47.12600 16.59700 21.85500
H  48.07600 17.72800 22.94600
H  46.48000 17.16700 23.41600
H  47.24100 12.49700 24.48900
H  47.96300 12.97100 23.03400
H  45.97700 12.81800 21.81100
H  44.99700 12.51700 23.32100
H  46.16200 11.30800 22.73700
H  42.66600 13.96400 26.58200
H  41.95400 14.00500 28.20400
H  42.90500 12.68800 27.82600
H  45.21300 14.96600 32.51900
H  41.89900 17.35800 33.89200
H  43.38500 18.32400 34.12400
H  42.87700 17.18900 35.32500

