158

Mg 45.09400 4.34100 45.85200
C  43.32300 7.30900 45.77200
C  42.05000 2.62400 45.20500
C  46.79200 1.54100 45.24400
C  48.03700 6.23300 45.67800
N  43.03900 4.89000 45.39600
C  42.56700 6.17400 45.54700
C  41.03900 6.27700 45.49000
C  40.59000 4.79000 45.34300
C  41.98000 4.01500 45.28200
C  39.63300 4.32300 46.51500
C  40.48100 7.23700 44.21500
C  41.39900 7.41300 42.94400
H  40.76000 7.21000 41.56500
N  44.51900 2.33300 45.41800
C  43.21300 1.84900 45.19100
C  43.22000 0.45400 44.96900
C  44.63300 0.05500 44.93500
C  45.38300 1.32200 45.22600
C  42.02700 -0.39900 44.69500
C  45.21900 -1.38300 44.69100
O  44.46000 -2.32300 44.50000
C  46.79100 -1.55800 44.50100
N  47.17400 3.98000 45.41600
C  47.60000 2.68500 45.45800
C  49.13300 2.63000 45.67500
C  49.51100 4.14100 45.68600
C  48.18500 4.85400 45.55100
C  49.58700 1.93600 47.02900
C  50.53900 4.58300 44.58700
C  51.70100 3.69000 44.15000
N  45.64600 6.44500 45.84400
C  46.88500 7.07600 45.79800
C  46.71200 8.50000 45.95200
C  45.30300 8.67300 46.00500
C  44.74200 7.41300 45.86800
C  47.84600 9.46900 45.90200
C  44.23600 9.59300 46.14900
O  44.24100 10.81100 46.39700
C  42.91600 8.74900 46.07600
C  42.19600 9.06100 47.29600
O  42.24900 8.43200 48.35700
O  41.42300 10.13000 47.14700
C  40.93400 10.88800 48.27900
H  41.04800 2.26900 44.95200
H  47.51000 0.72300 45.15400
H  48.98900 6.75100 45.80700
H  40.55900 6.72900 46.35800
H  40.02300 4.66900 44.42000
H  39.14600 3.42500 46.13600
H  39.03800 5.16800 46.86200
H  40.37900 4.04300 47.26000
H  40.13200 8.20200 44.58300
H  39.53300 6.76200 43.96200
H  42.20200 6.67600 42.96500
H  41.84500 8.40000 42.82400
H  42.12700 -0.70100 43.65200
H  41.00500 -0.08600 44.90900
H  42.26000 -1.32400 45.22200
H  47.07300 -2.59600 44.32400
H  47.20300 -1.34800 45.48800
H  47.09500 -0.94400 43.65300
H  49.59900 2.21000 44.78400
H  50.02100 4.50100 46.58000
H  49.94700 2.64500 47.77500
H  50.34600 1.16700 46.88600
H  48.74800 1.42700 47.50300
H  50.88700 5.59000 44.81700
H  49.94600 4.89000 43.72500
H  51.65400 3.39100 43.10300
H  51.81300 2.79900 44.76700
H  52.64100 4.22900 44.26600
H  48.35500 9.43200 46.86500
H  47.26800 10.36700 45.68300
H  48.63800 9.27100 45.17900
H  42.41600 9.14100 45.19000
H  41.79700 11.46000 48.61800
H  40.76400 10.25500 49.15000
H  40.10400 11.49500 47.91500
Mg 54.81900 25.15200 43.58100
C  52.05300 27.37500 43.22600
C  52.95200 22.76500 41.97900
C  57.62400 23.42800 43.08000
C  56.67200 27.98000 44.72000
N  52.72100 25.09500 42.85300
C  51.83300 26.09000 42.69700
C  50.49000 25.65600 42.01900
C  50.73300 24.08000 42.02300
C  52.19300 23.99800 42.26100
C  49.93200 23.22600 43.09000
C  50.20500 26.24800 40.62000
C  51.25700 27.02900 39.86300
H  51.92800 26.15100 38.74100
N  55.24600 23.38200 42.63100
C  54.29800 22.46300 42.11200
C  54.97500 21.15700 41.91800
C  56.30900 21.30500 42.39200
C  56.47600 22.73700 42.70800
C  54.28300 19.94600 41.27300
C  57.28300 20.13600 42.33300
O  56.90600 19.03300 42.02800
C  58.64300 20.21600 42.87900
N  56.91400 25.64100 43.75100
C  57.87600 24.74200 43.54900
C  59.32100 25.40900 43.70400
C  58.93200 26.84700 44.22100
C  57.44700 26.89600 44.24500
C  60.27500 24.63800 44.61300
C  59.36300 28.00500 43.22300
C  60.26800 29.14100 43.69000
N  54.46600 27.22000 44.10100
C  55.27100 28.16200 44.65700
C  54.48300 29.32200 44.99700
C  53.19200 29.03200 44.46300
C  53.28000 27.81800 43.85300
C  54.88600 30.38300 45.81000
C  51.85500 29.51300 44.25500
O  51.37700 30.56000 44.52800
C  50.99500 28.46900 43.40600
C  50.67600 29.27500 42.14300
O  51.45200 29.99800 41.52600
O  49.33700 29.06900 41.84400
C  48.72400 29.96000 40.74800
H  52.29200 22.13300 41.38100
H  58.51300 22.79700 43.13800
H  57.27700 28.76200 45.18300
H  49.63100 25.84200 42.66300
H  50.56800 23.58900 41.06400
H  49.65100 22.25200 42.68900
H  48.99300 23.74900 43.27300
H  50.51300 23.12100 44.00600
H  49.32200 26.88700 40.64200
H  49.98400 25.47000 39.88900
H  52.10600 27.38600 40.44500
H  50.69100 27.86100 39.44400
H  54.81800 19.42400 40.48000
H  53.50400 20.39600 40.65700
H  53.75000 19.29500 41.96500
H  59.14900 19.33700 43.27800
H  58.48900 20.90000 43.71400
H  59.23100 20.72500 42.11500
H  59.81500 25.50100 42.73700
H  59.25400 27.13500 45.22100
H  60.48900 25.13500 45.55900
H  61.19500 24.27400 44.15700
H  59.71400 23.74500 44.88700
H  58.50800 28.42400 42.69300
H  59.97000 27.57600 42.42600
H  61.31600 29.08700 43.39300
H  60.29600 29.27500 44.77100
H  59.88100 29.99000 43.12700
H  55.33000 31.20600 45.25100
H  55.54600 30.07700 46.62200
H  53.94300 30.81300 46.14900
H  50.07100 28.11600 43.86300
H  47.73000 30.09900 41.17100
H  48.55600 29.43100 39.81000
H  49.18300 30.93800 40.60300

