158

Mg 48.31200 35.56800 28.21400
C  46.31900 34.14100 30.79500
C  48.83100 38.19000 30.08600
C  49.73300 37.05100 25.53200
C  47.44500 32.80400 26.17000
N  47.87200 35.96000 30.21100
C  47.07700 35.31300 31.13900
C  47.09000 35.96600 32.52700
C  47.49300 37.44300 32.15600
C  48.06600 37.17100 30.67100
C  46.33600 38.44100 32.10300
C  48.08700 35.32400 33.52500
C  47.65900 35.20300 34.97900
H  48.53800 35.84000 36.10700
N  49.26900 37.41700 27.85800
C  49.41200 38.37100 28.84300
C  50.11200 39.48400 28.26600
C  50.45100 39.09000 26.89500
C  49.72500 37.83000 26.69900
C  50.38600 40.78400 28.95300
C  51.26600 39.93900 25.82900
O  51.38800 39.63200 24.67300
C  51.91700 41.26700 26.17000
N  48.66700 34.95500 26.10200
C  49.31900 35.73800 25.24700
C  49.50200 35.01600 23.87900
C  48.95900 33.59800 24.25000
C  48.22300 33.79100 25.54900
C  48.79800 35.72200 22.63700
C  50.01500 32.49000 24.38500
C  50.15800 31.29700 23.39100
N  47.09500 33.77900 28.34400
C  46.79700 32.83000 27.45000
C  45.97400 31.74800 28.13400
C  45.71400 32.29400 29.37200
C  46.44800 33.54800 29.48100
C  45.57000 30.36500 27.65800
C  44.96100 32.09500 30.63900
O  44.18000 31.15600 30.90000
C  45.28800 33.34000 31.53100
C  45.72200 32.90100 32.85400
O  46.79200 32.45600 33.13300
O  44.70100 33.11000 33.78400
C  44.92300 32.54300 35.08800
H  48.86900 39.14900 30.60800
H  50.35700 37.39800 24.70500
H  47.25400 31.94000 25.53000
H  46.07900 35.91900 32.93300
H  48.22500 37.94500 32.78800
H  46.45500 39.24100 32.83500
H  45.36600 37.95600 32.21100
H  46.33000 38.84100 31.09000
H  48.99900 35.91700 33.45400
H  48.27700 34.30700 33.18200
H  47.73500 34.14500 35.23000
H  46.69400 35.67100 35.17400
H  49.71800 41.61500 28.72500
H  51.39800 41.10800 28.71100
H  50.42000 40.48400 30.00000
H  52.28500 41.79300 25.28900
H  52.63400 41.11100 26.97700
H  51.10000 41.93900 26.43300
H  50.56500 35.08900 23.65100
H  48.21800 33.26000 23.52500
H  49.42300 36.42200 22.08400
H  47.92200 36.27600 22.97500
H  48.44300 35.05700 21.84900
H  50.12800 32.16800 25.42100
H  51.01300 32.88600 24.19800
H  50.14800 30.40300 24.01400
H  51.08100 31.24900 22.81300
H  49.34100 31.33000 22.67000
H  46.06400 29.61600 28.27800
H  45.83700 30.29100 26.60400
H  44.49300 30.39700 27.82200
H  44.47500 34.04900 31.68600
H  44.02300 32.00800 35.38900
H  45.13800 33.30300 35.83900
H  45.75500 31.83900 35.09300
Mg -5.24000 24.95000 26.41200
C  -3.75600 26.40500 29.19700
C  -6.94300 22.78000 28.49800
C  -5.96400 22.89900 23.75600
C  -3.11400 26.85900 24.33400
N  -5.32400 24.64800 28.57600
C  -4.66100 25.37300 29.56500
C  -5.09800 24.96100 30.99100
C  -6.14800 23.73200 30.74200
C  -6.10800 23.69700 29.19500
C  -5.71500 22.40000 31.37700
C  -5.64000 26.10800 31.88300
C  -5.52800 26.11800 33.40700
H  -5.17000 24.80000 34.08400
N  -6.45400 23.29800 26.14800
C  -7.14100 22.60700 27.09600
C  -8.09400 21.67800 26.46900
C  -7.76100 21.64300 25.10000
C  -6.69800 22.65800 24.92300
C  -9.33400 21.04500 27.19700
C  -8.40300 20.82300 24.01400
O  -8.08100 21.00600 22.87200
C  -9.39000 19.71200 24.35700
N  -4.54500 24.81500 24.34800
C  -5.02400 23.87500 23.49400
C  -4.40900 24.08800 22.05300
C  -3.62700 25.42800 22.32000
C  -3.80400 25.76000 23.73600
C  -3.61400 22.81600 21.63800
C  -4.12500 26.64600 21.33200
C  -3.05600 27.44500 20.59700
N  -3.79900 26.42000 26.70900
C  -3.03900 27.14700 25.74300
C  -2.08400 27.95300 26.42900
C  -2.33800 27.76300 27.79100
C  -3.41700 26.78100 27.88600
C  -1.00000 28.75300 25.81700
C  -1.94100 28.02700 29.13700
O  -1.10500 28.88700 29.55600
C  -2.83600 27.14300 30.11000
C  -1.95000 26.13400 30.84700
O  -1.53600 25.08700 30.40700
O  -1.73200 26.52400 32.20000
C  -0.86000 25.66700 32.93800
H  -7.53600 22.12300 29.13800
H  -6.06100 22.15900 22.95800
H  -2.50800 27.52400 23.71600
H  -4.22200 24.59000 31.52300
H  -7.18200 23.93900 31.01800
H  -6.60500 21.80700 31.58900
H  -5.13800 22.54800 32.28900
H  -5.16400 21.78300 30.66700
H  -6.69600 25.89400 31.72100
H  -5.12600 27.00100 31.52900
H  -6.48000 26.45100 33.82000
H  -4.86300 26.87100 33.82900
H  -10.14400 21.18800 26.48200
H  -9.64900 21.71400 27.99900
H  -9.24600 20.01900 27.55200
H  -9.16400 19.23800 25.31200
H  -9.47500 19.03400 23.50800
H  -10.37100 20.18500 24.39400
H  -5.32800 24.19500 21.47700
H  -2.55700 25.26200 22.19400
H  -2.68100 22.96500 21.09400
H  -4.27900 22.24200 20.99300
H  -3.35200 22.26700 22.54300
H  -4.80000 27.28500 21.90200
H  -4.73300 26.09000 20.61800
H  -2.04300 27.05200 20.68000
H  -3.06300 28.43400 21.05400
H  -3.28100 27.40300 19.53200
H  -0.15500 28.09900 25.60400
H  -0.72100 29.46400 26.59500
H  -1.18700 29.18600 24.83400
H  -3.35700 27.79600 30.81000
H  0.15900 26.04100 33.04200
H  -0.88100 24.65500 32.53400
H  -1.19300 25.53200 33.96800

