158

Mg -0.71700 18.08400 27.39000
C  -1.33600 15.80200 30.09500
C  -1.49500 20.57600 29.40500
C  -0.60400 19.96700 24.66900
C  -0.56600 15.14600 25.28500
N  -1.32900 18.19500 29.51400
C  -1.29900 17.16200 30.49700
C  -1.49100 17.70100 31.88700
C  -1.75000 19.21000 31.56700
C  -1.61600 19.31700 30.05700
C  -3.06000 19.79200 32.17400
C  -0.40000 17.41200 33.01300
C  -1.01500 16.90100 34.39500
H  -0.18600 17.25300 35.65600
N  -0.76700 20.04800 27.07200
C  -1.09300 20.95500 28.08300
C  -0.93000 22.30200 27.54300
C  -0.69800 22.14700 26.12300
C  -0.64900 20.70700 25.88500
C  -1.21200 23.57700 28.39700
C  -0.58500 23.17700 25.03800
O  -0.41900 22.94100 23.87800
C  -0.72300 24.62800 25.38000
N  -0.66200 17.61000 25.26600
C  -0.50300 18.63600 24.38400
C  -0.45100 17.97900 22.99000
C  -0.04800 16.57400 23.24400
C  -0.50100 16.43400 24.66000
C  -1.66700 18.29600 22.03100
C  1.57400 16.37600 23.05200
C  2.51000 17.25600 23.92000
N  -0.99200 16.00200 27.52700
C  -0.98400 14.93500 26.60100
C  -1.20800 13.69000 27.15300
C  -1.35100 13.96900 28.47000
C  -1.25700 15.35700 28.72900
C  -1.31600 12.41400 26.35300
C  -1.61700 13.31200 29.75900
O  -1.81300 12.08700 30.03600
C  -1.60300 14.52700 30.83500
C  -0.58500 14.16600 31.90000
O  0.63900 14.18400 31.77700
O  -1.29900 13.62000 32.94400
C  -0.52500 12.91800 34.00100
H  -1.73700 21.44600 30.01900
H  -0.54500 20.67000 23.83600
H  -0.32400 14.30700 24.62800
H  -2.42600 17.29600 32.27300
H  -0.96100 19.79000 32.04600
H  -3.70200 20.16900 31.37800
H  -2.93100 20.71700 32.73600
H  -3.59600 19.04100 32.75300
H  0.19400 18.31600 33.14400
H  0.31500 16.64500 32.71500
H  -1.14300 15.82300 34.49000
H  -1.93100 17.49000 34.44400
H  -1.62000 23.41400 29.39500
H  -1.93900 24.25900 27.95400
H  -0.40400 24.26900 28.63500
H  -0.72800 25.24800 24.48400
H  0.00200 24.99600 26.10700
H  -1.75000 24.66300 25.74500
H  0.34200 18.55600 22.51500
H  -0.67500 15.85500 22.71600
H  -2.02700 17.45100 21.44400
H  -1.12100 18.89200 21.29900
H  -2.47000 18.79100 22.57700
H  1.77800 16.59600 22.00400
H  1.83200 15.32300 23.16800
H  2.97400 16.67900 24.72000
H  2.02700 18.03900 24.50500
H  3.31000 17.65700 23.29700
H  -0.34300 12.01400 26.06800
H  -1.80100 12.60000 25.39500
H  -1.91300 11.65900 26.86500
H  -2.62700 14.53200 31.20900
H  -1.05000 13.25400 34.89600
H  0.53100 13.14900 34.14000
H  -0.68100 11.84200 33.92900
Mg 9.25500 4.12100 27.94400
C  10.28400 2.45100 30.89400
C  7.46300 6.29700 29.91600
C  8.06500 5.34800 25.20300
C  11.16100 1.75600 26.09900
N  8.75400 4.19300 30.09700
C  9.41100 3.51400 31.15700
C  9.00700 4.08000 32.58800
C  8.06000 5.26800 32.17100
C  8.06500 5.27000 30.61300
C  6.60000 5.35200 32.76700
C  10.29700 4.38300 33.38500
C  10.12800 5.26500 34.63400
H  10.70600 4.78600 35.93700
N  8.04100 5.70700 27.57400
C  7.34800 6.49700 28.47800
C  6.42600 7.38900 27.83700
C  6.66200 7.16000 26.43100
C  7.62200 6.02100 26.32400
C  5.37300 8.29000 28.56400
C  6.13200 7.89600 25.28100
O  6.23800 7.62700 24.08900
C  5.39900 9.19700 25.63100
N  9.56500 3.54700 25.97600
C  8.94400 4.32400 25.08600
C  9.29600 3.82300 23.66000
C  10.53300 2.84500 23.90400
C  10.43700 2.71100 25.39300
C  8.05600 3.09800 23.03500
C  11.86400 3.54000 23.51000
C  12.84200 2.60600 22.79100
N  10.41100 2.36500 28.35700
C  11.08900 1.51200 27.45700
C  11.61600 0.47000 28.23300
C  11.42100 0.83100 29.55000
C  10.67400 1.98400 29.63100
C  12.34800 -0.68700 27.59200
C  11.80800 0.47400 30.88700
O  12.47000 -0.47200 31.29000
C  11.07500 1.55100 31.81500
C  10.22100 0.90100 32.81000
O  9.08600 0.46400 32.62500
O  10.91700 0.77800 33.99200
C  10.31000 -0.05300 34.98300
H  6.97200 7.11200 30.45200
H  7.66500 5.77000 24.27900
H  11.71500 0.97700 25.57300
H  8.44400 3.23400 32.98500
H  8.43900 6.23800 32.49300
H  6.21500 4.34100 32.63400
H  5.97400 6.16600 32.40300
H  6.59200 5.37700 33.85600
H  10.82900 4.98300 32.64600
H  10.76400 3.43900 33.66500
H  9.08300 5.53700 34.77900
H  10.65700 6.19800 34.44000
H  5.40500 7.93500 29.59400
H  4.39700 8.08600 28.12200
H  5.54100 9.36500 28.51300
H  4.37200 8.96200 25.91100
H  5.45600 9.78300 24.71400
H  5.88500 9.62000 26.51000
H  9.61700 4.62700 22.99900
H  10.41600 1.86800 23.43500
H  7.16200 3.15300 23.65600
H  8.38300 2.08200 22.81300
H  7.79000 3.56900 22.08900
H  12.47700 4.00100 24.28500
H  11.59300 4.35700 22.84100
H  13.54600 2.45100 23.60900
H  13.40500 2.99200 21.94100
H  12.37700 1.69500 22.41500
H  12.22100 -1.50600 28.29900
H  13.43300 -0.61600 27.66300
H  11.87100 -0.87100 26.62900
H  11.87100 2.10600 32.31200
H  9.74300 0.64000 35.60600
H  11.09100 -0.49600 35.60000
H  9.68200 -0.87800 34.64700

