158

Mg 24.16400 -5.36000 44.97000
C  26.34300 -2.96300 43.49300
C  21.63300 -4.11700 42.92600
C  22.56400 -8.22400 45.40300
C  27.08400 -6.94800 46.35100
N  24.03700 -3.69200 43.47200
C  25.01700 -2.92100 42.99000
C  24.52900 -2.00200 41.90500
C  22.90600 -2.04800 42.01400
C  22.82900 -3.37600 42.81300
C  22.23300 -0.99000 42.91600
C  25.08300 -2.59800 40.53900
C  25.57400 -1.64700 39.48300
H  25.05000 -1.79500 38.03800
N  22.36700 -6.02600 44.39400
C  21.43100 -5.36800 43.59200
C  20.25700 -6.22300 43.46000
C  20.50000 -7.45500 44.15800
C  21.89400 -7.28300 44.65300
C  19.00200 -5.81600 42.65100
C  19.46700 -8.51000 44.39600
O  18.35600 -8.38000 43.85800
C  19.64000 -9.60200 45.36300
N  24.72000 -7.25900 45.88200
C  23.83500 -8.28600 45.91300
C  24.46800 -9.46100 46.60000
C  25.75200 -8.92300 47.18600
C  25.91100 -7.64800 46.42200
C  23.46100 -10.17000 47.64400
C  27.02600 -9.84600 46.94900
C  27.84600 -10.22900 48.19500
N  26.25100 -4.98300 45.08300
C  27.29400 -5.74300 45.65300
C  28.52000 -4.99600 45.50600
C  28.17500 -3.86900 44.69400
C  26.78500 -3.96400 44.40200
C  29.85000 -5.35100 46.00900
C  28.67100 -2.67800 44.04700
O  29.78500 -2.17600 44.09400
C  27.53500 -2.08200 43.14700
C  27.18900 -0.67700 43.59500
O  26.64600 -0.24600 44.56500
O  27.61500 0.11000 42.59500
C  27.38500 1.57000 42.69500
H  20.78300 -3.68800 42.39200
H  22.01700 -9.13100 45.66500
H  27.97400 -7.42300 46.76900
H  24.92200 -0.99100 42.01200
H  22.41000 -2.04700 41.04400
H  21.45400 -0.43600 42.39200
H  23.01600 -0.30500 43.24100
H  21.73500 -1.43100 43.78000
H  24.34800 -3.27300 40.10000
H  25.97300 -3.09600 40.92300
H  26.65200 -1.78100 39.57700
H  25.38000 -0.62800 39.81900
H  18.78100 -6.53600 41.86300
H  19.10700 -4.85200 42.15400
H  18.04300 -5.76200 43.16700
H  20.11800 -9.25700 46.28100
H  20.20200 -10.36200 44.82000
H  18.65500 -10.00800 45.59200
H  24.77800 -10.24900 45.91400
H  25.79700 -8.67900 48.24700
H  22.51700 -9.64700 47.79600
H  23.80400 -10.40100 48.65200
H  23.21600 -11.13800 47.20500
H  27.70400 -9.48300 46.17700
H  26.69200 -10.77700 46.49100
H  28.81000 -9.72700 48.28600
H  27.95500 -11.31400 48.22000
H  27.23300 -9.96400 49.05600
H  29.83600 -5.33100 47.09900
H  30.63700 -4.70600 45.61600
H  30.08900 -6.31700 45.56500
H  27.70900 -2.05000 42.07200
H  27.90900 2.00100 41.84200
H  27.75400 1.87100 43.67600
H  26.30200 1.67200 42.63000
Mg -1.67100 34.43100 27.27700
C  -3.05300 32.53800 29.87500
C  0.15500 36.14100 29.59900
C  -0.33700 36.11500 24.70000
C  -3.47900 32.58800 25.05200
N  -1.65000 34.48200 29.41300
C  -2.24600 33.61900 30.29800
C  -1.93100 34.02900 31.73900
C  -0.97200 35.24000 31.59200
C  -0.86200 35.37100 30.09900
C  -1.61300 36.51300 32.10100
C  -1.29100 32.87700 32.53600
C  -0.94000 33.25400 34.04300
H  -1.43200 32.36400 35.22100
N  -0.25700 35.91700 27.19400
C  0.42400 36.42000 28.24300
C  1.55500 37.29400 27.74200
C  1.39300 37.32500 26.31500
C  0.20400 36.42800 25.99400
C  2.49900 38.09300 28.71600
C  2.24200 38.03000 25.40600
O  2.13800 37.97600 24.20500
C  3.41900 38.78800 25.82200
N  -1.98100 34.48000 25.15200
C  -1.31600 35.24700 24.27700
C  -1.53400 34.81600 22.80100
C  -2.34500 33.56900 22.99000
C  -2.63700 33.49400 24.51700
C  -2.27400 35.87300 21.93400
C  -1.49200 32.47800 22.38200
C  -0.50000 31.78200 23.29700
N  -3.03500 32.93600 27.37300
C  -3.68600 32.26900 26.34800
C  -4.62200 31.21100 26.91700
C  -4.37700 31.27600 28.30400
C  -3.38700 32.28800 28.50500
C  -5.59400 30.39600 26.19600
C  -4.61100 30.58500 29.56800
O  -5.33400 29.65300 29.82400
C  -3.72500 31.31000 30.62100
C  -4.73900 31.67700 31.67300
O  -5.84200 32.20000 31.53800
O  -4.23100 31.25100 32.87900
C  -5.10700 31.38200 34.09600
H  0.73800 36.63700 30.37800
H  0.27500 36.58000 23.92400
H  -3.80300 31.91100 24.25900
H  -2.93200 34.18900 32.14000
H  -0.00300 35.10800 32.07300
H  -2.54600 36.30700 32.62500
H  -1.72500 37.22500 31.28300
H  -0.99800 37.03500 32.83500
H  -0.27200 32.72500 32.18000
H  -1.88600 31.97000 32.43500
H  -1.35500 34.23700 34.26200
H  0.14200 33.37100 34.10400
H  2.43000 37.74600 29.74700
H  2.22800 39.14500 28.63400
H  3.52900 37.84600 28.45900
H  4.01400 39.01300 24.93700
H  4.01800 38.22000 26.53400
H  3.14800 39.74000 26.27900
H  -0.51800 34.70900 22.42300
H  -3.30200 33.47600 22.47700
H  -1.56400 36.17100 21.16300
H  -2.63300 36.75000 22.47400
H  -3.01600 35.32700 21.35200
H  -0.77700 32.83800 21.64200
H  -2.11800 31.68300 21.97800
H  -0.57500 32.11300 24.33300
H  0.53000 32.08700 23.11400
H  -0.37500 30.72100 23.08000
H  -5.23500 29.37200 26.29500
H  -5.52400 30.49800 25.11300
H  -6.59400 30.47900 26.62200
H  -2.98900 30.64000 31.06500
H  -5.81500 32.17400 33.85200
H  -4.41300 31.56700 34.91500
H  -5.60600 30.45400 34.37500

