158

Mg 26.93300 51.20700 25.87000
C  25.02300 52.34500 28.55600
C  29.34700 50.30900 28.12100
C  28.73700 50.18800 23.29500
C  24.75800 52.83100 23.74800
N  27.15100 51.33200 28.10700
C  26.20300 51.76600 28.91800
C  26.60300 51.50800 30.41800
C  28.04200 50.92700 30.27500
C  28.22300 50.87500 28.77300
C  29.22200 51.75800 31.01000
C  25.57100 50.57700 31.16500
C  24.91800 51.25800 32.42200
H  24.93700 50.56800 33.83200
N  28.72200 50.25200 25.73700
C  29.62900 50.12900 26.74500
C  30.81400 49.45700 26.21500
C  30.60300 49.23000 24.85100
C  29.32300 49.81300 24.56800
C  31.97000 49.03800 27.18000
C  31.48500 48.60700 23.82300
O  31.13900 48.39000 22.61900
C  32.86300 48.26500 24.12000
N  26.88300 51.59000 23.84200
C  27.64800 50.93600 22.97000
C  27.29600 51.23800 21.49000
C  25.92900 52.00300 21.69100
C  25.87700 52.17100 23.19000
C  28.38500 52.03600 20.75000
C  24.63600 51.26500 21.16900
C  24.10100 51.89000 19.90700
N  25.24100 52.39800 26.06700
C  24.44000 52.97800 25.10000
C  23.31900 53.68700 25.70300
C  23.44100 53.41600 27.11700
C  24.62600 52.67000 27.23100
C  22.22300 54.43000 24.99300
C  22.89600 53.63000 28.44300
O  21.93600 54.22600 28.84700
C  23.97300 52.98100 29.40500
C  24.46700 53.95700 30.34400
O  25.33600 54.75700 30.13000
O  23.71500 53.96600 31.50400
C  23.96400 54.76600 32.69300
H  29.99000 49.93700 28.92200
H  29.35700 49.86700 22.45500
H  23.96400 53.17500 23.08200
H  26.62300 52.49200 30.88700
H  27.99400 49.88900 30.60400
H  29.93800 52.28700 30.38100
H  29.64500 50.93000 31.57900
H  28.80500 52.52500 31.66200
H  26.09000 49.72900 31.61100
H  24.81400 50.17700 30.49100
H  23.85800 51.26900 32.16700
H  25.22100 52.29600 32.55300
H  32.92500 49.44500 26.84600
H  32.19500 47.97300 27.12400
H  31.90300 49.34600 28.22300
H  33.23000 49.23600 24.45300
H  33.43300 47.87200 23.27800
H  33.09600 47.56800 24.92500
H  27.07500 50.33700 20.91800
H  25.94800 52.98500 21.21900
H  28.87000 51.36000 20.04600
H  29.01600 52.52500 21.49200
H  27.92800 52.84000 20.17300
H  23.88700 51.30300 21.96100
H  24.94000 50.23400 20.98400
H  23.02600 51.97600 20.06200
H  24.16500 51.23900 19.03500
H  24.56500 52.82800 19.60100
H  22.31300 54.43500 23.90600
H  22.39000 55.46300 25.29900
H  21.23600 54.08600 25.30300
H  23.58500 52.08200 29.88300
H  24.27500 55.76200 32.37800
H  24.73400 54.38200 33.36300
H  23.02400 54.73400 33.24400
Mg 17.37600 53.51900 26.39100
C  19.23200 51.74100 28.81100
C  15.15400 54.29600 28.97700
C  15.39200 54.93400 24.02100
C  19.44500 52.20200 23.95700
N  17.20500 53.03900 28.65800
C  18.11500 52.35100 29.47200
C  17.88900 52.65500 30.91700
C  16.42100 53.15500 30.94400
C  16.26200 53.54000 29.39600
C  15.32200 52.22100 31.43100
C  18.95900 53.58600 31.56300
C  19.26000 53.34600 33.06200
H  18.10100 52.67900 33.87000
N  15.57500 54.57400 26.45800
C  14.84700 54.78300 27.62100
C  13.72600 55.55600 27.27000
C  13.74600 55.83100 25.88100
C  14.94500 55.15500 25.34300
C  12.69100 56.06200 28.40700
C  12.81400 56.60100 25.09800
O  12.92200 56.71400 23.89700
C  11.64700 57.34500 25.76900
N  17.28700 53.38200 24.23800
C  16.48500 54.19900 23.53500
C  16.89500 54.27200 22.03700
C  18.30900 53.53400 22.06900
C  18.34200 52.91000 23.51200
C  15.90900 53.74000 20.96900
C  19.58300 54.37600 21.70200
C  20.54600 53.85600 20.63800
N  18.97700 52.18500 26.36300
C  19.71900 51.82000 25.27400
C  20.80400 50.98000 25.79300
C  20.60200 50.87800 27.17800
C  19.49100 51.62700 27.44900
C  21.95400 50.52600 24.88000
C  21.15000 50.38700 28.37300
O  22.09000 49.64800 28.62100
C  20.29200 50.95800 29.44800
C  19.73300 49.93900 30.27200
O  18.97400 49.06700 29.87200
O  20.04500 50.10800 31.60400
C  19.66000 48.91900 32.41200
H  14.40000 54.62000 29.69800
H  14.99000 55.47800 23.16300
H  20.24800 51.97100 23.25400
H  17.84800 51.71600 31.46900
H  16.40800 54.05700 31.55600
H  15.04400 51.47600 30.68500
H  14.46800 52.80000 31.78200
H  15.82200 51.62900 32.19800
H  18.58400 54.60800 31.61800
H  19.88500 53.56100 30.98800
H  19.49000 54.32200 33.48800
H  20.14000 52.70900 32.96800
H  12.50000 57.12400 28.24800
H  12.96800 55.92800 29.45300
H  11.76800 55.48300 28.39000
H  12.05300 57.99300 26.54700
H  11.11900 56.54900 26.29300
H  11.05300 57.86200 25.01600
H  17.09500 55.33800 21.93100
H  18.30700 52.71700 21.34700
H  14.88100 53.71200 21.33000
H  16.24500 52.74900 20.66500
H  15.88600 54.39800 20.10000
H  20.23400 54.42600 22.57500
H  19.30600 55.42600 21.60800
H  21.49200 53.68200 21.15100
H  20.78300 54.58600 19.86500
H  20.12700 52.97300 20.15600
H  22.09600 51.10100 23.96500
H  21.87900 49.45300 24.70400
H  22.83500 50.58100 25.51900
H  20.90100 51.63700 30.04500
H  19.87500 49.05500 33.47200
H  20.14400 48.09400 31.89000
H  18.59100 48.71600 32.48200

