158

Mg 8.69000 2.29400 27.70900
C  10.09900 0.60700 30.53900
C  7.27500 4.49300 29.83700
C  6.95100 3.42300 25.15200
C  9.93300 -0.40400 25.68800
N  8.64500 2.44800 29.85000
C  9.32900 1.74500 30.79300
C  9.27100 2.35000 32.15300
C  8.19700 3.37400 31.94800
C  8.07800 3.51100 30.43600
C  6.86000 3.24100 32.78800
C  10.60300 2.93500 32.62600
C  10.92900 2.82700 34.10100
H  9.85300 2.80000 35.23600
N  7.33200 3.76700 27.51200
C  6.93000 4.63300 28.47100
C  6.12000 5.63200 27.95300
C  6.06900 5.44700 26.54300
C  6.74300 4.10200 26.35700
C  5.30200 6.66700 28.78300
C  5.38600 6.32800 25.40200
O  5.27600 5.98900 24.20700
C  4.79300 7.68700 25.83000
N  8.39700 1.53200 25.63600
C  7.68600 2.24600 24.81800
C  7.84300 1.70200 23.35700
C  8.82200 0.54600 23.59000
C  9.18700 0.61800 24.99600
C  6.49800 1.38300 22.67200
C  10.12900 0.69400 22.72000
C  10.50700 -0.44700 21.78200
N  9.75000 0.46500 27.97800
C  10.11400 -0.51500 27.09500
C  10.82100 -1.53700 27.84100
C  10.88800 -1.08200 29.20400
C  10.16900 0.07700 29.23100
C  11.48900 -2.76300 27.24700
C  11.43400 -1.40000 30.51200
O  12.21600 -2.26900 30.82200
C  10.96400 -0.24700 31.41600
C  10.02400 -0.80300 32.45100
O  8.86200 -1.11200 32.17700
O  10.57100 -0.82400 33.74700
C  9.61700 -1.19600 34.79300
H  7.00500 5.29700 30.52500
H  6.41600 3.89300 24.32300
H  10.30000 -1.21800 25.05900
H  8.93700 1.60800 32.87800
H  8.53200 4.33000 32.35300
H  5.97500 2.99200 32.20200
H  6.70900 4.22400 33.23500
H  7.00400 2.41500 33.48400
H  10.66500 4.00900 32.45500
H  11.40200 2.36100 32.15600
H  11.70500 3.54000 34.37800
H  11.34100 1.81800 34.13000
H  5.79000 7.57800 28.43600
H  5.41300 6.50500 29.85500
H  4.26400 6.65200 28.45100
H  5.57100 8.42400 26.02800
H  4.01900 7.50500 26.57600
H  4.24400 8.12200 24.99400
H  8.21200 2.52100 22.73900
H  8.40900 -0.45500 23.46600
H  6.54400 0.39900 22.20500
H  6.24900 2.10400 21.89300
H  5.69200 1.34900 23.40400
H  11.00600 0.75600 23.36500
H  10.21300 1.61200 22.13800
H  9.65600 -1.10700 21.61200
H  11.35100 -1.08900 22.03600
H  10.83000 -0.00700 20.83900
H  12.46700 -2.44400 26.88700
H  10.82300 -3.28500 26.56000
H  11.69100 -3.54100 27.98300
H  11.82500 0.29800 31.80400
H  9.16500 -2.18200 34.69000
H  9.00600 -0.29400 34.83600
H  10.24500 -1.18900 35.68300
Mg 36.51000 49.51900 24.85800
C  36.28400 47.80800 27.97400
C  35.58900 52.35700 26.72100
C  36.63300 51.24900 22.05800
C  37.14500 46.57000 23.29300
N  35.89000 49.97100 27.10700
C  36.01900 49.14600 28.17000
C  35.86400 49.91900 29.48800
C  35.26600 51.30100 29.03300
C  35.61900 51.22400 27.53700
C  33.77000 51.44600 29.27800
C  37.25700 49.89000 30.27900
C  37.16700 49.56900 31.78100
H  35.90700 50.09300 32.51000
N  36.13600 51.47400 24.44600
C  35.86600 52.50100 25.35400
C  35.71000 53.75800 24.65400
C  36.08100 53.52600 23.28500
C  36.27700 52.03100 23.14900
C  35.40000 55.07000 25.23000
C  36.15200 54.49400 22.16900
O  36.27100 54.10000 21.00300
C  36.04300 55.98400 22.27400
N  36.81200 48.96900 22.95800
C  36.82400 49.87200 21.94400
C  37.12600 49.25500 20.55100
C  37.42600 47.73400 20.93500
C  37.10700 47.72100 22.47400
C  35.98800 49.43900 19.55400
C  38.90800 47.27300 20.56800
C  39.99000 47.87800 21.47900
N  36.62500 47.58100 25.42700
C  36.93800 46.43600 24.63200
C  37.02200 45.32300 25.45900
C  36.82400 45.81400 26.76600
C  36.52700 47.14300 26.70000
C  37.37000 43.97000 24.98900
C  36.75400 45.47000 28.14300
O  36.93000 44.34200 28.68500
C  36.43400 46.74700 28.98100
C  35.12000 46.41700 29.58500
O  34.04100 46.38400 29.01800
O  35.31200 46.30100 31.00300
C  34.07200 45.82500 31.76500
H  35.33400 53.25400 27.28800
H  36.65300 51.78700 21.10800
H  37.57100 45.72000 22.75600
H  35.11000 49.38800 30.07000
H  35.85300 52.18400 29.28400
H  33.25900 50.73300 28.63100
H  33.48100 52.42200 28.88800
H  33.60200 51.31500 30.34700
H  37.67600 50.89500 30.31200
H  37.96800 49.20900 29.81200
H  38.13000 49.90300 32.16800
H  37.05600 48.48600 31.83700
H  34.66600 55.69100 24.71500
H  36.30800 55.67100 25.27100
H  34.80300 54.97700 26.13800
H  35.09600 56.22600 22.75500
H  36.07200 56.36700 21.25400
H  36.87100 56.33100 22.89200
H  38.05000 49.70100 20.18500
H  36.70700 47.06400 20.46600
H  35.04000 49.13800 20.00100
H  36.13900 48.80300 18.68100
H  35.88600 50.49000 19.28400
H  39.18200 47.71100 19.60800
H  38.90900 46.18300 20.60600
H  40.73800 47.09600 21.35400
H  39.74700 48.16800 22.50200
H  40.31300 48.81100 21.01700
H  38.19900 43.97100 24.28100
H  36.51200 43.47500 24.53400
H  37.65800 43.35500 25.84100
H  37.11400 47.01200 29.79000
H  33.40700 45.44000 30.99300
H  33.57400 46.70100 32.18100
H  34.48000 45.13400 32.50300

