158

Mg 30.24200 58.49300 39.46600
C  27.70000 56.20300 38.52300
C  32.44600 56.01000 39.18500
C  32.72700 60.81200 40.03400
C  27.86000 61.09600 39.29700
N  30.12600 56.38400 38.75500
C  28.98000 55.61300 38.43200
C  29.38200 54.19000 38.09600
C  30.86000 54.09100 38.50500
C  31.18600 55.58200 38.90400
C  31.07400 53.10000 39.71700
C  28.95100 53.75500 36.65800
C  29.45000 54.59800 35.48600
H  28.50000 55.17100 34.44000
N  32.28300 58.41500 39.50900
C  33.02200 57.24900 39.37300
C  34.39000 57.54800 39.58300
C  34.50600 58.91900 39.94000
C  33.13200 59.46800 39.85600
C  35.45800 56.49800 39.43300
C  35.87400 59.64800 40.33700
O  36.92100 59.07100 40.25000
C  35.91600 61.08800 40.88600
N  30.27800 60.59800 39.59800
C  31.43300 61.31100 39.90400
C  31.14100 62.86100 39.94700
C  29.57600 62.89600 39.64000
C  29.19000 61.41700 39.58700
C  31.68500 63.47400 41.26100
C  29.18800 63.63700 38.35000
C  27.98400 64.61200 38.36600
N  28.17400 58.64400 39.14000
C  27.35500 59.75900 39.11500
C  26.00700 59.29100 38.73900
C  26.08000 57.91200 38.50800
C  27.38500 57.56100 38.83200
C  24.88200 60.25000 38.64100
C  25.32500 56.79900 38.22800
O  24.16600 56.68200 37.90500
C  26.26100 55.58700 38.28600
C  25.84700 54.58000 39.29900
O  26.60000 53.91100 40.04400
O  24.47600 54.31500 39.32600
C  23.91600 53.40200 40.30900
H  33.20400 55.23000 39.08700
H  33.56200 61.50300 40.17000
H  27.09700 61.87600 39.33300
H  28.69600 53.59200 38.69600
H  31.48200 53.75700 37.67400
H  30.25800 52.49100 40.10600
H  31.53300 53.65000 40.53800
H  31.87600 52.38300 39.54000
H  27.87300 53.59700 36.65000
H  29.45200 52.79400 36.54100
H  30.27300 53.98000 35.12700
H  30.05300 55.44800 35.80400
H  36.38700 57.06000 39.33800
H  35.33000 56.08400 38.43300
H  35.55800 55.69400 40.16300
H  36.92500 61.39000 41.16700
H  35.33600 61.20100 41.80200
H  35.63300 61.84100 40.15000
H  31.78700 63.06400 39.09300
H  29.07900 63.41800 40.45800
H  32.52500 64.14000 41.06400
H  31.96800 62.63100 41.89100
H  30.94300 64.05900 41.80500
H  29.04500 62.95500 37.51200
H  30.01700 64.25700 38.00600
H  27.83300 65.08000 39.33900
H  27.05800 64.08100 38.14900
H  28.04100 65.48200 37.71200
H  24.63400 60.61500 39.63800
H  24.01100 59.64000 38.40300
H  25.05300 61.06900 37.94300
H  26.23000 54.95200 37.40100
H  24.32900 53.53900 41.30800
H  24.18500 52.40600 39.95500
H  22.84000 53.24100 40.24200
Mg -5.02000 25.46600 26.05400
C  -3.96700 26.98600 29.11100
C  -6.87100 23.19300 27.96200
C  -5.96400 24.07100 23.12700
C  -2.95200 27.58900 24.24300
N  -5.48000 25.24700 28.33500
C  -4.85500 25.94200 29.33400
C  -5.45400 25.43700 30.70100
C  -5.98000 24.03900 30.36100
C  -6.20100 24.15200 28.79900
C  -5.18600 22.73100 30.80500
C  -6.50800 26.47800 31.30700
C  -6.36000 26.92700 32.80400
H  -5.65600 25.83600 33.77500
N  -6.19900 23.90600 25.56900
C  -6.87200 23.09700 26.49300
C  -7.67800 22.22800 25.77700
C  -7.38100 22.32900 24.40400
C  -6.47400 23.43000 24.30000
C  -8.74700 21.31000 26.43700
C  -7.78200 21.52900 23.21900
O  -7.50100 21.74500 22.04400
C  -8.57500 20.27700 23.39300
N  -4.41500 25.67900 24.00200
C  -4.98900 25.03700 22.97700
C  -4.51200 25.51800 21.57000
C  -3.91500 26.84700 21.99500
C  -3.65200 26.63900 23.49300
C  -3.50700 24.45400 21.01100
C  -4.88500 28.03700 21.63400
C  -4.39000 29.11800 20.76000
N  -3.77400 26.91400 26.55300
C  -2.99300 27.71400 25.68900
C  -2.41900 28.75100 26.44200
C  -2.65500 28.46600 27.80100
C  -3.57900 27.41400 27.82300
C  -1.56200 29.86000 25.91200
C  -2.45700 28.79800 29.12600
O  -1.75900 29.69700 29.52800
C  -3.23500 27.89900 30.13900
C  -2.22700 27.18500 31.00800
O  -1.22700 26.61700 30.63300
O  -2.67500 27.28300 32.27700
C  -1.68800 26.72300 33.20900
H  -7.39200 22.36600 28.44900
H  -6.30300 23.67100 22.16900
H  -2.65600 28.43200 23.61500
H  -4.67200 25.24400 31.43600
H  -7.05000 23.96500 30.55700
H  -5.13900 21.98500 30.01200
H  -5.58800 22.27200 31.70700
H  -4.15600 22.91800 31.11000
H  -7.54700 26.26900 31.05200
H  -6.14800 27.41400 30.88000
H  -7.36600 27.08200 33.19300
H  -5.88300 27.89700 32.94200
H  -9.54000 21.13600 25.71000
H  -9.12600 21.78600 27.34100
H  -8.20500 20.39200 26.66400
H  -9.62400 20.40900 23.65500
H  -8.11000 19.76300 24.23400
H  -8.32100 19.54900 22.62200
H  -5.38000 25.65400 20.92600
H  -2.96700 27.07800 21.50900
H  -3.66500 24.45400 19.93300
H  -3.69200 23.47800 21.46100
H  -2.47900 24.77400 21.18200
H  -5.19400 28.45900 22.59100
H  -5.84600 27.68100 21.26400
H  -3.30500 29.13000 20.65900
H  -4.53500 30.04400 21.31600
H  -4.76900 29.23200 19.74500
H  -1.57600 29.90400 24.82300
H  -0.58100 29.84600 26.38700
H  -1.93800 30.85300 26.16000
H  -3.93700 28.45300 30.76200
H  -1.47400 25.72500 32.82500
H  -2.25400 26.59800 34.13200
H  -0.84900 27.39600 33.38400

