158

Mg 49.80600 46.24000 42.51900
C  46.56100 46.54200 41.11900
C  49.94700 43.04600 41.20900
C  53.12200 46.22200 42.79600
C  49.84900 49.71700 42.98400
N  48.37300 45.02700 41.29300
C  47.14200 45.32900 40.80000
C  46.47700 44.17000 39.98000
C  47.53900 43.05400 40.13100
C  48.69400 43.71200 41.00000
C  47.04600 41.75200 40.72400
C  46.10700 44.65400 38.51500
C  44.71200 44.52600 38.04000
H  44.46000 43.50100 36.90400
N  51.26200 44.74600 42.27600
C  51.10600 43.54600 41.73100
C  52.33200 42.75600 41.88200
C  53.37800 43.63700 42.26100
C  52.63400 44.92600 42.47200
C  52.46400 41.25600 41.61600
C  54.84600 43.30100 42.46100
O  55.34500 42.21400 42.12800
C  55.77100 44.42200 43.08200
N  51.26400 47.69300 42.79900
C  52.54800 47.42900 42.98200
C  53.41900 48.70500 43.22400
C  52.36300 49.81500 43.08500
C  51.04900 48.99900 43.02200
C  54.20200 48.79100 44.58500
C  52.43700 50.65000 41.75700
C  52.48000 52.19000 41.93600
N  48.44500 47.85400 42.35400
C  48.57800 49.19800 42.65800
C  47.29200 49.81200 42.49100
C  46.52400 48.79700 41.90900
C  47.26000 47.67200 41.74100
C  46.98600 51.28400 42.70200
C  45.13400 48.56900 41.40400
O  44.16400 49.26000 41.44400
C  45.16600 47.09700 40.78800
C  44.21700 46.30600 41.64200
O  44.25100 46.10000 42.93000
O  43.12200 45.81200 40.87000
C  42.00400 45.18500 41.67500
H  50.04800 42.02000 40.85000
H  54.19100 46.35200 42.97900
H  49.93200 50.80500 43.00400
H  45.62300 43.86000 40.58000
H  47.95900 42.74800 39.17200
H  47.11700 40.96700 39.97200
H  46.00500 41.89800 41.01200
H  47.63400 41.64100 41.63500
H  46.73800 44.05600 37.85800
H  46.44800 45.68000 38.37800
H  44.15200 45.44200 37.85100
H  44.20100 44.05100 38.87800
H  51.50500 40.74200 41.68600
H  53.05100 40.83400 42.43200
H  52.90800 41.05000 40.64100
H  55.90000 45.19100 42.32000
H  56.74600 43.95800 43.23000
H  55.44900 44.70500 44.08400
H  54.20400 48.71400 42.46900
H  52.29100 50.41600 43.99200
H  54.77200 47.87700 44.75200
H  53.54700 48.99900 45.43100
H  54.90500 49.62300 44.54000
H  51.49500 50.47500 41.23900
H  53.16900 50.28200 41.03700
H  53.43300 52.51700 41.51900
H  52.41600 52.46300 42.98900
H  51.66600 52.56100 41.31300
H  47.42300 51.84500 41.87500
H  47.48100 51.71100 43.57500
H  45.90900 51.44800 42.72300
H  44.90000 47.12300 39.73200
H  41.25300 45.12800 40.88700
H  41.57100 45.79700 42.46700
H  42.26900 44.24900 42.16700
Mg 0.53200 43.32100 26.01200
C  1.87500 43.18300 29.29200
C  -2.45100 42.13400 27.30500
C  -0.53600 42.58200 22.83800
C  3.71400 44.03600 24.77800
N  -0.24300 42.95000 28.05900
C  0.49000 43.00700 29.25200
C  -0.32500 42.59900 30.42900
C  -1.75000 42.19200 29.75300
C  -1.45400 42.39200 28.26100
C  -2.13000 40.68500 30.04000
C  -0.52500 43.82100 31.42400
C  -0.69600 43.44200 32.90200
H  -1.78900 42.47700 33.36800
N  -1.28900 42.53200 25.17300
C  -2.40700 42.15600 25.92800
C  -3.44200 41.82100 24.98500
C  -2.92900 41.97300 23.68600
C  -1.54500 42.35400 23.82500
C  -4.83000 41.49900 25.47600
C  -3.66500 41.99100 22.37600
O  -3.07300 42.19800 21.32900
C  -5.09600 41.70600 22.31400
N  1.44500 43.27600 24.11600
C  0.83000 42.87200 22.96700
C  1.71300 43.10300 21.74500
C  2.83000 44.04900 22.34000
C  2.67600 43.76900 23.88800
C  2.26000 41.88900 21.02400
C  2.71400 45.51100 21.99100
C  3.57300 46.02400 20.90800
N  2.46300 43.59300 26.77000
C  3.72700 43.84600 26.19900
C  4.77900 43.72100 27.26400
C  4.04000 43.57800 28.47600
C  2.63200 43.45800 28.13300
C  6.22400 43.87000 26.92500
C  4.27000 43.44200 29.87200
O  5.30000 43.27700 30.53400
C  2.86900 43.17200 30.52100
C  2.97300 41.75200 30.96700
O  2.70100 40.76000 30.28000
O  3.20100 41.79200 32.31400
C  2.85800 40.63100 32.99900
H  -3.43200 41.90900 27.72900
H  -0.83800 42.26600 21.83700
H  4.68100 44.36600 24.39100
H  0.10300 41.73500 30.93800
H  -2.61400 42.82900 29.94600
H  -1.80900 40.08600 29.18700
H  -3.21700 40.70700 30.12800
H  -1.69600 40.25700 30.94300
H  -1.28200 44.52400 31.07600
H  0.39800 44.40000 31.45600
H  -0.84700 44.31500 33.53700
H  0.29200 43.08500 33.19600
H  -5.48100 42.32100 25.77300
H  -4.81300 40.75800 26.27500
H  -5.40800 40.92700 24.75000
H  -5.16800 40.65400 22.59000
H  -5.44900 41.69600 21.28300
H  -5.62200 42.35000 23.01900
H  1.10500 43.67400 21.04300
H  3.78100 43.62500 22.01700
H  1.84700 40.93700 21.35800
H  3.34000 41.83600 21.16100
H  2.26600 42.11100 19.95700
H  2.83700 46.10900 22.89400
H  1.66200 45.66600 21.75300
H  3.02700 46.27000 19.99700
H  4.19300 45.21400 20.52400
H  4.25400 46.83900 21.15000
H  6.64000 43.11300 26.26000
H  6.66400 43.64800 27.89700
H  6.44700 44.87900 26.57800
H  2.51400 43.83100 31.31300
H  2.74900 41.01700 34.01300
H  3.64100 39.88300 32.86800
H  1.91200 40.18700 32.68800

