158

Mg 48.03700 16.41100 28.68200
C  46.09400 16.16900 31.64100
C  50.33500 18.17300 30.39600
C  49.54800 16.70600 25.74200
C  45.18400 14.83700 27.06500
N  48.14300 17.11300 30.73500
C  47.31900 16.83700 31.78800
C  47.82400 17.32500 33.16300
C  49.04100 18.22000 32.70000
C  49.20900 17.82900 31.16300
C  48.98600 19.73000 33.03600
C  48.11000 16.03400 34.06800
C  47.94200 16.14700 35.61600
H  47.49400 17.50000 36.22900
N  49.76700 17.20900 28.13200
C  50.62200 17.90800 29.00200
C  51.90100 18.15300 28.32900
C  51.72900 17.70500 26.95700
C  50.37200 17.19600 26.91400
C  53.18400 18.74000 29.06300
C  52.69200 17.72700 25.87800
O  52.38100 17.26400 24.78400
C  54.06700 18.19600 26.07400
N  47.45000 15.75900 26.75600
C  48.30000 16.12200 25.69100
C  47.64200 15.71600 24.33900
C  46.34500 14.96800 24.75400
C  46.31400 15.19000 26.26600
C  47.52200 16.82600 23.35800
C  46.25700 13.41600 24.50500
C  46.04600 12.95600 23.06400
N  46.14900 15.53300 29.29100
C  45.12000 14.98200 28.45000
C  43.94600 14.78300 29.25800
C  44.30100 15.18000 30.53000
C  45.59500 15.67300 30.47500
C  42.57700 14.25700 28.69000
C  43.75600 15.28900 31.83000
O  42.66500 14.99800 32.38400
C  45.01900 15.77800 32.64600
C  44.57700 16.96100 33.36900
O  44.13800 18.00700 32.87600
O  44.45100 16.60700 34.70700
C  43.50300 17.24100 35.66300
H  51.07600 18.75000 30.95400
H  50.03200 16.71100 24.76300
H  44.34000 14.51200 26.45300
H  46.96800 17.86600 33.56700
H  49.94000 17.78200 33.13400
H  48.86700 20.44100 32.21800
H  49.86200 19.96600 33.64000
H  48.08400 19.89000 33.62600
H  49.13100 15.73500 33.83100
H  47.48500 15.23200 33.67500
H  48.91400 15.91600 36.05300
H  47.17400 15.38000 35.71100
H  53.93800 17.95900 29.15300
H  53.05400 19.05700 30.09700
H  53.47100 19.61900 28.48700
H  54.61500 18.04400 25.14400
H  54.38500 17.56100 26.90200
H  54.01700 19.25700 26.32000
H  48.33700 15.04000 23.84100
H  45.49100 15.51700 24.35800
H  48.21200 16.62800 22.53800
H  47.89800 17.71900 23.85800
H  46.48900 17.00200 23.06000
H  45.77000 12.85400 25.30200
H  47.26700 13.07200 24.72700
H  46.49000 11.96900 22.93000
H  46.47100 13.66400 22.35300
H  44.96200 12.93300 22.95200
H  42.20000 14.77100 27.80600
H  41.87000 14.45100 29.49800
H  42.68400 13.19100 28.48900
H  45.25500 14.99700 33.36700
H  42.80500 16.43800 35.89800
H  42.88800 17.98100 35.15000
H  43.90800 17.60100 36.60900
Mg -10.52600 16.90300 41.18400
C  -7.07200 16.71300 41.09700
C  -10.29700 20.31400 40.64200
C  -13.92900 16.96900 40.78500
C  -10.55400 13.31600 41.21100
N  -8.85100 18.27800 40.87100
C  -7.50900 17.97800 40.94800
C  -6.69700 19.33000 40.70400
C  -7.77600 20.46600 41.02400
C  -9.06700 19.67500 40.77700
C  -7.56900 21.21900 42.38800
C  -6.15500 19.38300 39.22700
C  -4.66200 19.20000 39.05900
H  -4.14600 18.49700 37.78500
N  -11.96300 18.51400 40.74600
C  -11.68900 19.82600 40.61000
C  -12.90300 20.56000 40.40000
C  -13.97000 19.64500 40.41500
C  -13.31900 18.27100 40.59300
C  -12.93700 22.05900 40.16900
C  -15.40400 19.98600 40.29300
O  -15.89000 21.11900 40.11100
C  -16.45100 18.88900 40.33200
N  -12.07400 15.34100 40.79900
C  -13.41900 15.68200 40.89400
C  -14.26200 14.40900 41.13900
C  -13.15500 13.27000 41.24600
C  -11.83500 14.00300 41.17700
C  -15.31200 14.34600 42.27800
C  -13.29100 12.04500 40.36700
C  -12.57200 12.04700 39.02500
N  -9.09400 15.20900 41.07600
C  -9.24700 13.81800 41.22300
C  -7.90100 13.22800 41.51000
C  -7.03700 14.30200 41.35100
C  -7.80100 15.49800 41.13300
C  -7.48100 11.86600 41.87100
C  -5.64600 14.68700 41.49400
O  -4.67100 14.00100 41.81100
C  -5.64300 16.27400 41.23500
C  -4.99600 17.09300 42.39500
O  -3.87500 17.56600 42.22800
O  -5.71800 17.01700 43.63600
C  -5.17200 17.83500 44.67800
H  -10.13000 21.38800 40.53800
H  -15.02000 16.98200 40.81700
H  -10.50000 12.25500 41.46300
H  -5.90400 19.43400 41.44500
H  -7.68200 21.26300 40.28700
H  -7.07400 22.18700 42.30800
H  -7.09300 20.52400 43.07900
H  -8.55200 21.39400 42.82600
H  -6.39500 20.38500 38.87200
H  -6.59100 18.58800 38.62200
H  -4.30100 18.58900 39.88700
H  -4.12800 20.13000 39.25700
H  -13.10400 22.28200 39.11500
H  -11.96500 22.44000 40.48200
H  -13.70000 22.49900 40.81100
H  -16.27000 18.28200 39.44500
H  -17.41700 19.37500 40.19700
H  -16.54400 18.37200 41.28700
H  -14.86500 14.39800 40.23200
H  -13.16100 12.85300 42.25300
H  -16.23100 13.85600 41.95800
H  -15.65600 15.33400 42.58200
H  -14.92500 13.87100 43.18000
H  -14.37000 12.05000 40.20800
H  -13.00700 11.13700 40.89900
H  -13.17500 11.42300 38.36400
H  -11.59000 11.57700 39.06500
H  -12.46500 13.02100 38.54800
H  -6.40100 11.83500 41.72600
H  -7.94800 11.26000 41.09500
H  -7.88100 11.72100 42.87400
H  -5.20200 16.44400 40.25300
H  -5.82400 18.70500 44.74800
H  -4.14100 18.16400 44.54100
H  -5.35800 17.29100 45.60300

