158

Mg 35.44300 3.51400 29.91400
C  33.18000 4.46800 32.51900
C  37.87600 3.40000 32.18200
C  37.55000 3.02400 27.30500
C  32.81700 4.09500 27.69200
N  35.48800 4.10300 32.11000
C  34.45400 4.22100 32.98600
C  34.92000 4.25300 34.46100
C  36.45800 4.03800 34.26600
C  36.61600 3.83400 32.75900
C  37.33900 5.19200 34.82500
C  34.10800 3.08800 35.25700
C  33.60300 3.45200 36.61800
H  34.29300 4.55100 37.40000
N  37.41200 3.24700 29.79300
C  38.29500 3.18300 30.85500
C  39.60300 2.78600 30.43000
C  39.51800 2.60800 28.96200
C  38.09100 2.90600 28.63100
C  40.80000 2.65000 31.38300
C  40.66700 2.21200 27.97900
O  40.53500 2.30400 26.77100
C  42.04300 1.87100 28.55900
N  35.25600 3.58600 27.80900
C  36.20400 3.27000 26.97500
C  35.68900 3.27900 25.51500
C  34.17300 3.48200 25.66400
C  34.03400 3.79100 27.13200
C  36.40700 4.24800 24.64400
C  33.32700 2.29400 25.20400
C  33.53900 1.04500 26.09000
N  33.40700 4.18600 30.06500
C  32.47900 4.30600 29.05400
C  31.18000 4.57300 29.65800
C  31.44800 4.81500 30.95400
C  32.81200 4.46600 31.17700
C  29.98200 4.74200 28.82800
C  30.82200 5.09300 32.21600
O  29.64800 5.45600 32.43800
C  31.93300 4.97100 33.34000
C  31.91000 6.25900 34.12700
O  32.36400 7.35100 33.74500
O  31.29600 6.08400 35.36300
C  31.36200 7.20000 36.27300
H  38.70600 3.31400 32.88700
H  38.15800 2.86100 26.41200
H  32.03600 4.15200 26.93100
H  34.75900 5.25200 34.86600
H  36.71600 3.08200 34.72200
H  37.93800 5.45500 33.95400
H  38.04900 4.76700 35.53500
H  36.75100 6.00400 35.25400
H  34.79800 2.24600 35.31100
H  33.26300 2.61400 34.75800
H  33.68000 2.49800 37.14000
H  32.55400 3.74000 36.54900
H  41.41100 1.76900 31.18500
H  40.46900 2.47800 32.40700
H  41.35100 3.57800 31.23200
H  42.57800 1.63600 27.64000
H  41.96600 1.00300 29.21400
H  42.32900 2.79700 29.05800
H  35.96500 2.33000 25.05500
H  33.77800 4.39400 25.21700
H  37.09300 3.60700 24.09000
H  37.08300 4.89300 25.20600
H  35.70500 4.74200 23.97200
H  33.61000 2.14300 24.16200
H  32.26200 2.52200 25.25600
H  33.74200 0.16700 25.47600
H  32.63100 0.94000 26.68200
H  34.37300 1.25700 26.75900
H  30.13900 4.32600 27.83300
H  29.83900 5.81100 28.67100
H  29.07900 4.32000 29.27000
H  31.65100 4.11400 33.95200
H  30.61400 7.91700 35.93400
H  32.36400 7.62000 36.18200
H  31.19200 6.82600 37.28300
Mg -6.17300 25.51300 26.13500
C  -4.64300 26.68800 28.94900
C  -8.33500 23.84800 28.00500
C  -7.18300 23.85300 23.32100
C  -3.62900 27.10800 24.16100
N  -6.22400 25.10300 28.21100
C  -5.64300 25.82500 29.25000
C  -6.28700 25.42400 30.58800
C  -7.26000 24.24600 30.23800
C  -7.30400 24.38600 28.72400
C  -6.75800 22.83100 30.63300
C  -6.89900 26.62100 31.43000
C  -6.74500 26.60900 32.93600
H  -6.12400 25.33500 33.61600
N  -7.60900 24.03700 25.67800
C  -8.41000 23.51600 26.58700
C  -9.26400 22.57200 26.04300
C  -8.88300 22.46300 24.66800
C  -7.83300 23.44100 24.47100
C  -10.35700 21.81500 26.90400
C  -9.47900 21.58700 23.60400
O  -9.06500 21.70200 22.43700
C  -10.71500 20.83500 23.88800
N  -5.57900 25.58900 24.10600
C  -6.06900 24.68500 23.13300
C  -5.33600 24.74300 21.80800
C  -4.29500 25.87800 22.03000
C  -4.53100 26.27200 23.49900
C  -4.71200 23.38700 21.42800
C  -4.30600 27.02000 20.92200
C  -3.02400 27.38700 20.17600
N  -4.59600 26.79800 26.42000
C  -3.69200 27.35100 25.55500
C  -2.87500 28.32200 26.30400
C  -3.22400 28.05600 27.65900
C  -4.15000 27.06100 27.69700
C  -1.74600 29.21100 25.84300
C  -2.89500 28.42800 29.02800
O  -2.07500 29.27400 29.48000
C  -3.89300 27.55600 29.94100
C  -3.14600 26.80300 30.92500
O  -2.74700 25.63000 30.83300
O  -2.89100 27.51300 32.05900
C  -1.96400 27.00800 33.06600
H  -9.13600 23.49100 28.65600
H  -7.55600 23.34800 22.42800
H  -2.89300 27.70500 23.61900
H  -5.44100 25.12100 31.20600
H  -8.19100 24.42800 30.77500
H  -6.02100 23.08800 31.39400
H  -6.30200 22.40500 29.73900
H  -7.58500 22.23000 31.01000
H  -7.97800 26.64200 31.27700
H  -6.53100 27.53500 30.96400
H  -7.70800 26.77100 33.42100
H  -6.23100 27.54300 33.16300
H  -10.30700 22.14600 27.94200
H  -10.11300 20.75700 26.81400
H  -11.33100 22.09300 26.50300
H  -10.53800 19.92700 24.46500
H  -11.11300 20.55400 22.91300
H  -11.50200 21.45100 24.32200
H  -5.98400 25.11700 21.01500
H  -3.26900 25.51200 22.08400
H  -5.03500 22.64900 22.16100
H  -3.63200 23.27300 21.33400
H  -5.09100 23.13600 20.43700
H  -4.54600 27.96700 21.40400
H  -5.06600 26.83400 20.16300
H  -2.17700 26.79500 20.52200
H  -2.74000 28.43500 20.07900
H  -3.11200 27.28400 19.09400
H  -2.23800 30.16900 25.67100
H  -1.38500 28.94000 24.85100
H  -1.09800 29.34500 26.70900
H  -4.50600 28.23700 30.53000
H  -1.66600 25.96300 32.97700
H  -2.50600 27.12200 34.00500
H  -1.09100 27.64200 33.22200

