158

Mg 40.62900 9.57000 30.10000
C  42.53000 10.59400 32.87100
C  38.31700 8.26600 32.31500
C  38.96200 8.50900 27.43600
C  43.41700 10.12500 28.05100
N  40.48800 9.50400 32.39800
C  41.32400 10.02800 33.27400
C  40.58500 10.11400 34.64700
C  39.30600 9.24000 34.46200
C  39.32700 8.94700 33.00900
C  39.07300 7.96100 35.28300
C  40.21100 11.62300 34.95600
C  39.81000 11.93500 36.39100
H  40.77300 12.66400 37.31000
N  38.88600 8.42100 29.89200
C  38.10900 7.96800 30.88600
C  36.94700 7.33200 30.26100
C  37.11500 7.46100 28.85500
C  38.36400 8.14600 28.67500
C  35.83300 6.80200 30.99800
C  36.20700 7.03400 27.75300
O  36.43000 7.05700 26.55600
C  34.91600 6.50400 28.15400
N  41.15100 9.28200 28.01200
C  40.25000 8.86900 27.11400
C  40.77700 8.98200 25.67300
C  42.25200 9.54900 25.84000
C  42.30900 9.58900 27.39900
C  40.48200 7.72900 24.75200
C  42.53200 10.87600 25.05700
C  42.12200 12.21000 25.67600
N  42.59100 10.21200 30.34700
C  43.60200 10.37900 29.40400
C  44.76900 10.87000 30.04700
C  44.46900 10.96800 31.36300
C  43.09600 10.56400 31.53000
C  46.08500 11.19300 29.33700
C  44.90100 11.35200 32.66900
O  45.99500 11.81700 32.94000
C  43.70500 11.16500 33.67700
C  44.24200 10.14000 34.70100
O  44.56100 8.98700 34.40300
O  44.36800 10.73300 35.92400
C  44.66600 9.79000 37.00200
H  37.49100 7.97600 32.96900
H  38.61400 8.16900 26.45900
H  44.30000 10.42200 27.48100
H  41.10700 9.83100 35.56100
H  38.46200 9.92100 34.58000
H  39.95000 7.65500 35.85400
H  38.75300 7.09900 34.69900
H  38.31600 8.23600 36.01800
H  39.38000 11.97600 34.34600
H  41.02000 12.29900 34.67900
H  39.40100 11.00800 36.79300
H  38.92800 12.57500 36.35500
H  34.83500 7.05000 30.63600
H  35.79800 7.29800 31.96700
H  35.89200 5.72200 31.13100
H  34.45400 6.09000 27.25800
H  34.27300 7.28700 28.55500
H  35.16400 5.72400 28.87400
H  40.25500 9.81900 25.20800
H  42.99700 8.79900 25.57300
H  41.46600 7.42700 24.39300
H  39.88600 7.91300 23.85800
H  40.10100 6.87100 25.30600
H  42.04800 10.85600 24.08100
H  43.60900 10.94400 24.90200
H  42.01200 12.25400 26.75900
H  41.07100 12.41500 25.47000
H  42.72300 13.08100 25.41700
H  46.32900 10.49200 28.53800
H  46.83200 11.29200 30.12500
H  45.88900 12.06500 28.71200
H  43.41100 12.07000 34.20800
H  44.79600 8.74400 36.72500
H  43.74000 9.89300 37.56700
H  45.57300 9.99500 37.57000
Mg 16.89800 52.97800 26.85200
C  18.72000 51.21800 29.32700
C  14.65500 53.70400 29.26400
C  14.92700 54.20700 24.50500
C  18.99400 51.51000 24.35100
N  16.80400 52.66300 28.99900
C  17.67100 51.95500 29.81600
C  17.25500 51.92800 31.28100
C  15.75800 52.28600 31.09300
C  15.77700 52.98000 29.72300
C  14.95600 50.97700 31.30000
C  18.08900 53.01700 31.98800
C  18.47600 52.81400 33.43700
H  17.40700 52.08900 34.26700
N  15.08900 53.97700 26.87300
C  14.36200 54.25200 27.99200
C  13.22700 55.01800 27.63100
C  13.16900 54.99100 26.22900
C  14.45300 54.40100 25.77700
C  12.28700 55.55700 28.68500
C  11.98900 55.45700 25.28200
O  12.22500 55.53800 24.08900
C  10.60200 55.92200 25.81700
N  17.09700 53.02900 24.73400
C  16.05700 53.60800 24.01000
C  16.26100 53.34700 22.49600
C  17.62100 52.57500 22.49800
C  17.93700 52.44400 23.97000
C  15.11400 52.58500 21.90900
C  18.69700 53.14800 21.54800
C  19.71300 54.19700 22.04300
N  18.53300 51.59200 26.77500
C  19.30100 51.16000 25.73900
C  20.41700 50.43800 26.30800
C  20.26900 50.43900 27.69500
C  19.05500 51.05600 27.92400
C  21.56400 49.90900 25.49000
C  20.83700 50.13200 28.97000
O  21.95000 49.74100 29.26900
C  19.84500 50.61700 30.04700
C  19.46400 49.44900 30.95400
O  18.83400 48.49400 30.51400
O  19.78500 49.63200 32.29600
C  19.24200 48.68500 33.27700
H  13.97900 53.94600 30.08700
H  14.48200 54.75300 23.67100
H  19.50200 50.93500 23.57400
H  17.60900 51.06100 31.83900
H  15.38200 52.90800 31.90600
H  15.09700 50.27000 30.48200
H  13.87600 51.02700 31.43400
H  15.36600 50.50900 32.19500
H  17.55200 53.96500 32.00900
H  19.01800 53.19100 31.44600
H  18.71800 53.79300 33.85100
H  19.41300 52.25900 33.40000
H  11.96400 56.56000 28.40700
H  12.72600 55.48000 29.68000
H  11.35200 54.99800 28.70900
H  10.00100 55.16000 26.31300
H  9.92800 56.34200 25.07100
H  10.82200 56.80500 26.41700
H  16.37500 54.30000 21.98100
H  17.42800 51.55400 22.17000
H  14.57700 53.17400 21.16500
H  14.49500 52.11600 22.67400
H  15.57700 51.73400 21.41100
H  18.21100 53.88100 20.90300
H  19.17800 52.35800 20.97200
H  19.41500 54.50900 23.04400
H  19.67200 55.09000 21.42000
H  20.73300 53.81800 22.10000
H  21.97500 50.62900 24.78200
H  21.08400 49.17400 24.84200
H  22.36700 49.37700 25.99900
H  20.35200 51.28700 30.74200
H  19.61500 47.69100 33.03000
H  18.15800 48.58500 33.20900
H  19.63100 49.07400 34.21800

