158

Mg -2.34900 16.97600 27.25400
C  -2.91900 14.82200 29.86200
C  -3.28000 19.55600 29.19900
C  -2.11400 18.98900 24.52000
C  -2.10300 14.17500 25.11300
N  -3.00500 17.14300 29.20500
C  -2.98000 16.18100 30.17400
C  -3.33000 16.66500 31.61500
C  -3.47500 18.25900 31.28700
C  -3.35700 18.31400 29.80100
C  -4.71000 19.00400 31.96900
C  -2.30600 16.35100 32.76100
C  -2.20500 17.40300 33.89600
H  -1.70500 17.02900 35.31600
N  -2.54100 19.03100 26.90900
C  -2.90100 19.91400 27.87500
C  -2.69100 21.23200 27.38800
C  -2.12600 21.09600 26.03200
C  -2.24300 19.63900 25.72100
C  -3.06800 22.58000 28.09000
C  -1.63600 22.05400 25.03200
O  -1.16900 21.78600 23.91900
C  -1.61900 23.50700 25.26000
N  -2.38200 16.62500 25.16300
C  -2.17300 17.63200 24.23000
C  -2.28700 17.04200 22.78100
C  -2.13100 15.53200 23.00900
C  -2.16600 15.40200 24.55800
C  -3.58900 17.38900 21.95700
C  -0.87900 14.85000 22.32300
C  0.44200 15.14200 22.93300
N  -2.48500 14.88200 27.39200
C  -2.33800 13.88700 26.47200
C  -2.49600 12.65000 27.12800
C  -2.74700 12.94800 28.43600
C  -2.70700 14.33600 28.59100
C  -2.27600 11.28800 26.48000
C  -3.15900 12.41000 29.76900
O  -3.36600 11.28100 30.17200
C  -3.28500 13.58400 30.70200
C  -2.35500 13.37800 31.83200
O  -1.18300 13.43500 31.75800
O  -3.08500 13.06100 32.93800
C  -2.36100 12.76100 34.15800
H  -3.42100 20.38700 29.89400
H  -2.07200 19.62500 23.63300
H  -1.82700 13.28900 24.53700
H  -4.24800 16.13100 31.86100
H  -2.56100 18.73800 31.63900
H  -4.46200 19.92500 32.49700
H  -5.12300 18.37600 32.75800
H  -5.49300 19.28800 31.26600
H  -1.32200 16.09100 32.37000
H  -2.75300 15.48900 33.25500
H  -3.11800 17.99600 33.95700
H  -1.42900 17.99400 33.40900
H  -3.67000 23.11800 27.35800
H  -2.23100 23.17600 28.45400
H  -3.73800 22.31200 28.90700
H  -2.61900 23.92300 25.38300
H  -1.01300 24.00800 24.50500
H  -1.22700 23.72300 26.25300
H  -1.36500 17.41600 22.33600
H  -2.98000 14.96400 22.62700
H  -4.16600 18.11700 22.52700
H  -4.19200 16.54100 21.63100
H  -3.27200 17.86500 21.02900
H  -0.87500 15.06100 21.25300
H  -1.03000 13.78100 22.47600
H  0.22500 15.86700 23.71800
H  1.06700 15.70900 22.24300
H  1.01100 14.35000 23.41900
H  -3.18300 11.21300 25.88000
H  -2.17000 10.38300 27.07900
H  -1.44800 11.28800 25.77200
H  -4.31600 13.51800 31.05100
H  -2.93200 11.98200 34.66300
H  -2.25100 13.66200 34.76200
H  -1.38000 12.31900 33.98300
Mg 49.20500 35.39400 27.23200
C  46.98400 34.01100 29.68200
C  49.59300 38.09800 29.35200
C  51.32400 36.51000 25.06800
C  48.06900 32.90000 25.06700
N  48.48500 35.95000 29.31200
C  47.60600 35.18500 30.11400
C  47.60900 35.78800 31.57400
C  48.09900 37.25500 31.27300
C  48.70300 37.13100 29.84400
C  47.03300 38.38800 31.33700
C  48.56600 34.98200 32.47300
C  49.71300 35.70600 33.20100
H  49.23400 36.76100 34.31900
N  50.37700 37.07000 27.20200
C  50.46300 38.08000 28.13900
C  51.42800 39.04800 27.76000
C  51.97300 38.57000 26.49700
C  51.18400 37.35500 26.15600
C  51.68300 40.40500 28.56500
C  53.05500 39.35900 25.61900
O  53.21700 39.04200 24.42500
C  53.82700 40.56400 26.16200
N  49.42900 34.95500 25.19200
C  50.47300 35.52400 24.58700
C  50.83000 34.77700 23.24400
C  49.67000 33.75300 23.14100
C  49.00400 33.84500 24.52600
C  50.86600 35.60300 21.94100
C  50.00500 32.38900 22.61400
C  49.10100 31.68900 21.53400
N  47.87100 33.80000 27.32100
C  47.53200 32.83400 26.40300
C  46.56800 31.92900 26.89000
C  46.29700 32.36600 28.15700
C  47.09300 33.50700 28.39500
C  46.11700 30.69900 26.18400
C  45.59100 32.03100 29.38800
O  44.76700 31.13300 29.50800
C  45.98100 33.02300 30.40900
C  46.48400 32.42400 31.66800
O  47.43800 31.63600 31.83100
O  45.58800 32.70300 32.70500
C  45.87300 32.23800 34.09500
H  49.71500 38.90300 30.07900
H  52.09500 36.67600 24.31300
H  47.83900 32.06600 24.40100
H  46.54300 35.71700 31.79000
H  48.87200 37.62900 31.94400
H  47.42500 39.18300 31.97000
H  46.10700 37.91500 31.66300
H  46.93000 38.83500 30.34800
H  48.81500 34.05000 31.96600
H  47.86700 34.79400 33.28800
H  50.31200 36.15500 32.40900
H  50.33800 34.92700 33.63900
H  52.66400 40.28700 29.02500
H  51.00200 40.44900 29.41500
H  51.57300 41.16800 27.79500
H  53.27600 41.45400 26.46600
H  54.79200 40.65100 25.66100
H  54.12200 40.13400 27.12000
H  51.74500 34.22600 23.46000
H  48.88700 34.24500 22.56300
H  50.23500 36.47800 22.10000
H  50.44200 35.10000 21.07100
H  51.91100 35.90400 21.87900
H  50.16100 31.84400 23.54600
H  50.95500 32.49500 22.09000
H  48.39700 32.49300 21.32100
H  48.65600 30.76600 21.90700
H  49.53700 31.40200 20.57600
H  45.51600 31.05000 25.34500
H  45.51900 30.02900 26.80200
H  46.93800 30.04100 25.90100
H  44.99100 33.45000 30.56400
H  44.95200 32.05300 34.64700
H  46.36300 33.09200 34.56300
H  46.47700 31.33300 34.16100

