158

Mg 25.06500 2.04800 29.83400
C  27.56100 2.11400 32.51100
C  22.73700 2.32900 32.01700
C  22.98400 1.97100 27.18800
C  27.82800 1.32900 27.60600
N  25.21200 2.33300 31.96700
C  26.21500 2.45100 32.88800
C  25.67300 2.48200 34.32000
C  24.16200 2.47300 34.04000
C  24.01100 2.35600 32.58200
C  23.39200 1.52400 34.97400
C  26.20800 3.72800 35.16600
C  26.91600 3.39900 36.48100
H  26.88200 4.39500 37.62900
N  23.08500 2.16800 29.62400
C  22.22900 2.29400 30.64600
C  20.85000 2.20300 30.16800
C  20.90500 1.95600 28.77500
C  22.38400 2.04700 28.46300
C  19.68600 2.15200 31.12100
C  19.80600 1.66600 27.73900
O  20.04400 1.51600 26.57400
C  18.44800 1.58200 28.06200
N  25.32500 1.66100 27.71100
C  24.32300 1.72900 26.79500
C  24.77500 1.54900 25.35200
C  26.31600 1.54500 25.56500
C  26.54400 1.48100 27.04800
C  24.10300 0.30300 24.61100
C  27.19300 2.57100 24.72200
C  27.82600 3.77600 25.47000
N  27.25100 1.78700 29.99800
C  28.11600 1.47700 29.00400
C  29.46600 1.39000 29.63300
C  29.25300 1.57000 30.99500
C  27.93100 1.94000 31.13600
C  30.77600 1.04800 28.96000
C  29.86900 1.53200 32.32400
O  31.05200 1.24300 32.69400
C  28.78100 1.95800 33.35400
C  28.68500 0.89900 34.41300
O  27.94100 -0.04100 34.41400
O  29.33800 1.38000 35.58000
C  29.04500 0.69600 36.80900
H  21.99000 2.47300 32.80100
H  22.30600 1.84000 26.34200
H  28.51200 1.01400 26.81600
H  25.91400 1.52800 34.78900
H  23.91000 3.48200 34.36700
H  22.60700 2.10800 35.45400
H  24.06800 1.05200 35.68700
H  22.93300 0.78100 34.32100
H  25.41900 4.44000 35.40800
H  26.94300 4.20700 34.51900
H  27.96900 3.30700 36.21400
H  26.50800 2.43100 36.77000
H  19.12300 1.22100 31.05000
H  18.93000 2.86100 30.78400
H  19.95900 2.27800 32.16900
H  18.44200 0.61600 28.56800
H  17.82100 1.55600 27.17000
H  18.00000 2.36500 28.67300
H  24.40800 2.49300 24.94900
H  26.69600 0.59500 25.19200
H  23.29700 -0.01300 25.27300
H  24.86300 -0.46800 24.48400
H  23.77500 0.76700 23.68100
H  26.55600 3.03400 23.96900
H  28.00100 2.12200 24.14500
H  28.88900 3.53800 25.51100
H  27.47000 3.88100 26.49500
H  27.74800 4.72600 24.94000
H  30.63500 1.14600 27.88400
H  31.07800 0.05000 29.27800
H  31.50800 1.82300 29.18900
H  29.09500 2.90600 33.79100
H  29.95000 0.35400 37.31200
H  28.34400 -0.13800 36.84200
H  28.55500 1.38500 37.49800
Mg 47.93900 16.89700 28.56000
C  45.70600 16.59200 31.36800
C  50.18400 18.16800 30.63700
C  49.53600 17.48800 25.86900
C  45.16500 15.67900 26.55600
N  47.88400 17.43200 30.69900
C  46.95600 17.17600 31.71700
C  47.42300 17.50100 33.13800
C  48.72800 18.25500 32.77300
C  48.97200 17.92500 31.26000
C  48.83400 19.77100 33.10300
C  47.67400 16.18700 33.87500
C  47.44800 16.15700 35.33300
H  47.41900 17.38200 36.25600
N  49.68900 17.63800 28.29800
C  50.50300 18.07200 29.25600
C  51.78200 18.35900 28.68100
C  51.62500 18.10700 27.24600
C  50.27800 17.67100 27.10300
C  53.00700 18.91100 29.49600
C  52.60100 18.10900 26.07000
O  52.26900 17.93000 24.89200
C  54.10000 18.34300 26.26600
N  47.28500 16.90700 26.39700
C  48.25900 17.14900 25.52200
C  47.83900 16.79500 24.06200
C  46.49800 16.04000 24.35200
C  46.23300 16.25800 25.91300
C  47.71700 17.94000 23.09400
C  46.49800 14.53900 24.01800
C  45.25100 14.00400 23.25000
N  45.86800 16.18900 28.85200
C  44.89700 15.72700 27.97600
C  43.71900 15.44200 28.72700
C  43.97800 15.72600 30.09700
C  45.27900 16.24400 30.05800
C  42.56000 14.70200 28.16100
C  43.44800 15.62100 31.41500
O  42.47100 15.14400 31.87300
C  44.59400 16.12900 32.38000
C  43.95400 17.18000 33.21800
O  43.42100 18.18800 32.80100
O  43.89400 16.70100 34.51300
C  43.19100 17.53700 35.43900
H  51.01500 18.38600 31.31000
H  50.06900 17.61400 24.92500
H  44.37500 15.27100 25.92200
H  46.70800 18.16900 33.61900
H  49.53300 17.83900 33.37800
H  47.87200 20.11500 33.48400
H  48.96900 20.34800 32.18800
H  49.65400 20.06200 33.76000
H  48.69000 15.84100 33.68800
H  47.06500 15.42200 33.39400
H  48.22000 15.57300 35.83300
H  46.52300 15.62000 35.54700
H  53.59700 19.60600 28.89900
H  53.40000 17.89600 29.56500
H  52.52200 19.45700 30.30500
H  54.65300 17.60700 25.68300
H  54.31500 18.09300 27.30500
H  54.36100 19.37600 26.03800
H  48.49300 16.00300 23.69800
H  45.56500 16.47700 23.99800
H  46.91000 17.77000 22.38100
H  48.69100 17.95700 22.60500
H  47.56400 18.86200 23.65400
H  46.71500 14.04600 24.96600
H  47.37800 14.30400 23.41800
H  45.70000 13.48400 22.40400
H  44.54600 14.80800 23.03800
H  44.82700 13.23800 23.89900
H  42.13400 15.13100 27.25400
H  41.78000 14.43300 28.87300
H  43.01900 13.75300 27.88600
H  44.86700 15.27900 33.00600
H  42.31200 18.14700 35.22900
H  43.83800 18.14200 36.07400
H  42.70900 16.74200 36.00800

