158

Mg -0.09100 7.02500 26.55200
C  0.81100 9.19000 29.24600
C  -0.24100 4.39900 28.83700
C  -0.72200 5.01000 24.13800
C  0.22600 9.78200 24.40800
N  0.03200 6.87800 28.77100
C  0.52500 7.84400 29.63000
C  0.79000 7.29700 31.05100
C  0.49200 5.78000 30.89800
C  0.07700 5.62700 29.40200
C  1.69300 4.86200 31.31500
C  0.04600 7.93600 32.22800
C  0.73200 8.04300 33.66500
H  1.96200 7.20800 33.99900
N  -0.56000 4.97800 26.50700
C  -0.57400 4.08300 27.50200
C  -0.98700 2.79600 27.03700
C  -1.11900 2.89600 25.66000
C  -0.81300 4.33200 25.35400
C  -1.26100 1.65400 27.95200
C  -1.34100 1.79600 24.61300
O  -1.27200 2.03500 23.39300
C  -1.57700 0.38400 24.98200
N  -0.26400 7.33300 24.54600
C  -0.39600 6.30800 23.70900
C  -0.60600 6.78000 22.21600
C  -0.24300 8.32400 22.32000
C  -0.12300 8.49800 23.91500
C  0.25400 5.98700 21.17000
C  -1.28000 9.20900 21.63500
C  -2.49900 9.78000 22.33200
N  0.48500 9.10000 26.73300
C  0.47800 10.07900 25.77000
C  0.80100 11.36000 26.39300
C  0.96200 11.05200 27.75300
C  0.73100 9.67600 27.90900
C  0.95000 12.67500 25.75500
C  1.37300 11.62700 28.96900
O  1.80300 12.76900 29.20600
C  1.10600 10.44100 30.04500
C  2.21800 10.27600 30.96800
O  3.24600 9.69900 30.81700
O  1.94100 11.08600 32.03200
C  2.91100 11.08400 33.08000
H  -0.20000 3.61300 29.59400
H  -0.97700 4.28500 23.36200
H  0.46600 10.60400 23.73100
H  1.86700 7.37300 31.20000
H  -0.46700 5.57300 31.37300
H  2.47900 5.38100 31.86400
H  2.16300 4.24800 30.54700
H  1.41500 4.23000 32.15800
H  -0.86600 7.36000 32.38200
H  -0.21200 8.94200 31.89700
H  0.00100 7.97800 34.47100
H  1.02900 9.09100 33.62700
H  -0.32800 1.11200 28.10800
H  -1.95700 1.04700 27.37300
H  -1.78700 1.94000 28.86300
H  -2.39600 0.36300 25.70100
H  -0.62300 0.19600 25.47500
H  -1.73700 -0.30300 24.15100
H  -1.64200 6.65900 21.89800
H  0.74500 8.59900 21.95000
H  0.98000 6.64500 20.69200
H  -0.35200 5.61800 20.34200
H  0.89200 5.25800 21.66800
H  -1.51800 8.56100 20.79200
H  -0.73400 10.06300 21.23400
H  -3.40000 9.54600 21.76600
H  -2.43800 10.84100 22.57300
H  -2.62100 9.25000 23.27700
H  1.78200 12.71100 25.05100
H  1.13300 13.38500 26.56200
H  0.08000 12.84100 25.11900
H  0.27800 10.78500 30.66500
H  2.30700 11.34400 33.95000
H  3.68900 11.83600 32.94700
H  3.28500 10.08500 33.30500
Mg -10.97100 37.85200 41.42700
C  -8.65400 35.19600 41.27900
C  -8.50500 39.85500 39.96300
C  -13.19600 40.16500 41.12600
C  -13.39900 35.40500 42.40400
N  -8.80100 37.57000 40.60100
C  -8.13200 36.37500 40.71200
C  -7.00100 36.47900 39.70400
C  -6.73800 38.01200 39.67600
C  -8.07500 38.54400 40.15700
C  -5.43000 38.39000 40.47100
C  -7.13000 35.76900 38.40600
C  -6.05700 34.80100 37.86800
H  -5.33800 35.32500 36.56900
N  -10.84100 39.79900 40.80800
C  -9.76200 40.48300 40.22100
C  -10.15600 41.88900 40.04800
C  -11.56200 41.94800 40.28300
C  -11.92900 40.57700 40.77600
C  -9.20400 43.02200 39.65000
C  -12.51500 43.16000 40.12100
O  -11.97200 44.12800 39.69100
C  -14.04100 43.20000 40.18000
N  -13.07800 37.77300 41.81300
C  -13.74900 38.92200 41.60000
C  -15.28000 38.60600 41.62900
C  -15.29000 37.09600 41.97000
C  -13.85900 36.71600 42.08100
C  -16.10200 39.58400 42.54500
C  -16.02100 36.06700 41.13200
C  -17.08100 35.29200 41.90100
N  -11.07700 35.73600 41.82300
C  -12.06800 34.94200 42.35000
C  -11.61400 33.64800 42.56800
C  -10.25900 33.66700 42.10600
C  -9.96500 35.01700 41.73600
C  -12.42200 32.48700 43.12700
C  -9.11400 32.89100 41.93700
O  -8.86000 31.75100 42.21800
C  -8.09500 33.79000 41.20600
C  -6.75700 33.65600 41.83900
O  -5.88000 32.95200 41.36000
O  -6.82100 34.13500 43.15000
C  -5.62200 34.00000 44.00100
H  -7.69000 40.45300 39.54900
H  -13.99700 40.88900 40.95800
H  -14.16000 34.69000 42.72300
H  -6.19900 35.97600 40.24400
H  -6.63100 38.39600 38.66100
H  -4.65600 37.62300 40.47000
H  -5.69900 38.58300 41.51000
H  -5.07800 39.28200 39.95400
H  -7.30900 36.53300 37.65000
H  -8.05600 35.19500 38.41800
H  -6.55100 33.85700 37.63600
H  -5.30100 34.67400 38.64200
H  -8.19600 42.65900 39.45100
H  -9.32900 43.90800 40.27300
H  -9.43700 43.47500 38.68700
H  -14.21700 44.17600 39.72600
H  -14.47100 43.14200 41.18000
H  -14.47700 42.43800 39.53400
H  -15.62000 38.75600 40.60400
H  -15.70000 36.97500 42.97300
H  -16.44200 40.39100 41.89600
H  -15.44800 39.89300 43.36000
H  -16.95900 38.96700 42.81800
H  -15.51500 35.28300 40.56900
H  -16.60100 36.58600 40.36900
H  -18.02200 35.39600 41.36100
H  -17.18400 35.60400 42.94000
H  -16.84600 34.22800 41.89200
H  -13.43400 32.55200 42.72700
H  -12.27800 32.43800 44.20600
H  -11.99300 31.55600 42.75600
H  -8.03600 33.45800 40.16900
H  -5.26800 35.03000 44.03800
H  -4.78800 33.38700 43.65800
H  -5.93100 33.71100 45.00600

