158

Mg 17.11900 -1.36800 27.72700
C  16.20200 0.49700 30.57700
C  19.05800 -3.47500 29.81400
C  18.42300 -2.79900 24.99100
C  15.80200 1.17900 25.71500
N  17.62100 -1.43000 29.89900
C  17.13700 -0.54900 30.83500
C  17.60000 -0.93700 32.25600
C  18.66400 -2.07100 31.97600
C  18.45000 -2.38500 30.46200
C  20.17800 -1.66700 32.39000
C  16.35500 -1.25800 33.15700
C  16.41300 -0.86500 34.66100
H  17.83900 -0.37000 35.14600
N  18.48900 -2.92500 27.44100
C  19.13400 -3.67800 28.42300
C  19.72100 -4.85200 27.86100
C  19.60800 -4.67400 26.41200
C  18.78000 -3.41600 26.25100
C  20.34900 -5.99500 28.53900
C  20.31400 -5.41500 25.27300
O  19.99900 -5.35500 24.07500
C  21.28800 -6.56900 25.57600
N  16.94600 -0.95800 25.67800
C  17.65600 -1.62500 24.70500
C  17.62800 -1.03900 23.29600
C  16.63200 0.17000 23.51700
C  16.36500 0.12100 25.04600
C  18.94300 -0.77100 22.55400
C  15.32000 0.04800 22.68200
C  15.11900 1.30600 21.70300
N  16.00000 0.29000 28.02100
C  15.60400 1.24600 27.12500
C  14.90700 2.25800 27.81800
C  15.09900 1.95400 29.13100
C  15.83600 0.78800 29.25200
C  14.19000 3.41500 27.26400
C  14.85500 2.52900 30.42700
O  14.20300 3.53900 30.71600
C  15.54200 1.58100 31.37900
C  16.54900 2.44200 32.07600
O  17.73800 2.55300 31.71800
O  15.96600 2.83400 33.23600
C  16.79200 3.68000 34.13100
H  19.55500 -4.18100 30.48300
H  18.73600 -3.22400 24.03500
H  15.39800 2.02000 25.14600
H  18.16600 -0.07300 32.60300
H  18.45100 -2.84800 32.70900
H  20.91000 -1.86600 31.60700
H  20.45300 -2.28900 33.24200
H  20.35100 -0.65400 32.75100
H  16.08300 -2.30600 33.02900
H  15.52900 -0.71800 32.69400
H  16.11100 -1.68500 35.31300
H  15.62800 -0.11100 34.72700
H  20.06700 -6.98700 28.18400
H  20.17200 -5.98600 29.61400
H  21.43300 -5.87800 28.53100
H  21.95900 -6.32400 26.40000
H  21.96700 -6.63000 24.72500
H  20.78900 -7.44800 25.98400
H  17.14900 -1.77100 22.64500
H  17.10300 1.14700 23.41300
H  18.93200 0.27500 22.24700
H  19.06200 -1.41800 21.68400
H  19.75200 -0.98900 23.25200
H  14.43300 0.25400 23.28200
H  15.23100 -0.93400 22.21700
H  14.85000 0.92500 20.71800
H  16.06000 1.84700 21.80700
H  14.30300 1.88100 22.14000
H  13.54900 3.07600 26.45000
H  14.80400 4.22300 26.86800
H  13.50700 3.78800 28.02800
H  14.79900 1.22800 32.09400
H  17.58000 4.19100 33.57800
H  17.08300 3.11300 35.01500
H  16.08600 4.37500 34.58500
Mg 34.92100 49.12700 25.92400
C  35.90300 47.14300 28.59600
C  34.05000 51.60200 28.19500
C  33.92700 50.88900 23.35900
C  35.92200 46.59100 23.84000
N  35.13100 49.37400 28.12600
C  35.50200 48.42600 29.02000
C  35.41900 48.95000 30.44100
C  34.38500 50.14800 30.29400
C  34.63700 50.49100 28.77400
C  32.84000 49.82300 30.60100
C  36.85400 49.50500 30.83300
C  37.24400 49.27900 32.30800
H  36.12200 49.11500 33.45900
N  33.97900 50.92800 25.78000
C  33.71300 51.84700 26.83000
C  33.26100 53.09800 26.23500
C  33.31700 53.01000 24.79100
C  33.74600 51.57200 24.59400
C  33.02500 54.32200 27.09700
C  32.96500 54.01900 23.72300
O  33.16500 53.75200 22.54900
C  32.49200 55.33000 24.12400
N  34.83800 48.76500 23.81300
C  34.34000 49.59000 22.94300
C  34.42600 49.10600 21.44900
C  35.32300 47.79400 21.69100
C  35.39700 47.74800 23.20300
C  33.08400 48.66800 20.75300
C  36.66200 47.74600 20.91300
C  37.85100 48.25700 21.69300
N  35.77100 47.24700 26.13100
C  36.08900 46.34600 25.17000
C  36.69400 45.16800 25.73700
C  36.56100 45.36000 27.12700
C  36.03300 46.65300 27.29200
C  37.11800 43.92600 24.93200
C  36.81900 44.80100 28.46500
O  37.30600 43.74100 28.75600
C  36.37700 45.95600 29.48100
C  35.39700 45.46200 30.47600
O  34.16100 45.37900 30.32800
O  36.05800 45.17100 31.67800
C  35.30100 44.71100 32.80800
H  33.79200 52.34700 28.95100
H  33.70400 51.48500 22.47100
H  36.28300 45.82600 23.15000
H  34.96000 48.21000 31.09700
H  34.71300 50.97100 30.92900
H  32.65800 48.75600 30.73400
H  32.22800 50.20200 29.78300
H  32.56800 50.33800 31.52200
H  37.04200 50.54400 30.56500
H  37.49600 48.82200 30.27600
H  37.91000 50.08300 32.62100
H  37.83700 48.36400 32.33900
H  32.25900 54.95000 26.64300
H  33.92000 54.93600 27.20000
H  32.62100 53.97000 28.04600
H  32.32400 55.94200 23.23800
H  33.17900 55.81300 24.81900
H  31.45900 55.29400 24.46900
H  34.98000 49.88300 20.92200
H  34.77500 46.86900 21.51300
H  32.84700 47.60500 20.72600
H  33.08800 49.06400 19.73800
H  32.23800 49.09500 21.29100
H  36.46700 48.35200 20.02800
H  36.94500 46.74300 20.59400
H  37.69200 48.61400 22.71000
H  38.29200 49.12000 21.19400
H  38.51100 47.39000 21.73900
H  37.37300 44.19900 23.90800
H  36.34400 43.16000 24.87400
H  37.91000 43.49200 25.54300
H  37.22700 46.42900 29.97100
H  35.37700 43.63500 32.96300
H  34.27900 45.09000 32.81300
H  35.73200 45.17600 33.69500

