158

Mg 6.79600 53.35600 40.86800
C  6.60800 49.76700 40.39400
C  10.09200 53.11700 40.35700
C  6.89900 56.77200 40.79400
C  3.30300 53.37100 41.05200
N  8.18400 51.60900 40.40600
C  7.92600 50.25600 40.29300
C  9.16400 49.49000 39.84700
C  10.30200 50.59800 40.16600
C  9.46500 51.86500 40.30600
C  11.09000 50.45800 41.47200
C  9.15500 48.82200 38.48500
C  8.73100 49.75200 37.30700
H  7.34100 49.54700 36.71500
N  8.26900 54.71700 40.57400
C  9.59500 54.38600 40.34700
C  10.39100 55.63000 40.10700
C  9.45100 56.75200 40.19500
C  8.12500 56.11300 40.54400
C  11.78900 55.56700 39.60400
C  9.77800 58.23300 39.98200
O  10.91900 58.51400 39.84500
C  8.74400 59.35000 40.13900
N  5.27100 54.86700 40.66700
C  5.56700 56.21700 40.84400
C  4.23700 57.02300 41.30700
C  3.14800 55.88800 41.19900
C  3.95400 54.58800 40.95600
C  4.37400 57.57800 42.73500
C  2.02600 56.24600 40.15900
C  1.08800 57.44800 40.55600
N  5.23200 51.88500 40.71900
C  3.90300 52.11700 40.89600
C  3.28800 50.85000 40.86900
C  4.27900 49.94600 40.84800
C  5.48600 50.56800 40.60500
C  1.85100 50.47300 41.19200
C  4.55000 48.49700 41.01900
O  3.84000 47.54600 41.24700
C  6.00600 48.34400 40.72700
C  6.07600 47.35800 39.59700
O  5.86800 47.62400 38.40900
O  6.43200 46.14600 40.06700
C  6.45400 45.03900 39.09200
H  11.18400 53.10800 40.36900
H  6.89300 57.84300 41.01200
H  2.21900 53.44500 41.16800
H  9.31100 48.69300 40.57500
H  10.86900 50.64000 39.23600
H  10.87400 51.24400 42.19700
H  12.08700 50.66500 41.08400
H  11.08400 49.47800 41.94800
H  8.39300 48.05000 38.58200
H  10.19300 48.52900 38.32500
H  9.46700 49.79200 36.50400
H  8.77700 50.79800 37.60900
H  12.35900 54.69900 39.93400
H  12.33800 56.47400 39.85800
H  11.78700 55.56100 38.51400
H  8.03500 59.17900 39.32900
H  9.33200 60.25300 39.97700
H  8.26800 59.33200 41.11900
H  4.02500 57.76900 40.54000
H  2.63700 55.79500 42.15800
H  5.39500 57.58800 43.11600
H  3.86900 56.97300 43.48700
H  4.03800 58.61200 42.80300
H  1.43600 55.33300 40.07900
H  2.49900 56.35800 39.18300
H  1.56600 57.75200 41.48700
H  0.11900 57.01400 40.80500
H  1.05800 58.25200 39.82100
H  1.36700 50.32800 40.22600
H  1.37000 51.28800 41.73400
H  1.70000 49.50500 41.66900
H  6.56900 47.85200 41.52000
H  5.41700 44.92200 38.77600
H  6.73800 44.12700 39.61700
H  7.22300 45.14500 38.32700
Mg -5.46400 25.04200 25.49200
C  -4.24100 26.60700 28.45500
C  -6.89600 22.69200 27.62200
C  -6.74000 23.65000 22.74700
C  -3.78700 27.45400 23.63600
N  -5.50900 24.79600 27.80300
C  -4.99500 25.52900 28.80300
C  -5.56400 25.08600 30.19900
C  -6.17700 23.70400 29.89200
C  -6.18700 23.71800 28.34200
C  -5.26100 22.52400 30.45200
C  -6.57300 26.21200 30.67100
C  -6.27500 26.81100 32.04600
H  -6.16300 25.89800 33.28100
N  -6.62100 23.33100 25.17200
C  -7.12400 22.49200 26.19900
C  -7.70500 21.41800 25.50100
C  -7.74100 21.71700 24.09100
C  -7.02900 22.92300 23.99600
C  -8.39900 20.29100 26.25200
C  -8.47800 20.95300 22.93000
O  -8.50600 21.30800 21.79200
C  -9.22900 19.69000 23.17100
N  -5.37000 25.53300 23.45900
C  -5.92400 24.78600 22.50000
C  -5.54300 25.25800 21.10800
C  -4.98900 26.64500 21.45300
C  -4.62100 26.52800 22.91900
C  -4.44400 24.29700 20.44100
C  -5.93700 27.88000 21.33600
C  -5.94100 28.59800 19.98300
N  -4.19600 26.67900 25.84100
C  -3.59500 27.53200 25.01100
C  -2.76300 28.41500 25.75200
C  -3.01000 28.06500 27.09700
C  -3.92300 27.04500 27.13400
C  -1.85200 29.42200 25.20800
C  -2.56900 28.41000 28.49900
O  -1.78600 29.27600 28.83100
C  -3.47000 27.52500 29.45200
C  -2.62900 26.66900 30.32800
O  -1.87500 25.83200 29.87000
O  -2.81200 26.93100 31.69400
C  -2.12100 26.06900 32.66700
H  -7.39500 21.97400 28.27600
H  -7.24200 23.25800 21.86000
H  -3.17200 28.14500 23.05500
H  -4.82100 24.95100 30.98400
H  -7.14500 23.58900 30.38000
H  -5.85400 21.63000 30.64400
H  -4.77400 22.88700 31.35700
H  -4.56000 22.15200 29.70500
H  -7.57900 25.79100 30.69200
H  -6.48700 27.02400 29.94900
H  -6.98800 27.62400 32.17800
H  -5.34200 27.29800 31.76000
H  -7.99100 19.33700 25.91900
H  -9.45900 20.26900 25.99700
H  -8.35600 20.16300 27.33300
H  -10.00900 19.98100 23.87400
H  -8.63900 18.89800 23.63300
H  -9.61800 19.31300 22.22500
H  -6.45200 25.30700 20.51000
H  -4.06200 26.86800 20.92500
H  -4.15900 23.45200 21.06800
H  -3.59000 24.76200 19.94800
H  -4.96600 23.76100 19.64800
H  -5.84000 28.68200 22.06700
H  -6.94600 27.47500 21.42300
H  -5.09700 29.28600 20.03700
H  -6.88600 29.06100 19.70100
H  -5.77000 27.85500 19.20400
H  -2.49500 29.97400 24.52100
H  -0.92800 29.07600 24.74500
H  -1.51800 30.10200 25.99100
H  -4.07000 28.28300 29.95600
H  -2.33800 25.00400 32.57500
H  -2.37700 26.40500 33.67200
H  -1.04200 26.14800 32.53400

