158

Mg 46.32100 17.32400 29.10400
C  44.41600 16.90200 31.89000
C  48.68700 18.91900 30.90000
C  47.90200 17.70700 26.16000
C  43.72100 15.65400 27.24500
N  46.49900 17.95500 31.13100
C  45.56600 17.69000 32.10800
C  46.00900 18.16900 33.47800
C  47.37300 18.96200 33.10800
C  47.54100 18.58900 31.63200
C  47.26200 20.47400 33.41900
C  46.37500 16.97100 34.47200
C  46.53900 17.10600 35.99000
H  46.21300 18.47400 36.63700
N  48.04900 18.30700 28.61300
C  48.93000 18.82600 29.46000
C  50.09400 19.24600 28.70600
C  49.98700 18.73200 27.35300
C  48.55800 18.25200 27.36200
C  51.20900 20.02400 29.32900
C  50.92800 18.74400 26.16800
O  50.63600 18.24700 25.05200
C  52.35200 19.24800 26.41400
N  45.87200 16.82500 27.09100
C  46.65600 17.17200 26.00900
C  46.00600 16.88000 24.67700
C  44.86700 15.92000 25.14500
C  44.83700 16.15100 26.60900
C  45.65000 18.16400 23.93200
C  45.12300 14.36200 24.92400
C  44.49300 13.83100 23.69400
N  44.35000 16.61400 29.41300
C  43.43200 15.93700 28.61600
C  42.26700 15.64600 29.41700
C  42.62800 15.99500 30.73100
C  43.90800 16.51400 30.67900
C  41.03300 15.03800 28.90400
C  42.19400 15.95700 32.13300
O  41.13300 15.54400 32.62100
C  43.37300 16.54600 32.95000
C  42.81600 17.64700 33.74500
O  42.57500 18.73600 33.28100
O  42.35000 17.23500 35.00900
C  41.84300 18.24600 35.96700
H  49.39100 19.48400 31.51400
H  48.37000 17.95100 25.20400
H  42.87700 15.14100 26.78100
H  45.23700 18.82400 33.88200
H  48.28400 18.61400 33.59500
H  46.26400 20.86200 33.62500
H  47.61100 21.06400 32.57100
H  47.79400 20.68300 34.34600
H  47.21300 16.41400 34.05300
H  45.67700 16.14300 34.35000
H  47.57400 16.90600 36.27100
H  45.89000 16.37800 36.47700
H  51.09800 20.26000 30.38800
H  51.48900 20.94700 28.82200
H  52.07600 19.36400 29.31000
H  52.45100 20.19400 26.94700
H  52.66800 19.40700 25.38300
H  52.85300 18.41700 26.91100
H  46.78900 16.33500 24.15000
H  43.97000 16.30200 24.65800
H  46.55700 18.68800 23.62900
H  44.98200 18.77800 24.53500
H  44.91100 17.90200 23.17500
H  44.71500 13.78400 25.75300
H  46.20300 14.21400 24.89700
H  44.17400 14.67600 23.08400
H  43.64500 13.15500 23.80300
H  45.27100 13.36000 23.09300
H  40.84400 15.43600 27.90700
H  40.24900 15.45100 29.54000
H  40.94300 13.95200 28.89400
H  43.57900 15.80000 33.71800
H  40.78800 18.09800 36.20000
H  41.89400 19.29200 35.66900
H  42.33000 18.03300 36.91900
Mg -11.40000 37.44200 43.16700
C  -9.01900 34.82400 42.68200
C  -9.05100 39.63100 42.08200
C  -13.80200 39.68700 43.06200
C  -13.75000 34.88400 43.75800
N  -9.22000 37.15600 42.49200
C  -8.44800 36.07100 42.46200
C  -7.01200 36.40700 41.87300
C  -7.07600 37.98500 41.87700
C  -8.51200 38.32500 42.20000
C  -6.20500 38.63600 42.87600
C  -6.74100 35.83500 40.39500
C  -5.28800 35.35700 40.11500
H  -4.59900 36.08600 38.90200
N  -11.42400 39.38400 42.59500
C  -10.33900 40.14300 42.31200
C  -10.77500 41.47000 42.03300
C  -12.18600 41.53200 42.24400
C  -12.54700 40.16900 42.64800
C  -9.85000 42.56500 41.50000
C  -13.05700 42.75700 41.91500
O  -12.70600 43.84800 41.49700
C  -14.57100 42.68400 42.16500
N  -13.58200 37.32400 43.34200
C  -14.27800 38.41500 43.39700
C  -15.72900 38.21000 43.80000
C  -15.68900 36.61300 43.69900
C  -14.24100 36.18700 43.67200
C  -16.25700 38.84600 45.13400
C  -16.48900 36.04800 42.46700
C  -17.68200 35.13200 42.93100
N  -11.40700 35.34400 43.43100
C  -12.47100 34.47700 43.57400
C  -12.05300 33.08800 43.55000
C  -10.65500 33.23000 43.27800
C  -10.33300 34.59100 43.12000
C  -12.77500 31.80900 43.80100
C  -9.39900 32.44900 43.10500
O  -9.16000 31.27600 43.23000
C  -8.36600 33.48700 42.59200
C  -7.20300 33.44200 43.57700
O  -7.27800 33.76200 44.76800
O  -6.10800 32.90000 43.04300
C  -5.01800 32.62700 44.09300
H  -8.29700 40.36000 41.77800
H  -14.58900 40.37800 43.36900
H  -14.46800 34.06200 43.81000
H  -6.32800 36.07800 42.65500
H  -6.94200 38.43800 40.89500
H  -5.45500 37.96200 43.29100
H  -6.74900 39.05500 43.72300
H  -5.61200 39.43700 42.43500
H  -6.87200 36.72900 39.78600
H  -7.38200 34.97600 40.20200
H  -5.25000 34.27500 39.99300
H  -4.65200 35.46200 40.99400
H  -8.85000 42.24500 41.21000
H  -9.77600 43.30600 42.29500
H  -10.38000 43.07400 40.69400
H  -15.02800 43.62600 41.86400
H  -14.85400 42.63300 43.21600
H  -14.84100 41.73800 41.69400
H  -16.45300 38.56000 43.06500
H  -16.10600 36.37000 44.67600
H  -17.34400 38.92300 45.11300
H  -15.82700 39.80900 45.40900
H  -15.84000 38.24300 45.94100
H  -15.82500 35.48200 41.81500
H  -16.81300 36.82700 41.77600
H  -17.77100 34.12000 42.53700
H  -18.66700 35.53300 42.69400
H  -17.69500 34.98400 44.01100
H  -13.85700 31.82900 43.66800
H  -12.50900 31.29300 44.72300
H  -12.63600 31.10300 42.98100
H  -8.01400 33.18800 41.60400
H  -5.17900 31.65700 44.56500
H  -4.97600 33.41900 44.84000
H  -4.02100 32.52100 43.66600

