158

Mg 1.47700 -1.89400 42.58600
C  5.02000 -1.75000 42.10100
C  1.30500 1.20700 40.93800
C  -1.71400 -2.57600 41.91200
C  1.89100 -5.17200 43.83400
N  2.99000 -0.45900 41.60600
C  4.37800 -0.64300 41.61200
C  5.07900 0.58100 40.83500
C  3.85700 1.59600 40.60400
C  2.65100 0.78500 41.10200
C  4.09000 2.90800 41.42400
C  5.78300 0.16500 39.45200
C  6.55800 1.31300 38.78200
H  6.25500 1.65600 37.29800
N  -0.01500 -0.82300 41.71200
C  0.11100 0.44200 41.11700
C  -1.23600 0.90600 40.80000
C  -2.07900 -0.24100 40.95900
C  -1.28200 -1.30600 41.50800
C  -1.59900 2.27100 40.30200
C  -3.59400 -0.29900 40.62700
O  -4.08200 0.76200 40.30300
C  -4.53500 -1.49800 40.74100
N  0.32300 -3.66600 42.75800
C  -0.98800 -3.63800 42.49300
C  -1.59900 -5.01300 42.84700
C  -0.51200 -5.86400 43.57400
C  0.67400 -4.86200 43.33700
C  -2.94000 -5.07200 43.62000
C  -0.39400 -7.35000 43.05800
C  -0.91800 -8.50700 43.94700
N  3.13700 -3.09000 43.14400
C  3.12400 -4.42200 43.56100
C  4.50900 -4.82300 43.68000
C  5.26000 -3.72800 43.22600
C  4.38400 -2.80200 42.80100
C  4.99300 -6.17700 44.14200
C  6.65700 -3.27800 42.98400
O  7.73600 -3.76700 43.27000
C  6.52300 -2.03700 42.13400
C  7.30900 -0.93100 42.61000
O  8.05300 -0.31800 41.85200
O  7.06000 -0.57100 43.89600
C  7.67000 0.67700 44.35500
H  1.22200 2.20600 40.50600
H  -2.76000 -2.84000 41.74100
H  1.97900 -6.14500 44.32300
H  5.81900 1.03900 41.49200
H  3.78600 1.67500 39.51900
H  3.14200 3.42500 41.57600
H  4.66900 3.66200 40.89200
H  4.59200 2.58600 42.33600
H  5.05200 -0.25500 38.76100
H  6.45300 -0.65200 39.71600
H  7.63700 1.21700 38.90400
H  6.23500 2.15400 39.39600
H  -1.00900 3.05000 40.78500
H  -2.60500 2.65800 40.46000
H  -1.47000 2.27300 39.22000
H  -5.50600 -1.19500 40.35000
H  -4.67700 -1.87200 41.75400
H  -4.20300 -2.27000 40.04600
H  -1.89600 -5.55800 41.95100
H  -0.79700 -5.79200 44.62400
H  -3.32500 -4.07400 43.83400
H  -2.85400 -5.68800 44.51600
H  -3.59600 -5.63300 42.95600
H  0.65500 -7.45600 42.78400
H  -0.99000 -7.47000 42.15400
H  -1.51300 -8.01400 44.71500
H  -0.04900 -8.96700 44.41800
H  -1.44800 -9.22600 43.32200
H  5.26100 -6.77000 43.26800
H  4.12000 -6.64000 44.60300
H  5.80000 -6.01300 44.85500
H  7.04700 -2.28400 41.21100
H  7.22200 1.58000 43.93700
H  8.74600 0.65400 44.18500
H  7.52100 0.70700 45.43400
Mg 44.78400 4.00100 47.58200
C  42.30600 6.64600 47.15300
C  42.13800 1.76800 47.29300
C  46.93700 1.73500 47.43100
C  47.32400 6.50800 47.20500
N  42.54200 4.23300 47.23400
C  41.73300 5.35400 47.13400
C  40.25200 5.02000 46.97400
C  40.26300 3.53500 47.33400
C  41.71200 3.10500 47.27700
C  39.50300 3.26700 48.66900
C  39.54600 5.28100 45.58900
C  38.55800 6.46200 45.42400
H  38.42500 7.16100 43.99200
N  44.59500 2.02900 47.52600
C  43.44100 1.19800 47.38300
C  43.84600 -0.12900 47.58500
C  45.27600 -0.17000 47.61100
C  45.66700 1.24500 47.52000
C  42.87100 -1.23900 47.66000
C  46.17500 -1.44700 47.88600
O  45.72200 -2.53100 48.07100
C  47.66900 -1.39100 47.88300
N  46.87200 4.15700 47.29200
C  47.49800 2.98100 47.33800
C  49.05100 3.18700 47.37100
C  49.17300 4.71600 47.24000
C  47.70200 5.17200 47.25300
C  49.94600 2.62200 48.44000
C  49.93900 5.22000 45.94400
C  51.19800 6.00700 46.28300
N  44.89000 6.16900 47.30600
C  45.96200 7.05400 47.18200
C  45.49900 8.40800 46.98200
C  44.07000 8.26000 47.04000
C  43.75800 6.91500 47.27500
C  46.27200 9.73100 46.72000
C  42.85600 9.02800 46.86600
O  42.71600 10.23000 46.66500
C  41.65900 7.97800 46.91200
C  40.63500 8.46700 47.95300
O  40.54400 7.97600 49.09000
O  39.78200 9.42800 47.41800
C  38.65500 9.93800 48.20300
H  41.22600 1.18800 47.14100
H  47.79100 1.06400 47.53700
H  48.17000 7.19500 47.27200
H  39.64400 5.60400 47.66600
H  39.87100 2.91600 46.52700
H  40.23300 2.77600 49.31200
H  38.58200 2.68400 48.65200
H  39.19200 4.16000 49.21100
H  39.03200 4.37700 45.26300
H  40.24000 5.51500 44.78200
H  38.93000 7.17700 46.15800
H  37.52900 6.15300 45.60700
H  41.87100 -0.85200 47.46300
H  43.01200 -1.69300 48.64100
H  42.96800 -1.94800 46.83700
H  48.03300 -1.00100 46.93200
H  48.01500 -2.41600 48.01600
H  48.00700 -0.76800 48.71200
H  49.44300 2.81500 46.42400
H  49.59100 5.02600 48.19800
H  49.33300 1.96900 49.06000
H  50.39800 3.37300 49.08800
H  50.81100 2.10000 48.03100
H  49.31000 5.91800 45.39100
H  50.17900 4.43000 45.23200
H  51.24000 6.36000 47.31300
H  51.42000 6.83500 45.61000
H  52.00300 5.27400 46.33500
H  46.79100 9.65800 45.76500
H  47.08200 9.80600 47.44600
H  45.66600 10.63700 46.73400
H  41.31800 7.92100 45.87800
H  38.39700 10.96800 47.95700
H  38.91800 9.90300 49.26100
H  37.75600 9.33600 48.07400

