158

Mg 49.94600 44.42500 43.45800
C  46.81100 45.21300 41.96900
C  49.55100 41.21300 42.59700
C  53.09900 43.88000 44.44500
C  50.37200 47.87800 43.94100
N  48.30700 43.32400 42.47000
C  47.23000 43.83800 41.74000
C  46.35000 42.66200 41.19000
C  47.24600 41.42300 41.42200
C  48.44200 41.97000 42.20200
C  46.59000 40.07300 42.06800
C  45.77300 42.71700 39.69900
C  46.30400 43.64300 38.57700
H  46.64100 42.96500 37.23800
N  51.14600 42.82300 43.52900
C  50.81700 41.54800 43.16400
C  51.91100 40.62600 43.28000
C  52.98700 41.37900 43.78300
C  52.39900 42.74900 44.02400
C  51.88200 39.23200 42.85500
C  54.45800 40.89000 43.87300
O  54.73000 39.75600 43.52800
C  55.65400 41.72600 44.33200
N  51.49500 45.70300 44.24100
C  52.75200 45.21000 44.49200
C  53.79300 46.35900 44.77400
C  52.90400 47.65500 44.60600
C  51.49100 47.08700 44.23000
C  54.53600 46.19700 46.10500
C  53.38500 48.69200 43.55400
C  53.95200 50.06100 44.12900
N  48.81100 46.18400 43.24100
C  49.11800 47.46700 43.50500
C  48.00900 48.39100 43.11300
C  47.06800 47.51400 42.61400
C  47.59400 46.21100 42.61700
C  48.05500 49.83700 43.21600
C  45.76400 47.47200 42.01700
O  44.96800 48.39200 41.80400
C  45.58300 45.99600 41.48500
C  44.33600 45.32200 41.84900
O  43.44900 45.07000 40.98000
O  44.33800 45.19600 43.21300
C  42.99900 44.69500 43.71600
H  49.50800 40.20500 42.18000
H  54.11700 43.64000 44.75800
H  50.54300 48.95200 44.04300
H  45.56600 42.59300 41.94400
H  47.75700 41.32200 40.46500
H  46.47300 39.29400 41.31500
H  45.63700 40.33700 42.52700
H  47.25900 39.73100 42.85700
H  44.71600 42.90300 39.88900
H  45.90700 41.71100 39.30000
H  47.17600 44.17100 38.96100
H  45.56100 44.42600 38.42900
H  51.81200 39.04600 41.78300
H  50.95400 38.76200 43.18000
H  52.70500 38.59200 43.17500
H  55.76600 42.54100 43.61800
H  56.55700 41.13100 44.19900
H  55.41300 42.14100 45.31100
H  54.62700 46.30500 44.07400
H  52.75900 47.98100 45.63600
H  54.81000 45.18400 46.40000
H  53.73400 46.48000 46.78700
H  55.36400 46.90000 46.19800
H  52.63800 48.83700 42.77400
H  54.16600 48.30800 42.89700
H  54.93800 50.21000 43.68900
H  54.14400 50.03600 45.20100
H  53.30000 50.91600 43.95300
H  48.19900 50.09100 44.26600
H  47.09300 50.22500 42.88300
H  48.93800 50.21600 42.70000
H  45.58600 46.08400 40.39900
H  42.39800 45.38900 44.30300
H  43.28300 43.96800 44.47700
H  42.35200 44.28900 42.93900
Mg -11.91800 16.52700 42.58700
C  -8.58300 15.26400 42.06100
C  -10.94800 19.34900 40.89600
C  -15.05300 17.56100 42.90500
C  -12.70600 13.44800 43.89100
N  -9.99200 17.19500 41.48500
C  -8.75500 16.55100 41.42800
C  -7.76800 17.44800 40.56900
C  -8.67300 18.68700 40.20800
C  -9.91500 18.42900 41.03700
C  -7.96400 20.07600 40.33100
C  -7.25000 16.63300 39.33300
C  -5.74200 16.47700 39.20100
H  -5.08500 17.10000 37.96900
N  -12.91900 18.21100 41.87500
C  -12.36200 19.30300 41.29000
C  -13.31900 20.33700 41.15000
C  -14.47700 19.94000 41.83300
C  -14.24100 18.51900 42.15000
C  -12.99300 21.67100 40.51000
C  -15.73600 20.77000 42.02600
O  -15.86400 21.92400 41.54700
C  -16.88200 20.24400 42.75300
N  -13.68800 15.53400 43.02200
C  -14.80400 16.26800 43.31100
C  -15.77200 15.44400 44.14900
C  -15.01100 14.09400 44.42100
C  -13.68600 14.34300 43.69500
C  -16.36100 16.12300 45.41600
C  -15.76600 12.74300 43.89000
C  -15.61200 11.56800 44.87500
N  -10.88000 14.76800 43.05800
C  -11.33600 13.57400 43.60500
C  -10.25600 12.67500 43.93100
C  -9.10100 13.27200 43.28900
C  -9.58800 14.52400 42.74900
C  -10.40300 11.35600 44.56000
C  -7.65400 13.15700 42.92500
O  -6.82800 12.26700 43.17400
C  -7.25600 14.43600 42.11700
C  -6.18400 15.07000 42.89100
O  -6.31300 15.40800 44.02000
O  -4.94600 14.96800 42.27800
C  -3.67600 15.17200 43.02400
H  -10.77700 20.34900 40.49200
H  -16.09400 17.87800 42.99500
H  -13.07700 12.51000 44.30900
H  -6.96400 17.77000 41.23200
H  -8.90800 18.49900 39.16100
H  -8.24300 20.56300 41.26500
H  -8.23800 20.68600 39.47100
H  -6.88500 19.92000 40.31500
H  -7.72200 16.89500 38.38600
H  -7.58100 15.60400 39.46800
H  -5.44800 15.42800 39.18400
H  -5.31100 16.95100 40.08300
H  -13.82500 22.37300 40.56000
H  -12.80600 21.63000 39.43700
H  -12.13000 22.18500 40.93100
H  -17.64200 20.99500 42.97200
H  -16.61300 19.89100 43.74800
H  -17.32800 19.44000 42.16700
H  -16.56500 15.16500 43.45500
H  -14.86000 14.05700 45.49900
H  -16.13200 17.18200 45.29800
H  -16.03400 15.64900 46.34200
H  -17.44600 16.07600 45.50400
H  -15.21400 12.45400 42.99500
H  -16.81600 12.91800 43.65900
H  -16.53400 11.05600 45.15200
H  -15.27700 11.94200 45.84200
H  -15.01800 10.69300 44.61100
H  -10.36600 11.61100 45.61900
H  -9.61000 10.63500 44.36400
H  -11.36800 10.91400 44.31200
H  -6.97400 14.15600 41.10200
H  -2.90600 14.41300 42.88500
H  -3.93000 14.99400 44.06900
H  -3.23600 16.16800 42.97200

