158

Mg 57.21400 23.31500 45.16700
C  55.34100 25.96600 44.20600
C  54.98500 21.09400 43.66300
C  59.60000 20.74500 45.47400
C  59.74900 25.53200 46.22800
N  55.49400 23.52100 43.97000
C  54.85600 24.74100 43.71200
C  53.47700 24.51500 43.05600
C  53.21800 22.97500 43.34100
C  54.66300 22.48000 43.68500
C  52.16800 22.55500 44.38000
C  53.66700 24.91400 41.60800
C  52.65800 25.85500 40.98300
H  51.64600 25.36200 39.94200
N  57.28600 21.21700 44.71300
C  56.21500 20.55000 44.09000
C  56.58200 19.22600 44.04500
C  57.79600 19.06800 44.70400
C  58.28900 20.36000 45.03500
C  55.52900 18.20500 43.47700
C  58.42200 17.66500 44.95800
O  57.97400 16.73600 44.30400
C  59.66000 17.47500 45.81800
N  59.37300 23.13800 45.58900
C  60.07600 22.03800 45.78800
C  61.47500 22.19100 46.34900
C  61.59600 23.77500 46.33200
C  60.13800 24.20700 46.04700
C  61.68700 21.47800 47.65300
C  62.57100 24.37000 45.23400
C  64.08300 24.28500 45.60700
N  57.43900 25.34400 45.34800
C  58.47600 26.15200 45.83700
C  58.02500 27.50300 45.93900
C  56.78100 27.51100 45.27200
C  56.55100 26.16900 44.89700
C  58.72700 28.72200 46.61200
C  55.65700 28.31100 44.89300
O  55.52000 29.51800 45.04700
C  54.76000 27.34900 44.07100
C  54.63400 27.95500 42.73800
O  55.46400 27.89400 41.88800
O  53.42500 28.65700 42.61500
C  53.22800 29.33300 41.31300
H  54.15800 20.49400 43.27700
H  60.34000 19.97700 45.70900
H  60.46500 26.29200 46.54800
H  52.61800 25.03700 43.47700
H  52.91600 22.52000 42.39700
H  51.49200 21.80300 43.97300
H  51.57900 23.40500 44.72600
H  52.69200 22.16700 45.25400
H  53.65300 24.06700 40.92300
H  54.68200 25.27900 41.45200
H  53.32000 26.61300 40.56500
H  52.05400 26.40900 41.70100
H  55.45000 18.43600 42.41500
H  54.54600 18.33300 43.93200
H  55.76700 17.14200 43.46400
H  60.57100 17.76500 45.29500
H  59.77100 16.42800 46.09800
H  59.45500 18.09300 46.69200
H  61.99400 21.60700 45.58900
H  61.91500 24.18200 47.29200
H  62.74100 21.20100 47.69300
H  61.00100 20.63300 47.69800
H  61.47500 22.13900 48.49300
H  62.37600 25.40900 44.96700
H  62.45200 23.86700 44.27500
H  64.58400 23.34300 45.38500
H  64.14900 24.48300 46.67700
H  64.63900 25.02600 45.03300
H  59.78800 28.50600 46.73400
H  58.31400 28.78000 47.62000
H  58.61500 29.66000 46.06700
H  53.77600 27.36300 44.54000
H  54.20300 29.53600 40.87100
H  52.64400 30.25100 41.37800
H  52.63000 28.73900 40.62200
Mg 26.88800 49.91300 26.23900
C  24.91200 51.10900 28.82900
C  28.99500 48.52600 28.56900
C  28.89500 48.85200 23.64900
C  24.83900 51.57700 23.93000
N  26.93800 49.96800 28.44800
C  25.95200 50.37600 29.31900
C  26.30200 50.03700 30.75100
C  27.76000 49.42000 30.63500
C  27.89400 49.22500 29.08800
C  28.93500 50.27400 31.24100
C  25.18000 49.23000 31.44100
C  24.35200 49.73200 32.59600
H  24.41300 48.94000 33.88000
N  28.68500 48.88800 26.15400
C  29.36300 48.32500 27.25400
C  30.59400 47.70300 26.76800
C  30.47400 47.71600 25.35400
C  29.30300 48.54100 24.97800
C  31.63100 47.22300 27.67700
C  31.50600 47.17200 24.33300
O  31.37900 47.25500 23.11100
C  32.66500 46.49100 24.82800
N  26.81500 50.13800 24.08000
C  27.75800 49.62400 23.26400
C  27.38800 49.89300 21.75300
C  26.07300 50.69700 21.90000
C  25.87400 50.84700 23.39200
C  28.54800 50.55400 20.97700
C  24.85300 49.96500 21.26600
C  23.75100 50.86100 20.68400
N  25.26600 51.18100 26.23700
C  24.56300 51.84400 25.28400
C  23.46800 52.52100 25.88800
C  23.53400 52.22200 27.24700
C  24.66600 51.47200 27.43600
C  22.47300 53.35300 25.06500
C  22.93900 52.50500 28.54400
O  21.89200 53.11200 28.88600
C  23.75300 51.76900 29.63800
C  24.06300 52.65200 30.78300
O  25.12500 53.26100 31.02100
O  22.94400 52.75900 31.60000
C  23.27500 53.35600 32.93300
H  29.76100 48.28600 29.31000
H  29.49300 48.61600 22.76700
H  24.20400 52.10300 23.21300
H  26.42500 51.00000 31.24800
H  27.68900 48.43900 31.10300
H  28.45800 51.21400 31.51900
H  29.65300 50.33000 30.42300
H  29.43400 49.90700 32.13700
H  25.58500 48.32100 31.88600
H  24.42600 48.91700 30.71900
H  23.30100 49.80700 32.31700
H  24.68000 50.74300 32.83600
H  32.62500 47.51500 27.33900
H  31.58000 46.13500 27.61700
H  31.53900 47.41400 28.74600
H  33.18700 46.07000 23.96900
H  32.32000 45.72500 25.52300
H  33.37200 47.19300 25.26900
H  27.18100 48.88700 21.38800
H  26.11300 51.71300 21.50800
H  29.28100 50.64500 21.77900
H  28.27100 51.50400 20.52100
H  28.82900 49.91400 20.14100
H  24.40300 49.43200 22.10400
H  25.19900 49.21700 20.55300
H  22.99200 51.09400 21.43000
H  23.18200 50.43700 19.85700
H  24.27500 51.74600 20.32100
H  21.43100 53.37900 25.38400
H  22.44800 53.00500 24.03200
H  22.79600 54.39200 24.99300
H  23.15200 51.04600 30.18900
H  23.51000 52.67500 33.75200
H  22.33300 53.78600 33.27300
H  23.85200 54.26400 33.10900

