158

Mg -2.11500 17.33400 27.40800
C  -2.41900 14.94600 30.05000
C  -2.53600 19.84900 29.49400
C  -2.14500 19.41500 24.69100
C  -1.70300 14.52800 25.19800
N  -2.44700 17.32600 29.52900
C  -2.39500 16.30600 30.51500
C  -2.69800 16.94500 31.88500
C  -2.82900 18.47200 31.61600
C  -2.47800 18.60500 30.10400
C  -4.08300 19.26600 32.20100
C  -1.62500 16.47000 32.99100
C  -1.37600 17.35300 34.26300
H  -1.37800 16.62200 35.61100
N  -2.25700 19.40600 27.13700
C  -2.45500 20.29500 28.11800
C  -2.58800 21.60700 27.58200
C  -2.42300 21.51500 26.18600
C  -2.33500 20.05500 25.91600
C  -2.83500 22.80800 28.46600
C  -2.42700 22.53100 25.11300
O  -2.43000 22.21800 23.88500
C  -2.49900 24.05500 25.43700
N  -1.98200 16.98400 25.29000
C  -1.99300 17.99800 24.37300
C  -1.64100 17.52300 22.92800
C  -1.32300 15.97500 23.20500
C  -1.63400 15.78600 24.70000
C  -2.83300 17.77000 21.97200
C  0.07300 15.59400 22.79500
C  1.21200 16.10300 23.70900
N  -2.10200 15.25200 27.54000
C  -1.93700 14.26400 26.58300
C  -2.07600 12.94600 27.12300
C  -2.28200 13.25300 28.47300
C  -2.23200 14.62000 28.67400
C  -2.04500 11.69000 26.38700
C  -2.47500 12.54100 29.70800
O  -2.35100 11.35700 29.88900
C  -2.60200 13.65900 30.82200
C  -1.48500 13.35200 31.72500
O  -0.32100 13.73000 31.60500
O  -2.02200 12.67900 32.77800
C  -1.07600 12.46500 33.82600
H  -2.66000 20.72300 30.13700
H  -2.09600 20.00800 23.77500
H  -1.61500 13.69500 24.49700
H  -3.63900 16.45500 32.13700
H  -1.94300 18.97900 32.00000
H  -3.78200 20.06500 32.87900
H  -4.72200 18.50400 32.64600
H  -4.60500 19.58200 31.29900
H  -0.68300 16.44500 32.44300
H  -1.95600 15.47300 33.28400
H  -2.26400 17.98500 34.25100
H  -0.47500 17.93400 34.06900
H  -2.00800 23.49300 28.27900
H  -2.98700 22.50800 29.50300
H  -3.77700 23.17800 28.06200
H  -3.49000 24.34400 25.78800
H  -2.20900 24.66800 24.58300
H  -1.76100 24.18700 26.22800
H  -0.72700 18.03700 22.63100
H  -1.88700 15.29600 22.56600
H  -3.63100 18.28500 22.50800
H  -3.26600 16.89100 21.49500
H  -2.40400 18.40300 21.19500
H  0.20300 15.88900 21.75300
H  0.10700 14.51300 22.92800
H  1.21600 15.40800 24.54800
H  0.87900 17.01500 24.20400
H  2.17000 16.23200 23.20500
H  -1.91300 10.80900 27.01600
H  -1.30100 11.73000 25.59200
H  -3.00800 11.47100 25.92500
H  -3.58100 13.77900 31.28500
H  -0.28800 11.76200 33.55300
H  -1.70800 11.91000 34.51900
H  -0.79600 13.41600 34.27900
Mg 44.89100 5.25800 48.43000
C  42.35400 7.63300 47.84600
C  42.49900 2.81300 48.15100
C  47.31400 2.90600 48.48500
C  47.24100 7.69300 48.00400
N  42.61000 5.23500 48.18800
C  41.85700 6.31400 47.81800
C  40.43100 5.95500 47.37200
C  40.41300 4.43800 47.78500
C  41.88300 4.11600 48.08500
C  39.50100 4.14700 49.08600
C  40.23100 6.31100 45.87700
C  39.02800 7.24800 45.50400
H  38.30700 6.99600 44.17400
N  44.89400 3.14600 48.51400
C  43.78800 2.36200 48.39300
C  44.24500 1.00200 48.35800
C  45.63500 0.99800 48.47500
C  46.04000 2.37600 48.46200
C  43.32800 -0.16700 48.35400
C  46.52900 -0.24900 48.74600
O  45.98900 -1.37600 48.83500
C  48.02000 -0.19800 48.85700
N  46.96100 5.26700 48.09100
C  47.78800 4.20700 48.44700
C  49.27800 4.61000 48.66100
C  49.26600 6.14600 48.58600
C  47.76400 6.39600 48.09800
C  50.03900 3.94100 49.90300
C  50.42300 6.79800 47.63200
C  51.31800 7.84000 48.30500
N  44.84900 7.29500 48.03900
C  45.88400 8.16700 47.83600
C  45.31700 9.52000 47.74000
C  43.97200 9.36500 47.79300
C  43.71400 8.00900 47.99700
C  46.14200 10.84400 47.55300
C  42.74100 10.12300 47.71300
O  42.55800 11.36400 47.66800
C  41.62700 8.97700 47.73400
C  40.67800 9.23400 48.80600
O  40.77400 8.89200 50.00500
O  39.67600 10.03400 48.34400
C  38.70600 10.49100 49.32800
H  41.74900 2.02100 48.10000
H  48.08100 2.13100 48.42700
H  47.91400 8.55100 48.05800
H  39.67500 6.48000 47.95500
H  40.20000 3.79700 46.93000
H  40.15200 3.88100 49.91900
H  38.95400 3.23600 48.84400
H  38.89100 4.99700 49.39100
H  40.26700 5.43800 45.22400
H  41.08500 6.92300 45.59000
H  39.36300 8.28400 45.51200
H  38.30600 7.14500 46.31400
H  43.51800 -0.96300 49.07400
H  43.50000 -0.72300 47.43300
H  42.28000 0.12600 48.41400
H  48.40600 -1.20800 48.99600
H  48.10600 0.37200 49.78200
H  48.55000 0.07400 47.94400
H  49.68400 4.14300 47.76300
H  49.38300 6.55500 49.58900
H  49.26700 3.91200 50.67100
H  50.85000 4.60900 50.19300
H  50.39300 2.91300 49.84000
H  49.77400 7.27400 46.89700
H  50.93800 5.98400 47.12300
H  51.30400 8.71000 47.64800
H  52.29500 7.36200 48.36800
H  51.00400 8.08500 49.32000
H  45.44700 11.61900 47.23100
H  46.99600 10.69100 46.89200
H  46.46800 11.06400 48.57000
H  41.12400 9.09200 46.77400
H  39.10600 10.96400 50.22500
H  38.26500 9.62000 49.81300
H  37.97100 11.09700 48.79900

