158

Mg 53.61400 23.43800 45.72200
C  51.29700 25.47600 44.22100
C  51.83800 20.73600 44.57700
C  56.38100 21.38300 46.25300
C  55.56100 26.09700 46.32000
N  51.81000 23.10500 44.58500
C  51.09000 24.13500 43.97500
C  49.77500 23.48700 43.41400
C  49.79900 22.05100 43.87700
C  51.26800 21.92500 44.37800
C  48.63000 21.62200 44.86300
C  49.67700 23.65100 41.84900
C  48.29000 23.84200 41.23600
H  48.05400 23.39700 39.84100
N  54.02800 21.29200 45.42200
C  53.14200 20.33200 44.99700
C  53.75000 18.99900 45.04000
C  55.02100 19.16400 45.62800
C  55.19100 20.68400 45.83700
C  53.03800 17.82200 44.34800
C  55.95100 18.02200 45.95200
O  55.74800 16.88100 45.54100
C  57.16200 18.34800 46.71700
N  55.77300 23.67400 46.01000
C  56.66100 22.73800 46.39200
C  58.01700 23.27900 46.85500
C  57.77400 24.86100 46.66700
C  56.26800 24.89900 46.32600
C  58.37000 22.94100 48.34600
C  58.60200 25.55700 45.48900
C  59.81300 26.41600 45.82900
N  53.41100 25.37900 45.59600
C  54.26000 26.41800 45.90300
C  53.68100 27.73200 45.66600
C  52.45600 27.40000 45.08400
C  52.40500 25.95600 44.92200
C  54.26600 29.14100 45.90000
C  51.23000 27.92500 44.54300
O  50.73800 29.00500 44.55500
C  50.41800 26.71000 43.90700
C  50.42900 26.92800 42.39500
O  51.42300 26.83700 41.63300
O  49.18200 27.37000 42.00800
C  49.18100 27.87700 40.67600
H  51.15500 19.92800 44.30800
H  57.37000 20.94300 46.39400
H  56.26400 26.90400 46.53700
H  48.94500 23.98100 43.91900
H  49.75800 21.45100 42.96800
H  47.94500 22.46100 44.98500
H  48.99700 21.37900 45.86000
H  48.05500 20.71600 44.67200
H  50.04800 22.76000 41.34000
H  50.27100 24.50200 41.51600
H  47.93400 24.84200 41.48400
H  47.61500 23.15600 41.74700
H  53.17300 16.90600 44.92300
H  53.50900 17.67900 43.37500
H  51.99000 18.06500 44.17100
H  56.87900 18.71400 47.70400
H  57.80200 18.95500 46.07600
H  57.68500 17.39400 46.77900
H  58.70000 22.86800 46.11200
H  57.89600 25.25800 47.67400
H  59.14800 22.18300 48.43200
H  57.44400 22.50700 48.72200
H  58.67400 23.82700 48.90400
H  57.88300 26.21300 44.99800
H  58.92100 24.80100 44.77100
H  59.62500 27.39200 45.38000
H  60.70800 26.04200 45.33200
H  60.03600 26.40900 46.89600
H  54.18900 29.36500 46.96300
H  53.71600 29.88400 45.32300
H  55.31100 29.25000 45.61200
H  49.43500 26.65200 44.37600
H  50.17300 28.06200 40.26300
H  48.59600 28.79200 40.77200
H  48.55500 27.18400 40.11400
Mg 0.46100 42.75900 26.11200
C  2.78200 42.56300 28.74100
C  -1.99300 41.80800 28.32200
C  -1.68000 42.56200 23.44900
C  3.08600 43.45100 24.04700
N  0.44200 42.05500 28.20100
C  1.48400 42.28600 29.13600
C  0.96500 42.23100 30.60300
C  -0.47000 41.60800 30.39600
C  -0.78100 41.84200 28.87700
C  -0.59600 40.12900 30.81700
C  1.07200 43.63400 31.32400
C  1.00900 43.78200 32.91100
H  0.60900 42.49600 33.76200
N  -1.51900 42.27600 25.92400
C  -2.37600 42.00300 26.96300
C  -3.70600 41.90800 26.46000
C  -3.67000 42.06400 25.01500
C  -2.23800 42.27000 24.68600
C  -4.91000 41.68000 27.30100
C  -4.80600 42.02800 24.03000
O  -4.59500 42.16300 22.84300
C  -6.18300 41.77100 24.56100
N  0.68600 42.82500 24.00200
C  -0.31900 42.87000 23.11200
C  0.10700 43.27800 21.67300
C  1.62600 43.56200 21.91200
C  1.84200 43.21400 23.41000
C  -0.21000 42.14500 20.70600
C  2.08600 44.96900 21.56300
C  1.70700 46.02900 22.57800
N  2.53400 43.03800 26.32600
C  3.42500 43.24500 25.36600
C  4.77900 43.27400 25.89400
C  4.62200 42.99400 27.26200
C  3.19500 42.87200 27.42800
C  6.04700 43.31200 25.10800
C  5.23700 42.81400 28.50400
O  6.41700 42.80000 28.76800
C  4.07100 42.54000 29.52400
C  4.30300 41.28900 30.30700
O  3.84200 40.15600 30.06700
O  5.21800 41.51500 31.28900
C  5.68200 40.36100 32.10200
H  -2.71800 41.65700 29.12400
H  -2.32700 42.62700 22.57200
H  3.82900 43.82600 23.34000
H  1.65700 41.58300 31.14100
H  -1.26700 42.14100 30.91400
H  0.38400 39.67100 30.94900
H  -0.98200 39.66500 29.90900
H  -1.25400 39.87500 31.64800
H  0.31300 44.34300 30.99600
H  1.99300 44.12100 31.00400
H  0.34200 44.57900 33.24100
H  1.91800 44.18400 33.35800
H  -5.61500 42.51000 27.27500
H  -4.61100 41.36000 28.30000
H  -5.47200 40.87500 26.82700
H  -6.29200 40.72800 24.85800
H  -6.90900 41.88600 23.75600
H  -6.46200 42.38100 25.42000
H  -0.50400 44.11500 21.33700
H  2.25400 42.86500 21.35800
H  0.33700 42.18000 19.76300
H  -1.28500 41.97400 20.66700
H  0.15700 41.24400 21.19700
H  1.55000 45.13500 20.62800
H  3.17300 45.05200 21.57900
H  1.07000 45.55900 23.32700
H  1.19100 46.85200 22.08400
H  2.66000 46.39900 22.95800
H  6.84900 43.86400 25.60000
H  5.74600 43.70900 24.13900
H  6.45500 42.31900 24.92100
H  4.15900 43.33400 30.26600
H  4.89300 39.62200 32.23700
H  5.84100 40.71100 33.12200
H  6.60900 39.91600 31.73900

