158

Mg 30.76400 58.65800 39.27600
C  28.17400 56.62200 38.45300
C  32.95900 55.79600 38.53300
C  33.20900 60.72200 39.08900
C  28.41600 61.33000 39.58700
N  30.54900 56.47900 38.58400
C  29.32500 55.89700 38.37500
C  29.47900 54.48800 37.85900
C  30.89300 54.12400 38.44200
C  31.57100 55.55300 38.56000
C  30.91000 53.45000 39.88300
C  29.51900 54.46600 36.34700
C  28.91700 53.27500 35.57500
H  28.22300 53.65300 34.29800
N  32.84000 58.34600 38.83900
C  33.53400 57.08500 38.57900
C  34.95800 57.38200 38.46300
C  35.09400 58.86300 38.61800
C  33.70700 59.39000 38.81500
C  35.99600 56.36000 38.17200
C  36.45300 59.63100 38.50700
O  37.54400 59.05300 38.33100
C  36.41500 61.17200 38.51400
N  30.81800 60.80000 39.33500
C  31.99800 61.39000 39.36100
C  31.78900 62.89800 39.60500
C  30.30000 63.08800 40.00100
C  29.79500 61.67000 39.75600
C  32.72100 63.43000 40.72200
C  29.56200 64.17600 39.24900
C  29.36900 64.01800 37.76100
N  28.72300 58.98500 39.15600
C  27.84300 60.03500 39.32900
C  26.46000 59.66900 39.08200
C  26.59700 58.34000 38.72400
C  27.92200 57.94500 38.83800
C  25.31800 60.57200 38.95400
C  25.77800 57.16900 38.33000
O  24.59800 57.15500 38.13600
C  26.76500 55.99700 38.21900
C  26.27700 55.00500 39.19200
O  26.77500 54.76200 40.28500
O  25.22400 54.37700 38.65700
C  24.50000 53.38200 39.41100
H  33.58600 54.91700 38.69700
H  33.99900 61.47500 39.03100
H  27.65800 62.10900 39.69500
H  28.77900 53.74100 38.23300
H  31.36600 53.41200 37.76500
H  29.90900 53.27300 40.27500
H  31.45800 54.03600 40.62000
H  31.38800 52.47500 39.78200
H  30.56200 54.64400 36.08400
H  28.96200 55.34100 36.01300
H  28.11200 52.74000 36.07900
H  29.69800 52.56600 35.30100
H  36.29800 56.36900 37.12500
H  35.68500 55.33200 38.35500
H  36.88700 56.46900 38.78900
H  36.17700 61.53800 39.51300
H  35.71900 61.51600 37.74900
H  37.45500 61.45700 38.35800
H  32.10200 63.41300 38.69600
H  30.33100 63.18600 41.08600
H  32.91200 62.61700 41.42200
H  32.40200 64.34700 41.21700
H  33.66900 63.71200 40.26500
H  30.10400 65.05600 39.59600
H  28.62400 64.01200 39.78000
H  29.37900 64.96900 37.22800
H  28.38700 63.54500 37.75000
H  30.07900 63.39500 37.21700
H  25.65400 61.58200 38.71800
H  24.72100 60.64500 39.86300
H  24.68300 60.20200 38.15000
H  26.85200 55.58300 37.21400
H  24.46300 52.38700 38.96800
H  23.46700 53.70400 39.54400
H  24.83600 53.23800 40.43800
Mg -1.73400 34.42700 27.72100
C  -3.29700 32.39300 30.07400
C  -0.26400 36.16100 30.40700
C  -0.53700 36.56900 25.50400
C  -3.66500 32.82500 25.20600
N  -1.89800 34.40000 30.01900
C  -2.55100 33.39100 30.73500
C  -2.36600 33.62800 32.26100
C  -1.55000 34.92500 32.29400
C  -1.10200 35.11800 30.84500
C  -2.39500 36.24600 32.74600
C  -1.65200 32.38800 32.88800
C  -2.36200 31.75700 34.08900
H  -1.71900 31.64500 35.47100
N  -0.46000 36.04500 27.92200
C  0.15500 36.51900 29.07500
C  1.04000 37.61400 28.69700
C  0.91300 37.77400 27.29700
C  -0.06600 36.75600 26.81800
C  1.91400 38.41000 29.72900
C  1.64500 38.82300 26.41600
O  1.46400 38.99900 25.24500
C  2.72400 39.67900 27.14700
N  -2.13400 34.66600 25.67200
C  -1.49200 35.65200 25.01300
C  -2.18900 35.83900 23.59300
C  -2.87200 34.39100 23.35800
C  -2.90700 33.91800 24.83000
C  -3.32400 36.96800 23.58300
C  -2.02500 33.44200 22.52700
C  -2.66000 33.09000 21.18200
N  -3.16900 32.87600 27.63900
C  -3.78600 32.33300 26.50200
C  -4.58300 31.18900 26.93000
C  -4.43000 31.20900 28.34700
C  -3.55000 32.27100 28.71400
C  -5.27600 30.26200 26.07800
C  -4.85100 30.47000 29.55500
O  -5.58500 29.50900 29.67000
C  -4.16900 31.26500 30.74200
C  -5.07600 31.65600 31.83500
O  -5.75800 32.68000 31.91400
O  -5.09400 30.56600 32.72200
C  -5.88900 30.77300 33.83100
H  0.12900 36.83600 31.17000
H  -0.12300 37.34000 24.85000
H  -4.36000 32.35300 24.51000
H  -3.39400 33.76500 32.59400
H  -0.65100 34.83600 32.90400
H  -3.43000 36.14400 33.07200
H  -2.45600 36.99200 31.95400
H  -1.94000 36.78400 33.57800
H  -0.67800 32.72000 33.24800
H  -1.33700 31.63100 32.16900
H  -2.49000 30.69700 33.86700
H  -3.32400 32.25100 34.22200
H  2.98300 38.24100 29.59900
H  1.58300 38.12800 30.72900
H  1.71000 39.47300 29.85700
H  3.20800 40.40100 26.49000
H  3.60000 39.05500 27.32800
H  2.45900 40.28400 28.01400
H  -1.51600 36.17500 22.80500
H  -3.81100 34.66500 22.87700
H  -4.35800 36.63100 23.51400
H  -3.14800 37.64800 22.75000
H  -3.27400 37.63300 24.44500
H  -1.89900 32.52000 23.09500
H  -1.07700 33.87100 22.20300
H  -1.91100 33.14300 20.39200
H  -3.53200 33.67700 20.89700
H  -2.92800 32.03300 21.19300
H  -6.31100 30.60100 26.02400
H  -5.50200 29.28300 26.49900
H  -4.92800 30.19500 25.04700
H  -3.50600 30.59500 31.29000
H  -6.91500 31.04200 33.57700
H  -5.49600 31.58100 34.44800
H  -5.82700 29.84900 34.40500

