158

Mg -2.31900 17.09100 25.67800
C  -2.93300 14.83400 28.26100
C  -2.63400 19.70400 27.87300
C  -2.18500 19.22900 23.07000
C  -2.02200 14.34900 23.53800
N  -2.91400 17.25100 27.80100
C  -2.91100 16.20500 28.68400
C  -3.05700 16.66800 30.11400
C  -3.15800 18.23700 29.93000
C  -2.88300 18.47500 28.47000
C  -4.47100 18.99600 30.33700
C  -1.77700 16.26800 30.96800
C  -1.44200 17.21100 32.16900
H  -1.09500 16.64800 33.58100
N  -2.48000 19.15700 25.48100
C  -2.47500 20.06700 26.50300
C  -2.65200 21.40500 25.94200
C  -2.50400 21.30700 24.59000
C  -2.31400 19.84600 24.31100
C  -2.87700 22.64000 26.76000
C  -2.60400 22.41100 23.55400
O  -2.43100 22.23000 22.31700
C  -2.73400 23.91600 24.00200
N  -2.20900 16.90200 23.60100
C  -2.13000 17.85900 22.66300
C  -2.18200 17.34200 21.23400
C  -1.69900 15.91100 21.43400
C  -1.98300 15.70200 22.97300
C  -3.57500 17.40700 20.50500
C  -0.29400 15.72900 20.93400
C  0.81700 16.25400 21.84500
N  -2.59300 14.97200 25.72700
C  -2.31500 13.95600 24.85700
C  -2.32400 12.63400 25.46300
C  -2.75900 12.98400 26.81600
C  -2.77600 14.35200 26.92300
C  -2.29400 11.32200 24.77900
C  -3.03400 12.41600 28.08200
O  -3.00600 11.21800 28.42400
C  -3.12500 13.60300 29.01900
C  -2.05800 13.30000 30.02000
O  -0.85700 13.58900 29.85100
O  -2.53600 12.63700 31.12200
C  -1.56600 12.13600 32.14600
H  -2.70000 20.45300 28.66500
H  -2.19600 19.94400 22.24500
H  -1.71400 13.42300 23.05000
H  -3.98700 16.40000 30.61500
H  -2.34800 18.78400 30.41300
H  -4.94900 19.60100 29.56600
H  -4.24800 19.70700 31.13300
H  -5.22600 18.26400 30.62200
H  -0.90500 16.00300 30.37000
H  -2.08800 15.35700 31.47900
H  -2.27600 17.88400 32.37100
H  -0.68700 17.85400 31.71800
H  -3.63900 23.26500 26.29500
H  -1.99000 23.23400 26.98000
H  -3.29000 22.27500 27.70100
H  -3.74300 23.94900 24.41400
H  -2.65600 24.47400 23.06900
H  -1.93000 24.19100 24.68400
H  -1.54800 18.04100 20.68900
H  -2.33800 15.19500 20.91700
H  -4.09700 18.26400 20.93000
H  -4.18900 16.51100 20.58900
H  -3.39000 17.79100 19.50200
H  -0.20700 16.11200 19.91700
H  -0.24900 14.65600 20.75300
H  1.65200 16.57200 21.22200
H  1.10000 15.40100 22.46200
H  0.53100 17.04600 22.53600
H  -3.25300 11.16100 24.28700
H  -2.26200 10.59300 25.58900
H  -1.42600 11.23500 24.12500
H  -4.03600 13.50800 29.60900
H  -1.15200 11.15300 31.92000
H  -1.93300 12.07800 33.17100
H  -0.64900 12.72400 32.13400
Mg -0.19800 42.62500 26.35600
C  2.04100 42.77400 29.04900
C  -2.76400 42.02100 28.56400
C  -2.20200 42.04500 23.75900
C  2.55100 43.02000 24.21800
N  -0.30800 42.40800 28.61800
C  0.70900 42.61600 29.49000
C  0.10000 42.87000 30.95500
C  -1.39500 42.49200 30.69800
C  -1.51900 42.32300 29.20400
C  -1.80900 41.18100 31.41900
C  0.41700 44.25800 31.48600
C  0.86000 44.33700 33.00800
H  0.66800 43.09500 33.86100
N  -2.16700 42.19300 26.15000
C  -3.12200 42.00700 27.16900
C  -4.43000 41.85800 26.62700
C  -4.26500 41.85600 25.17600
C  -2.82700 42.00600 24.99900
C  -5.73500 41.66000 27.46400
C  -5.28100 41.72100 24.13700
O  -5.00100 41.58200 22.96200
C  -6.74600 41.77100 24.46100
N  0.19700 42.43000 24.28000
C  -0.82100 42.20600 23.40800
C  -0.28500 42.29000 21.92300
C  1.21900 42.68100 22.06700
C  1.35600 42.70200 23.62700
C  -0.54500 40.88100 21.27600
C  1.48200 44.10900 21.37700
C  0.97800 45.30800 22.19900
N  1.86300 42.81700 26.55200
C  2.84700 43.03500 25.58900
C  4.13200 43.24000 26.21600
C  3.85300 43.02800 27.59300
C  2.48000 42.85300 27.73100
C  5.39700 43.64100 25.60100
C  4.49400 42.90200 28.85400
O  5.68200 42.88400 29.11600
C  3.32100 42.75000 29.85700
C  3.52400 41.38300 30.49000
O  2.70700 40.49800 30.33100
O  4.42900 41.42200 31.46200
C  4.15900 40.51400 32.59900
H  -3.60100 42.04000 29.26400
H  -2.73100 42.06400 22.80400
H  3.42900 43.28900 23.62600
H  0.58400 42.06600 31.50800
H  -2.10300 43.26900 30.98400
H  -1.12200 40.88200 32.21100
H  -1.87200 40.24900 30.85700
H  -2.73600 41.38500 31.95300
H  -0.45000 44.88400 31.27700
H  1.24500 44.54800 30.83900
H  0.24400 45.16200 33.36500
H  1.86900 44.72400 33.15100
H  -6.13200 42.67200 27.54300
H  -5.53400 41.22500 28.44300
H  -6.39300 40.90800 27.02700
H  -7.34000 42.02800 23.58400
H  -6.80000 42.45000 25.31200
H  -7.13500 40.77500 24.67100
H  -0.81800 42.98000 21.27000
H  1.90700 41.99700 21.57000
H  0.35200 40.41300 20.87000
H  -1.16200 41.11000 20.40700
H  -1.13900 40.20800 21.89400
H  0.99000 44.09800 20.40400
H  2.52200 44.19400 21.06400
H  1.76000 46.02900 22.44000
H  0.46300 44.88800 23.06200
H  0.24200 45.66800 21.48000
H  5.39900 44.72300 25.73700
H  5.37500 43.37900 24.54400
H  6.32900 43.21100 25.96700
H  3.38300 43.50000 30.64500
H  4.12200 39.44700 32.38000
H  3.19200 40.77900 33.02600
H  4.86500 40.73100 33.40100

