158

Mg 35.71500 0.34200 29.71800
C  33.59200 1.03700 32.51600
C  38.24600 0.10800 32.09400
C  37.73000 -0.06000 27.24800
C  32.96500 0.78200 27.63800
N  35.85900 0.61400 32.14100
C  34.87100 0.83500 32.99000
C  35.43700 0.87600 34.48300
C  36.94300 0.77100 34.30600
C  37.03000 0.45100 32.76900
C  37.78400 2.04000 34.61300
C  34.75300 -0.15600 35.39900
C  34.48000 0.20900 36.84800
H  35.07600 1.43000 37.56500
N  37.74400 0.01200 29.67400
C  38.60700 -0.01100 30.70600
C  39.90000 -0.48100 30.22500
C  39.74900 -0.43200 28.78600
C  38.39400 -0.15500 28.50800
C  41.02600 -0.74400 31.21600
C  40.77300 -0.74600 27.65700
O  40.69000 -0.67500 26.44300
C  42.11900 -1.11000 28.18700
N  35.37100 0.24100 27.77600
C  36.41700 0.11300 26.89400
C  35.91400 -0.00800 25.46800
C  34.39100 0.13400 25.61800
C  34.20700 0.40700 27.11600
C  36.53800 0.94900 24.42200
C  33.68400 -1.01700 25.08700
C  33.37000 -2.11900 26.15900
N  33.67100 0.91300 29.92300
C  32.71100 1.06600 29.00500
C  31.43800 1.37400 29.70200
C  31.81200 1.47800 31.05100
C  33.10600 1.01400 31.15400
C  30.20300 1.79900 29.04800
C  31.25100 1.83300 32.31500
O  30.13300 2.15800 32.55400
C  32.38600 1.47500 33.36500
C  32.66500 2.72500 34.11600
O  33.40900 3.67400 33.81800
O  31.91900 2.63500 35.28600
C  31.90100 3.93700 36.04000
H  39.13000 0.16300 32.73200
H  38.32900 -0.21000 26.34600
H  32.12600 0.75200 26.93900
H  35.25600 1.83300 34.97300
H  37.26800 -0.11900 34.84500
H  38.60000 2.13400 33.89700
H  38.34100 1.77500 35.51100
H  37.13900 2.91900 34.62700
H  35.29000 -1.09900 35.29900
H  33.78000 -0.26700 34.92100
H  34.90800 -0.58600 37.46000
H  33.42000 0.32500 37.07500
H  41.93800 -1.16500 30.79200
H  40.58500 -1.43800 31.93100
H  41.20700 0.18300 31.76000
H  42.14000 -2.04600 28.74600
H  42.37300 -0.24900 28.80500
H  42.83600 -1.11900 27.36600
H  36.10800 -1.04600 25.19800
H  34.04400 1.08900 25.22500
H  35.97100 1.87900 24.42200
H  36.67100 0.57500 23.40600
H  37.55300 1.17400 24.75200
H  34.16100 -1.46800 24.21700
H  32.78900 -0.56300 24.66200
H  33.94700 -2.18600 27.08200
H  33.71200 -2.97000 25.57100
H  32.30400 -2.21800 26.36300
H  29.82200 2.79000 29.29500
H  29.52600 0.96300 29.22400
H  30.35800 1.68100 27.97600
H  31.92700 0.67300 33.94400
H  32.78600 4.00200 36.67200
H  30.96300 3.98400 36.59300
H  31.95800 4.74500 35.31100
Mg -8.45400 40.63300 42.45100
C  -7.56400 37.31100 41.48400
C  -5.61700 41.77600 40.68200
C  -9.74500 43.71500 42.50600
C  -11.64300 39.20300 43.27400
N  -6.80500 39.58300 41.23200
C  -6.68300 38.26700 40.91900
C  -5.40700 37.99400 40.03500
C  -4.71100 39.45600 39.95600
C  -5.78100 40.37700 40.64800
C  -3.30400 39.54700 40.51900
C  -5.76000 37.32000 38.66000
C  -5.16500 35.94700 38.42200
H  -3.98900 35.93500 37.34700
N  -7.69800 42.52000 41.93200
C  -6.51200 42.77800 41.20400
C  -6.29300 44.22500 41.14000
C  -7.54500 44.78700 41.65200
C  -8.40000 43.63800 42.09400
C  -5.20600 44.98000 40.47400
C  -7.75000 46.30900 41.72100
O  -6.94200 47.11400 41.27900
C  -8.95000 46.87500 42.34900
N  -10.37900 41.32800 43.08200
C  -10.63900 42.69300 42.92200
C  -12.18900 42.98700 43.04900
C  -12.76200 41.51000 43.31300
C  -11.52000 40.60000 43.16500
C  -12.55200 44.04600 44.18400
C  -13.90200 41.14900 42.34800
C  -15.13900 40.52500 42.93100
N  -9.35800 38.61900 42.54500
C  -10.62800 38.24100 42.91500
C  -10.69400 36.81800 43.06800
C  -9.44400 36.36000 42.51400
C  -8.74600 37.50100 42.18800
C  -11.86600 36.02700 43.62000
C  -8.56100 35.21800 42.25700
O  -8.77900 34.02100 42.43500
C  -7.30500 35.78400 41.58700
C  -6.10500 35.52000 42.36300
O  -5.71900 36.17100 43.36200
O  -5.39800 34.43900 41.80100
C  -4.27500 33.96200 42.52000
H  -4.80400 42.16400 40.06400
H  -10.38200 44.56100 42.23800
H  -12.64000 38.86900 43.56900
H  -4.76600 37.32300 40.60600
H  -4.69100 39.70900 38.89600
H  -3.17800 38.70800 41.20300
H  -3.11100 40.53500 40.93900
H  -2.55800 39.44100 39.73100
H  -5.48900 37.95700 37.81900
H  -6.83800 37.17300 38.59300
H  -5.91300 35.23200 38.07900
H  -4.86300 35.51100 39.37400
H  -4.65600 45.52600 41.24000
H  -5.60600 45.59000 39.66300
H  -4.42800 44.30300 40.12000
H  -8.92100 47.90400 42.70500
H  -9.05700 46.36800 43.30800
H  -9.77700 46.76200 41.64700
H  -12.69800 43.30900 42.14000
H  -13.12100 41.50900 44.34200
H  -11.56500 44.39900 44.48400
H  -13.18200 43.71900 45.01100
H  -12.97900 44.96300 43.77600
H  -13.30400 40.63100 41.59900
H  -14.30500 42.05100 41.88800
H  -15.51600 40.96300 43.85500
H  -15.03200 39.45300 43.09900
H  -16.01800 40.57600 42.28900
H  -12.18700 36.20200 44.64600
H  -11.53800 34.98800 43.65600
H  -12.71700 36.08400 42.94100
H  -7.22000 35.44200 40.55500
H  -4.31800 32.87300 42.55300
H  -4.35200 34.26300 43.56500
H  -3.37600 34.19000 41.94800

