158

Mg 2.74600 -2.41900 45.53200
C  5.81100 -1.02600 44.64900
C  1.26200 -0.04200 43.27800
C  -0.10000 -3.91700 45.60300
C  4.45200 -5.18600 46.79900
N  3.44000 -0.82600 44.05900
C  4.75200 -0.37700 43.97200
C  4.90700 0.80200 43.01300
C  3.42000 1.13100 42.67200
C  2.63600 0.06300 43.36300
C  2.94300 2.50700 43.13000
C  5.76600 0.49000 41.73700
C  7.07300 1.36000 41.59000
H  7.57800 1.59300 40.14000
N  0.76700 -1.90000 44.77100
C  0.40600 -0.93600 43.88600
C  -0.98500 -1.01600 43.60600
C  -1.46000 -2.18800 44.28100
C  -0.29800 -2.68100 44.95600
C  -1.74100 -0.15100 42.57800
C  -2.90000 -2.76900 44.20500
O  -3.76300 -2.26100 43.50300
C  -3.32100 -4.00500 45.04900
N  2.23400 -4.21700 46.23600
C  0.96900 -4.57800 46.19300
C  0.80000 -5.94200 46.86300
C  2.26800 -6.37800 47.22100
C  3.05500 -5.13900 46.78700
C  -0.12500 -6.04700 48.12900
C  2.73500 -7.75900 46.53000
C  2.40100 -8.99000 47.37500
N  4.68800 -2.96000 45.73600
C  5.22600 -4.11100 46.36000
C  6.64900 -3.88900 46.56700
C  6.84700 -2.63000 45.92300
C  5.68800 -2.18100 45.37700
C  7.68800 -4.69500 47.35700
C  7.86600 -1.68300 45.67300
O  9.04700 -1.66600 45.93200
C  7.28800 -0.61900 44.76200
C  7.42700 0.81800 45.33000
O  6.73400 1.34500 46.25400
O  8.47200 1.39700 44.75600
C  8.55400 2.84700 45.03200
H  0.77600 0.69200 42.63200
H  -1.01600 -4.50900 45.65900
H  4.94600 -5.98600 47.35400
H  5.44000 1.60000 43.52900
H  3.28400 1.12800 41.59100
H  2.12800 2.45400 43.85100
H  2.60400 3.07500 42.26400
H  3.83100 2.98600 43.54300
H  5.18800 0.61700 40.82100
H  6.11800 -0.54100 41.71900
H  7.79000 0.93500 42.29200
H  6.97600 2.34100 42.05600
H  -1.18800 0.76600 42.37700
H  -2.68300 0.27300 42.92500
H  -1.98200 -0.73400 41.68900
H  -2.86800 -4.92200 44.67200
H  -4.38500 -4.19800 44.91500
H  -3.03000 -3.85900 46.08900
H  0.32600 -6.59400 46.13000
H  2.37500 -6.56400 48.29000
H  -0.48600 -5.05800 48.41200
H  0.40300 -6.34100 49.03600
H  -0.90500 -6.79700 47.99500
H  3.75000 -7.83100 46.13900
H  1.98300 -7.77900 45.74100
H  1.32400 -9.15600 47.38400
H  2.65100 -8.79700 48.41900
H  2.91700 -9.88300 47.02400
H  7.74800 -5.67900 46.89300
H  7.43800 -4.85100 48.40700
H  8.68200 -4.26300 47.24600
H  7.71800 -0.64600 43.76100
H  7.56100 3.22500 44.78900
H  9.21400 3.30200 44.29300
H  8.90900 3.03100 46.04600
Mg 36.35100 49.92400 25.19600
C  36.46000 48.21700 28.24900
C  34.64900 52.48500 26.77800
C  35.63300 51.21500 22.08800
C  37.70000 47.08500 23.66300
N  35.67400 50.30000 27.31400
C  35.94000 49.52000 28.37200
C  35.45600 50.11100 29.65800
C  34.71600 51.40700 29.15200
C  35.11100 51.47100 27.67800
C  33.15800 51.23400 29.39900
C  36.54000 50.48200 30.65600
C  36.11000 50.34600 32.09100
H  34.66400 50.25100 32.47400
N  35.34300 51.68900 24.54300
C  34.73700 52.60800 25.32200
C  34.37100 53.69200 24.47000
C  34.47100 53.23900 23.14400
C  35.13600 52.00300 23.20400
C  33.72300 54.92400 24.96700
C  34.17700 54.07600 21.85700
O  34.24800 53.63500 20.66800
C  33.49400 55.42400 21.94100
N  36.45100 49.13900 23.11400
C  36.24400 49.98200 22.04800
C  36.79600 49.26300 20.75200
C  37.75500 48.19700 21.37800
C  37.33400 48.13900 22.83000
C  35.69400 48.61100 19.91300
C  39.24500 48.61600 21.39200
C  40.18000 47.44600 21.16900
N  37.11000 48.05500 25.77700
C  37.44000 46.99500 25.00600
C  37.81200 45.92100 25.99600
C  37.43500 46.38900 27.20900
C  36.98200 47.68200 27.05100
C  38.35500 44.59400 25.68200
C  37.48900 45.96700 28.59100
O  37.96900 45.00600 29.18100
C  36.81600 47.20000 29.33100
C  35.79600 46.66600 30.24800
O  34.62700 46.63800 29.99400
O  36.35800 46.12200 31.33100
C  35.41200 45.61000 32.34700
H  34.10700 53.30700 27.25100
H  35.36900 51.64800 21.12100
H  38.01700 46.15400 23.18700
H  34.67400 49.48700 30.09000
H  35.07800 52.27800 29.69800
H  32.91500 50.48600 30.15300
H  32.70100 51.06500 28.42400
H  32.71700 52.17000 29.74200
H  36.97400 51.47400 30.53500
H  37.42500 49.84800 30.60700
H  36.62300 51.07500 32.71700
H  36.57300 49.39600 32.35600
H  34.24300 55.80800 24.59800
H  33.55900 55.00900 26.04100
H  32.75800 54.99200 24.46400
H  32.53100 55.31800 22.44000
H  33.52200 55.75300 20.90200
H  34.18800 56.17900 22.31100
H  37.36900 50.02300 20.22000
H  37.67600 47.17100 21.01900
H  35.55300 49.33900 19.11400
H  34.82000 48.61900 20.56400
H  35.95700 47.61100 19.56600
H  39.52200 49.04100 22.35700
H  39.46500 49.33100 20.59900
H  40.94900 47.39200 21.93900
H  40.69700 47.67500 20.23700
H  39.62700 46.53800 20.93200
H  38.15800 44.19700 24.68700
H  38.14800 43.88700 26.48500
H  39.43500 44.74200 25.65700
H  37.57700 47.66500 29.95700
H  34.87200 44.77200 31.90600
H  34.66900 46.38000 32.55700
H  36.03900 45.36700 33.20400

