158

Mg 9.07100 4.00100 27.93400
C  10.04200 2.26800 30.88900
C  7.48100 6.37800 29.99500
C  7.48900 5.20700 25.17900
C  10.28300 1.20700 25.99600
N  8.81000 4.29000 30.19500
C  9.34400 3.44900 31.16400
C  9.07200 4.04000 32.59500
C  8.05300 5.15800 32.29800
C  8.17000 5.30700 30.69300
C  6.65900 4.98200 32.88600
C  10.35900 4.44800 33.42000
C  10.08100 4.66900 34.87100
H  10.61100 3.65200 35.93800
N  7.87000 5.72800 27.58900
C  7.36100 6.55300 28.55800
C  6.54900 7.57800 27.86900
C  6.48900 7.24500 26.50300
C  7.30900 5.98600 26.36200
C  5.86700 8.72600 28.57100
C  5.85400 8.06400 25.35500
O  5.91400 7.65100 24.20100
C  5.16200 9.35200 25.65600
N  8.91400 3.27400 25.84800
C  8.25700 4.01100 24.97600
C  8.41500 3.42000 23.56500
C  9.49500 2.33300 23.76500
C  9.51200 2.19800 25.30300
C  7.04900 2.85100 23.01100
C  10.95000 2.70400 23.22200
C  11.62200 1.58000 22.49400
N  10.10300 2.24000 28.27400
C  10.52500 1.26100 27.40000
C  11.31000 0.30800 28.24000
C  11.11400 0.63300 29.58600
C  10.36900 1.83300 29.55800
C  12.15800 -0.84300 27.76300
C  11.50300 0.31100 30.98600
O  12.16300 -0.59700 31.46300
C  10.77700 1.32000 31.85100
C  10.07100 0.49500 32.77900
O  8.95100 0.07000 32.58300
O  10.76200 0.49800 34.01200
C  9.94200 -0.11400 35.12600
H  6.92400 7.04000 30.66200
H  6.88700 5.58100 24.34800
H  10.74400 0.32200 25.55100
H  8.46800 3.23000 33.00500
H  8.36600 6.08000 32.78600
H  6.50300 5.89500 33.46100
H  6.46200 4.13500 33.54200
H  5.84900 4.89400 32.16200
H  10.64500 5.40900 32.99100
H  11.20400 3.76000 33.43700
H  9.01100 4.74300 35.06600
H  10.52600 5.61600 35.17600
H  6.33700 9.70500 28.66500
H  5.91700 8.58400 29.65100
H  4.84900 8.70900 28.18100
H  5.77800 10.00600 26.27300
H  4.34600 8.94300 26.25100
H  4.80700 9.93600 24.80700
H  8.84900 4.17600 22.91100
H  9.06700 1.38400 23.44200
H  7.14500 1.79900 22.74100
H  6.75000 3.41900 22.13000
H  6.24700 2.97800 23.73800
H  11.50500 3.09800 24.07400
H  10.80600 3.50300 22.49400
H  11.58800 1.74200 21.41600
H  11.21500 0.59600 22.72800
H  12.67800 1.41300 22.70900
H  12.71300 -0.61500 26.85300
H  11.46800 -1.68000 27.65500
H  12.82900 -1.14000 28.56900
H  11.56900 1.84400 32.38600
H  9.85300 -1.17400 34.88800
H  8.90200 0.20400 35.19100
H  10.48400 -0.04600 36.06900
Mg 52.58400 23.84600 45.05700
C  49.90900 25.95700 44.48000
C  50.75000 21.23500 43.74000
C  55.42900 21.98500 44.95000
C  54.38000 26.71300 46.15600
N  50.66500 23.70500 44.01500
C  49.70000 24.69300 43.99500
C  48.35100 23.98900 43.60300
C  48.61700 22.48300 43.74400
C  50.14100 22.43700 43.78800
C  47.90900 21.73600 44.97200
C  47.88100 24.48400 42.24600
C  48.87400 24.42700 41.01900
H  48.37400 23.63400 39.73400
N  53.00900 21.82600 44.49700
C  52.05300 20.94300 44.09500
C  52.73400 19.72200 43.90900
C  54.08800 19.81600 44.30000
C  54.22300 21.24100 44.60900
C  52.06700 18.49800 43.35700
C  55.11700 18.70100 44.22100
O  54.90600 17.52800 43.82600
C  56.56900 18.99600 44.61000
N  54.60200 24.29600 45.41200
C  55.60500 23.39300 45.24700
C  56.98900 24.03700 45.57900
C  56.61100 25.40800 46.14000
C  55.09400 25.53300 45.87800
C  57.90700 23.12400 46.53400
C  57.50200 26.54800 45.57300
C  58.78000 26.84400 46.32800
N  52.24700 25.91900 45.32800
C  53.00500 26.95500 45.88800
C  52.21200 28.10100 46.10700
C  50.96400 27.77100 45.51900
C  51.05800 26.48800 45.02000
C  52.71600 29.40400 46.64900
C  49.69500 28.32000 45.19400
O  49.17500 29.44100 45.32200
C  48.88100 27.17300 44.50500
C  48.54800 27.73000 43.10900
O  49.39800 27.83900 42.24000
O  47.20400 28.09000 43.06300
C  46.83700 28.65200 41.68400
H  50.05300 20.43100 43.49400
H  56.40600 21.49700 44.96300
H  54.94500 27.60100 46.45000
H  47.58200 24.33300 44.29500
H  48.30800 22.02800 42.80300
H  47.20300 22.43400 45.42200
H  48.69400 21.56400 45.70800
H  47.42700 20.83700 44.58800
H  47.40200 25.43000 42.49800
H  47.00500 23.88000 42.01000
H  49.72000 23.79200 41.28200
H  49.26000 25.42400 40.80800
H  50.98500 18.48000 43.48200
H  52.33600 17.68200 44.02800
H  52.32600 18.36900 42.30600
H  57.06400 18.02500 44.61300
H  56.45900 19.46200 45.58900
H  56.99400 19.71500 43.91000
H  57.61400 24.17300 44.69600
H  56.71100 25.29500 47.22000
H  57.22400 22.54600 47.15700
H  58.43500 23.80300 47.20400
H  58.63600 22.60600 45.91000
H  56.83700 27.41100 45.53600
H  57.74300 26.36900 44.52600
H  59.66900 26.92300 45.70300
H  59.01600 26.09900 47.08800
H  58.70400 27.78500 46.87300
H  52.42500 30.20400 45.96900
H  53.80400 29.35600 46.60900
H  52.51200 29.65900 47.68900
H  47.94200 26.93800 45.00600
H  47.66200 29.19700 41.22600
H  45.98200 29.26100 41.98000
H  46.52700 27.81400 41.06000

