158

Mg 25.31000 -8.05700 46.85700
C  26.99700 -5.36700 45.33300
C  22.67400 -7.41700 44.60300
C  23.84300 -10.93900 47.67400
C  28.21800 -9.02100 48.42700
N  25.01200 -6.73200 45.06600
C  25.75600 -5.65500 44.67100
C  25.22500 -4.97700 43.43200
C  23.77300 -5.53000 43.34400
C  23.83100 -6.68800 44.35700
C  22.69400 -4.53800 43.60800
C  26.08200 -5.25800 42.06400
C  26.19700 -3.92000 41.23200
H  25.05600 -3.78400 40.26100
N  23.40300 -8.94400 46.35500
C  22.50300 -8.54600 45.44700
C  21.33600 -9.43900 45.44700
C  21.67200 -10.48900 46.27700
C  23.01600 -10.16000 46.81100
C  20.06600 -9.14800 44.73000
C  20.78400 -11.79100 46.53500
O  19.69500 -11.78900 46.05000
C  21.27000 -12.98900 47.16400
N  26.00400 -9.75800 47.77600
C  25.19500 -10.77500 48.15400
C  25.87300 -11.77900 49.08000
C  27.22300 -11.15000 49.31200
C  27.17900 -9.90800 48.42900
C  25.10800 -12.01700 50.47300
C  28.39800 -12.12100 49.23300
C  29.25800 -12.27800 50.50800
N  27.27000 -7.45100 46.82400
C  28.29100 -7.79200 47.68200
C  29.38500 -6.85100 47.55900
C  28.93800 -5.90200 46.57200
C  27.59100 -6.28300 46.23400
C  30.60900 -6.90700 48.29200
C  29.32000 -4.69700 45.90700
O  30.41300 -4.15300 45.78200
C  28.03500 -4.31400 45.02700
C  27.48500 -3.04600 45.46000
O  27.21300 -2.16300 44.65600
O  27.21900 -2.85500 46.79700
C  26.63700 -1.55400 47.16700
H  21.81200 -7.09100 44.01800
H  23.48000 -11.83700 48.17800
H  29.07300 -9.25300 49.06700
H  25.27400 -3.91100 43.65400
H  23.67600 -5.90700 42.32600
H  22.30500 -4.16900 42.66000
H  23.02600 -3.59400 44.04000
H  21.82200 -4.89200 44.15800
H  25.58600 -6.00900 41.44800
H  27.06500 -5.60100 42.38500
H  27.17500 -3.87900 40.75200
H  26.03200 -3.00500 41.79900
H  20.33200 -9.43900 43.71400
H  19.90300 -8.07100 44.77500
H  19.12300 -9.54500 45.10400
H  21.89100 -12.98500 48.05900
H  21.93100 -13.38400 46.39200
H  20.46100 -13.71100 47.27800
H  25.85500 -12.73200 48.55100
H  27.30100 -10.74300 50.32000
H  24.23400 -11.36600 50.47400
H  25.70700 -11.77600 51.35200
H  24.91500 -13.07700 50.64100
H  29.02100 -11.73800 48.42400
H  27.98600 -13.12000 49.08900
H  30.30400 -12.26300 50.20100
H  28.78300 -13.08800 51.06200
H  29.15600 -11.44400 51.20300
H  31.18700 -5.99900 48.12500
H  31.23900 -7.79600 48.24100
H  30.25900 -6.83200 49.32200
H  28.35700 -4.28400 43.98600
H  26.95100 -1.26900 48.17100
H  25.56300 -1.67200 47.31400
H  26.82000 -0.71300 46.49800
Mg 25.94400 0.12300 29.59500
C  27.70500 -0.51800 32.65700
C  23.01900 0.05900 31.66600
C  24.11100 -0.07200 26.84300
C  28.77200 -0.80500 27.89100
N  25.42600 -0.20600 31.91800
C  26.37200 -0.29500 32.93700
C  25.74300 -0.13700 34.27300
C  24.22400 -0.37300 33.93800
C  24.21600 -0.12900 32.41000
C  23.68200 -1.81600 34.12300
C  26.11600 1.26800 34.90000
C  26.55600 1.27500 36.37400
H  25.88000 0.39700 37.39000
N  23.89300 0.19500 29.27700
C  22.89500 0.21100 30.29100
C  21.59600 0.43100 29.61500
C  21.86200 0.48000 28.22800
C  23.36300 0.11600 28.08100
C  20.30000 0.68300 30.38300
C  20.86900 0.71300 27.10300
O  21.16200 0.57600 25.97400
C  19.33800 0.83200 27.45800
N  26.31500 -0.60500 27.62700
C  25.43000 -0.42700 26.64800
C  26.16900 -0.35900 25.24700
C  27.66000 -0.32400 25.72900
C  27.60900 -0.53800 27.17100
C  25.86900 -1.56100 24.26600
C  28.42900 0.96100 25.36900
C  29.78200 0.69600 24.60800
N  27.82200 -0.44100 30.08800
C  28.90200 -0.74500 29.30400
C  30.08900 -0.85700 30.06200
C  29.65300 -0.81900 31.38500
C  28.25000 -0.63300 31.35600
C  31.52000 -0.98600 29.61700
C  30.13500 -0.90600 32.78200
O  31.25700 -1.03200 33.22100
C  28.83800 -0.75900 33.67300
C  28.74700 -1.96400 34.46000
O  27.97300 -2.87400 34.23300
O  29.57900 -1.87500 35.55200
C  29.11500 -2.60600 36.68300
H  22.14000 0.22200 32.29300
H  23.59500 -0.09200 25.88100
H  29.70200 -1.00400 27.35500
H  26.14400 -0.93800 34.89400
H  23.61100 0.42800 34.35300
H  23.42100 -2.28300 33.17300
H  22.75200 -1.80200 34.69000
H  24.42500 -2.47300 34.57600
H  25.23000 1.89000 34.77100
H  26.86700 1.70400 34.24200
H  26.40400 2.26000 36.81400
H  27.62600 1.06900 36.36800
H  19.83600 1.61800 30.07300
H  20.51700 0.74400 31.44900
H  19.58900 -0.12700 30.21900
H  18.98600 -0.03600 28.01500
H  18.79400 0.61900 26.53800
H  19.00000 1.80200 27.82100
H  25.89200 0.57900 24.76700
H  28.07700 -1.27200 25.39000
H  24.79300 -1.69700 24.15800
H  26.42200 -2.43700 24.60500
H  26.30400 -1.38100 23.28300
H  28.62400 1.43600 26.33100
H  27.80000 1.63300 24.78700
H  30.56400 1.44700 24.71400
H  29.55900 0.73500 23.54200
H  30.07300 -0.33400 24.81400
H  31.58400 -1.25800 28.56300
H  31.89200 -1.84400 30.17700
H  32.25600 -0.26400 29.97200
H  28.91400 0.11200 34.32500
H  30.00400 -2.71200 37.30600
H  28.86800 -3.64800 36.47700
H  28.34000 -2.05000 37.21100

