158

Mg 37.29100 50.21400 24.18400
C  36.79100 48.69500 27.46400
C  36.87400 53.19500 25.88100
C  37.37400 51.65600 21.17100
C  37.67400 47.10100 22.96600
N  36.65000 50.83200 26.44900
C  36.55300 50.05700 27.51800
C  36.57700 50.91500 28.88200
C  36.44900 52.38300 28.37000
C  36.64000 52.10800 26.81200
C  35.09900 53.10700 28.69200
C  37.83000 50.69100 29.84900
C  37.49800 50.20400 31.30600
H  36.12100 50.65600 31.86100
N  37.16900 52.16100 23.63000
C  37.06100 53.20400 24.44300
C  37.02900 54.33400 23.59500
C  37.14500 53.96300 22.25300
C  37.21300 52.53200 22.26600
C  36.78300 55.78000 24.11200
C  37.16500 54.84800 21.01500
O  37.29800 54.34500 19.84300
C  37.10100 56.34500 21.11700
N  37.17100 49.47700 22.32300
C  37.46400 50.25400 21.20500
C  37.62800 49.38900 19.91900
C  38.11800 48.05500 20.58300
C  37.58600 48.19900 22.03800
C  36.40500 49.25300 18.93000
C  39.66400 47.68500 20.38900
C  39.87500 46.32300 19.66400
N  37.15900 48.20800 24.90600
C  37.32700 47.02600 24.31300
C  37.31800 45.94400 25.29300
C  37.16700 46.56200 26.52200
C  37.03600 47.96800 26.25900
C  37.53500 44.52000 25.04700
C  37.02300 46.28700 27.90700
O  37.16500 45.25200 28.55400
C  36.76000 47.66000 28.62100
C  35.46900 47.56300 29.30800
O  34.40000 47.88800 28.81300
O  35.53300 47.00500 30.51900
C  34.29300 46.75400 31.29400
H  36.88100 54.18300 26.34600
H  37.40300 51.99900 20.13400
H  38.09100 46.19300 22.52700
H  35.68200 50.69100 29.46300
H  37.33800 52.94800 28.64900
H  35.38900 54.07000 29.11400
H  34.51800 52.63100 29.48200
H  34.42900 53.31800 27.85900
H  38.44500 51.59000 29.88700
H  38.50200 50.00100 29.33900
H  38.22000 50.58500 32.02800
H  37.48100 49.11400 31.33000
H  36.22900 55.81100 25.05100
H  36.05900 56.19300 23.41000
H  37.64300 56.44700 24.16800
H  36.15200 56.69800 21.52000
H  37.15000 56.71400 20.09200
H  37.98000 56.87900 21.47600
H  38.46700 49.75100 19.32600
H  37.59100 47.21400 20.13100
H  35.59300 49.94700 19.14900
H  35.99900 48.24400 18.86000
H  36.89000 49.59300 18.01600
H  40.05800 47.80700 21.39800
H  40.24200 48.35900 19.75800
H  39.89000 45.53000 20.41200
H  40.88300 46.31900 19.24900
H  39.16500 46.28500 18.83900
H  37.94600 44.36700 24.04900
H  36.53300 44.09300 25.00400
H  38.10400 44.26100 25.94000
H  37.69900 47.79600 29.15900
H  33.63900 47.61300 31.14000
H  34.50600 46.55200 32.34300
H  33.67000 45.99600 30.81900
Mg -5.51800 25.58600 27.05000
C  -3.91400 27.05700 29.84900
C  -7.13000 23.47200 29.16000
C  -6.51300 24.01700 24.32100
C  -3.40200 27.49800 25.03500
N  -5.41900 25.26100 29.26500
C  -4.80900 26.09500 30.23600
C  -5.32300 25.79400 31.69000
C  -6.23700 24.52000 31.41200
C  -6.30200 24.39600 29.84000
C  -5.75400 23.19700 32.01200
C  -6.08600 26.96300 32.34200
C  -6.20800 26.99000 33.89600
H  -5.82800 25.81100 34.75100
N  -6.67100 23.97700 26.73900
C  -7.24600 23.28800 27.75200
C  -8.02100 22.19700 27.14400
C  -7.82000 22.27700 25.76500
C  -6.93300 23.42600 25.54300
C  -8.83400 21.24600 28.03000
C  -8.27800 21.30000 24.71900
O  -8.10200 21.41500 23.51000
C  -9.07400 20.12500 25.14000
N  -5.07700 25.75100 24.99300
C  -5.73800 25.11100 24.07200
C  -5.39400 25.54000 22.72300
C  -4.52900 26.78900 22.93800
C  -4.28200 26.63100 24.37500
C  -4.57200 24.39600 21.93500
C  -5.28200 28.12200 22.60100
C  -4.93400 28.66000 21.27600
N  -4.04000 27.05700 27.33000
C  -3.24000 27.71600 26.40100
C  -2.28100 28.50700 27.09700
C  -2.54900 28.29100 28.46300
C  -3.59900 27.43700 28.55900
C  -1.28900 29.46600 26.39600
C  -2.16500 28.68700 29.86200
O  -1.25600 29.42700 30.20000
C  -3.05300 27.96400 30.75700
C  -2.32800 27.14500 31.72700
O  -1.58900 26.20300 31.43100
O  -2.64900 27.44200 33.02800
C  -1.89800 26.74800 34.07200
H  -7.72200 22.96500 29.92500
H  -7.12900 23.60000 23.52100
H  -2.74200 28.08700 24.39500
H  -4.45600 25.62600 32.32800
H  -7.22500 24.63400 31.85800
H  -4.72900 23.33000 32.35700
H  -5.81300 22.27800 31.42900
H  -6.52400 22.97700 32.75100
H  -7.06900 26.99500 31.87200
H  -5.57500 27.88700 32.06800
H  -7.23000 27.14900 34.23900
H  -5.55800 27.83000 34.14100
H  -8.40900 20.27300 28.27800
H  -9.80300 21.09500 27.55600
H  -9.04700 21.74500 28.97500
H  -9.20800 19.48700 24.26700
H  -9.98300 20.47500 25.62900
H  -8.57800 19.49800 25.88200
H  -6.28600 25.83600 22.17100
H  -3.63600 26.80200 22.31400
H  -4.49300 23.55000 22.61700
H  -3.53200 24.67100 21.76100
H  -5.03900 23.98500 21.03900
H  -4.94300 28.86600 23.32100
H  -6.36000 28.01000 22.71800
H  -4.04200 28.23400 20.81600
H  -4.91400 29.74800 21.22100
H  -5.73100 28.43000 20.56900
H  -1.69700 29.99500 25.53500
H  -0.45000 28.85000 26.07400
H  -0.91500 30.20400 27.10600
H  -3.62400 28.79100 31.17900
H  -2.41300 25.78800 34.06100
H  -1.97300 27.31000 35.00300
H  -0.84000 26.58000 33.86900

