158

Mg 24.15500 1.38400 29.65500
C  26.45300 1.19400 32.29900
C  21.63100 1.09700 31.85800
C  22.13400 1.23100 26.95400
C  26.90300 0.99300 27.42900
N  24.06500 1.31700 31.84900
C  25.13300 1.30300 32.77500
C  24.62000 1.43700 34.18100
C  23.07800 1.25600 34.03900
C  22.90400 1.19100 32.48100
C  22.45700 0.09200 34.87600
C  25.06800 2.80200 34.84500
C  25.95400 2.71800 36.21300
H  25.45500 3.43000 37.45100
N  22.15300 1.16000 29.45100
C  21.22500 1.12600 30.50200
C  19.92600 1.10600 29.90200
C  20.11500 1.06000 28.49400
C  21.45700 1.19700 28.25200
C  18.64000 1.19100 30.71300
C  19.05700 0.92100 27.40300
O  19.28400 0.97600 26.17600
C  17.67100 0.62500 27.89100
N  24.43100 1.12100 27.45100
C  23.42600 1.19100 26.59700
C  23.93900 1.12500 25.15700
C  25.47800 0.93500 25.28600
C  25.65900 1.06700 26.82500
C  23.26100 0.02900 24.23600
C  26.32800 1.99700 24.49000
C  25.94400 3.47800 24.70400
N  26.23200 1.05900 29.77700
C  27.15600 0.83000 28.80600
C  28.45400 0.68400 29.43000
C  28.23700 0.75100 30.82500
C  26.86000 1.07900 30.95400
C  29.68700 0.31400 28.59100
C  28.93200 0.69800 32.06400
O  30.13200 0.53600 32.36800
C  27.75200 1.02900 33.12500
C  27.81600 -0.07200 34.17900
O  27.32300 -1.23000 34.09300
O  28.53700 0.39300 35.23500
C  28.66100 -0.55000 36.34000
H  20.83100 0.99000 32.59300
H  21.42800 1.26500 26.12200
H  27.74300 0.82200 26.75400
H  25.04800 0.61700 34.75800
H  22.54600 2.17700 34.27700
H  21.57600 0.36700 35.45500
H  23.15600 -0.16700 35.67000
H  22.38100 -0.79100 34.24000
H  24.23200 3.49100 34.97000
H  25.71600 3.25000 34.09200
H  26.85600 3.29700 36.01300
H  26.21100 1.67800 36.41200
H  18.05200 2.04100 30.36800
H  18.84000 1.09300 31.78000
H  18.01500 0.31200 30.55100
H  17.56400 -0.39000 28.27500
H  17.00200 0.45900 27.04600
H  17.23900 1.30800 28.62200
H  23.57100 1.99900 24.61900
H  25.86100 -0.06100 25.06400
H  22.86000 -0.77200 24.85600
H  24.14100 -0.38400 23.74200
H  22.57500 0.51200 23.54000
H  26.07300 1.76100 23.45600
H  27.38400 1.85900 24.72200
H  26.90500 3.78800 25.11300
H  25.17000 3.72800 25.43000
H  25.72000 4.00900 23.77800
H  29.82400 0.90700 27.68700
H  29.51900 -0.73700 28.35700
H  30.55300 0.44700 29.24000
H  27.96800 1.97600 33.61900
H  29.40300 -1.31800 36.12100
H  27.76900 -1.13700 36.55800
H  28.85400 -0.08100 37.30500
Mg 54.28100 24.86700 43.88000
C  51.52600 26.99100 43.68000
C  52.34800 22.27800 42.67700
C  57.02200 22.98100 43.25300
C  56.33000 27.59100 44.47000
N  52.18300 24.65900 43.08500
C  51.18500 25.65000 43.18100
C  49.81900 25.12100 42.74200
C  50.10300 23.55300 42.78900
C  51.63500 23.47600 42.83200
C  49.39700 22.71900 43.93500
C  49.19600 25.57400 41.37800
C  50.06900 25.88100 40.13000
H  49.80100 25.06800 38.83200
N  54.60200 22.88700 43.18100
C  53.70800 22.02500 42.76600
C  54.33400 20.70200 42.48000
C  55.73600 20.88600 42.55300
C  55.84100 22.26700 43.01000
C  53.46400 19.49800 42.07700
C  56.80200 19.89700 42.20000
O  56.39900 18.81300 41.72900
C  58.20700 20.09900 42.45500
N  56.39400 25.29800 43.74200
C  57.33000 24.31100 43.65600
C  58.80000 24.82900 43.84600
C  58.54800 26.29000 44.24400
C  57.04200 26.40800 44.16000
C  59.64600 23.88900 44.85500
C  59.39100 27.35100 43.42600
C  60.67200 27.85600 44.19800
N  53.98800 26.85000 44.20000
C  54.92100 27.84800 44.46900
C  54.21600 29.11400 44.74300
C  52.87100 28.78900 44.42900
C  52.83700 27.45700 44.05900
C  54.83100 30.46700 45.11800
C  51.55100 29.29300 44.34300
O  51.04700 30.34400 44.72500
C  50.66300 28.21200 43.69700
C  50.24800 28.63400 42.32800
O  51.03100 28.56200 41.37900
O  48.93700 29.11700 42.29100
C  48.69600 29.87700 41.04200
H  51.67100 21.49900 42.32000
H  57.99900 22.57400 42.98700
H  56.95900 28.44200 44.73900
H  49.18800 25.44900 43.56800
H  49.75800 23.05500 41.88300
H  48.83300 23.39700 44.57600
H  50.20300 22.10800 44.34200
H  48.66700 22.11700 43.39400
H  48.57700 26.41300 41.69600
H  48.44800 24.85600 41.04200
H  51.12400 25.71300 40.34500
H  49.94300 26.93800 39.89500
H  53.14500 19.48300 41.03500
H  52.46100 19.53200 42.50300
H  53.90100 18.55100 42.39400
H  58.71400 19.14900 42.28800
H  58.32800 20.41200 43.49200
H  58.59100 20.86400 41.78000
H  59.32400 24.70500 42.89800
H  58.91900 26.37900 45.26500
H  59.00400 23.01900 44.99600
H  59.61600 24.40200 45.81600
H  60.65300 23.60000 44.55600
H  58.71500 28.19500 43.28600
H  59.70500 26.89400 42.48700
H  61.50800 27.41500 43.65600
H  60.71000 27.51900 45.23400
H  60.77000 28.93800 44.11500
H  55.91100 30.32200 45.09500
H  54.49700 30.78800 46.10500
H  54.60600 31.22200 44.36500
H  49.77800 28.13300 44.32900
H  49.56300 30.46000 40.73200
H  48.07200 30.70900 41.36800
H  48.27000 29.17100 40.32900

