158

Mg 8.80700 3.39800 27.87800
C  10.21800 1.72200 30.68400
C  7.02400 5.43000 29.82600
C  7.42700 4.70100 25.07300
C  10.04800 0.64200 25.94800
N  8.56500 3.50000 29.95100
C  9.36300 2.80600 30.96100
C  9.08200 3.44200 32.36800
C  7.81300 4.35700 32.05200
C  7.80400 4.47700 30.53500
C  6.48500 3.71500 32.48000
C  10.34600 4.25700 32.84700
C  11.20600 3.59200 33.99400
H  11.27000 4.31800 35.34600
N  7.40900 4.90100 27.47100
C  6.81100 5.63700 28.45000
C  6.09100 6.76000 27.84100
C  6.25400 6.58800 26.44000
C  7.03900 5.31700 26.25200
C  5.25600 7.73000 28.64800
C  5.58400 7.43500 25.25900
O  5.85600 7.26600 24.04900
C  4.77800 8.60800 25.66700
N  8.53700 2.65100 25.82600
C  8.02400 3.47800 24.82600
C  8.37200 2.88600 23.44000
C  9.25000 1.61800 23.74500
C  9.30400 1.58000 25.24600
C  7.02100 2.51900 22.66200
C  10.76400 1.74400 23.27100
C  11.60000 0.39500 22.94000
N  9.93500 1.59400 28.18200
C  10.29600 0.63100 27.32300
C  11.18800 -0.34800 27.90500
C  11.18000 -0.01200 29.27600
C  10.37000 1.18300 29.37100
C  11.90100 -1.46600 27.21500
C  11.63300 -0.25800 30.60100
O  12.47400 -1.08700 30.96100
C  10.94000 0.78500 31.62500
C  10.05400 0.03500 32.62400
O  8.95800 -0.41400 32.35900
O  10.71800 -0.07200 33.79800
C  9.97000 -0.51400 35.01700
H  6.66100 6.12600 30.58500
H  7.06500 5.14300 24.14300
H  10.52400 -0.14800 25.36300
H  8.84800 2.58500 33.00000
H  7.91300 5.27400 32.63300
H  5.86200 3.36200 31.65800
H  5.94900 4.50800 33.00000
H  6.70900 2.94800 33.22100
H  10.08600 5.24500 33.22600
H  10.96600 4.43300 31.96800
H  12.26700 3.55700 33.74800
H  10.85500 2.57200 34.14800
H  5.73700 8.70400 28.73700
H  5.14400 7.50900 29.71000
H  4.22500 7.77900 28.29800
H  3.85200 8.47900 26.22700
H  4.69100 9.23900 24.78300
H  5.47900 9.17700 26.27900
H  8.93100 3.57300 22.80300
H  8.84400 0.65300 23.44100
H  6.15100 2.75700 23.27300
H  6.90400 1.43900 22.57200
H  6.98000 2.82100 21.61600
H  11.30500 2.33000 24.01300
H  10.75600 2.32000 22.34600
H  10.89700 -0.43100 23.04800
H  12.29400 0.23300 23.76500
H  12.07800 0.42100 21.96100
H  12.77500 -0.96800 26.79500
H  11.27900 -1.93700 26.45400
H  12.17600 -2.09000 28.06600
H  11.64200 1.37200 32.21800
H  9.86400 0.29000 35.74400
H  10.51400 -1.38400 35.38600
H  8.99500 -0.88600 34.70300
Mg 35.47800 1.82000 29.32400
C  33.40200 3.02500 31.93600
C  38.18400 1.68100 31.53600
C  37.61400 1.21700 26.78900
C  32.94200 2.42900 27.14400
N  35.71200 2.27400 31.45400
C  34.71800 2.65600 32.32500
C  35.25700 2.51800 33.75700
C  36.80800 2.51600 33.61400
C  36.98000 2.13100 32.06800
C  37.50900 3.78900 34.06400
C  34.61200 1.33700 34.58600
C  33.83300 1.75900 35.82200
H  34.35000 2.94700 36.62800
N  37.62100 1.35600 29.18600
C  38.53800 1.27700 30.23900
C  39.87700 0.92300 29.72900
C  39.68300 0.72700 28.32900
C  38.28500 1.13400 28.02500
C  41.10900 0.63100 30.64000
C  40.61900 0.23000 27.23200
O  40.32700 -0.21200 26.07800
C  42.14400 0.17900 27.56500
N  35.27100 1.68700 27.23900
C  36.32400 1.48200 26.33500
C  35.76500 1.42500 24.90100
C  34.18500 1.56900 25.13500
C  34.12600 1.98900 26.60200
C  36.37200 2.51400 24.02500
C  33.34500 0.20800 24.97500
C  32.45600 0.14500 23.64700
N  33.50300 2.60400 29.42900
C  32.63300 2.73600 28.40600
C  31.36500 3.14400 29.05000
C  31.69600 3.47400 30.38500
C  32.97000 3.00000 30.59800
C  30.09800 3.17300 28.20500
C  31.17500 3.86300 31.65300
O  30.10100 4.34900 31.93000
C  32.19300 3.56300 32.75300
C  32.38700 4.83000 33.47100
O  32.96700 5.75900 33.04200
O  31.57800 4.79600 34.58300
C  31.69400 5.96000 35.44800
H  39.04000 1.45700 32.17600
H  38.28500 1.03600 25.94700
H  32.09700 2.52700 26.45900
H  34.91000 3.38600 34.31800
H  37.29400 1.75600 34.22600
H  37.86900 3.82000 35.09200
H  36.81500 4.62600 33.97500
H  38.37600 4.01200 33.44200
H  35.41900 0.68500 34.92000
H  33.95500 0.76700 33.92900
H  33.65700 0.89900 36.46800
H  32.82200 2.02900 35.51800
H  41.58300 -0.28700 30.29400
H  40.70100 0.43600 31.63200
H  41.87400 1.40700 30.64800
H  42.43700 0.96100 28.26600
H  42.82100 0.23100 26.71200
H  42.37100 -0.76700 28.05700
H  35.97400 0.47200 24.41500
H  33.75300 2.35700 24.51800
H  36.44600 2.21000 22.98100
H  37.32500 2.94000 24.33800
H  35.66100 3.32200 23.85500
H  32.69700 -0.07700 25.80500
H  33.96100 -0.69100 24.95700
H  32.89400 -0.56900 22.94900
H  32.35100 1.06700 23.07500
H  31.45200 -0.21900 23.86700
H  30.11100 2.50100 27.34800
H  29.94400 4.17800 27.81000
H  29.29300 2.85000 28.86600
H  31.68300 2.90400 33.45600
H  30.66900 6.16600 35.75500
H  32.14000 6.85700 35.01700
H  32.35000 5.77300 36.29800

