158

Mg 48.29500 14.32700 28.53700
C  46.20300 14.44800 31.20300
C  50.58400 16.29700 30.36800
C  50.23000 14.49700 25.93500
C  45.74400 12.85200 26.63000
N  48.23600 15.41000 30.51900
C  47.34100 15.14600 31.52100
C  47.73400 15.90800 32.79900
C  49.02000 16.65800 32.39300
C  49.36400 16.08700 31.01800
C  49.03000 18.27300 32.57500
C  47.95400 14.95200 34.02400
C  47.07100 15.20500 35.25200
H  47.71300 15.51500 36.62900
N  50.22000 15.19100 28.19200
C  50.99000 15.97600 29.06300
C  52.19100 16.43500 28.31400
C  52.08800 15.89700 27.04400
C  50.81900 15.11600 27.01200
C  53.23300 17.22600 28.99200
C  52.94000 16.08100 25.86800
O  52.73700 15.56300 24.79700
C  54.19800 16.86700 25.96400
N  47.94000 13.97900 26.42000
C  48.92800 14.09800 25.53700
C  48.59000 13.40800 24.18400
C  47.16000 12.76000 24.52900
C  46.93900 13.19700 25.93900
C  48.51300 14.42400 23.02800
C  47.10300 11.20900 24.18700
C  48.02400 10.33300 25.07500
N  46.41400 13.72900 28.79200
C  45.50700 13.01600 27.97800
C  44.37700 12.57900 28.78400
C  44.62500 13.08000 30.08000
C  45.88300 13.75500 30.01500
C  43.20100 11.84200 28.29300
C  44.10100 13.20800 31.38500
O  43.07600 12.82800 31.87400
C  45.11600 14.02500 32.22500
C  44.30100 15.18500 32.83600
O  43.78400 16.12500 32.24400
O  44.14800 14.98700 34.17700
C  43.34500 15.81500 35.04700
H  51.31000 16.87400 30.94500
H  50.75100 14.47900 24.97500
H  45.05600 12.23300 26.05100
H  47.05000 16.69400 33.11900
H  49.90300 16.23700 32.87300
H  50.04300 18.67700 32.56000
H  48.61300 18.34900 33.57900
H  48.44000 18.82900 31.84600
H  48.96600 15.01600 34.42500
H  47.87900 13.93200 33.64800
H  46.52200 14.28900 35.46900
H  46.35800 15.99100 35.00200
H  54.16700 16.66300 29.01500
H  53.13100 17.41600 30.06000
H  53.47900 18.15100 28.47100
H  55.02200 16.24200 26.30900
H  54.09000 17.86200 26.39600
H  54.41700 17.05800 24.91400
H  49.36000 12.65100 24.03300
H  46.44800 13.35200 23.95500
H  49.17200 15.28500 23.13900
H  47.47400 14.64300 22.78400
H  48.88800 13.87900 22.16100
H  47.56000 10.96900 23.22800
H  46.06500 10.88000 24.22200
H  48.34900 10.71400 26.04400
H  48.95200 10.10200 24.55300
H  47.59000 9.36500 25.32300
H  42.85700 12.53200 27.52300
H  42.49700 11.70800 29.11500
H  43.39500 10.90300 27.77500
H  45.39800 13.35600 33.03800
H  43.01600 16.63400 34.40700
H  44.01500 16.18300 35.82400
H  42.43700 15.33800 35.41500
Mg 30.52100 59.17900 39.53000
C  27.67800 57.32400 38.67500
C  32.49900 56.48900 38.80300
C  33.13600 61.23800 39.08800
C  28.50700 61.96200 39.90500
N  30.08700 57.21900 38.59800
C  28.90500 56.61500 38.40200
C  29.07000 55.23300 37.82600
C  30.53900 54.92900 38.35100
C  31.11100 56.31900 38.64300
C  30.52800 54.08800 39.59700
C  28.94600 55.28000 36.27500
C  28.07100 54.10300 35.74000
H  27.07400 54.45300 34.59900
N  32.56700 58.87200 39.08000
C  33.19300 57.69400 38.90200
C  34.59700 57.88900 38.76400
C  34.78900 59.30300 38.76900
C  33.43500 59.86000 38.87400
C  35.55000 56.73200 38.80600
C  36.14000 59.98900 38.60500
O  37.21800 59.39600 38.67600
C  36.24100 61.45200 38.41000
N  30.78500 61.31600 39.39000
C  31.94500 61.86500 39.31500
C  31.87600 63.40400 39.48700
C  30.44100 63.60800 39.85900
C  29.84400 62.20400 39.78700
C  32.96900 63.91900 40.55100
C  29.51100 64.47700 39.03700
C  29.86700 65.96000 38.75100
N  28.49600 59.58800 39.62600
C  27.84900 60.75500 39.68200
C  26.48400 60.54400 39.47000
C  26.32000 59.15400 39.13900
C  27.63200 58.65200 39.15800
C  25.47200 61.60100 39.43400
C  25.33700 58.09200 38.82900
O  24.08400 58.09000 38.62300
C  26.26200 56.81800 38.49500
C  25.85800 55.87400 39.63100
O  26.21300 55.87700 40.77800
O  24.94200 55.00300 39.17500
C  24.73200 53.92000 40.15800
H  33.02900 55.53800 38.71900
H  33.88200 62.01100 38.89400
H  27.82500 62.79700 40.07900
H  28.29700 54.56700 38.20900
H  31.12700 54.36800 37.62500
H  31.23500 54.44200 40.34800
H  30.62000 53.06200 39.24200
H  29.51700 54.14600 40.00000
H  29.92900 55.01400 35.88600
H  28.66000 56.25600 35.88200
H  27.40400 53.66400 36.48200
H  28.77200 53.29900 35.51600
H  36.08200 56.78100 39.75600
H  36.23100 56.81900 37.95800
H  35.12500 55.73400 38.69700
H  37.25800 61.71200 38.11700
H  35.97300 61.97500 39.32900
H  35.56300 61.80800 37.63400
H  32.06800 63.83700 38.50500
H  30.26100 63.91700 40.88800
H  33.43000 64.83800 40.19100
H  33.64600 63.13900 40.90000
H  32.39800 64.16300 41.44700
H  28.48500 64.63400 39.37000
H  29.52400 63.91100 38.10600
H  30.85800 66.19500 39.13700
H  29.17000 66.73000 39.08200
H  29.89100 66.10200 37.67000
H  25.10400 61.87100 40.42400
H  24.66200 61.32800 38.75800
H  25.99300 62.53300 39.21900
H  26.01700 56.36300 37.53500
H  24.55700 53.08200 39.48300
H  23.79100 54.10500 40.67500
H  25.50600 53.63000 40.87000

