158

Mg 1.89700 -2.52100 45.17400
C  5.29300 -1.70700 44.49300
C  0.82700 0.10500 43.41900
C  -1.16400 -3.82100 45.50700
C  3.27800 -5.57700 46.52500
N  2.98700 -1.21900 43.89700
C  4.34900 -0.95300 43.82300
C  4.62000 0.22000 42.92500
C  3.25400 0.94600 42.93100
C  2.23600 -0.18100 43.39000
C  3.31300 2.19400 43.85800
C  5.26100 -0.08300 41.53900
C  6.25800 1.02400 40.99700
H  5.74400 1.77200 39.82300
N  0.01400 -1.85800 44.62400
C  -0.20000 -0.72500 43.92000
C  -1.65100 -0.58700 43.73300
C  -2.22400 -1.80700 44.25500
C  -1.15000 -2.54100 44.82600
C  -2.31400 0.60400 43.09600
C  -3.63500 -2.11300 44.21500
O  -4.41800 -1.36200 43.64800
C  -4.16300 -3.39400 44.62300
N  1.22300 -4.41300 45.85800
C  -0.12500 -4.65400 45.98600
C  -0.44300 -5.96200 46.79900
C  0.98700 -6.61500 46.78100
C  1.90800 -5.41600 46.45500
C  -0.93600 -5.66100 48.24500
C  1.13100 -7.81800 45.77700
C  2.15700 -8.84800 46.23000
N  3.95600 -3.43900 45.65600
C  4.28400 -4.66700 46.18500
C  5.74400 -4.77200 46.14900
C  6.18700 -3.54800 45.63500
C  5.07400 -2.80400 45.26800
C  6.61300 -5.87400 46.65800
C  7.34800 -2.76500 45.24000
O  8.52300 -2.95600 45.41600
C  6.78900 -1.49600 44.44000
C  7.31100 -0.34800 45.24300
O  8.39100 0.19700 45.10300
O  6.37600 0.09300 46.07500
C  6.52000 1.43500 46.70000
H  0.58400 0.94100 42.75900
H  -2.16400 -4.23000 45.67000
H  3.66300 -6.50000 46.96300
H  5.32500 0.84400 43.47500
H  2.88400 1.22200 41.94400
H  4.27200 2.70500 43.94400
H  3.09900 1.85300 44.87100
H  2.62400 2.97700 43.53900
H  4.46600 -0.11200 40.79300
H  5.63300 -1.10700 41.57300
H  7.17200 0.49200 40.73100
H  6.44400 1.76200 41.77700
H  -2.64400 0.31800 42.09800
H  -1.62900 1.45200 43.10500
H  -3.27500 0.83200 43.55900
H  -4.13200 -3.47100 45.71000
H  -3.53800 -4.14300 44.13700
H  -5.15000 -3.63600 44.22800
H  -1.20000 -6.55900 46.29100
H  1.35100 -6.90200 47.76700
H  -0.16100 -5.52100 48.99900
H  -1.72700 -6.34400 48.55400
H  -1.48000 -4.71900 48.18300
H  1.37700 -7.40600 44.79800
H  0.16400 -8.31900 45.73400
H  2.72500 -8.37800 47.03300
H  2.88700 -9.07200 45.45300
H  1.68200 -9.75100 46.61300
H  6.01500 -6.78500 46.63400
H  7.03500 -5.78800 47.65900
H  7.41500 -6.05700 45.94300
H  7.26900 -1.34900 43.47300
H  5.52200 1.83800 46.87000
H  6.97100 2.09000 45.95400
H  7.06400 1.37600 47.64200
Mg 43.52900 4.42200 46.54100
C  41.42200 7.19500 46.32300
C  40.84100 2.39300 46.04200
C  45.50500 1.82600 45.65600
C  46.27300 6.58700 46.49200
N  41.38200 4.88100 46.14600
C  40.71600 6.00000 46.23100
C  39.22900 5.82600 46.47900
C  39.10600 4.22500 46.59200
C  40.57500 3.77900 46.28100
C  38.54500 3.70100 47.97100
C  38.28300 6.60400 45.43900
C  38.24800 6.23500 43.91900
H  38.99000 7.06100 42.98600
N  43.21700 2.29700 45.89100
C  41.97700 1.70600 45.82900
C  42.10900 0.34800 45.47600
C  43.50400 0.18500 45.16400
C  44.19900 1.46700 45.52900
C  41.02600 -0.59200 45.29900
C  44.11400 -1.10000 44.74200
O  43.44700 -2.10000 44.61600
C  45.58700 -1.20400 44.47900
N  45.59800 4.20800 46.01200
C  46.22100 3.05300 45.93000
C  47.79100 3.17400 45.98000
C  47.91200 4.59400 46.59300
C  46.52200 5.19500 46.31600
C  48.44400 2.03000 46.94100
C  49.14200 5.37200 46.07600
C  50.56100 4.98800 46.58200
N  43.85100 6.47900 46.47700
C  45.03900 7.19400 46.56900
C  44.68800 8.61300 46.58000
C  43.27300 8.63900 46.52100
C  42.85800 7.28500 46.49900
C  45.62800 9.79500 46.45100
C  42.13100 9.50900 46.62700
O  42.16000 10.72500 46.71500
C  40.94400 8.64300 46.61200
C  40.17100 8.82700 47.87700
O  40.45800 8.30500 48.94000
O  39.09800 9.64500 47.71300
C  38.24500 10.13400 48.82000
H  39.94400 1.77100 46.03200
H  46.29200 1.10500 45.42600
H  47.10500 7.26900 46.67900
H  38.88800 6.29100 47.40400
H  38.60200 3.82100 45.71400
H  39.27800 2.99300 48.35900
H  37.59100 3.21800 47.75600
H  38.45700 4.59600 48.58700
H  38.57700 7.64900 45.33800
H  37.25600 6.55400 45.80100
H  37.18700 6.10200 43.71100
H  38.74400 5.26500 43.95100
H  41.20000 -1.38500 44.57200
H  40.08000 -0.12400 45.02600
H  40.75800 -1.04700 46.25300
H  46.09600 -1.04500 45.43000
H  45.87500 -0.43400 43.76400
H  45.67600 -2.22700 44.11200
H  48.28000 3.01100 45.01900
H  48.04000 4.55100 47.67500
H  47.75600 1.20800 47.13700
H  48.75900 2.52400 47.86000
H  49.37300 1.59500 46.57200
H  48.99700 6.38600 46.45100
H  49.11000 5.32800 44.98700
H  50.89300 5.76600 47.26900
H  51.19600 5.15800 45.71300
H  50.62800 3.96100 46.94300
H  45.15200 10.77500 46.46800
H  46.23900 9.73800 45.54900
H  46.26000 9.82500 47.33800
H  40.21700 8.87100 45.83200
H  38.05700 11.20500 48.75200
H  38.64500 9.90800 49.80800
H  37.27100 9.65100 48.74900

