158

Mg 24.83300 1.43500 29.54700
C  26.84900 0.97200 32.38200
C  22.08600 1.13500 31.58500
C  22.78400 1.50300 26.84200
C  27.63400 1.28900 27.57800
N  24.51000 0.81700 31.74900
C  25.47200 0.89900 32.73900
C  24.83400 0.95000 34.08100
C  23.30600 0.59300 33.80800
C  23.23200 0.97100 32.26800
C  22.90700 -0.84100 34.10400
C  25.04600 2.27300 34.85400
C  25.66300 2.04900 36.21800
H  25.68900 3.25200 37.22300
N  22.74900 1.34800 29.25400
C  21.78800 1.19200 30.23400
C  20.48800 1.18600 29.68300
C  20.71700 1.13800 28.29100
C  22.10200 1.30900 28.04100
C  19.22800 0.97100 30.53500
C  19.70300 0.86500 27.19500
O  20.08600 0.77400 26.06100
C  18.20600 0.59400 27.39200
N  25.17700 1.35400 27.51400
C  24.17000 1.55000 26.55200
C  24.78000 1.58400 25.08900
C  26.25400 1.86400 25.44800
C  26.39600 1.51200 26.91900
C  24.56200 0.25400 24.33500
C  26.78100 3.27400 24.99800
C  26.49000 4.44200 25.88200
N  26.85500 1.09300 29.87600
C  27.83900 1.04900 28.93000
C  29.13500 0.90900 29.64600
C  28.74300 0.89400 31.04100
C  27.36900 0.97900 31.07400
C  30.48500 0.91100 29.07800
C  29.30200 0.87400 32.35000
O  30.47800 0.84700 32.66400
C  28.09100 1.08600 33.28800
C  28.11300 0.17000 34.39800
O  27.61000 -0.97600 34.42600
O  28.94000 0.64800 35.39200
C  28.93600 -0.21100 36.60400
H  21.25400 1.20900 32.28800
H  22.14800 1.63100 25.96300
H  28.40800 1.37700 26.81300
H  25.13300 0.10900 34.70800
H  22.63400 1.28600 34.31400
H  22.72500 -1.35600 33.16000
H  21.95700 -0.74000 34.62800
H  23.53400 -1.50800 34.69500
H  24.09600 2.80500 34.90700
H  25.71400 2.89800 34.26200
H  26.63500 1.56000 36.28100
H  24.93000 1.35700 36.63100
H  18.39000 1.60000 30.23600
H  19.33300 1.09200 31.61400
H  18.84900 -0.03700 30.37400
H  18.08900 -0.41900 27.00500
H  17.59300 1.13800 26.67300
H  17.84900 0.69700 28.41600
H  24.42900 2.42300 24.48900
H  26.83300 1.06800 24.98000
H  23.95500 0.47900 23.45800
H  24.15900 -0.41400 25.09600
H  25.51700 -0.16300 24.01200
H  26.34000 3.49500 24.02600
H  27.85400 3.23800 24.80900
H  25.73900 5.09100 25.43200
H  27.42800 4.93200 26.14500
H  26.19700 4.07800 26.86700
H  30.72600 -0.12200 28.82600
H  31.27100 1.28900 29.73200
H  30.50000 1.48600 28.15300
H  28.08400 2.12700 33.61100
H  29.18900 -1.26600 36.49400
H  27.98700 -0.15500 37.13800
H  29.77400 0.19100 37.17400
Mg 17.29400 52.81200 26.33100
C  19.30500 51.02700 28.68800
C  14.83000 53.03300 28.87100
C  15.24700 54.14900 24.08800
C  19.57800 51.72900 23.83600
N  17.08500 52.07700 28.55400
C  18.10900 51.51200 29.27500
C  17.73200 51.43900 30.74000
C  16.16600 51.69100 30.70100
C  15.95500 52.29500 29.30800
C  15.35900 50.43400 30.80600
C  18.64900 52.45100 31.48900
C  18.96500 52.04200 33.00100
H  17.88300 51.38800 33.83500
N  15.27300 53.55100 26.42500
C  14.51800 53.67000 27.56700
C  13.32300 54.43800 27.22800
C  13.35600 54.77900 25.81900
C  14.63500 54.12200 25.33000
C  12.29100 54.96800 28.28600
C  12.47000 55.51500 24.85700
O  12.60800 55.52500 23.61300
C  11.46900 56.41000 25.51800
N  17.40700 52.90500 24.37200
C  16.51400 53.70000 23.67100
C  16.77700 53.60300 22.15600
C  18.18200 53.06800 22.09900
C  18.45900 52.54200 23.49400
C  15.69800 52.88800 21.24700
C  19.31800 53.98500 21.57000
C  19.64100 55.17300 22.50200
N  19.12300 51.66800 26.25400
C  19.93700 51.35800 25.13000
C  21.08400 50.58200 25.58100
C  20.86000 50.40500 26.97500
C  19.69300 51.10600 27.34200
C  22.21900 50.22600 24.65100
C  21.53100 49.83500 28.10300
O  22.59100 49.18300 28.21600
C  20.52500 50.26300 29.35000
C  20.04400 49.06700 30.05900
O  19.36100 48.10700 29.60300
O  20.38300 49.22900 31.41200
C  20.19400 48.06800 32.28500
H  14.10000 52.95700 29.67900
H  14.60800 54.58100 23.31500
H  20.22400 51.39100 23.02300
H  17.85100 50.45300 31.19000
H  15.88700 52.38800 31.49100
H  15.07100 50.31500 31.85100
H  15.77900 49.49600 30.44500
H  14.48300 50.56300 30.17200
H  18.12600 53.40700 31.51400
H  19.61900 52.61800 31.02100
H  19.57200 52.73300 33.58400
H  19.57400 51.14200 32.91600
H  12.69400 55.91300 28.65100
H  12.42100 54.32700 29.15800
H  11.29000 55.12100 27.88300
H  11.02400 56.96100 24.69000
H  11.94900 57.22900 26.05500
H  10.76800 55.81200 26.10000
H  16.89700 54.61600 21.77100
H  18.21200 52.17000 21.48300
H  16.12000 52.85600 20.24300
H  14.80900 53.51800 21.24800
H  15.52200 51.88100 21.62600
H  18.92400 54.40800 20.64600
H  20.19800 53.36300 21.40200
H  19.41500 56.09200 21.96000
H  20.71600 55.15200 22.68100
H  19.00500 55.21100 23.38700
H  23.14500 50.07300 25.20400
H  22.19200 51.01500 23.89800
H  22.04300 49.31600 24.07700
H  21.02500 50.89600 30.08300
H  19.86500 47.14800 31.80200
H  19.45400 48.36300 33.02900
H  21.04200 47.82500 32.92500

