158

Mg 3.52100 0.63200 44.16300
C  6.39900 2.69200 43.79000
C  1.65900 3.11900 42.75000
C  1.14100 -1.67700 43.60300
C  5.79300 -2.05400 44.82600
N  4.02700 2.52100 43.12800
C  5.27000 3.22000 43.11500
C  5.18900 4.56600 42.52300
C  3.57800 4.81500 42.60700
C  3.00300 3.36500 42.77800
C  3.22500 5.74600 43.78700
C  5.70100 4.66000 41.09800
C  6.34500 3.49100 40.38900
H  6.80900 3.82400 38.98700
N  1.66400 0.69600 43.40200
C  1.05400 1.84500 42.88100
C  -0.27400 1.51000 42.55800
C  -0.50600 0.18500 43.02300
C  0.75300 -0.36400 43.36200
C  -1.29600 2.41600 41.95100
C  -1.86900 -0.51100 42.83800
O  -2.90200 0.07200 42.48800
C  -1.92600 -1.99400 43.04400
N  3.41500 -1.63900 44.40600
C  2.33000 -2.30200 43.98700
C  2.53200 -3.83300 44.02700
C  4.09100 -3.92900 44.51900
C  4.51200 -2.46900 44.57200
C  1.54500 -4.74100 44.70800
C  4.99000 -4.81600 43.61300
C  6.15100 -5.72100 44.21500
N  5.63200 0.29600 44.38000
C  6.40700 -0.81600 44.72300
C  7.77000 -0.42000 44.95000
C  7.79700 0.94500 44.72700
C  6.48100 1.37100 44.35500
C  8.93100 -1.30000 45.41400
C  8.66700 2.10800 44.72600
O  9.85100 2.27600 45.06600
C  7.76700 3.32300 44.16500
C  7.57000 4.31300 45.31800
O  8.55800 4.84900 45.77800
O  6.27800 4.65100 45.65700
C  6.26600 5.66500 46.76700
H  1.02600 3.92300 42.36900
H  0.44500 -2.48400 43.36600
H  6.46500 -2.87400 45.08700
H  5.75500 5.31800 43.07400
H  3.20900 5.19700 41.65500
H  4.02500 5.87500 44.51600
H  2.30300 5.43500 44.27900
H  2.85000 6.66800 43.34400
H  6.60200 5.27200 41.07500
H  5.02300 5.04400 40.33500
H  5.87200 2.51400 40.48800
H  7.25200 3.34100 40.97400
H  -1.62700 2.08000 40.96900
H  -0.90000 3.42000 41.79800
H  -2.23300 2.43100 42.50700
H  -1.47000 -2.32400 43.97800
H  -1.48100 -2.46800 42.16900
H  -2.96700 -2.30600 43.12700
H  2.44700 -4.09000 42.97100
H  4.07300 -4.14300 45.58700
H  0.88100 -4.21800 45.39600
H  2.04500 -5.52700 45.27400
H  0.89200 -5.13500 43.92900
H  5.25200 -4.08200 42.85100
H  4.40000 -5.56600 43.08700
H  6.27300 -6.57700 43.55100
H  5.70200 -6.05400 45.15100
H  7.04200 -5.10400 44.32700
H  8.59800 -2.18100 45.96300
H  9.64500 -0.78600 46.05900
H  9.49500 -1.71800 44.58000
H  8.25000 3.81800 43.32300
H  6.65500 6.52800 46.22600
H  6.92300 5.28300 47.54800
H  5.32000 5.77800 47.29700
Mg 46.86400 24.80000 28.53800
C  47.24600 27.03100 31.27900
C  45.32200 22.62100 30.60100
C  47.47200 22.31000 26.29600
C  48.83100 27.03100 26.55400
N  46.40700 24.82700 30.70300
C  46.63900 25.84700 31.58500
C  46.11900 25.53700 33.01700
C  45.46700 24.06600 32.76000
C  45.74400 23.78000 31.32100
C  46.15000 22.92200 33.58300
C  45.24900 26.61300 33.69700
C  45.65600 27.02500 35.06100
H  44.65900 26.80100 36.27400
N  46.30100 22.84500 28.35600
C  45.50600 22.15600 29.25300
C  45.06200 20.88400 28.74500
C  45.80100 20.78600 27.48200
C  46.55500 22.00700 27.31600
C  44.32700 19.82200 29.59500
C  45.75100 19.68200 26.57200
O  46.35500 19.63800 25.52500
C  44.85400 18.45600 26.81800
N  47.96700 24.70600 26.70400
C  48.04600 23.54500 25.97000
C  48.73700 23.81000 24.65400
C  49.21100 25.30800 24.71600
C  48.64300 25.74400 26.03800
C  49.79100 22.73600 24.29100
C  48.59200 26.14900 23.52900
C  47.12700 26.67000 23.58500
N  47.78500 26.69300 28.77700
C  48.48800 27.44000 27.87400
C  48.85800 28.70800 28.47500
C  48.36500 28.61900 29.86100
C  47.73200 27.36100 29.96200
C  49.77100 29.76200 27.88200
C  48.30000 29.22100 31.17400
O  48.66400 30.32400 31.60500
C  47.58900 28.13500 32.12400
C  48.56900 27.70100 33.22000
O  49.46100 26.86300 33.09500
O  48.39900 28.54700 34.23600
C  49.23000 28.41400 35.49900
H  44.68000 22.00200 31.23100
H  47.65000 21.55100 25.53100
H  49.20800 27.81100 25.89000
H  46.91000 25.36600 33.74800
H  44.43300 23.96200 33.09000
H  46.45900 23.27700 34.56600
H  47.04700 22.52400 33.10900
H  45.47100 22.11400 33.85700
H  44.28100 26.16900 33.92900
H  45.02400 27.53300 33.15800
H  45.95100 28.07400 35.02100
H  46.57800 26.56100 35.41400
H  43.52000 19.36300 29.02400
H  43.97300 20.26800 30.52400
H  45.06100 19.09500 29.94000
H  45.07300 18.16000 27.84300
H  45.06500 17.65600 26.10800
H  43.80900 18.71800 26.65100
H  48.08300 23.66500 23.79400
H  50.29900 25.28200 24.78200
H  50.11000 22.29100 25.23400
H  50.60300 23.11300 23.66800
H  49.45100 21.87400 23.71800
H  48.69600 25.46000 22.69200
H  49.16400 27.03400 23.24900
H  46.56000 26.05700 22.88400
H  47.04900 27.74900 23.45500
H  46.77400 26.48700 24.60000
H  50.42600 29.45600 27.06700
H  50.40000 30.22900 28.64000
H  49.10700 30.51600 27.46000
H  46.78500 28.71600 32.57600
H  49.83100 29.32100 35.56400
H  49.82500 27.50200 35.55600
H  48.59300 28.42400 36.38400

