158

Mg 41.98100 41.32300 26.44100
C  41.00100 43.61800 28.92600
C  43.54300 39.32100 28.75000
C  42.79100 39.03900 24.01100
C  40.93600 43.52200 23.95900
N  42.27600 41.55800 28.50600
C  41.69100 42.43100 29.46600
C  41.98100 42.16300 30.90900
C  42.92400 40.85700 30.73600
C  42.94400 40.52400 29.19800
C  44.41100 40.98900 31.24200
C  40.73500 41.88300 31.80700
C  40.43600 42.86400 32.93200
H  40.07900 42.27800 34.29700
N  43.05000 39.43500 26.42100
C  43.65100 38.82500 27.52700
C  44.22200 37.60800 27.17500
C  43.92600 37.43800 25.76900
C  43.25100 38.68100 25.31800
C  44.84500 36.59500 28.10400
C  44.43000 36.31800 24.86200
O  44.15900 36.41700 23.68300
C  45.29500 35.06700 25.33400
N  41.94300 41.32600 24.29300
C  42.26600 40.25600 23.52500
C  41.93800 40.49800 22.01400
C  41.18100 41.82700 22.09800
C  41.29600 42.24300 23.52800
C  43.17600 40.52700 21.10900
C  39.76800 41.92200 21.65400
C  39.68600 41.81900 20.15300
N  41.12900 43.20400 26.42200
C  40.77400 43.98100 25.29900
C  40.16000 45.19400 25.74400
C  40.17900 45.16200 27.14800
C  40.81700 43.91400 27.50300
C  39.56400 46.24000 24.94300
C  39.91500 45.79000 28.42100
O  39.36600 46.81800 28.64000
C  40.46200 44.83700 29.59400
C  41.48000 45.63600 30.27900
O  42.63700 45.75600 30.03400
O  40.97500 46.02300 31.46200
C  41.84500 46.81600 32.38600
H  44.01500 38.82700 29.60100
H  43.09300 38.33900 23.22900
H  40.55600 44.20800 23.19900
H  42.40800 43.08800 31.29800
H  42.49100 40.10600 31.39800
H  44.48400 40.32400 32.10300
H  44.52300 42.03900 31.51300
H  45.07500 40.61000 30.46500
H  40.81300 40.88500 32.23800
H  39.95900 41.97100 31.04600
H  39.64800 43.58600 32.71500
H  41.28700 43.52300 33.10300
H  45.92300 36.74300 28.03100
H  44.39600 35.62300 27.90000
H  44.53800 36.75800 29.13700
H  45.62300 34.45500 24.49300
H  44.54400 34.51200 25.89700
H  46.10600 35.31200 26.01900
H  41.30700 39.66600 21.70300
H  41.81200 42.52000 21.54100
H  43.05900 41.25700 20.30800
H  43.20100 39.53200 20.66400
H  44.12800 40.73900 21.59400
H  39.31000 42.77400 22.15600
H  39.37000 41.00500 22.08800
H  40.52400 42.30200 19.65000
H  38.78800 42.30500 19.77000
H  39.53900 40.77300 19.88300
H  38.95000 45.71000 24.21600
H  40.31800 46.83800 24.43100
H  38.90000 46.88300 25.52100
H  39.81100 44.63600 30.44400
H  42.39800 46.18000 33.07700
H  41.27900 47.42200 33.09400
H  42.57200 47.46800 31.90200
Mg -6.12500 24.70900 26.94100
C  -4.94500 26.68300 29.74000
C  -8.01000 22.97800 29.01000
C  -6.96700 22.99100 24.20000
C  -3.95400 26.85700 24.90200
N  -6.24300 24.74800 29.15900
C  -5.78200 25.60500 30.06700
C  -6.39200 25.33100 31.46700
C  -7.27200 24.08800 31.18000
C  -7.22200 23.91100 29.72300
C  -6.76700 22.83300 31.97100
C  -7.15000 26.51600 32.19200
C  -7.12600 26.73000 33.76200
H  -6.66600 25.51100 34.54500
N  -7.37600 23.19200 26.62400
C  -8.03800 22.58200 27.64600
C  -8.96500 21.64500 27.01700
C  -8.67000 21.57400 25.57500
C  -7.65800 22.60900 25.40900
C  -9.96600 20.98000 27.83600
C  -9.29700 20.73700 24.51200
O  -9.12100 20.95200 23.31900
C  -10.18200 19.53200 24.80600
N  -5.48400 24.91300 24.85300
C  -5.93200 23.95300 24.01100
C  -5.30300 24.15600 22.60500
C  -4.39800 25.39300 22.76300
C  -4.54700 25.70000 24.26000
C  -4.50900 22.87700 22.08000
C  -4.74400 26.58900 21.82400
C  -6.16200 27.18300 21.97900
N  -4.79000 26.46300 27.14600
C  -4.03200 27.19000 26.28000
C  -3.44300 28.37500 26.94800
C  -3.68300 28.13700 28.28800
C  -4.48800 26.97900 28.38200
C  -2.66200 29.42200 26.22900
C  -3.52700 28.68500 29.59100
O  -2.90500 29.64500 29.94900
C  -4.24400 27.75500 30.51600
C  -3.44300 27.27500 31.63200
O  -2.52900 26.50900 31.54800
O  -3.82200 27.92500 32.80800
C  -3.03300 27.59100 34.01800
H  -8.72800 22.40400 29.59900
H  -7.10000 22.30500 23.36100
H  -3.31300 27.48200 24.27600
H  -5.52400 25.12100 32.09100
H  -8.27100 24.39100 31.49200
H  -7.05000 21.90400 31.47500
H  -7.39800 22.78600 32.85900
H  -5.77300 22.87400 32.41600
H  -8.18200 26.53900 31.84300
H  -6.69300 27.45100 31.86700
H  -8.08900 27.12800 34.08200
H  -6.46900 27.57200 33.97800
H  -10.47100 20.17100 27.30900
H  -10.79700 21.60700 28.15900
H  -9.57300 20.37000 28.65000
H  -9.85000 18.91200 25.63900
H  -10.29600 18.91500 23.91500
H  -11.12100 19.91400 25.20700
H  -6.05400 24.30000 21.82800
H  -3.35500 25.11900 22.60500
H  -3.53800 23.12600 21.65200
H  -5.21300 22.28900 21.49200
H  -4.32300 22.17100 22.88900
H  -4.72000 26.28200 20.77800
H  -3.99000 27.33400 22.07800
H  -6.69200 26.71800 22.81100
H  -6.62100 26.99300 21.00900
H  -5.98600 28.25400 22.07300
H  -3.34100 29.96000 25.56800
H  -1.76800 29.00500 25.76600
H  -2.27800 30.04800 27.03500
H  -5.07500 28.32300 30.93500
H  -3.04500 26.51400 34.18500
H  -3.58000 28.05500 34.83900
H  -2.00500 27.94400 33.94300

