158

Mg 1.87700 8.33400 25.29000
C  2.30200 9.99900 28.34800
C  1.59500 5.29300 27.11400
C  1.23900 6.65300 22.42800
C  2.28100 11.25200 23.55200
N  2.04400 7.71200 27.49800
C  2.15000 8.62700 28.52500
C  2.18200 7.88000 29.88600
C  2.31500 6.34100 29.44100
C  1.92500 6.41600 27.92000
C  3.68600 5.67000 29.75000
C  0.99500 8.26800 30.76900
C  1.29000 8.48800 32.27700
H  2.46600 7.67500 32.99300
N  1.44700 6.21200 24.79400
C  1.33000 5.18100 25.72400
C  0.93200 4.05900 24.96700
C  0.98900 4.36500 23.57700
C  1.23200 5.78600 23.53200
C  0.57700 2.78300 25.65200
C  0.77800 3.48100 22.34600
O  0.86100 3.88200 21.17500
C  0.49600 2.06900 22.51700
N  2.13300 8.84100 23.30100
C  1.76700 7.96400 22.26700
C  2.00000 8.54900 20.89300
C  2.00000 10.12000 21.21100
C  2.24600 10.11500 22.79100
C  3.29700 8.04000 20.18800
C  0.56000 10.75300 20.89400
C  0.67500 11.89000 19.88400
N  2.19100 10.20700 25.78600
C  2.35000 11.32300 24.95400
C  2.44800 12.53900 25.78100
C  2.38900 12.05400 27.09400
C  2.36600 10.59700 27.05800
C  2.37200 13.96500 25.34300
C  2.41900 12.44100 28.49600
O  2.63200 13.49100 29.01400
C  2.35000 11.11300 29.36000
C  3.38900 10.94700 30.37400
O  4.42400 10.27100 30.23200
O  3.08900 11.77400 31.48500
C  4.26200 11.97600 32.30200
H  1.60200 4.37000 27.69800
H  1.12300 6.11800 21.48300
H  2.22400 12.18900 22.99400
H  3.10300 8.18400 30.38400
H  1.66300 5.62600 29.94200
H  4.53500 6.33600 29.90800
H  3.80400 5.01400 28.88800
H  3.53800 5.06800 30.64600
H  0.18500 7.54100 30.71600
H  0.56600 9.23200 30.49600
H  0.37600 8.33400 32.85000
H  1.47000 9.56200 32.33200
H  1.38000 2.07800 25.43800
H  -0.31400 2.42000 25.14000
H  0.27600 2.81900 26.69900
H  0.61400 1.44000 21.63500
H  -0.55100 2.06200 22.81900
H  1.19700 1.63000 23.22700
H  1.28600 8.35500 20.09200
H  2.77500 10.58400 20.60200
H  2.92300 7.05400 19.91300
H  4.15000 7.97600 20.86400
H  3.53200 8.70300 19.35600
H  0.04800 11.16900 21.76200
H  -0.09400 10.00500 20.44500
H  1.08800 11.50200 18.95300
H  1.33800 12.68200 20.23400
H  -0.35900 12.23500 19.87900
H  1.82300 14.39400 26.18100
H  1.80300 14.06000 24.41800
H  3.37500 14.39300 25.31500
H  1.44900 11.19700 29.96600
H  4.71500 11.04800 32.65200
H  3.98900 12.49600 33.22000
H  4.92800 12.60600 31.71300
Mg 16.75300 -1.87600 27.54300
C  15.87300 0.53400 30.21000
C  18.42300 -3.63700 29.92300
C  18.10300 -3.57600 25.09900
C  15.69300 0.59700 25.26100
N  17.24100 -1.49100 29.87500
C  16.72800 -0.51200 30.69200
C  17.13400 -0.81200 32.13100
C  18.13900 -1.98300 31.94800
C  17.88300 -2.44800 30.51100
C  19.61300 -1.73400 32.13000
C  15.92700 -1.14700 33.06700
C  16.01700 -0.47500 34.43400
H  17.27500 -0.03800 35.08200
N  18.00400 -3.53000 27.49800
C  18.55300 -4.16700 28.60800
C  19.26200 -5.32500 28.10200
C  19.04200 -5.42800 26.68700
C  18.30300 -4.18400 26.33300
C  19.94600 -6.27100 29.08800
C  19.50400 -6.56000 25.64800
O  19.34800 -6.55100 24.44700
C  20.16000 -7.81200 26.16700
N  16.86700 -1.54500 25.46000
C  17.60000 -2.37200 24.70700
C  17.51600 -1.92200 23.24100
C  16.79000 -0.52400 23.29700
C  16.41500 -0.44700 24.76400
C  18.85400 -1.92500 22.54300
C  15.55900 -0.47700 22.34900
C  15.51700 0.59000 21.28300
N  15.78400 -0.00700 27.65700
C  15.35300 0.86400 26.63900
C  14.85400 2.16600 27.08000
C  15.00000 2.00000 28.47300
C  15.58800 0.71900 28.77500
C  14.26100 3.33100 26.25500
C  14.74300 2.69100 29.75000
O  14.28100 3.80800 29.96700
C  15.23700 1.71500 30.85400
C  16.19700 2.50600 31.69200
O  17.37000 2.61600 31.44700
O  15.55300 2.88100 32.86200
C  16.35600 3.54000 33.82700
H  18.99000 -4.26400 30.61400
H  18.46700 -4.20600 24.28500
H  15.51600 1.32700 24.46800
H  17.76400 -0.02600 32.54900
H  17.73800 -2.79500 32.55400
H  19.85200 -2.48500 32.88200
H  19.79100 -0.70800 32.45300
H  20.27500 -1.96900 31.29700
H  15.88900 -2.20300 33.33400
H  15.06000 -0.96900 32.43100
H  15.54800 -1.12300 35.17500
H  15.39800 0.42000 34.37000
H  19.43500 -6.06500 30.02800
H  21.01900 -6.09200 29.16200
H  19.60200 -7.30100 28.99200
H  21.16300 -7.65200 26.56200
H  20.28500 -8.58100 25.40500
H  19.50900 -8.13100 26.98100
H  16.84600 -2.62600 22.74800
H  17.63200 0.14700 23.12500
H  18.98400 -0.95400 22.06500
H  18.99800 -2.79600 21.90400
H  19.61800 -1.94200 23.32000
H  14.72800 -0.28400 23.02700
H  15.34400 -1.40900 21.82600
H  14.76100 1.29900 21.62300
H  15.06600 0.19500 20.37300
H  16.38400 1.20100 21.03400
H  13.17900 3.25100 26.35700
H  14.51200 3.13600 25.21200
H  14.51600 4.33500 26.59400
H  14.44400 1.48700 31.56700
H  15.98400 3.15900 34.77800
H  16.23500 4.62000 33.74800
H  17.41600 3.28900 33.78300

