158

Mg 25.21700 -7.57800 46.70700
C  27.99100 -5.52500 45.91300
C  23.39000 -5.73500 44.43100
C  23.03600 -10.02100 46.72000
C  27.38100 -9.58500 48.53500
N  25.69300 -5.77800 45.31700
C  26.87000 -5.12900 45.17200
C  26.75800 -3.90600 44.26000
C  25.26700 -3.91500 43.85200
C  24.73100 -5.19700 44.62000
C  24.39500 -2.69400 44.13700
C  27.68400 -3.96800 43.03100
C  28.21100 -2.71800 42.36300
H  27.82000 -2.65600 40.93500
N  23.49800 -7.83000 45.69900
C  22.84000 -6.97600 44.82300
C  21.66800 -7.68100 44.30500
C  21.53000 -8.91900 44.97900
C  22.72800 -8.99100 45.82700
C  20.65100 -7.01500 43.36400
C  20.35500 -9.92000 44.70100
O  19.34700 -9.56700 44.10300
C  20.36100 -11.25200 45.27300
N  25.17800 -9.43700 47.61700
C  24.15900 -10.26300 47.49600
C  24.50500 -11.66500 47.85600
C  25.83500 -11.46500 48.64300
C  26.20300 -10.11000 48.15700
C  23.45300 -12.47600 48.57300
C  26.94500 -12.58000 48.33400
C  27.82500 -12.90700 49.48600
N  27.27800 -7.50400 47.27400
C  27.96200 -8.34600 48.15300
C  29.27800 -7.78400 48.46300
C  29.33200 -6.74000 47.52600
C  28.11600 -6.66300 46.80200
C  30.29300 -8.39900 49.43900
C  30.18500 -5.58900 47.17000
O  31.29700 -5.29300 47.55800
C  29.36800 -4.79700 46.03800
C  29.29700 -3.38100 46.38900
O  28.88500 -2.89900 47.43000
O  29.65100 -2.67200 45.25500
C  29.23000 -1.24700 45.24400
H  22.75000 -5.12400 43.79100
H  22.25300 -10.78000 46.79100
H  27.93400 -10.19900 49.24900
H  26.94000 -2.97700 44.80000
H  24.96200 -4.10100 42.82200
H  23.94900 -2.34700 43.20500
H  25.11300 -1.89500 44.32100
H  23.69300 -2.82700 44.96000
H  27.09300 -4.39400 42.22000
H  28.49300 -4.61000 43.37900
H  29.29700 -2.77800 42.44100
H  27.98100 -1.78100 42.87200
H  20.27900 -7.62200 42.53800
H  20.98500 -6.06500 42.94800
H  19.77400 -6.78500 43.96800
H  21.28100 -11.74500 44.95900
H  19.47400 -11.78900 44.93900
H  20.36200 -11.36000 46.35700
H  24.81900 -12.22300 46.97400
H  25.57700 -11.30000 49.68900
H  23.99800 -13.25100 49.11300
H  22.88500 -12.95600 47.77600
H  22.74100 -11.92100 49.18300
H  27.58000 -12.10900 47.58400
H  26.52600 -13.41000 47.76500
H  27.75700 -12.20900 50.32100
H  28.85600 -12.84800 49.14000
H  27.72300 -13.92600 49.86000
H  31.26400 -8.53400 48.96400
H  29.96100 -9.37300 49.80100
H  30.29200 -7.76800 50.32800
H  29.93000 -4.80500 45.10400
H  29.43800 -0.73900 44.30200
H  29.66400 -0.59000 45.99800
H  28.15700 -1.09100 45.35600
Mg 36.12100 0.90300 29.73300
C  33.72100 2.49400 31.84600
C  38.31400 1.12000 32.36100
C  38.37500 -0.28800 27.61100
C  33.66400 1.08100 27.11500
N  35.99800 1.74000 31.83800
C  34.97300 2.23500 32.51300
C  35.26100 2.40200 33.99100
C  36.78600 2.40300 34.03800
C  37.04000 1.76600 32.61000
C  37.62000 3.75200 34.15600
C  34.46700 1.41600 34.89600
C  33.61000 2.04800 36.02000
H  34.21800 3.14200 36.95900
N  38.11000 0.42100 29.99300
C  38.84700 0.61500 31.12700
C  40.15700 0.16800 30.90100
C  40.23300 -0.26100 29.55400
C  38.86600 0.02400 28.95500
C  41.24100 0.20400 31.98800
C  41.46000 -0.68400 28.78500
O  41.40900 -0.98700 27.60700
C  42.82800 -0.83300 29.49100
N  36.08000 0.63200 27.64300
C  37.10900 0.01300 27.05000
C  36.77000 -0.27000 25.56000
C  35.28600 0.09700 25.44700
C  34.97800 0.71200 26.79600
C  37.76100 0.45000 24.64100
C  34.46300 -1.07200 25.07000
C  34.18900 -2.12300 26.20400
N  34.16400 1.62400 29.45700
C  33.24200 1.58700 28.37300
C  31.98200 2.22700 28.79700
C  32.06200 2.54700 30.14700
C  33.42700 2.15100 30.50200
C  30.68800 2.37800 27.97800
C  31.40400 3.10500 31.31300
O  30.24300 3.54100 31.45400
C  32.46300 3.10500 32.45000
C  32.67800 4.49800 32.89300
O  33.55300 5.30100 32.64300
O  31.72500 4.76400 33.86200
C  31.95500 6.03400 34.61400
H  38.92400 1.03100 33.26300
H  39.14300 -0.66800 26.93400
H  32.86700 0.91000 26.38900
H  34.89600 3.39200 34.26400
H  37.18400 1.73300 34.79900
H  38.11300 4.00600 33.21800
H  38.40300 3.78900 34.91200
H  36.98900 4.57400 34.49200
H  35.08100 0.70800 35.45300
H  33.88800 0.77000 34.23700
H  33.31300 1.17900 36.60700
H  32.69200 2.46500 35.60400
H  41.51800 -0.74800 32.43900
H  40.89800 0.78300 32.84600
H  42.11800 0.73500 31.61800
H  43.16500 0.11500 29.91000
H  43.59100 -1.38000 28.93700
H  42.63300 -1.36900 30.42000
H  36.80200 -1.35900 25.51500
H  35.18700 0.87000 24.68500
H  38.08000 -0.27200 23.88900
H  38.60500 0.80000 25.23500
H  37.37800 1.30700 24.08700
H  35.08700 -1.53500 24.30500
H  33.59500 -0.68400 24.53600
H  35.01000 -2.79800 26.44200
H  33.37900 -2.73400 25.80700
H  33.82400 -1.60000 27.08800
H  30.64900 3.01900 27.09700
H  29.91900 2.75400 28.65300
H  30.31400 1.42800 27.59800
H  32.02500 2.48100 33.22900
H  31.10300 6.26600 35.25400
H  31.97200 6.92800 33.99100
H  32.82600 5.97900 35.26700

