158

Mg 0.15100 8.53600 27.00800
C  0.68100 10.47900 29.88500
C  -0.09000 5.81900 29.03000
C  0.28300 6.55000 24.29000
C  0.59400 11.22400 25.06300
N  0.44000 8.14100 29.26700
C  0.46400 9.16100 30.24200
C  0.16200 8.48000 31.64700
C  0.11100 6.99300 31.25600
C  0.15500 6.96200 29.74000
C  1.22100 6.08900 31.90600
C  -1.08900 9.19700 32.32600
C  -0.92400 9.33300 33.85600
H  0.21900 8.62900 34.53300
N  0.13600 6.41800 26.65900
C  -0.10700 5.47500 27.64500
C  -0.28500 4.12900 27.08900
C  -0.18200 4.32000 25.68400
C  0.05700 5.82400 25.47400
C  -0.75300 3.00900 27.92300
C  -0.41000 3.37800 24.56300
O  -0.45300 3.76600 23.36800
C  -0.61100 1.91300 24.86300
N  0.57900 8.80100 24.87800
C  0.52000 7.90100 23.98600
C  0.63300 8.45500 22.57200
C  0.33100 9.95800 22.91700
C  0.55700 10.04800 24.38400
C  2.06600 8.14300 22.02500
C  -1.12700 10.47900 22.54500
C  -1.28700 11.08500 21.21400
N  0.55300 10.44500 27.35400
C  0.68000 11.46400 26.42600
C  1.10500 12.70800 27.18500
C  1.09300 12.31300 28.52000
C  0.78300 10.93700 28.57200
C  1.39900 14.12200 26.62100
C  1.34600 12.77000 29.81600
O  1.75600 13.86000 30.21000
C  0.91800 11.63200 30.77500
C  2.01300 11.47100 31.80200
O  3.14200 10.95000 31.64500
O  1.62300 12.03800 32.98200
C  2.64500 12.13900 34.00600
H  -0.24600 4.95000 29.67200
H  0.49000 5.97900 23.38200
H  0.65000 12.11300 24.43200
H  1.08500 8.60100 32.21400
H  -0.85300 6.51800 31.44200
H  2.00000 5.95500 31.15600
H  0.87100 5.07000 32.07400
H  1.55300 6.54900 32.83700
H  -1.97800 8.61400 32.08500
H  -1.27700 10.19800 31.93700
H  -1.88600 8.95900 34.20600
H  -1.02100 10.37000 34.17600
H  -1.71700 2.68100 27.53500
H  -0.92500 3.25600 28.97100
H  0.00100 2.22400 27.86200
H  -1.62000 1.63000 25.16300
H  0.09000 1.63500 25.65000
H  -0.35900 1.33900 23.97100
H  -0.18200 8.06000 21.96600
H  1.07100 10.55600 22.38600
H  2.60000 9.08600 22.14200
H  2.07300 7.91700 20.95900
H  2.62300 7.41200 22.61200
H  -1.55300 11.09400 23.33800
H  -1.79000 9.61500 22.48800
H  -1.80700 12.04200 21.26000
H  -1.89500 10.46900 20.55100
H  -0.35600 11.21600 20.66400
H  2.31100 14.26600 26.04200
H  1.52600 14.85000 27.42200
H  0.51100 14.39900 26.05400
H  0.04400 11.97600 31.33000
H  2.75000 13.10900 34.49100
H  3.65500 11.83600 33.73200
H  2.35400 11.50000 34.84000
Mg 28.12600 56.72800 40.76500
C  25.56000 54.31200 40.09500
C  30.35900 54.32600 39.63500
C  30.25700 59.10700 40.41600
C  25.47500 58.96800 41.16500
N  27.92500 54.55200 39.95300
C  26.81200 53.84400 39.69300
C  27.12500 52.46100 39.01500
C  28.69500 52.41700 39.16900
C  29.05300 53.86500 39.64000
C  29.07500 51.30400 40.22100
C  26.58500 52.36500 37.59400
C  26.78500 53.66400 36.76200
H  27.03400 53.41500 35.26300
N  30.08200 56.72400 40.18400
C  30.83100 55.64400 39.74800
C  32.15200 56.19400 39.52000
C  32.14100 57.56700 39.78800
C  30.79800 57.83000 40.15700
C  33.26200 55.32800 39.12700
C  33.38700 58.38700 39.59600
O  34.41500 57.97500 39.07600
C  33.37700 59.88800 40.03200
N  27.89900 58.70000 40.86400
C  28.97600 59.52200 40.81000
C  28.55300 61.01600 41.09000
C  27.01300 60.89400 41.26600
C  26.74100 59.43600 41.12300
C  29.29000 61.58500 42.30800
C  26.32500 61.68300 40.09000
C  25.67500 62.99700 40.62000
N  26.02000 56.59600 41.06900
C  25.08900 57.59600 41.22100
C  23.78900 57.00100 41.48400
C  23.91900 55.68400 41.04200
C  25.28500 55.50700 40.72800
C  22.49300 57.65100 41.84900
C  23.15400 54.47200 40.66600
O  21.97000 54.15300 40.77400
C  24.23300 53.54600 40.06300
C  24.23800 52.27600 40.80100
O  24.05800 51.18000 40.21000
O  24.63000 52.43700 42.08000
C  25.25100 51.26300 42.66100
H  31.09400 53.68100 39.15000
H  30.90700 59.97600 40.28800
H  24.60100 59.58900 41.36900
H  26.67400 51.65000 39.58700
H  29.15700 52.21400 38.20300
H  29.77300 51.76600 40.91800
H  29.70200 50.53500 39.77000
H  28.24900 50.90500 40.81000
H  25.51800 52.14300 37.62100
H  27.07300 51.54200 37.07200
H  27.64400 54.20500 37.16000
H  25.93900 54.32600 36.94600
H  34.16500 55.36800 39.73600
H  33.46900 55.45600 38.06500
H  33.02400 54.26500 39.15000
H  32.87900 59.86800 41.00100
H  32.74000 60.37700 39.29500
H  34.41900 60.18400 40.15800
H  28.84400 61.56500 40.19400
H  26.73200 61.17000 42.28200
H  29.77600 62.52100 42.03200
H  30.03700 60.89300 42.69700
H  28.63500 61.75200 43.16300
H  25.55700 61.00100 39.72600
H  26.98400 61.99400 39.27800
H  25.73700 63.12900 41.70000
H  24.64700 63.05000 40.26200
H  26.20400 63.84000 40.17500
H  21.76400 56.84100 41.85700
H  22.15900 58.17300 40.95200
H  22.48400 58.29000 42.73200
H  24.01400 53.18000 39.06000
H  25.53000 51.47900 43.69200
H  26.16700 50.99600 42.13600
H  24.59900 50.39000 42.68200

