158

Mg 48.84400 44.46800 42.87700
C  45.47300 43.91300 42.36000
C  49.43000 41.10200 41.93000
C  52.20600 45.05500 42.74700
C  48.23300 47.79300 42.91500
N  47.67400 42.79600 41.95300
C  46.29000 42.80300 42.03400
C  45.76100 41.46800 41.38800
C  46.97800 40.48000 41.70300
C  48.12800 41.48900 41.80500
C  46.74500 39.68100 42.97700
C  45.51400 41.71300 39.85600
C  44.40600 41.09500 39.04000
H  44.86200 40.56800 37.71300
N  50.53100 43.17800 42.58200
C  50.58800 41.85100 42.19100
C  51.92800 41.49200 41.87300
C  52.79000 42.58200 42.25200
C  51.81700 43.66300 42.66200
C  52.29500 40.17500 41.32400
C  54.27200 42.57000 42.19200
O  54.88600 41.61000 41.69600
C  54.94800 43.70100 42.80400
N  50.02300 46.14800 42.69900
C  51.40600 46.16800 42.78600
C  51.99400 47.57100 42.90500
C  50.68800 48.44600 42.70400
C  49.54800 47.39100 42.89700
C  52.58600 47.84200 44.29100
C  50.67300 49.06700 41.28100
C  49.87500 50.33900 41.06100
N  47.21000 45.65000 42.91200
C  47.05600 46.97700 42.93100
C  45.65400 47.37300 42.97400
C  44.96100 46.14000 42.88300
C  45.96000 45.16600 42.74200
C  45.10000 48.79700 42.91000
C  43.59300 45.60600 42.70500
O  42.45100 46.05700 42.73600
C  43.91200 44.06800 42.28300
C  43.14000 43.18300 43.21400
O  41.95900 43.15600 43.22800
O  44.03800 42.54300 44.05200
C  43.44000 41.67400 45.14200
H  49.54600 40.04300 41.69200
H  53.25700 45.35300 42.74900
H  48.21600 48.88500 42.90500
H  44.82300 41.18800 41.86900
H  47.04700 39.82000 40.83800
H  45.85900 40.08700 43.46600
H  47.53500 39.95100 43.67800
H  46.55500 38.61200 42.87600
H  46.49700 41.44300 39.47300
H  45.42100 42.79200 39.73000
H  43.77900 41.95700 38.81200
H  43.89200 40.28900 39.56400
H  52.63400 40.31500 40.29700
H  51.37000 39.63700 41.11700
H  52.91100 39.60700 42.02100
H  54.88500 44.52400 42.09200
H  56.00000 43.50100 43.00700
H  54.51300 43.96400 43.76800
H  52.83400 47.78800 42.24600
H  50.42700 49.27200 43.36600
H  52.46700 48.87400 44.62100
H  53.65500 47.63600 44.34000
H  52.18000 47.17800 45.05400
H  50.26000 48.30600 40.61900
H  51.70000 49.37700 41.08300
H  49.36200 50.81600 41.89600
H  48.97200 50.21300 40.46400
H  50.57700 51.07700 40.67300
H  45.36300 49.25800 41.95800
H  45.70200 49.44700 43.54400
H  44.02300 48.86500 43.05900
H  43.56800 43.96000 41.25400
H  44.21100 41.75700 45.90900
H  43.29700 40.64900 44.80300
H  42.54800 42.03200 45.65500
Mg 0.79100 42.79400 26.79000
C  2.90600 42.69400 29.61600
C  -1.83200 42.12900 29.09700
C  -1.24700 42.45100 24.21100
C  3.47900 43.37400 24.84000
N  0.62200 42.50700 29.07100
C  1.60800 42.66500 30.05300
C  1.09500 42.60900 31.48100
C  -0.39200 42.22600 31.22300
C  -0.55400 42.27200 29.64600
C  -0.95500 40.90300 31.82300
C  1.41200 43.88900 32.20300
C  1.36400 43.77200 33.74400
H  1.03800 42.49600 34.53000
N  -1.23400 42.19000 26.62000
C  -2.14800 42.13700 27.66800
C  -3.45100 41.86400 27.13700
C  -3.33400 41.90900 25.66100
C  -1.91800 42.18600 25.43500
C  -4.75300 41.72400 27.96000
C  -4.37800 41.64600 24.56100
O  -4.10000 41.44400 23.34400
C  -5.89600 41.39800 24.94600
N  1.07500 42.82900 24.76600
C  0.03700 42.79800 23.85800
C  0.58200 42.88200 22.38200
C  2.14100 43.21300 22.61800
C  2.25300 43.12500 24.14000
C  0.26100 41.61300 21.53900
C  2.70600 44.51200 21.94700
C  2.37800 45.91200 22.64900
N  2.74800 43.05000 27.10400
C  3.74500 43.25900 26.21900
C  5.05000 43.30200 26.87400
C  4.77100 42.97900 28.19000
C  3.36700 42.83600 28.27100
C  6.32500 43.67600 26.23200
C  5.39800 42.82300 29.49100
O  6.58200 42.87200 29.80100
C  4.15900 42.67600 30.52800
C  4.24300 41.46600 31.40600
O  4.12600 40.32000 31.01200
O  4.57400 41.83900 32.68400
C  4.79700 40.68500 33.52700
H  -2.65300 42.05500 29.81400
H  -1.96400 42.62900 23.40600
H  4.33800 43.67200 24.23600
H  1.44300 41.70600 31.98300
H  -0.96000 43.09100 31.56700
H  -1.30100 40.29700 30.98600
H  -1.82700 41.20700 32.40300
H  -0.22600 40.33500 32.40100
H  0.58700 44.56200 31.97200
H  2.36400 44.29000 31.85600
H  0.91600 44.67000 34.17000
H  2.39600 44.07100 33.93200
H  -5.43400 40.97100 27.56300
H  -5.14400 42.73900 28.04000
H  -4.46700 41.40700 28.96300
H  -5.96900 40.39400 25.36500
H  -6.42300 41.41700 23.99300
H  -6.42500 42.17000 25.50500
H  0.11500 43.70800 21.84600
H  2.60000 42.34600 22.14200
H  -0.14400 40.79700 22.13700
H  1.22700 41.37300 21.09300
H  -0.61300 41.79500 20.91500
H  2.32200 44.56800 20.92800
H  3.75500 44.21600 21.97200
H  3.37300 46.24700 22.94100
H  1.81300 45.73600 23.56400
H  1.81800 46.58200 21.99600
H  6.24400 44.55900 25.59900
H  6.73800 42.84300 25.66400
H  6.89900 43.95300 27.11700
H  4.08800 43.50700 31.23000
H  5.81200 40.32300 33.36300
H  4.07500 39.87200 33.44700
H  4.89200 41.02800 34.55800

