158

Mg -1.76700 18.17000 27.13700
C  -2.13400 16.12200 30.01100
C  -2.56700 20.81100 28.99000
C  -1.26700 20.01400 24.52300
C  -1.64800 15.24500 25.22400
N  -2.09700 18.38100 29.24200
C  -2.17600 17.49300 30.28100
C  -2.31000 18.15000 31.58700
C  -2.90100 19.51900 31.20000
C  -2.48400 19.59500 29.71700
C  -4.47300 19.58100 31.41000
C  -0.99800 18.16900 32.42000
C  -1.00600 17.58700 33.78800
H  0.28700 17.35600 34.65600
N  -1.69600 20.18900 26.85500
C  -2.11100 21.19300 27.72200
C  -1.85600 22.47100 27.14700
C  -1.36100 22.23000 25.84700
C  -1.37200 20.79200 25.64700
C  -2.15100 23.76000 27.96400
C  -1.08500 23.26000 24.77200
O  -0.77500 23.02700 23.61100
C  -1.12900 24.73100 25.20700
N  -1.51700 17.72200 25.15400
C  -1.40700 18.65900 24.25400
C  -1.34700 18.03000 22.86700
C  -1.33100 16.55500 23.08200
C  -1.60800 16.45200 24.54500
C  -2.43500 18.68300 21.92600
C  -0.16700 15.70400 22.52800
C  -0.47300 14.82600 21.30700
N  -1.87200 16.09100 27.49800
C  -1.68800 15.03100 26.57900
C  -1.69900 13.80900 27.26300
C  -1.88100 14.15900 28.65700
C  -1.98300 15.58200 28.71200
C  -1.66700 12.39100 26.70500
C  -2.18800 13.67700 29.96700
O  -2.31600 12.50600 30.38100
C  -2.11600 14.88700 30.86800
C  -0.92200 14.76300 31.72900
O  0.21300 14.98400 31.47400
O  -1.25900 14.22200 32.92100
C  -0.30500 13.61500 33.82600
H  -3.02800 21.65600 29.50500
H  -1.04000 20.59300 23.62500
H  -1.65300 14.34200 24.61000
H  -3.03900 17.53400 32.11500
H  -2.47500 20.39700 31.68600
H  -4.82800 19.40800 30.39500
H  -4.73800 20.52500 31.88700
H  -5.02100 18.81200 31.95400
H  -0.54300 19.15500 32.51100
H  -0.22500 17.69000 31.81800
H  -1.53200 16.63600 33.70000
H  -1.63100 18.28200 34.34900
H  -2.62100 23.55500 28.92700
H  -2.95400 24.15600 27.34300
H  -1.37000 24.50100 27.79600
H  -2.15100 25.01000 25.46400
H  -0.99800 25.47900 24.42600
H  -0.42400 24.98100 26.00000
H  -0.35900 18.23800 22.45600
H  -2.21300 16.08600 22.64500
H  -3.00200 19.44700 22.45600
H  -3.18800 17.96100 21.60800
H  -2.03900 19.13600 21.01700
H  0.16900 15.03000 23.31500
H  0.72300 16.29600 22.31200
H  -0.44200 13.77000 21.57700
H  0.26900 15.13500 20.57000
H  -1.42400 15.01000 20.80800
H  -1.05200 12.28300 25.81100
H  -2.71700 12.10000 26.71800
H  -1.13900 11.80800 27.46000
H  -3.00700 14.94300 31.49400
H  -0.36200 12.52800 33.77800
H  -0.44100 13.89700 34.87000
H  0.69100 13.96000 33.54900
Mg 30.09400 56.45500 41.11400
C  27.01300 55.28400 39.81900
C  31.60500 53.73300 39.61500
C  33.02600 57.96100 41.44600
C  28.45300 59.40300 41.94300
N  29.33300 54.67100 39.99600
C  28.13100 54.46100 39.48900
C  27.99700 53.24600 38.56800
C  29.29500 52.53300 38.98400
C  30.18800 53.69000 39.69000
C  29.19000 51.25400 39.88700
C  27.92600 53.51100 37.00800
C  27.85500 54.87500 36.49400
H  27.08600 55.22600 35.23500
N  32.10000 55.93000 40.59500
C  32.50000 54.77300 40.02600
C  33.83300 54.86700 39.63500
C  34.36100 56.06600 40.22700
C  33.19200 56.71900 40.82800
C  34.43100 53.82600 38.69300
C  35.82300 56.59500 40.03400
O  36.66900 55.96600 39.35100
C  36.23900 57.94200 40.54200
N  30.65100 58.38300 41.64800
C  31.98800 58.71900 41.85800
C  32.11500 60.24400 42.26600
C  30.62900 60.60500 42.68800
C  29.87500 59.40300 42.03600
C  33.13700 60.48600 43.46600
C  30.20800 61.96300 42.20300
C  29.16000 62.83100 43.04500
N  28.08800 57.19900 41.04100
C  27.57300 58.38000 41.49400
C  26.16900 58.33700 41.29700
C  25.92000 57.13400 40.64400
C  27.12600 56.44900 40.51700
C  25.27500 59.50400 41.56800
C  24.84800 56.34000 40.19400
O  23.66300 56.48400 40.21300
C  25.46400 55.09800 39.53100
C  24.87700 53.93600 40.12200
O  25.25200 53.30600 41.08900
O  23.90600 53.49100 39.27300
C  23.26400 52.18700 39.59300
H  32.09600 52.79800 39.33900
H  33.96300 58.50600 41.57700
H  28.08200 60.38300 42.25000
H  27.13200 52.62300 38.79600
H  30.00000 52.26800 38.19700
H  29.77800 51.43400 40.78800
H  29.69400 50.44300 39.36200
H  28.15300 51.00400 40.11500
H  27.03200 52.99100 36.66300
H  28.71900 53.13900 36.36000
H  28.89600 55.15800 36.33700
H  27.66900 55.70500 37.17500
H  33.97300 54.04700 37.72900
H  34.26000 52.77700 38.93800
H  35.51600 53.85500 38.58800
H  35.70200 58.69800 39.96800
H  37.27900 58.05100 40.23500
H  36.19400 57.99800 41.63000
H  32.21800 60.71300 41.28700
H  30.32900 60.46400 43.72600
H  33.69300 59.57200 43.67000
H  32.70400 60.88900 44.38200
H  33.73400 61.32700 43.11500
H  29.84600 61.76200 41.19500
H  31.11600 62.54900 42.06500
H  29.69100 63.69000 43.45600
H  28.68300 62.22900 43.81800
H  28.35400 63.13500 42.37700
H  24.74500 59.67500 40.63100
H  25.74700 60.41900 41.92500
H  24.58000 59.27100 42.37600
H  25.30400 55.12200 38.45300
H  23.93100 51.50500 40.12000
H  22.81600 51.76700 38.69300
H  22.41000 52.46900 40.20900

