158

Mg 40.22500 10.23500 29.19300
C  42.03500 11.20600 31.85000
C  37.80600 8.86100 31.30900
C  38.53200 8.66200 26.50000
C  42.83100 10.76700 27.06300
N  39.98300 10.09900 31.28300
C  40.77400 10.74300 32.19800
C  40.18900 10.68100 33.60900
C  39.02300 9.59700 33.48200
C  38.94200 9.49000 31.91600
C  39.18700 8.30800 34.37900
C  39.99200 12.02000 34.33600
C  39.15900 12.07100 35.57900
H  39.57100 12.85000 36.82500
N  38.25500 9.24500 28.98900
C  37.44200 8.74400 30.01200
C  36.30200 8.15800 29.43400
C  36.50700 8.11000 28.00900
C  37.79900 8.70400 27.78700
C  35.27500 7.42900 30.21800
C  35.52000 7.71800 26.85800
O  35.86900 7.84000 25.70800
C  34.07800 7.49200 27.20700
N  40.58300 9.79900 27.02600
C  39.77100 9.16700 26.13800
C  40.37800 9.18900 24.72900
C  41.64000 10.12000 24.95800
C  41.73200 10.15400 26.46300
C  40.60700 7.74800 24.21900
C  41.64700 11.49500 24.21800
C  40.73600 12.58500 24.69700
N  42.01600 10.99300 29.32300
C  42.99500 11.17700 28.37000
C  44.17600 11.86700 28.97300
C  43.82000 11.83500 30.32500
C  42.55000 11.29700 30.48400
C  45.45800 12.44600 28.26400
C  44.29700 12.23000 31.66000
O  45.31600 12.80500 31.96700
C  43.19600 11.74300 32.64800
C  43.73000 10.76000 33.58200
O  43.92000 9.59300 33.31900
O  44.19100 11.38300 34.68300
C  44.81700 10.61900 35.74900
H  37.03800 8.47400 31.98300
H  38.13300 8.08300 25.66500
H  43.63800 10.99800 26.36400
H  40.93500 10.22800 34.26100
H  38.05900 10.04000 33.73400
H  39.98500 8.50000 35.09800
H  39.48100 7.46600 33.75300
H  38.24100 8.16300 34.90000
H  39.59900 12.82500 33.71400
H  40.99900 12.26500 34.67400
H  38.94900 11.01300 35.73200
H  38.32800 12.66900 35.20400
H  34.36800 8.00300 30.02800
H  35.43300 7.28400 31.28700
H  35.24300 6.45900 29.72300
H  33.56300 8.25400 27.79200
H  33.96400 6.49500 27.63100
H  33.52800 7.55800 26.26800
H  39.67800 9.74300 24.10300
H  42.50400 9.57800 24.57500
H  39.65900 7.42600 23.78900
H  40.90900 7.03500 24.98700
H  41.29500 7.68600 23.37600
H  41.44100 11.38200 23.15300
H  42.63500 11.95400 24.19500
H  41.33200 13.36500 25.17200
H  40.05100 12.13800 25.41700
H  40.06500 13.02800 23.96100
H  45.54000 13.53000 28.18800
H  45.59300 11.84700 27.36200
H  46.32000 12.14400 28.85800
H  42.84400 12.61800 33.19400
H  45.52400 9.84100 35.46300
H  44.06700 10.25200 36.44900
H  45.45600 11.35100 36.24200
Mg 0.56000 42.21200 26.33900
C  1.79400 42.24800 29.79600
C  -2.38000 41.10600 27.64500
C  -0.33400 41.26300 23.18700
C  3.87600 42.81600 25.25100
N  -0.14500 41.66100 28.45600
C  0.42000 41.95400 29.65500
C  -0.50500 41.73600 30.79000
C  -1.81600 41.33900 30.15500
C  -1.41100 41.34200 28.64000
C  -2.30600 39.96200 30.66700
C  -0.63700 42.94600 31.70600
C  -0.25900 42.84400 33.23100
H  -0.59700 41.49200 33.93900
N  -1.26700 41.43800 25.43600
C  -2.31600 41.11800 26.22200
C  -3.37600 40.82200 25.26100
C  -2.75700 40.73600 23.88800
C  -1.36100 41.09500 24.14800
C  -4.86700 40.80400 25.64300
C  -3.45100 40.43700 22.51600
O  -2.86700 40.49200 21.43300
C  -4.89200 39.87100 22.49600
N  1.59900 42.17800 24.53500
C  0.95600 41.79900 23.33100
C  1.90900 41.88400 22.17700
C  3.10500 42.68800 22.81100
C  2.81700 42.65600 24.30700
C  2.38500 40.53700 21.56300
C  3.17300 44.15600 22.28000
C  4.12800 44.24600 21.12700
N  2.51400 42.44200 27.24800
C  3.77200 42.69400 26.66300
C  4.70900 42.80100 27.79400
C  3.98400 42.68500 28.98300
C  2.69000 42.43800 28.63100
C  6.18100 43.11000 27.56100
C  4.21600 42.56700 30.39000
O  5.22800 42.55000 31.02800
C  2.69200 42.37600 31.02100
C  2.75000 41.15400 31.92100
O  2.58900 39.98800 31.56600
O  3.11800 41.51200 33.20400
C  3.05500 40.52100 34.30000
H  -3.34800 40.88200 28.09800
H  -0.56500 40.90800 22.18000
H  4.87400 42.90500 24.81900
H  -0.05700 40.87200 31.28100
H  -2.64000 42.01600 30.37600
H  -3.30000 40.11700 31.08700
H  -1.73300 39.44500 31.43700
H  -2.36100 39.30200 29.80100
H  -1.68700 43.21100 31.83300
H  0.00400 43.74700 31.33700
H  -0.71600 43.69200 33.74100
H  0.80100 43.08300 33.31900
H  -5.34100 41.57600 25.03700
H  -5.04400 41.12500 26.66900
H  -5.40600 39.89200 25.38600
H  -5.06200 39.22900 21.63200
H  -5.69300 40.57900 22.70800
H  -4.83600 39.19700 23.35100
H  1.55200 42.48400 21.34000
H  4.05100 42.18200 22.62400
H  2.24100 40.53200 20.48300
H  1.65400 39.80300 21.90200
H  3.36400 40.22100 21.92500
H  3.55100 44.83500 23.04500
H  2.13200 44.35500 22.02500
H  4.80800 45.02000 21.48400
H  3.69700 44.60600 20.19200
H  4.74900 43.37400 20.92500
H  6.42700 42.14600 27.11800
H  6.64900 43.36100 28.51300
H  6.46300 43.82300 26.78600
H  2.40500 43.28400 31.55200
H  4.06500 40.46100 34.70600
H  2.62600 39.59300 33.92300
H  2.40200 40.93800 35.06700

