158

Mg 34.73300 48.63300 26.06400
C  35.52000 46.72400 28.80500
C  33.52700 51.13500 28.26500
C  33.84500 50.43300 23.47400
C  35.84100 46.07800 24.00500
N  34.52500 48.89500 28.26300
C  35.08000 48.01500 29.18000
C  34.92100 48.53100 30.62800
C  34.08100 49.85300 30.44200
C  34.09600 49.96600 28.87500
C  32.62200 49.83700 31.05400
C  36.35100 48.75200 31.33500
C  36.58400 48.45300 32.81500
H  36.18200 49.62700 33.74100
N  33.86000 50.46600 25.90500
C  33.43300 51.34400 26.89300
C  32.96400 52.54100 26.28300
C  33.03400 52.33600 24.86900
C  33.72400 51.07500 24.73500
C  32.44200 53.73100 27.11100
C  32.51200 53.30800 23.74200
O  32.56500 53.01000 22.55600
C  31.88000 54.60300 24.18800
N  34.78300 48.28400 23.99600
C  34.34200 49.20200 23.06600
C  34.47800 48.72900 21.63500
C  35.29400 47.36100 21.88500
C  35.40000 47.24400 23.39000
C  33.08100 48.44000 20.98900
C  36.67300 47.22800 21.14700
C  36.90700 45.84200 20.56400
N  35.42000 46.73900 26.25000
C  35.81400 45.83800 25.37500
C  36.26300 44.62100 26.07100
C  36.26000 45.01600 27.42300
C  35.74100 46.29300 27.52200
C  36.82200 43.35400 25.54200
C  36.59100 44.54800 28.77900
O  37.01000 43.45500 29.15300
C  36.11500 45.61500 29.70900
C  35.18600 45.13900 30.74500
O  33.95900 45.10100 30.66900
O  35.86200 44.86300 31.86200
C  35.09800 44.81800 33.06600
H  33.28700 51.74700 29.13600
H  33.62300 50.98300 22.55700
H  36.29100 45.27300 23.42200
H  34.28700 47.86200 31.20900
H  34.58700 50.70600 30.89300
H  31.84300 50.41900 30.56200
H  32.80200 50.24100 32.05000
H  32.28000 48.80400 31.12000
H  36.60000 49.78900 31.11000
H  37.15900 48.15200 30.91500
H  37.64700 48.42900 33.05500
H  35.99800 47.58700 33.12100
H  32.89200 54.65100 26.74000
H  32.80200 53.80800 28.13700
H  31.35400 53.78700 27.13100
H  32.71200 55.19600 24.56800
H  31.20000 54.42300 25.02000
H  31.34200 55.13200 23.40100
H  35.08300 49.54400 21.23600
H  34.71500 46.44200 21.80600
H  32.83200 47.38900 20.84000
H  33.10500 48.87200 19.98900
H  32.30000 48.91800 21.58100
H  37.43400 47.39000 21.91000
H  36.68600 47.94200 20.32400
H  37.94200 45.66100 20.27500
H  36.19100 45.79100 19.74400
H  36.69600 45.04600 21.27800
H  36.22200 42.52300 25.91200
H  37.89700 43.29400 25.71400
H  36.76800 43.36200 24.45300
H  36.97800 46.01900 30.23800
H  34.53100 45.74900 33.05300
H  35.75000 44.66500 33.92600
H  34.46900 43.92800 33.08200
Mg 9.99900 47.72800 26.44300
C  7.69100 47.90100 28.89300
C  12.30600 49.00200 28.47000
C  12.06400 47.97600 23.71100
C  7.44600 46.77700 24.10300
N  9.94500 48.40200 28.42900
C  8.91300 48.37700 29.21300
C  9.40200 48.84000 30.61500
C  10.73700 49.57600 30.36900
C  11.04600 48.99800 29.04100
C  10.72100 51.14300 30.34800
C  9.40900 47.59600 31.58700
C  10.12700 47.75300 32.84400
H  9.78600 46.73500 34.01900
N  11.91400 48.29700 26.24700
C  12.75100 48.66900 27.20400
C  14.09400 48.84300 26.68500
C  14.01200 48.61800 25.30200
C  12.61000 48.20500 25.03100
C  15.21700 49.30500 27.62300
C  15.13700 48.69100 24.21400
O  14.95600 48.23600 23.10900
C  16.44700 49.19400 24.55300
N  9.74000 47.43700 24.22000
C  10.77700 47.60900 23.40300
C  10.40600 47.26700 21.95600
C  9.01100 46.55400 22.09200
C  8.68100 46.92200 23.54400
C  10.51000 48.58100 21.10700
C  8.90400 45.09400 21.59000
C  9.30000 43.95400 22.44900
N  7.99000 47.45400 26.43000
C  7.04800 47.07100 25.45800
C  5.73600 46.94800 26.12700
C  5.96800 47.18300 27.45500
C  7.32500 47.55400 27.57200
C  4.46500 46.58900 25.42100
C  5.32700 47.27800 28.73700
O  4.12900 47.16200 28.99000
C  6.46700 47.54200 29.77000
C  6.56300 46.29600 30.59100
O  7.03700 45.25400 30.14900
O  5.98600 46.33600 31.83000
C  6.18600 45.15500 32.64000
H  13.01400 49.42600 29.18500
H  12.74900 48.07300 22.86600
H  6.68000 46.41400 23.41500
H  8.73400 49.65200 30.90100
H  11.49000 49.23700 31.08000
H  11.31000 51.57300 31.15900
H  9.73600 51.52800 30.61300
H  11.13800 51.55800 29.43100
H  9.68500 46.67500 31.07300
H  8.37200 47.58000 31.92200
H  9.87700 48.74800 33.21300
H  11.17300 47.54400 32.62400
H  16.11000 48.69300 27.49700
H  14.99700 49.13000 28.67600
H  15.47200 50.33000 27.35600
H  16.34800 50.16600 25.03800
H  17.00100 49.45100 23.65000
H  16.87500 48.35800 25.10500
H  11.12500 46.49200 21.68900
H  8.19800 47.03900 21.55100
H  10.57100 49.56900 21.56400
H  9.75400 48.55800 20.32200
H  11.46800 48.65900 20.59300
H  9.25000 44.96300 20.56500
H  7.81400 45.09600 21.61700
H  10.00100 44.33300 23.19300
H  9.83700 43.16600 21.92200
H  8.42800 43.53100 22.94800
H  4.69800 45.90700 24.60300
H  4.15000 47.51100 24.93300
H  3.78400 46.25600 26.20500
H  6.15900 48.36800 30.41100
H  5.16000 45.02300 32.98300
H  6.84700 45.25100 33.50100
H  6.51200 44.23900 32.14700

