158

Mg -1.96100 17.63100 27.65700
C  -2.69600 15.32200 30.23600
C  -2.35600 20.18800 29.75800
C  -1.51600 19.82300 24.94400
C  -1.72200 14.89900 25.34500
N  -2.51100 17.61300 29.72900
C  -2.71200 16.63800 30.66600
C  -2.99700 17.18900 32.13700
C  -2.78900 18.71600 31.87500
C  -2.62800 18.86000 30.36000
C  -3.80000 19.70700 32.49300
C  -1.99000 16.72400 33.24500
C  -1.76900 17.52000 34.47900
H  -1.87900 16.87900 35.86700
N  -1.91100 19.69700 27.34500
C  -2.02800 20.54300 28.40800
C  -1.77700 21.86500 28.01100
C  -1.54000 21.81200 26.57900
C  -1.68400 20.39000 26.17600
C  -1.82400 23.03600 28.93500
C  -1.27700 22.96600 25.54700
O  -1.34100 22.79400 24.35300
C  -0.94400 24.37200 25.97000
N  -1.97900 17.41200 25.36400
C  -1.65400 18.46700 24.59200
C  -1.37000 17.96000 23.12300
C  -1.26300 16.43600 23.30200
C  -1.76300 16.17600 24.78000
C  -2.32300 18.45300 22.00500
C  0.20100 16.00900 23.02200
C  1.23800 16.19000 24.18500
N  -2.24200 15.56200 27.67600
C  -2.02700 14.52000 26.70200
C  -2.17600 13.19900 27.29500
C  -2.50500 13.53300 28.62600
C  -2.45500 14.91100 28.81700
C  -1.91300 11.80000 26.73900
C  -2.74000 12.91800 29.89500
O  -2.77000 11.76200 30.22400
C  -2.82800 14.02200 30.99600
C  -1.69400 13.82600 31.96300
O  -0.52500 14.27600 31.85100
O  -2.16200 13.04600 32.98300
C  -1.19800 12.76600 34.03400
H  -2.50700 20.92000 30.55400
H  -1.24000 20.40400 24.06100
H  -1.28400 14.11800 24.72000
H  -3.99900 16.89400 32.44700
H  -1.75600 18.98800 32.08900
H  -4.34900 19.17400 33.26900
H  -4.41900 20.07000 31.67200
H  -3.30100 20.57000 32.93300
H  -0.95500 16.74200 32.90400
H  -2.28800 15.73300 33.58500
H  -2.43800 18.38100 34.46300
H  -0.75700 17.91300 34.38400
H  -2.89200 23.22800 29.03400
H  -1.26700 23.87700 28.52400
H  -1.37300 22.64300 29.84700
H  -0.89700 25.03700 25.10700
H  0.02900 24.13600 26.40000
H  -1.60300 24.79600 26.72700
H  -0.37600 18.36200 22.92600
H  -1.78400 15.87000 22.52900
H  -2.84000 19.38200 22.24700
H  -3.11000 17.71100 21.87300
H  -1.76800 18.60000 21.07900
H  0.54100 16.48700 22.10400
H  0.11900 14.99200 22.63800
H  0.80100 16.63800 25.07700
H  2.06600 16.83800 23.89800
H  1.75300 15.29100 24.52200
H  -1.53000 11.23200 27.58700
H  -1.18400 11.85000 25.93000
H  -2.82200 11.38800 26.30300
H  -3.73100 13.90400 31.59400
H  -0.66700 11.82600 33.88300
H  -1.86200 12.57100 34.87600
H  -0.56700 13.62100 34.27800
Mg 16.60700 51.96200 26.08600
C  18.65300 50.44800 28.73900
C  14.33900 52.59200 28.51000
C  14.76900 53.33600 23.73100
C  19.00000 50.73500 23.76100
N  16.52600 51.53300 28.33900
C  17.49000 51.00300 29.24500
C  17.01400 51.04500 30.71600
C  15.53900 51.59800 30.57000
C  15.41500 51.94400 29.05900
C  14.44700 50.58800 30.89900
C  17.91800 51.87800 31.70500
C  18.07500 51.28100 33.10500
H  17.14600 51.89300 34.17700
N  14.82000 52.86800 26.12300
C  14.01500 53.06100 27.21300
C  12.86300 53.81900 26.78200
C  13.00300 54.14600 25.40400
C  14.23400 53.47000 25.03600
C  11.83200 54.32900 27.75400
C  12.17900 55.02900 24.45800
O  12.43900 55.17600 23.28700
C  10.94900 55.72600 24.94400
N  16.92800 51.98400 24.10600
C  15.98100 52.76100 23.32300
C  16.48400 52.82900 21.85600
C  17.91400 52.06900 21.88500
C  17.98300 51.62200 23.35800
C  15.51100 52.25400 20.80700
C  19.11700 52.99100 21.52300
C  19.78700 53.93900 22.49100
N  18.39100 50.67000 26.19600
C  19.22200 50.24200 25.10300
C  20.33200 49.46500 25.72800
C  20.14800 49.54500 27.13900
C  19.00700 50.32900 27.32400
C  21.65800 49.12100 24.97300
C  20.72600 49.15700 28.42100
O  21.69900 48.46300 28.67200
C  19.74300 49.75300 29.55000
C  19.19600 48.65700 30.42400
O  18.30000 47.88400 30.13500
O  19.95200 48.52900 31.57600
C  19.88500 47.44000 32.58000
H  13.65700 52.88400 29.31100
H  14.26600 53.83100 22.89800
H  19.71100 50.33200 23.03600
H  16.90200 50.03800 31.11900
H  15.38100 52.48200 31.18900
H  14.12000 50.07000 29.99800
H  13.64300 51.20600 31.29800
H  14.75100 49.90200 31.68900
H  17.43500 52.85200 31.78200
H  18.91100 51.91600 31.25700
H  19.06100 51.44500 33.53800
H  18.09600 50.19100 33.08100
H  10.85300 53.89800 27.54500
H  11.61800 55.39700 27.72300
H  12.01700 54.04400 28.79000
H  10.37200 56.30300 24.22200
H  11.24200 56.41600 25.73400
H  10.41900 54.86200 25.34700
H  16.67600 53.87000 21.59500
H  17.97000 51.27300 21.14200
H  14.46700 52.45100 21.05200
H  15.68900 51.17900 20.80200
H  15.79200 52.70800 19.85700
H  18.65700 53.62100 20.76100
H  19.85500 52.31400 21.09200
H  20.87600 53.89900 22.46200
H  19.54600 53.81400 23.54700
H  19.53900 54.95400 22.18100
H  22.55700 49.19100 25.58500
H  21.67200 49.78100 24.10600
H  21.61100 48.12500 24.53300
H  20.20800 50.42700 30.27000
H  20.20200 46.48400 32.16300
H  18.85300 47.40500 32.92700
H  20.60100 47.70000 33.36000

