158

Mg 6.43300 54.37600 39.68000
C  5.91300 50.95800 39.50900
C  9.67600 53.96400 39.04700
C  6.63600 57.60700 39.03400
C  2.91800 54.70700 39.95800
N  7.59400 52.66400 39.19600
C  7.26600 51.37800 39.25000
C  8.50000 50.53200 38.84100
C  9.66500 51.46700 39.09300
C  8.94700 52.81600 39.15800
C  10.30600 51.23400 40.53200
C  8.41000 50.04000 37.41400
C  8.48500 51.12300 36.37000
H  7.17300 51.51500 35.57400
N  7.95100 55.62000 39.06800
C  9.22600 55.29500 38.89800
C  10.09900 56.50200 38.64100
C  9.19200 57.59400 38.55700
C  7.82600 56.99600 38.92500
C  11.60400 56.60400 38.41400
C  9.58000 59.07400 38.38400
O  10.74700 59.39400 38.37400
C  8.51600 60.11300 38.35000
N  5.01800 55.98800 39.38100
C  5.42100 57.27000 39.38200
C  4.30700 58.24900 39.73500
C  3.12200 57.35100 39.99800
C  3.71500 55.90100 39.79000
C  4.66500 59.17000 40.93700
C  1.88700 57.50000 39.02700
C  0.72900 58.21800 39.68400
N  4.67700 53.14300 39.82600
C  3.33300 53.41700 39.98100
C  2.58000 52.09100 40.13700
C  3.58800 51.11200 39.99100
C  4.81900 51.79300 39.72000
C  1.03400 51.90700 40.48800
C  3.86800 49.68700 40.03800
O  3.13000 48.72900 40.15200
C  5.41100 49.55500 39.78800
C  5.41000 48.69900 38.61000
O  4.96400 48.86300 37.51000
O  6.09000 47.47800 38.86700
C  6.05200 46.46600 37.82000
H  10.74800 53.89000 38.85200
H  6.53900 58.66900 38.79800
H  1.86800 54.92900 40.15600
H  8.63200 49.64300 39.45800
H  10.43900 51.47000 38.32500
H  10.10800 50.23700 40.92400
H  9.98600 52.01100 41.22800
H  11.39500 51.20100 40.52400
H  7.51500 49.43500 37.27000
H  9.12400 49.23600 37.23600
H  9.11300 50.70500 35.58300
H  9.03900 52.01100 36.67400
H  11.84300 56.85000 37.38000
H  12.13900 55.67100 38.59200
H  12.10300 57.37400 39.00300
H  9.12500 61.00700 38.21900
H  7.89400 60.20600 39.24100
H  7.79000 59.89800 37.56600
H  4.06200 58.87300 38.87600
H  2.75200 57.39500 41.02300
H  5.74800 59.17900 41.06100
H  4.26100 58.70400 41.83600
H  4.30000 60.19200 40.83300
H  1.56400 56.64300 38.43500
H  2.20600 58.22500 38.27800
H  -0.02000 58.47600 38.93500
H  1.21000 59.02700 40.23400
H  0.31000 57.52000 40.40800
H  0.68800 52.92400 40.67300
H  0.93700 51.35000 41.42000
H  0.52000 51.46900 39.63300
H  6.04000 48.99300 40.47900
H  7.03400 46.00000 37.73900
H  5.87000 46.85400 36.81800
H  5.34700 45.65900 38.01900
Mg -10.57000 17.27100 40.92400
C  -7.24300 16.77300 40.95500
C  -10.09000 20.61600 40.46400
C  -13.90200 17.62800 40.63100
C  -10.98000 13.78100 40.37400
N  -8.88900 18.51900 40.76900
C  -7.64600 18.08800 40.76300
C  -6.62600 19.20700 40.35400
C  -7.49200 20.54000 40.55400
C  -8.94000 19.88300 40.55100
C  -7.25300 21.38900 41.80900
C  -6.12200 19.11200 38.88500
C  -4.70000 18.64100 38.53600
H  -4.55000 17.30100 37.75100
N  -11.88800 18.88300 40.71700
C  -11.50200 20.20400 40.50000
C  -12.53500 21.10800 40.53500
C  -13.75800 20.32500 40.48800
C  -13.26800 18.85100 40.63500
C  -12.31900 22.59800 40.33400
C  -15.19200 20.84600 40.22100
O  -15.42100 22.02600 39.91600
C  -16.35300 19.96400 40.56300
N  -12.14800 15.92000 40.58900
C  -13.41600 16.31200 40.52800
C  -14.39900 15.17100 40.37600
C  -13.47500 14.04400 39.82200
C  -12.10900 14.59700 40.26300
C  -15.12100 14.85300 41.72600
C  -13.51900 13.83900 38.34000
C  -13.94600 12.42300 37.95600
N  -9.41800 15.56100 40.81000
C  -9.70700 14.17700 40.75700
C  -8.44200 13.39600 40.81900
C  -7.48800 14.37900 40.88200
C  -8.07100 15.64300 41.04800
C  -8.21900 11.92300 40.74500
C  -6.00900 14.61200 40.89500
O  -5.09400 13.85300 40.78500
C  -5.86400 16.22800 41.10100
C  -5.22600 16.40100 42.46400
O  -5.58200 15.88700 43.50800
O  -4.18000 17.29900 42.31600
C  -3.48000 17.55000 43.63900
H  -9.85200 21.66300 40.26200
H  -14.99100 17.70700 40.63000
H  -11.07400 12.72800 40.10100
H  -5.77300 19.23800 41.03200
H  -7.37700 21.22900 39.71800
H  -8.13700 21.53600 42.43000
H  -6.91700 22.35900 41.44200
H  -6.45500 20.92200 42.38600
H  -6.28000 20.06100 38.37200
H  -6.73400 18.32400 38.44600
H  -4.12200 18.57600 39.45900
H  -4.17400 19.36000 37.90800
H  -11.84400 22.94800 41.25100
H  -13.13400 23.20200 39.93500
H  -11.54500 22.79900 39.59300
H  -16.64500 19.24400 39.79900
H  -17.26700 20.54200 40.69800
H  -16.17800 19.39400 41.47500
H  -15.16700 15.55900 39.70700
H  -13.74500 13.11800 40.33000
H  -16.19000 14.78200 41.52600
H  -14.80900 15.60500 42.45100
H  -14.94700 13.88600 42.19800
H  -12.57700 14.13400 37.87700
H  -14.18200 14.60900 37.94400
H  -14.84500 12.60800 37.36700
H  -14.23500 11.78600 38.79100
H  -13.11000 11.93500 37.45400
H  -7.18800 11.63400 40.94800
H  -8.42300 11.64300 39.71100
H  -8.75100 11.39200 41.53400
H  -5.17000 16.61100 40.35300
H  -2.79900 18.37900 43.44600
H  -2.85100 16.70600 43.92500
H  -4.11600 17.85400 44.47000

