158

Mg 39.73100 9.47100 28.68100
C  41.86600 10.24000 31.37300
C  37.76300 7.68300 30.95400
C  37.87400 8.59200 26.02400
C  42.16300 10.55600 26.54600
N  39.84900 8.91600 30.96700
C  40.76300 9.49500 31.82000
C  40.25500 9.20700 33.20900
C  39.28400 7.98800 32.96300
C  38.85400 8.24700 31.56300
C  40.02500 6.64700 33.13400
C  39.57400 10.50500 33.79600
C  39.47400 10.72800 35.25200
H  40.03900 11.99300 35.83900
N  38.03700 8.40800 28.48800
C  37.41800 7.69500 29.50600
C  36.35600 6.94800 28.91800
C  36.28900 7.26000 27.56900
C  37.44000 8.07000 27.30400
C  35.43700 6.04400 29.76600
C  35.29800 6.87600 26.50700
O  35.48000 7.10100 25.28100
C  34.00800 6.06000 26.87400
N  39.89900 9.62200 26.60700
C  39.02500 9.19800 25.67700
C  39.44800 9.36500 24.21400
C  40.75700 10.29300 24.48000
C  40.98800 10.11300 25.95800
C  39.68200 8.13600 23.36300
C  40.55700 11.72000 24.05000
C  39.15000 12.42400 24.22500
N  41.63300 10.23000 28.88500
C  42.54400 10.65000 27.92800
C  43.67600 11.38900 28.52500
C  43.34400 11.28400 29.90100
C  42.20300 10.44700 30.03400
C  44.87500 12.00100 27.87700
C  43.82800 11.71500 31.19700
O  44.77800 12.48800 31.43800
C  42.90800 11.01000 32.19100
C  43.63400 10.23000 33.28900
O  44.70900 9.67600 33.20500
O  42.92300 10.28300 34.46400
C  43.46800 9.67000 35.73500
H  37.10200 7.11400 31.61100
H  37.23800 8.34800 25.17000
H  42.89000 11.05200 25.90000
H  41.04400 8.98300 33.92700
H  38.41600 7.99200 33.62200
H  40.91600 6.69300 33.76000
H  40.29700 6.27000 32.14800
H  39.35100 5.89100 33.53700
H  38.57400 10.59200 33.37200
H  40.09900 11.24000 33.18700
H  39.86500 9.93900 35.89400
H  38.39200 10.82200 35.34700
H  35.89800 5.65400 30.67400
H  35.10700 5.09300 29.34600
H  34.54400 6.60300 30.04600
H  34.31100 5.11600 27.32700
H  33.36200 5.92600 26.00700
H  33.55900 6.70700 27.62700
H  38.72300 9.93700 23.63500
H  41.59000 9.92700 23.88000
H  39.35100 7.22200 23.85500
H  40.69100 8.03700 22.96200
H  38.96100 8.26700 22.55500
H  40.62100 11.77300 22.96400
H  41.29500 12.34500 24.55100
H  38.76700 12.51800 23.20900
H  39.20000 13.45800 24.56500
H  38.38300 11.89100 24.78800
H  44.76400 12.25900 26.82400
H  45.66100 11.25500 27.99600
H  45.19700 12.88200 28.43300
H  42.37100 11.72200 32.81800
H  44.19300 8.88000 35.54100
H  42.64700 9.14100 36.21700
H  43.77500 10.51200 36.35500
Mg 30.69700 58.52200 40.68000
C  28.11100 56.49900 39.31700
C  32.85600 56.23900 39.30000
C  33.17700 60.75500 41.18100
C  28.33000 60.96000 41.39400
N  30.46400 56.67500 39.45800
C  29.34600 56.04500 38.99600
C  29.66800 54.67400 38.20500
C  31.10200 54.48000 38.72300
C  31.54000 55.89300 39.18200
C  31.28500 53.38300 39.80500
C  29.60900 55.03600 36.64300
C  28.55500 54.34700 35.71000
H  27.92900 55.13800 34.61900
N  32.75700 58.47500 40.34400
C  33.44500 57.41900 39.82500
C  34.79300 57.56800 40.15600
C  34.94600 58.80000 40.79100
C  33.58600 59.47100 40.72000
C  35.96600 56.59100 39.94100
C  36.25000 59.33600 41.46900
O  37.30900 58.66400 41.33100
C  36.24800 60.63800 42.27400
N  30.78600 60.61000 41.11600
C  31.94000 61.31500 41.33200
C  31.71200 62.70300 41.91100
C  30.10000 62.83500 41.88600
C  29.68200 61.36300 41.44900
C  32.47600 62.90300 43.29100
C  29.51400 64.02300 41.16100
C  28.70600 65.03900 41.91100
N  28.67800 58.64500 40.58500
C  27.87100 59.72700 40.91600
C  26.49000 59.36300 40.76400
C  26.57200 58.13300 39.98100
C  27.87300 57.69300 39.99600
C  25.24400 60.09400 41.14500
C  25.71400 57.05600 39.32400
O  24.51200 56.93600 39.18000
C  26.79200 55.92900 38.95200
C  26.60000 54.65800 39.82300
O  27.15200 54.35300 40.85800
O  25.67000 53.90500 39.19600
C  25.06900 52.74200 39.68500
H  33.54900 55.51000 38.87600
H  33.98800 61.37600 41.56700
H  27.64600 61.79600 41.55600
H  29.00700 53.87700 38.54600
H  31.74100 54.17300 37.89500
H  30.38600 52.80700 40.02300
H  31.65300 53.74600 40.76400
H  31.98500 52.63900 39.42600
H  30.55200 54.75100 36.17700
H  29.45900 56.10000 36.45900
H  27.89500 53.91700 36.46400
H  29.11000 53.52400 35.26100
H  36.72500 56.91800 39.23000
H  35.55700 55.66000 39.54800
H  36.42300 56.14700 40.82500
H  37.17500 60.68000 42.84500
H  35.39200 60.61000 42.94800
H  36.12400 61.42000 41.52500
H  32.14000 63.50900 41.31500
H  29.69600 62.92200 42.89500
H  33.34700 63.45800 42.94300
H  32.82100 61.92600 43.63100
H  32.02400 63.45000 44.11800
H  28.91300 63.61300 40.34900
H  30.35300 64.56800 40.73000
H  27.82900 65.40300 41.37600
H  29.33800 65.92400 41.98700
H  28.40900 64.70800 42.90600
H  25.04600 60.67700 40.24500
H  25.40700 60.71900 42.02300
H  24.45100 59.35600 41.26200
H  26.65200 55.64400 37.90900
H  25.69500 52.28900 40.45300
H  24.93400 52.12200 38.79800
H  24.16700 53.09300 40.18700

