158

Mg 47.46500 24.85300 27.74900
C  48.09300 27.26400 30.16300
C  46.65400 22.76900 30.36400
C  46.47400 22.59100 25.55600
C  48.67900 26.98100 25.24700
N  47.22300 25.07600 29.99800
C  47.51500 26.17500 30.74600
C  47.26500 25.96500 32.26700
C  47.05100 24.41500 32.32900
C  47.07900 24.04800 30.81700
C  48.07200 23.56400 33.19100
C  46.18100 26.91000 33.02300
C  45.48200 26.40000 34.31000
H  45.55400 27.37900 35.45300
N  46.81300 22.91600 27.95700
C  46.54100 22.14000 29.09400
C  46.10100 20.76800 28.80400
C  45.89900 20.84000 27.38000
C  46.44300 22.11400 26.90000
C  45.79000 19.67900 29.82600
C  45.24800 19.70100 26.49800
O  45.15700 19.82000 25.26200
C  44.60600 18.54000 27.16800
N  47.67900 24.73800 25.67900
C  47.02000 23.79500 24.99600
C  47.33700 24.02600 23.51800
C  47.83400 25.46800 23.46600
C  48.07700 25.76400 24.86400
C  48.19400 22.96900 22.74500
C  46.91900 26.50900 22.63500
C  47.64900 27.30500 21.58100
N  48.38000 26.64300 27.71300
C  48.81600 27.42500 26.59600
C  49.35900 28.70800 27.05900
C  49.04900 28.68600 28.48400
C  48.45800 27.44800 28.77400
C  50.23400 29.77400 26.24400
C  49.26200 29.43900 29.73000
O  49.90900 30.40200 29.98500
C  48.52900 28.53300 30.91300
C  49.51600 28.22500 32.01900
O  50.56100 27.67400 31.93000
O  49.07800 28.89600 33.08700
C  49.72600 28.60200 34.37000
H  46.49300 22.15500 31.25300
H  46.15800 21.99700 24.69600
H  48.99500 27.74200 24.53100
H  48.18200 26.16200 32.82300
H  46.05000 24.29900 32.74600
H  47.56700 22.96400 33.94900
H  48.82100 24.23400 33.61200
H  48.56200 22.88500 32.49300
H  45.39600 27.15000 32.30600
H  46.64600 27.85200 33.31300
H  46.00200 25.49300 34.61700
H  44.46500 26.13400 34.02000
H  46.35600 18.75300 29.72100
H  44.71100 19.52100 29.83800
H  45.86500 20.12500 30.81700
H  43.80400 18.84700 27.83900
H  45.40700 18.09400 27.75700
H  44.27500 17.83300 26.40700
H  46.29500 24.02000 23.19700
H  48.85000 25.48000 23.07000
H  48.70600 22.26500 23.40000
H  48.89500 23.43300 22.05100
H  47.63200 22.38200 22.01900
H  46.45500 27.28100 23.24900
H  46.12900 25.88100 22.22300
H  47.72900 26.80600 20.61500
H  48.66200 27.40400 21.96900
H  47.09800 28.24500 21.56100
H  49.83300 29.97200 25.25000
H  51.23100 29.35500 26.10500
H  50.24500 30.62600 26.92400
H  47.75100 29.21100 31.26400
H  49.37500 27.64100 34.74500
H  49.56200 29.42400 35.06700
H  50.79900 28.45100 34.25500
Mg 9.81000 48.16100 24.96900
C  7.14100 48.45500 27.45100
C  11.77900 49.33200 27.16300
C  12.05900 48.02500 22.41600
C  7.20100 47.63400 22.63100
N  9.49600 48.74900 27.06900
C  8.44000 48.75700 27.92200
C  8.75000 49.04400 29.42000
C  10.23900 49.60700 29.17600
C  10.51000 49.39200 27.70500
C  10.47100 51.06700 29.66300
C  8.51500 47.81700 30.43400
C  9.50200 47.64600 31.60800
H  9.01700 46.88100 32.83200
N  11.71900 48.44200 24.91100
C  12.39300 48.90900 25.94600
C  13.75100 48.86800 25.67400
C  13.88600 48.53200 24.28400
C  12.51800 48.41900 23.77800
C  14.78800 49.20300 26.72500
C  15.10400 48.38400 23.45400
O  15.07600 48.15400 22.26300
C  16.40700 48.32400 24.09000
N  9.66200 48.05500 22.82600
C  10.73500 47.94400 21.97500
C  10.35400 47.55500 20.56900
C  8.86900 47.26200 20.68400
C  8.52000 47.68700 22.12000
C  10.76600 48.65700 19.61900
C  8.38000 45.81900 20.28900
C  9.20500 44.67700 20.84700
N  7.63300 47.90800 24.97700
C  6.71700 47.75900 23.90200
C  5.33900 47.82800 24.38600
C  5.51200 48.07000 25.76600
C  6.88100 48.09600 26.04400
C  4.09300 47.60100 23.59900
C  4.72900 48.43800 26.97700
O  3.54100 48.67600 27.19700
C  5.75900 48.55100 28.16300
C  5.59900 47.39900 29.05500
O  5.87600 46.24200 28.77800
O  5.09500 47.88800 30.21400
C  5.05400 46.81600 31.26900
H  12.47700 49.69100 27.92300
H  12.80400 47.88300 21.63100
H  6.38700 47.41300 21.93700
H  8.11500 49.84700 29.79400
H  10.97100 49.02000 29.73100
H  11.31000 51.11600 30.35800
H  9.58600 51.25100 30.27100
H  10.54000 51.76000 28.82400
H  8.37000 46.88700 29.88400
H  7.53000 47.97300 30.87500
H  9.85900 48.64100 31.87600
H  10.30200 47.00900 31.23200
H  15.66800 48.56600 26.63500
H  14.55700 49.14200 27.78900
H  14.98800 50.22300 26.39900
H  16.55800 49.31900 24.50900
H  17.16800 48.16100 23.32700
H  16.32900 47.56200 24.86500
H  10.88400 46.64400 20.29100
H  8.31000 47.83100 19.94000
H  11.58900 49.21300 20.06700
H  9.92300 49.30800 19.39000
H  11.11600 48.22000 18.68400
H  8.53400 45.77500 19.21100
H  7.35000 45.75000 20.64000
H  9.80400 44.93300 21.72100
H  9.69200 44.14900 20.02800
H  8.39200 44.01900 21.15500
H  3.70900 48.55500 23.23800
H  3.33900 47.25900 24.30800
H  4.22500 46.84900 22.82100
H  5.74700 49.46200 28.76200
H  6.06900 46.43000 31.36100
H  4.54400 45.88400 31.02300
H  4.69600 47.18000 32.23200

