158

Mg 8.99300 4.15700 27.63200
C  10.29300 2.42400 30.37100
C  7.07800 5.96100 29.69400
C  7.66200 5.49100 24.90800
C  10.70700 1.83500 25.55300
N  8.62700 4.02800 29.76100
C  9.35700 3.43000 30.72500
C  9.22600 4.00900 32.09900
C  8.02600 4.98400 31.91600
C  7.83200 5.01000 30.35200
C  6.69600 4.64100 32.65300
C  10.57300 4.77700 32.57700
C  10.50300 5.51200 33.88400
H  11.41300 4.95000 35.02000
N  7.63900 5.57900 27.34700
C  6.94900 6.26700 28.34800
C  6.07200 7.26500 27.75000
C  6.13100 7.08300 26.31900
C  7.18200 6.06700 26.14100
C  5.08900 8.08100 28.59300
C  5.38900 7.86300 25.27000
O  5.52300 7.57300 24.08500
C  4.63500 9.15700 25.63800
N  9.31000 3.85300 25.50700
C  8.55400 4.51700 24.63500
C  8.61800 3.96000 23.19000
C  9.81600 2.97100 23.39100
C  9.89900 2.81400 24.87800
C  7.28800 3.27100 22.78700
C  11.25400 3.36500 22.87100
C  11.81700 2.25500 21.98200
N  10.33400 2.59500 27.88000
C  10.87300 1.69800 26.95300
C  11.67500 0.74000 27.60300
C  11.56100 0.98800 29.00600
C  10.70000 2.05800 29.07700
C  12.18600 -0.47200 27.02000
C  11.95300 0.56100 30.22300
O  12.77100 -0.34100 30.61000
C  11.17700 1.55100 31.25000
C  10.38700 0.83000 32.27900
O  9.45400 0.04400 32.06800
O  10.70500 1.31100 33.53300
C  9.84900 1.00700 34.67600
H  6.55700 6.58700 30.42200
H  7.16500 5.95600 24.05500
H  11.18300 1.02700 24.99300
H  8.97700 3.23500 32.82500
H  8.34000 5.99100 32.19100
H  6.90500 4.00700 33.51400
H  5.99000 4.14800 31.98500
H  6.30000 5.53600 33.13500
H  10.75000 5.47800 31.76100
H  11.35600 4.02000 32.62400
H  9.48600 5.44300 34.27200
H  10.83800 6.53200 33.69600
H  4.06600 7.80000 28.34500
H  5.20100 9.16100 28.49800
H  5.04500 7.93800 29.67200
H  4.30000 9.73700 24.77800
H  5.31900 9.71600 26.27600
H  3.75100 8.86500 26.20400
H  8.87700 4.85000 22.61800
H  9.59300 1.97000 23.02200
H  6.58500 3.88300 22.22100
H  6.75900 3.13800 23.73100
H  7.45200 2.36200 22.20900
H  11.89000 3.55000 23.73700
H  11.17800 4.28800 22.29500
H  11.59200 2.39900 20.92500
H  11.58900 1.24800 22.33300
H  12.90000 2.33400 22.06900
H  12.94600 -0.22500 26.27800
H  11.39400 -1.01900 26.50900
H  12.60000 -1.15600 27.76100
H  11.96100 2.09900 31.77200
H  10.16200 0.01400 34.99900
H  8.80500 1.05700 34.36600
H  10.00900 1.75100 35.45600
Mg 1.47700 43.10100 25.78700
C  3.07800 42.96600 28.89100
C  -1.52400 42.72100 27.35900
C  0.09300 42.82100 22.78800
C  4.69000 43.13100 24.36400
N  0.83300 42.88700 27.82100
C  1.65800 42.99800 28.96500
C  0.82700 42.89800 30.30300
C  -0.57100 42.65900 29.73100
C  -0.42100 42.75600 28.24400
C  -1.20700 41.36800 30.26500
C  0.98700 44.26400 31.12500
C  0.90100 44.26400 32.64500
H  0.59900 43.00300 33.38000
N  -0.52300 42.89000 25.11900
C  -1.60800 42.72700 25.92200
C  -2.71100 42.53900 25.06700
C  -2.33000 42.71600 23.67600
C  -0.86400 42.80300 23.81000
C  -4.03200 42.34000 25.74200
C  -3.13600 42.76200 22.36600
O  -2.60500 42.80700 21.30100
C  -4.60100 42.40500 22.44400
N  2.29900 42.88300 23.94800
C  1.51300 42.89300 22.83300
C  2.29800 42.83600 21.51900
C  3.70100 43.30000 22.01200
C  3.54500 43.11400 23.59800
C  2.21900 41.40400 20.82600
C  4.36100 44.73900 21.66100
C  3.42400 45.95700 21.36900
N  3.51400 43.13000 26.40500
C  4.71000 43.08800 25.76600
C  5.82200 43.11500 26.67900
C  5.24600 42.99300 27.91800
C  3.81600 43.04000 27.74000
C  7.24900 43.17800 26.30400
C  5.55400 43.06600 29.32000
O  6.63500 43.15300 29.91500
C  4.15800 42.95000 30.05000
C  4.09500 41.71700 30.91200
O  3.49500 40.65700 30.67100
O  4.75700 41.87300 32.14500
C  4.48600 40.73500 33.06500
H  -2.51900 42.58500 27.78900
H  -0.36100 42.83600 21.79500
H  5.65800 43.25200 23.87500
H  1.25400 42.11200 30.92500
H  -1.33400 43.36500 30.05800
H  -2.29400 41.40500 30.32900
H  -0.85100 41.13400 31.26800
H  -0.84800 40.49000 29.72700
H  0.31100 45.00000 30.68900
H  1.92000 44.66600 30.72900
H  0.08100 44.95600 32.83600
H  1.77700 44.65800 33.15900
H  -4.74300 41.95600 25.01000
H  -4.42100 43.25800 26.18100
H  -3.98000 41.62500 26.56300
H  -5.10100 42.37800 21.47600
H  -5.04400 43.16300 23.09000
H  -4.63400 41.43500 22.94000
H  1.95100 43.67700 20.91800
H  4.52300 42.66800 21.67600
H  1.68200 40.76200 21.52400
H  3.16200 40.91300 20.58600
H  1.50900 41.53200 20.00900
H  4.84000 44.57700 20.69500
H  5.06800 44.95600 22.46200
H  3.54700 46.31800 20.34700
H  3.80200 46.70400 22.06800
H  2.37400 45.79700 21.61000
H  7.49400 44.22100 26.10600
H  7.38800 42.71200 25.32800
H  7.90700 42.69300 27.02500
H  3.92100 43.70300 30.80100
H  4.38000 39.74700 32.61800
H  3.65000 40.88100 33.75000
H  5.40300 40.67900 33.65200

