158

Mg 8.94900 48.36400 25.65500
C  6.57800 48.91500 28.23600
C  11.35600 49.13800 27.78200
C  11.01600 48.21500 23.04100
C  6.23600 48.31700 23.42600
N  8.94400 48.97100 27.74600
C  7.88400 48.99600 28.66800
C  8.45500 49.00800 30.13000
C  9.89400 49.50500 29.86000
C  10.12700 49.21100 28.41400
C  10.17500 50.95200 30.36300
C  8.41900 47.62800 30.79800
C  9.21300 47.41100 32.09800
H  8.56700 46.81600 33.35100
N  10.91800 48.54200 25.46100
C  11.73600 48.84200 26.44900
C  13.13600 48.76700 25.94000
C  13.11600 48.59700 24.55900
C  11.61600 48.51600 24.30400
C  14.41900 49.02000 26.84000
C  14.20900 48.56900 23.50300
O  13.95800 48.45800 22.27900
C  15.66000 48.53400 23.88300
N  8.74400 48.28000 23.62200
C  9.70600 48.21100 22.68500
C  9.26900 47.81800 21.31800
C  7.71900 48.03000 21.40900
C  7.54900 48.18400 22.93400
C  9.95600 48.50700 20.15500
C  6.86800 46.78500 20.87600
C  5.43900 47.12400 20.44200
N  6.81700 48.33400 25.75600
C  5.90000 48.33100 24.78100
C  4.58500 48.51900 25.32900
C  4.82300 48.64000 26.71200
C  6.19900 48.66800 26.89400
C  3.41400 48.69800 24.35600
C  4.09700 48.81400 27.90700
O  2.90100 48.90800 28.17600
C  5.30800 49.05800 28.96600
C  5.03700 48.09300 30.18400
O  4.87500 46.88200 30.15600
O  4.98500 48.86000 31.32600
C  4.80300 48.15800 32.61000
H  12.17000 49.28500 28.49600
H  11.71100 47.98100 22.23200
H  5.47100 48.35600 22.64700
H  7.96900 49.81800 30.67300
H  10.69700 48.92800 30.31800
H  9.34500 51.32900 30.96200
H  10.41200 51.56300 29.49300
H  10.93200 50.91800 31.14700
H  8.64300 46.93200 29.98900
H  7.36100 47.55600 31.05100
H  9.57700 48.37800 32.44400
H  10.11600 46.85600 31.84400
H  14.82800 50.00700 26.62700
H  15.10200 48.21900 26.55500
H  14.21000 48.98100 27.90900
H  16.16500 48.82300 22.96100
H  15.93800 47.58100 24.33100
H  15.88000 49.34500 24.57800
H  9.63700 46.79800 21.20700
H  7.41800 48.98100 20.96800
H  9.31000 48.61200 19.28300
H  10.83500 47.94300 19.84300
H  10.26300 49.51900 20.41900
H  6.87000 46.01900 21.65100
H  7.45200 46.32800 20.07700
H  4.74100 46.54300 21.04400
H  5.25300 46.87200 19.39800
H  5.20600 48.18900 20.44200
H  3.64100 49.38900 23.54400
H  2.44000 48.84000 24.82300
H  3.25700 47.78700 23.77800
H  5.23200 50.09600 29.28900
H  4.73500 48.83600 33.46000
H  5.62700 47.46800 32.79500
H  3.89200 47.56000 32.60700
Mg -5.23100 25.71500 26.23700
C  -4.11800 27.46500 28.97200
C  -6.61200 23.35800 28.34800
C  -6.07500 23.77900 23.48300
C  -2.93200 27.48000 24.20000
N  -5.33500 25.39100 28.40800
C  -4.89900 26.34000 29.33000
C  -5.33400 26.01400 30.69600
C  -5.88400 24.48900 30.52400
C  -5.93500 24.37900 29.01100
C  -5.12300 23.31700 31.09300
C  -6.36700 27.02100 31.28100
C  -7.07900 26.58400 32.59700
H  -6.45400 25.48300 33.45700
N  -6.43300 24.06200 25.92700
C  -7.02300 23.36700 26.96600
C  -7.92100 22.33700 26.36800
C  -7.77600 22.47700 24.92500
C  -6.70800 23.48500 24.71500
C  -8.84600 21.41500 27.22300
C  -8.41800 21.83100 23.80200
O  -8.27400 22.10900 22.64100
C  -9.63100 20.81700 24.00700
N  -4.43500 25.55600 24.17200
C  -5.05200 24.71800 23.27600
C  -4.48800 24.97300 21.88900
C  -3.61300 26.35600 22.08800
C  -3.69100 26.52700 23.56500
C  -3.77500 23.78400 21.26200
C  -4.18000 27.53600 21.21700
C  -3.21700 28.69100 21.00600
N  -3.82100 27.14400 26.50000
C  -2.99700 27.78800 25.59000
C  -2.26200 28.78300 26.31000
C  -2.66700 28.62900 27.67700
C  -3.59500 27.61500 27.70100
C  -1.26300 29.82900 25.77600
C  -2.35200 29.11500 28.94500
O  -1.63800 29.96400 29.44100
C  -3.36500 28.48100 29.86400
C  -2.76700 27.84100 31.00300
O  -1.94500 26.93700 31.00500
O  -3.30500 28.39600 32.16900
C  -2.80600 27.69600 33.35100
H  -7.16900 22.64300 28.95700
H  -6.25200 23.27200 22.53200
H  -2.16200 28.09300 23.72700
H  -4.47000 25.81200 31.32900
H  -6.92100 24.44400 30.85700
H  -4.57000 22.76100 30.33700
H  -5.84600 22.75400 31.68400
H  -4.33800 23.63700 31.77800
H  -7.14900 27.19700 30.54200
H  -5.84000 27.95600 31.47200
H  -8.08600 26.37800 32.23600
H  -7.02600 27.45000 33.25700
H  -8.50900 20.39800 27.02000
H  -9.89300 21.70700 27.13900
H  -8.65400 21.46400 28.29500
H  -9.84000 20.43900 23.00600
H  -10.44800 21.36900 24.47100
H  -9.19400 19.97700 24.54800
H  -5.34500 25.19600 21.25500
H  -2.58800 26.13500 21.79200
H  -3.80000 22.99100 22.00900
H  -2.70900 23.97200 21.13200
H  -4.26700 23.41800 20.36200
H  -5.12400 27.84300 21.66600
H  -4.39200 27.15000 20.22000
H  -2.74800 28.64600 20.02300
H  -2.49700 28.80400 21.81600
H  -3.85400 29.56800 21.12100
H  -0.76800 29.62900 24.82600
H  -0.44400 29.88000 26.49300
H  -1.77200 30.78400 25.64500
H  -3.99800 29.32900 30.12500
H  -2.55000 26.63900 33.27900
H  -3.58800 27.64100 34.10800
H  -2.01200 28.34500 33.71900

