158

Mg 54.02100 24.92500 45.31100
C  51.15600 26.67200 44.11600
C  52.94400 22.12300 43.70400
C  57.10500 23.57900 45.72200
C  55.18600 27.95400 46.65800
N  52.27800 24.55200 44.04900
C  51.25700 25.35600 43.63600
C  50.47400 24.69500 42.50500
C  50.77400 23.15200 42.85900
C  52.08800 23.28700 43.63500
C  49.66700 22.39500 43.73300
C  50.97700 25.17500 41.09400
C  49.83500 25.25500 40.02700
H  50.24400 25.68300 38.69000
N  54.82600 23.03000 44.96200
C  54.22000 22.00900 44.36900
C  55.02900 20.85600 44.42500
C  56.21200 21.19600 45.15200
C  56.09400 22.67700 45.31600
C  54.74700 19.41300 44.05000
C  57.31700 20.23500 45.78200
O  57.31400 19.02200 45.47500
C  58.50100 20.78900 46.54200
N  55.90100 25.72400 45.92800
C  56.97300 24.96800 45.98100
C  58.18700 25.77000 46.28400
C  57.58800 27.18600 46.71900
C  56.12300 26.95500 46.46200
C  59.29500 25.14800 47.18300
C  58.19000 28.34000 45.91400
C  58.20200 29.79900 46.56500
N  53.32800 26.82700 45.57700
C  53.86400 27.92700 46.21000
C  52.93900 29.00400 46.30400
C  51.90400 28.59900 45.42100
C  52.19100 27.21900 45.04300
C  52.99900 30.22700 47.17900
C  50.64700 29.01500 44.73300
O  50.01600 30.07400 44.80600
C  50.09000 27.76500 43.92700
C  49.78000 28.14800 42.56000
O  50.47500 28.80900 41.83800
O  48.49800 27.74000 42.32400
C  47.79900 28.46800 41.18400
H  52.69900 21.21900 43.14300
H  58.08300 23.10200 45.81700
H  55.48000 28.94200 47.01700
H  49.43800 24.97000 42.70600
H  50.78900 22.60900 41.91400
H  48.68900 22.87500 43.76400
H  50.00600 22.53300 44.76000
H  49.54100 21.37100 43.38300
H  51.73000 24.51100 40.66900
H  51.57700 26.08300 41.15900
H  49.21800 25.97300 40.56700
H  49.43100 24.25300 39.88700
H  55.44100 19.21900 43.23200
H  53.72400 19.16900 43.76300
H  54.95500 18.81500 44.93700
H  58.12100 21.54800 47.22700
H  59.15100 21.40100 45.91700
H  59.06600 20.09200 47.16100
H  58.54100 25.90900 45.26200
H  57.66200 27.40100 47.78500
H  58.87800 24.45300 47.91200
H  59.77100 25.83500 47.88200
H  60.08600 24.78700 46.52600
H  57.65100 28.48500 44.97800
H  59.16900 28.10300 45.49700
H  57.68500 29.77500 47.52400
H  57.81300 30.61400 45.95500
H  59.22500 30.03100 46.86000
H  52.04200 30.74900 47.13600
H  53.80800 30.78800 46.71200
H  53.13300 30.02200 48.24200
H  49.14900 27.51800 44.41700
H  48.39000 28.28100 40.28700
H  47.73300 29.54700 41.32900
H  46.81800 27.99400 41.14500
Mg 48.84500 44.97100 44.10700
C  45.42700 45.33800 43.17900
C  48.67200 41.67100 43.17500
C  52.06900 44.97800 44.09900
C  48.74400 48.54800 44.84400
N  47.21700 43.65200 43.29400
C  45.94500 43.99000 42.91900
C  45.30900 42.85400 42.15100
C  46.10300 41.61200 42.77600
C  47.42900 42.28600 43.24200
C  45.40000 40.72800 43.88000
C  45.45600 43.02500 40.60700
C  44.27800 42.53300 39.81500
H  43.75200 43.45300 38.76000
N  50.22300 43.57100 43.56800
C  49.96800 42.24600 43.31200
C  51.22600 41.56000 42.96900
C  52.24500 42.55900 43.11500
C  51.54100 43.81000 43.53100
C  51.24700 40.12200 42.53100
C  53.73300 42.44400 42.79200
O  54.24100 41.37600 42.59800
C  54.67600 43.59700 42.65000
N  50.26500 46.53600 44.46100
C  51.56800 46.17400 44.56900
C  52.42200 47.34600 45.06300
C  51.39200 48.54900 45.19700
C  50.05200 47.80200 44.85800
C  53.09800 46.96700 46.32100
C  51.69500 49.79000 44.39000
C  52.47300 50.85700 45.21400
N  47.46400 46.64700 44.02000
C  47.57600 47.99900 44.33800
C  46.32100 48.61500 44.11100
C  45.42100 47.61200 43.73600
C  46.19700 46.44900 43.61900
C  45.96200 50.06700 44.32500
C  44.08300 47.29800 43.31900
O  43.03400 47.92100 43.39300
C  44.02800 45.82500 42.90300
C  42.90900 45.11000 43.49400
O  41.91000 44.70000 42.90200
O  43.21100 44.78400 44.78600
C  42.19900 43.88200 45.44100
H  48.76500 40.58400 43.15200
H  53.15500 44.97000 44.21500
H  48.69400 49.55800 45.25700
H  44.26800 42.78600 42.46700
H  46.27600 40.86200 42.00400
H  45.02600 39.79500 43.46000
H  44.60000 41.38200 44.22500
H  46.06800 40.52200 44.71700
H  46.31300 42.43700 40.27700
H  45.54900 44.08500 40.37200
H  43.44100 42.28700 40.46900
H  44.53000 41.63100 39.25700
H  50.93400 40.04000 41.49100
H  50.65500 39.47300 43.17600
H  52.24600 39.68900 42.59400
H  54.05900 44.45100 42.37100
H  55.38800 43.41000 41.84700
H  55.35400 43.86000 43.46200
H  53.12200 47.62200 44.27500
H  51.28900 48.73800 46.26500
H  53.19400 45.89300 46.48400
H  52.65900 47.39400 47.22200
H  54.08900 47.39600 46.17200
H  50.73200 50.10000 43.98300
H  52.28500 49.53900 43.50800
H  52.07800 51.84300 44.96900
H  53.51100 50.79800 44.88800
H  52.37700 50.69900 46.28800
H  45.00900 50.42600 43.93800
H  46.71800 50.59000 43.74000
H  46.08900 50.36100 45.36700
H  43.82300 45.80700 41.83300
H  42.49400 43.82000 46.48900
H  42.12300 42.83200 45.15900
H  41.26300 44.41800 45.59500

