158

Mg 53.24900 25.10400 44.04300
C  50.48900 27.44200 43.67200
C  51.13800 22.69900 43.14600
C  55.91600 23.28100 43.61900
C  55.27700 27.92900 44.72400
N  51.04100 25.14000 43.30200
C  50.10100 26.13600 43.31900
C  48.66400 25.56500 43.05600
C  48.89100 24.06000 43.24200
C  50.43800 23.90600 43.29800
C  48.29400 23.46000 44.55400
C  48.05000 26.09600 41.71800
C  49.01200 26.57400 40.63900
H  49.42300 25.49600 39.57100
N  53.51200 23.24100 43.53600
C  52.48900 22.29500 43.26200
C  53.07000 20.97700 42.95500
C  54.47700 21.24500 43.14600
C  54.72300 22.60400 43.48200
C  52.18800 19.76800 42.48300
C  55.46700 20.13400 42.90200
O  55.02400 18.99000 42.58400
C  56.93600 20.30300 42.90000
N  55.21000 25.64100 44.01000
C  56.17700 24.58300 43.86000
C  57.58300 25.15400 43.75600
C  57.40700 26.65400 44.23500
C  55.86000 26.77900 44.29800
C  58.79800 24.42800 44.38100
C  58.12200 27.71500 43.34900
C  59.30800 28.49800 43.93000
N  52.93800 27.29400 44.20800
C  53.88600 28.21400 44.69300
C  53.20100 29.42800 44.97100
C  51.84000 29.15300 44.51900
C  51.77000 27.81700 44.07600
C  53.87800 30.70100 45.50600
C  50.52400 29.69700 44.40600
O  50.06700 30.73500 44.79000
C  49.63500 28.66400 43.72500
C  49.33300 29.23300 42.41200
O  50.07000 29.54200 41.46100
O  47.94900 29.36600 42.41300
C  47.34600 29.96000 41.17700
H  50.45600 21.88400 42.89500
H  56.86500 22.76200 43.46700
H  55.87600 28.80700 44.97300
H  48.06100 26.00700 43.84900
H  48.50900 23.44300 42.42900
H  47.53900 24.17500 44.87900
H  49.06800 23.21900 45.28400
H  47.74900 22.52900 44.39600
H  47.39200 26.94000 41.92300
H  47.50000 25.25900 41.28900
H  49.86600 27.06600 41.10600
H  48.53800 27.35400 40.04300
H  52.30000 19.43000 41.45300
H  51.12600 19.90800 42.68500
H  52.50400 18.92300 43.09500
H  57.40300 19.36200 42.60900
H  57.37700 20.67400 43.82500
H  57.19500 21.08900 42.19000
H  57.79400 25.19600 42.68700
H  57.76200 26.75200 45.26000
H  59.57700 25.04400 44.83000
H  59.16300 23.82000 43.55300
H  58.33300 23.80600 45.14600
H  57.35600 28.45400 43.11400
H  58.22700 27.24500 42.37100
H  59.36000 29.55900 43.68600
H  60.19700 28.08200 43.45600
H  59.15000 28.47400 45.00800
H  53.29600 31.10300 46.33500
H  54.14900 31.34600 44.67000
H  54.73700 30.28000 46.02800
H  48.73800 28.55600 44.33500
H  47.69600 30.98900 41.08600
H  46.26500 29.82400 41.17500
H  47.82900 29.46100 40.33600
Mg -4.88600 25.34200 27.57000
C  -3.52000 26.47500 30.50300
C  -6.85400 23.06100 29.49700
C  -5.76600 23.73800 24.80800
C  -2.72900 27.29300 25.78800
N  -5.23400 24.91100 29.72000
C  -4.55300 25.55700 30.70900
C  -5.05300 25.20900 32.10900
C  -5.95200 23.97100 31.91800
C  -6.05900 23.96000 30.31700
C  -5.34600 22.62300 32.48200
C  -5.79200 26.43200 32.77600
C  -5.58600 26.65100 34.25300
H  -5.07400 25.51600 35.12900
N  -6.22400 23.66100 27.14000
C  -6.94000 22.89000 28.05600
C  -7.85700 22.04600 27.28900
C  -7.62900 22.26200 25.92600
C  -6.54200 23.22400 25.88000
C  -8.95000 21.09700 27.98800
C  -8.20900 21.57100 24.68900
O  -7.76600 21.76100 23.57200
C  -9.43300 20.71300 24.75700
N  -4.40600 25.57300 25.54400
C  -4.77300 24.70700 24.60400
C  -4.21100 25.10000 23.24100
C  -3.30900 26.42500 23.56000
C  -3.49800 26.45400 25.02900
C  -3.32400 23.99300 22.56900
C  -3.75500 27.70000 22.82200
C  -2.77200 28.32700 21.87600
N  -3.46900 26.61800 28.00500
C  -2.65000 27.37300 27.18200
C  -1.81700 28.23200 27.94100
C  -2.04400 27.85300 29.21600
C  -3.06200 26.83400 29.22600
C  -0.89000 29.21400 27.38900
C  -1.78200 28.21700 30.66200
O  -0.98000 28.96900 31.19900
C  -2.71600 27.26200 31.44700
C  -1.86300 26.45000 32.33100
O  -0.99500 25.71800 31.95600
O  -2.11500 26.78500 33.61800
C  -1.08900 26.39600 34.57500
H  -7.37400 22.20000 29.92200
H  -5.95500 23.18400 23.88700
H  -1.98100 27.78200 25.16000
H  -4.11700 24.98000 32.61900
H  -6.97900 24.04400 32.27500
H  -4.61800 22.84000 33.26300
H  -4.88900 22.00800 31.70600
H  -6.20500 22.07500 32.87100
H  -6.85000 26.16900 32.78800
H  -5.82100 27.33200 32.16100
H  -6.52400 26.85200 34.77100
H  -4.88900 27.45400 34.49100
H  -9.04000 20.18400 27.40000
H  -9.91600 21.60100 27.97100
H  -8.69600 20.93000 29.03500
H  -10.23600 20.99100 25.43900
H  -8.98800 19.73700 24.95000
H  -9.80300 20.71000 23.73100
H  -5.05800 25.36300 22.60800
H  -2.28400 26.20000 23.26200
H  -2.41900 23.95900 23.17600
H  -3.31200 24.28700 21.52000
H  -3.75000 23.01700 22.80300
H  -4.03400 28.46500 23.54600
H  -4.73800 27.57200 22.36700
H  -1.85700 27.74600 21.76100
H  -2.51000 29.35300 22.13500
H  -3.25800 28.21700 20.90700
H  0.18100 29.05500 27.50900
H  -0.95900 30.13300 27.97100
H  -1.17700 29.56700 26.39800
H  -3.35400 27.90000 32.05800
H  -0.83700 25.33500 34.59500
H  -1.43400 26.79000 35.53100
H  -0.17300 26.96600 34.42000

