158

Mg -10.03800 39.68200 39.89200
C  -9.09600 36.33500 39.18200
C  -6.95500 40.70100 38.79700
C  -11.30200 42.92500 39.61300
C  -13.16400 38.59900 40.74100
N  -8.30900 38.57100 38.85900
C  -8.07100 37.24800 38.76300
C  -6.66800 36.95700 38.24900
C  -5.91900 38.34000 38.52300
C  -7.13500 39.23500 38.76300
C  -5.08300 38.30800 39.86400
C  -6.52900 36.38700 36.78200
C  -6.64100 37.28700 35.57500
H  -7.82400 37.16000 34.62900
N  -9.27000 41.50500 39.28500
C  -7.92900 41.71300 38.96200
C  -7.69300 43.12500 38.92900
C  -8.90400 43.77600 39.06900
C  -9.91700 42.73000 39.31900
C  -6.32400 43.77100 38.74400
C  -9.06100 45.34000 38.94200
O  -8.20300 46.10000 38.58000
C  -10.36900 45.95700 39.39600
N  -11.92300 40.66500 40.01900
C  -12.25600 41.98100 39.87600
C  -13.71700 42.39000 40.14400
C  -14.28700 40.95900 40.53500
C  -13.02800 39.98800 40.44600
C  -13.89200 43.52000 41.22500
C  -15.54300 40.61600 39.67400
C  -16.88300 40.84500 40.21600
N  -10.97200 37.82900 40.11100
C  -12.29500 37.56000 40.45700
C  -12.49900 36.13600 40.37400
C  -11.25800 35.62900 39.90100
C  -10.42900 36.68400 39.65400
C  -13.70300 35.33800 40.68300
C  -10.54600 34.39300 39.57100
O  -11.03900 33.26800 39.55300
C  -9.13600 34.76800 39.06000
C  -8.09000 34.04800 39.81800
O  -7.98300 33.99800 41.03100
O  -7.15600 33.61900 38.97600
C  -5.83700 33.10000 39.41300
H  -5.90400 40.96800 38.67300
H  -11.68300 43.93700 39.45900
H  -14.16900 38.32200 41.06500
H  -6.40800 36.14200 38.92400
H  -5.27300 38.75600 37.75100
H  -5.11300 37.32300 40.33000
H  -5.27300 39.04000 40.64900
H  -4.02600 38.56800 39.79400
H  -7.33500 35.65300 36.77400
H  -5.62600 35.77600 36.77100
H  -5.68600 37.15200 35.06800
H  -6.61700 38.30300 35.97100
H  -6.29200 44.20400 37.74400
H  -5.51000 43.05100 38.83100
H  -6.14600 44.59200 39.43900
H  -10.58700 45.71700 40.43700
H  -11.21400 45.82900 38.72000
H  -10.26300 47.04200 39.40900
H  -14.07600 42.78800 39.19500
H  -14.56100 40.96000 41.59000
H  -12.85300 43.69200 41.50500
H  -14.45200 43.21900 42.11000
H  -14.26300 44.42600 40.74500
H  -15.35600 39.64300 39.22000
H  -15.56700 41.34400 38.86400
H  -17.55100 39.98600 40.15900
H  -17.40400 41.69000 39.76500
H  -16.84200 41.01800 41.29100
H  -14.46400 35.34300 39.90200
H  -14.01700 35.74900 41.64200
H  -13.33700 34.31400 40.61700
H  -9.07100 34.49700 38.00600
H  -5.78800 33.18000 40.49900
H  -4.99000 33.54600 38.89300
H  -5.72600 32.04900 39.14400
Mg -10.52500 17.45900 40.99800
C  -6.93500 16.81700 41.05000
C  -10.00500 20.58700 40.14900
C  -13.74700 17.51500 40.14300
C  -10.82400 13.91400 41.54300
N  -8.66600 18.53900 40.55800
C  -7.34900 18.20300 40.75800
C  -6.40700 19.41800 40.42400
C  -7.43900 20.57300 40.58400
C  -8.77500 19.87900 40.39800
C  -7.22600 21.36600 41.95700
C  -5.76800 19.32400 39.02000
C  -4.17900 19.06600 38.99800
H  -3.71300 18.08400 37.90200
N  -11.79900 18.94000 40.49800
C  -11.42100 20.24100 40.25100
C  -12.55900 21.01100 40.00500
C  -13.67300 20.09600 39.91100
C  -13.09600 18.77700 40.10200
C  -12.48000 22.48300 39.82500
C  -15.08900 20.49200 39.79300
O  -15.38200 21.64000 39.68900
C  -16.23800 19.50100 39.85800
N  -12.10700 15.83700 40.56400
C  -13.37200 16.20200 40.48100
C  -14.27900 15.01800 40.61900
C  -13.36700 13.91600 41.28800
C  -11.99600 14.53000 41.10900
C  -15.60100 15.38000 41.35900
C  -13.55400 12.47500 40.73700
C  -12.56400 11.91300 39.67800
N  -9.24500 15.75200 41.28100
C  -9.55600 14.38700 41.57400
C  -8.36400 13.66700 41.73300
C  -7.31700 14.60900 41.70500
C  -7.85800 15.81900 41.25000
C  -8.24000 12.13200 41.92500
C  -5.87700 14.67800 41.84200
O  -5.08400 13.80300 42.19500
C  -5.56900 16.14200 41.32000
C  -4.66200 16.97900 42.26000
O  -3.43500 17.09500 42.20000
O  -5.42600 17.56200 43.11900
C  -4.70200 18.33600 44.14300
H  -9.94100 21.67000 40.02600
H  -14.82500 17.48600 39.97300
H  -10.92500 12.93400 42.01500
H  -5.70500 19.40000 41.25700
H  -7.25000 21.25100 39.75200
H  -6.66300 22.28900 41.81800
H  -6.67800 20.66900 42.59000
H  -8.12900 21.65500 42.49500
H  -5.94500 20.13800 38.31700
H  -6.29500 18.49000 38.55600
H  -3.79600 18.68400 39.94400
H  -3.62900 20.00300 38.92300
H  -12.51400 22.66600 38.75200
H  -11.64600 23.01900 40.27700
H  -13.31900 22.98100 40.31100
H  -16.03300 19.04600 38.88900
H  -17.25000 19.89600 39.95200
H  -16.19400 18.72900 40.62700
H  -14.54800 14.64500 39.63100
H  -13.50000 14.05100 42.36200
H  -15.34900 16.20300 42.02700
H  -16.04800 14.59300 41.96700
H  -16.34300 15.61400 40.59500
H  -14.55700 12.37500 40.32100
H  -13.54600 11.83900 41.62200
H  -12.04000 12.67600 39.10100
H  -13.06600 11.32400 38.91100
H  -11.87500 11.27900 40.23500
H  -8.95400 11.82200 42.68700
H  -7.24500 11.86600 42.28200
H  -8.43000 11.54700 41.02400
H  -4.96800 15.92100 40.43800
H  -5.52000 18.85300 44.64300
H  -4.05400 19.02200 43.59700
H  -4.14300 17.65400 44.78400

