158

Mg 24.20600 -6.07900 44.78400
C  26.50200 -3.68500 43.59200
C  21.69600 -4.54500 43.27600
C  22.30800 -8.83900 45.40000
C  27.04200 -7.61700 46.35000
N  24.17900 -4.36000 43.44500
C  25.19100 -3.48700 43.11500
C  24.69300 -2.39700 42.12400
C  23.13000 -2.62500 42.35100
C  22.94500 -3.92800 43.08400
C  22.42300 -1.50300 43.15300
C  25.26600 -2.64100 40.68200
C  25.44800 -1.37000 39.77400
H  24.73900 -1.35200 38.36600
N  22.26500 -6.58000 44.34200
C  21.38800 -5.80000 43.76700
C  20.07900 -6.39500 43.69400
C  20.29500 -7.68000 44.29500
C  21.67700 -7.74400 44.71000
C  18.86100 -5.70200 43.09400
C  19.16000 -8.81000 44.39400
O  18.04500 -8.69200 43.84900
C  19.41600 -10.10100 45.20400
N  24.62400 -7.92300 45.62200
C  23.62200 -8.86600 45.81200
C  24.20600 -10.14200 46.38100
C  25.55600 -9.65100 47.02700
C  25.79900 -8.32200 46.24200
C  23.32800 -10.88900 47.44800
C  26.75600 -10.65200 46.97900
C  27.35600 -10.91000 48.35600
N  26.39800 -5.69100 45.10700
C  27.36900 -6.35100 45.74900
C  28.59800 -5.72200 45.63400
C  28.29700 -4.59900 44.78100
C  26.92500 -4.59900 44.51900
C  29.98700 -6.22300 46.05400
C  28.90100 -3.56300 44.02700
O  30.05300 -3.17200 44.02700
C  27.79800 -2.86200 43.28000
C  27.67600 -1.43700 43.73200
O  27.49600 -1.06200 44.86400
O  27.78300 -0.61100 42.65200
C  27.77900 0.80200 43.00100
H  20.85600 -4.01800 42.81800
H  21.76800 -9.76700 45.60100
H  27.80000 -8.06000 47.00000
H  25.14800 -1.48600 42.51200
H  22.63000 -2.63100 41.38300
H  23.07900 -0.63400 43.21100
H  22.20800 -1.85200 44.16300
H  21.48100 -1.14200 42.74100
H  24.48500 -3.20800 40.17600
H  26.17800 -3.23900 40.67900
H  26.52200 -1.30100 39.59700
H  25.22200 -0.43300 40.28200
H  19.06000 -5.20700 42.14300
H  18.53400 -4.99900 43.86000
H  18.03400 -6.37300 42.86500
H  18.54800 -10.74800 45.33100
H  19.76400 -9.67400 46.14400
H  20.23600 -10.71000 44.82400
H  24.52300 -10.81800 45.58600
H  25.50300 -9.22900 48.03100
H  22.55000 -10.23200 47.83500
H  23.90600 -11.25700 48.29600
H  22.85600 -11.72500 46.93300
H  27.55100 -10.35400 46.29500
H  26.34100 -11.61300 46.67400
H  27.53400 -11.98400 48.40900
H  26.60700 -10.68900 49.11700
H  28.25700 -10.33100 48.55500
H  30.44300 -6.62500 45.14900
H  29.89300 -7.00200 46.81000
H  30.68400 -5.46700 46.41700
H  28.05500 -2.81400 42.22200
H  28.80900 1.08900 43.21500
H  27.09700 1.08500 43.80200
H  27.49100 1.32200 42.08700
Mg 27.33300 50.32000 26.78800
C  25.15900 51.48000 29.37700
C  29.41500 49.26700 29.08700
C  29.43500 49.53800 24.17900
C  25.14600 51.93700 24.47800
N  27.21300 50.30600 28.96600
C  26.25000 50.69000 29.86900
C  26.57900 50.20700 31.19900
C  28.07500 49.92500 31.16400
C  28.25800 49.79500 29.65100
C  28.97500 50.95000 31.90700
C  25.82600 48.91900 31.58700
C  25.36200 48.81100 33.04000
H  25.72100 49.95200 34.00400
N  29.21400 49.44100 26.63600
C  29.91700 49.12100 27.75800
C  31.22400 48.60700 27.32000
C  31.20300 48.69100 25.88100
C  29.88000 49.25500 25.51600
C  32.23800 48.14500 28.21400
C  32.35400 48.43700 25.01100
O  32.35200 48.98500 23.86500
C  33.58000 47.63700 25.42000
N  27.27000 50.78000 24.57200
C  28.23700 50.19700 23.79800
C  27.81500 50.35800 22.29600
C  26.37700 50.89700 22.40900
C  26.25300 51.22100 23.87300
C  28.88800 51.23600 21.39900
C  25.28100 49.93200 21.90700
C  24.35000 49.11100 22.87400
N  25.49500 51.31600 26.86700
C  24.81400 51.93500 25.86500
C  23.64700 52.54400 26.50000
C  23.69300 52.43800 27.85300
C  24.92400 51.71700 28.02000
C  22.57100 53.23100 25.75100
C  23.17500 52.79900 29.08400
O  22.19400 53.46900 29.44500
C  24.01400 52.09600 30.16400
C  24.48700 53.06300 31.23300
O  25.57200 53.51100 31.33000
O  23.36800 53.41600 31.93500
C  23.58100 54.17700 33.19300
H  30.14800 49.04700 29.86500
H  30.02900 49.13500 23.35600
H  24.30100 52.39300 23.95800
H  26.52800 51.03700 31.90400
H  28.36000 48.98500 31.63700
H  29.37700 50.40900 32.76300
H  28.55900 51.92400 32.16400
H  29.89400 51.14200 31.35200
H  26.51900 48.09800 31.40400
H  24.96400 48.74400 30.94200
H  25.61700 47.84700 33.48100
H  24.27700 48.89500 32.99000
H  31.97000 48.55100 29.18900
H  33.22800 48.54500 27.99600
H  32.34300 47.06100 28.16200
H  34.23800 48.13000 26.13500
H  34.18100 47.58800 24.51200
H  33.35800 46.62600 25.76300
H  27.81100 49.39500 21.78500
H  26.27400 51.88200 21.95400
H  29.75500 51.49700 22.00500
H  28.39100 52.12800 21.01900
H  29.23800 50.64400 20.55300
H  25.69600 49.28500 21.13300
H  24.68200 50.56200 21.24900
H  24.63400 49.08900 23.92700
H  24.27900 48.09000 22.49900
H  23.33800 49.51700 22.85000
H  22.19800 52.69000 24.88200
H  22.92300 54.16900 25.32200
H  21.75800 53.52200 26.41700
H  23.40600 51.30000 30.59300
H  24.61800 54.10900 33.52200
H  22.90600 53.79400 33.95900
H  23.32500 55.22200 33.01900

