158

Mg 1.11400 7.08100 25.40600
C  1.54500 8.62800 28.50000
C  0.93500 4.00300 27.11900
C  0.85700 5.53300 22.40000
C  1.45400 10.21000 23.83200
N  1.41300 6.40400 27.52800
C  1.32100 7.25200 28.65600
C  1.23900 6.51800 29.96100
C  1.33500 4.98300 29.51100
C  1.20200 5.09600 27.93100
C  2.68300 4.35500 29.96100
C  0.11900 6.93700 30.89300
C  0.55900 7.06400 32.31200
H  1.93700 6.47300 32.87000
N  0.90000 5.01000 24.80900
C  0.79200 3.95900 25.73600
C  0.48300 2.74500 24.91400
C  0.50200 3.15900 23.50100
C  0.75500 4.64400 23.52400
C  0.14700 1.39300 25.50300
C  0.30700 2.27700 22.22500
O  0.36500 2.81300 21.10700
C  -0.02200 0.80000 22.29500
N  1.37700 7.80400 23.46800
C  1.13000 6.95100 22.34400
C  1.01600 7.75100 21.06400
C  0.99900 9.19900 21.59800
C  1.28700 9.13300 23.04200
C  2.19800 7.51200 20.03500
C  -0.28700 9.96000 21.26300
C  -0.34300 10.49200 19.80900
N  1.65000 9.07600 25.95300
C  1.70600 10.21000 25.24100
C  1.91600 11.33800 26.13000
C  1.88400 10.74800 27.44200
C  1.65400 9.36700 27.26600
C  2.16600 12.82800 25.82900
C  1.95400 11.06500 28.89700
O  2.31500 12.08100 29.48500
C  1.72000 9.66400 29.66500
C  2.84300 9.49100 30.58500
O  4.01700 9.20600 30.33900
O  2.35100 10.03800 31.76000
C  3.42200 10.45200 32.68300
H  0.76400 3.06400 27.65000
H  0.82800 5.14600 21.37900
H  1.48600 11.22100 23.42100
H  2.18000 6.82100 30.42100
H  0.51700 4.36300 29.87700
H  3.33000 3.97100 29.17200
H  2.51500 3.47800 30.58500
H  3.35100 5.10300 30.38900
H  -0.62500 6.14800 30.78600
H  -0.36800 7.87300 30.61900
H  -0.28300 6.78200 32.94300
H  0.65400 8.13000 32.51800
H  0.98500 0.75200 25.23200
H  -0.82500 1.02200 25.17800
H  0.11300 1.45500 26.59100
H  0.74900 0.13100 22.67800
H  -0.21400 0.54500 21.25300
H  -0.96000 0.62800 22.82200
H  0.11200 7.64000 20.46500
H  1.83000 9.68000 21.08100
H  3.06600 8.15600 20.17700
H  1.85800 7.52100 18.99900
H  2.59800 6.51400 20.21000
H  -0.48600 10.77000 21.96500
H  -1.08200 9.22800 21.40900
H  0.64800 10.39600 19.36600
H  -0.75500 11.49800 19.88500
H  -0.96300 9.84700 19.18500
H  2.93300 13.31200 26.43400
H  1.26500 13.37900 26.09900
H  2.44500 12.94200 24.78100
H  0.74500 9.75800 30.14300
H  3.20800 11.46400 33.03000
H  4.42200 10.48200 32.25200
H  3.41700 9.81500 33.56800
Mg 46.68600 24.95700 28.62300
C  47.39700 27.13500 31.29200
C  45.36900 22.75300 30.80200
C  46.55700 22.65300 26.11600
C  48.12100 27.19800 26.48000
N  46.45800 24.95400 30.82100
C  46.76300 25.98200 31.69900
C  46.21100 25.59800 33.11000
C  45.49200 24.19200 32.89600
C  45.79700 23.88300 31.43200
C  45.85800 23.13300 33.91000
C  45.27400 26.63900 33.84100
C  45.80500 27.19400 35.16400
H  44.82400 27.29400 36.32500
N  46.21400 22.93300 28.48800
C  45.54800 22.24400 29.47700
C  45.35700 20.85400 29.02200
C  45.76900 20.80500 27.67500
C  46.20900 22.15300 27.33600
C  44.62600 19.87200 29.91500
C  45.80800 19.65000 26.63900
O  46.12200 19.77700 25.44500
C  45.34200 18.26700 27.16600
N  47.25500 24.94700 26.55600
C  47.10000 23.87800 25.75900
C  47.64700 24.18800 24.36100
C  47.80700 25.74200 24.39500
C  47.68200 26.02600 25.87800
C  49.00500 23.41100 24.14800
C  46.76100 26.46600 23.61400
C  46.93200 26.66000 22.13900
N  47.56600 26.78300 28.78800
C  48.06800 27.63200 27.81900
C  48.50300 28.90000 28.35800
C  48.29500 28.70900 29.70800
C  47.69500 27.39700 29.97200
C  49.20300 30.00100 27.71400
C  48.45000 29.37200 31.02000
O  48.88500 30.46400 31.39300
C  47.81700 28.40200 32.00700
C  48.78300 28.25500 33.13100
O  49.78200 27.50000 33.14000
O  48.48300 29.10300 34.17400
C  49.14100 28.70300 35.42800
H  44.90600 22.17300 31.60400
H  46.64000 21.99300 25.24900
H  48.48000 27.91400 25.73800
H  47.08200 25.45400 33.75000
H  44.40300 24.14300 32.92400
H  45.22500 22.24800 33.84400
H  45.74700 23.57300 34.90200
H  46.89500 22.82700 33.77200
H  44.40200 26.09100 34.19800
H  45.03400 27.44200 33.14400
H  46.29000 28.16800 35.10200
H  46.57400 26.48500 35.47300
H  43.57000 19.86200 29.64600
H  44.74100 20.17600 30.95500
H  45.00500 18.85100 29.95900
H  45.42000 17.60000 26.30800
H  44.35900 18.14700 27.62300
H  46.07300 18.08700 27.95400
H  47.03700 23.85200 23.52200
H  48.78200 26.08400 24.04600
H  49.86100 24.07200 24.01100
H  49.04300 22.58200 23.44200
H  49.19200 22.93800 25.11200
H  46.75900 27.47100 24.03600
H  45.75300 26.06000 23.69500
H  47.76200 26.04200 21.79600
H  47.21000 27.69500 21.93800
H  46.07500 26.33000 21.55200
H  49.43500 29.56200 26.74400
H  50.11000 30.33400 28.21700
H  48.51900 30.84600 27.63700
H  46.95700 28.93400 32.41400
H  50.16300 29.07600 35.37500
H  49.10000 27.63700 35.65100
H  48.66900 29.20200 36.27500

