158

Mg 17.09600 52.00200 26.55000
C  19.42200 50.76000 28.90500
C  15.06400 52.82200 29.12100
C  14.89500 53.22700 24.32000
C  19.28900 50.89700 24.02600
N  17.22400 51.80000 28.78600
C  18.29000 51.31300 29.50500
C  18.10700 51.57300 30.94800
C  16.57800 51.86800 31.02900
C  16.26300 52.20800 29.60200
C  15.80300 50.61500 31.43600
C  18.94400 52.79600 31.45200
C  19.11000 52.88000 32.98800
H  18.07400 52.24100 33.87400
N  15.16300 52.81800 26.66800
C  14.55900 53.13900 27.82000
C  13.30200 53.89700 27.61800
C  13.19000 54.00000 26.15900
C  14.44300 53.32400 25.63000
C  12.43900 54.46000 28.68700
C  12.17900 54.70600 25.30900
O  12.15800 54.55200 24.07500
C  11.19200 55.65400 25.86400
N  16.96600 51.84400 24.48100
C  16.05300 52.63800 23.81800
C  16.20200 52.44300 22.25900
C  17.68200 51.88000 22.11900
C  18.04500 51.55700 23.61400
C  15.15800 51.43200 21.70100
C  18.74800 52.88200 21.50300
C  20.04800 52.23500 21.06500
N  18.91800 51.05400 26.42500
C  19.70700 50.59000 25.34400
C  20.95200 49.97400 25.78200
C  20.88600 50.08500 27.17800
C  19.61900 50.66500 27.49700
C  21.96200 49.35800 24.83400
C  21.64500 49.85500 28.41000
O  22.73900 49.39900 28.59300
C  20.64700 50.25600 29.63800
C  20.39300 49.14100 30.56100
O  19.93500 48.07300 30.28800
O  20.88200 49.58000 31.80100
C  20.66200 48.60700 32.87600
H  14.38300 53.13900 29.91400
H  14.31700 53.79100 23.58600
H  19.91000 50.54100 23.20200
H  18.37500 50.69900 31.54000
H  16.37200 52.71300 31.68600
H  14.79000 50.46400 31.06400
H  15.78200 50.51500 32.52200
H  16.30800 49.76400 30.97800
H  18.45000 53.70100 31.10000
H  19.90900 52.84800 30.94800
H  19.36200 53.91500 33.22000
H  20.03000 52.33200 33.19500
H  11.65500 53.75700 28.96700
H  12.13000 55.48600 28.48500
H  12.98900 54.61500 29.61500
H  10.58500 56.17300 25.12200
H  11.63000 56.43800 26.48100
H  10.52300 54.97000 26.38800
H  16.13200 53.34700 21.65400
H  17.67900 51.06600 21.39500
H  15.57800 50.51000 21.29900
H  14.71400 52.05200 20.92200
H  14.40500 51.34400 22.48400
H  19.12100 53.66400 22.16400
H  18.32300 53.27100 20.57800
H  20.84000 52.46300 21.77900
H  20.40500 52.71100 20.15100
H  19.83300 51.16800 21.02100
H  22.17400 50.10600 24.06900
H  21.44600 48.51300 24.37900
H  22.87200 49.10700 25.37800
H  21.13600 51.07800 30.15900
H  20.20600 47.64600 32.63600
H  20.08100 48.98200 33.71800
H  21.64100 48.37900 33.29600
Mg -4.95000 25.41900 26.16100
C  -3.84100 26.86400 29.21200
C  -6.86700 23.21200 28.01200
C  -5.57900 23.90200 23.23600
C  -2.69400 27.60100 24.50500
N  -5.22300 25.02200 28.30600
C  -4.77200 25.78700 29.34200
C  -5.37500 25.34700 30.63600
C  -6.06200 24.02400 30.31100
C  -6.04200 24.05400 28.75300
C  -5.27400 22.81800 30.89800
C  -6.40200 26.40500 31.20500
C  -6.39700 26.53900 32.76800
H  -5.84500 25.43300 33.62400
N  -6.24000 23.88500 25.65100
C  -6.92200 23.09400 26.60000
C  -7.57100 21.99800 25.86700
C  -7.20600 22.16000 24.46600
C  -6.30500 23.34200 24.35400
C  -8.56400 21.02600 26.52900
C  -7.56900 21.27500 23.30700
O  -7.13400 21.40000 22.17500
C  -8.50600 20.24800 23.50700
N  -4.27700 25.69800 24.24600
C  -4.65800 24.86100 23.23400
C  -3.89900 25.22100 21.97200
C  -3.28000 26.61800 22.33000
C  -3.42600 26.63500 23.78500
C  -2.92500 24.24600 21.40900
C  -3.89200 27.91600 21.70300
C  -3.58800 28.19500 20.22100
N  -3.50500 26.87000 26.68000
C  -2.69700 27.73800 25.89900
C  -1.99700 28.55700 26.73600
C  -2.37500 28.32800 28.06900
C  -3.23600 27.26500 27.96000
C  -0.84300 29.49300 26.27200
C  -2.23600 28.70300 29.46500
O  -1.57100 29.61800 29.93900
C  -3.24900 27.77000 30.30900
C  -2.46000 27.03200 31.31500
O  -1.94900 25.93000 31.16900
O  -2.31500 27.81500 32.41800
C  -1.70600 27.27400 33.62900
H  -7.33900 22.40100 28.57000
H  -5.69000 23.36900 22.28900
H  -1.98600 28.15900 23.88900
H  -4.58800 25.27500 31.38700
H  -7.05400 24.18700 30.73300
H  -4.27500 23.13600 31.19500
H  -5.10300 22.08400 30.11000
H  -5.74800 22.41700 31.79400
H  -7.44900 26.20900 30.97800
H  -6.16400 27.33500 30.68800
H  -7.38100 26.73100 33.19700
H  -5.95700 27.51400 32.97700
H  -9.51100 21.08600 25.99300
H  -8.64600 21.11300 27.61300
H  -8.15300 20.04700 26.28500
H  -9.51200 20.61100 23.71700
H  -8.03800 19.54600 24.19700
H  -8.59400 19.66200 22.59200
H  -4.63200 25.35200 21.17600
H  -2.22600 26.56300 22.06000
H  -2.09700 24.74300 20.90500
H  -3.39000 23.55400 20.70700
H  -2.42200 23.69800 22.20600
H  -3.64900 28.80800 22.28100
H  -4.96000 27.86100 21.91300
H  -3.15700 29.19600 20.25300
H  -4.35800 28.23000 19.45000
H  -2.88600 27.44000 19.86700
H  -0.10500 29.78400 27.02000
H  -1.20400 30.28400 25.61400
H  -0.21600 28.86000 25.64300
H  -4.06500 28.34900 30.74200
H  -0.74400 27.77600 33.73300
H  -1.58100 26.19100 33.62200
H  -2.25200 27.54900 34.53200

