158

Mg 2.59600 -1.11800 43.93600
C  6.08100 -0.31100 43.78300
C  1.93600 1.85100 42.50100
C  -0.51200 -2.24800 43.46300
C  3.62700 -4.22400 44.98200
N  3.93500 0.46200 43.20300
C  5.22600 0.67100 43.27300
C  5.72500 1.97900 42.66800
C  4.36400 2.76800 42.62200
C  3.31000 1.61500 42.81600
C  4.08600 4.12600 43.45600
C  6.42800 1.78100 41.31600
C  7.74800 2.58900 41.08100
H  8.24800 2.57700 39.64200
N  0.96600 -0.31100 43.10700
C  0.81900 0.93100 42.58100
C  -0.53700 1.25800 42.19500
C  -1.27700 0.04300 42.44900
C  -0.27000 -0.90200 43.04800
C  -0.93300 2.55900 41.50000
C  -2.70700 -0.07500 42.10400
O  -3.29100 0.70900 41.41000
C  -3.43000 -1.33800 42.47900
N  1.73000 -3.04800 44.05700
C  0.41000 -3.26000 43.93300
C  0.05100 -4.79300 44.16200
C  1.36000 -5.29600 44.80400
C  2.31600 -4.14100 44.65600
C  -1.32900 -5.01400 44.90000
C  1.91500 -6.62300 44.25400
C  2.15100 -7.78800 45.23500
N  4.47300 -2.05800 44.33000
C  4.70200 -3.30900 44.85700
C  6.07300 -3.52800 45.12000
C  6.70500 -2.29300 44.66700
C  5.66600 -1.51100 44.24600
C  6.68200 -4.87000 45.62600
C  7.97100 -1.67400 44.52500
O  9.10400 -2.10500 44.72700
C  7.64800 -0.25200 43.93400
C  8.01300 0.77100 45.00300
O  7.76100 0.66500 46.18200
O  8.79500 1.77400 44.41100
C  9.05800 2.86600 45.38300
H  1.77700 2.87100 42.14500
H  -1.54500 -2.58600 43.36100
H  4.03500 -5.15900 45.37100
H  6.40600 2.50600 43.33600
H  4.31600 3.21000 41.62700
H  3.09800 3.96300 43.88800
H  3.97800 5.01800 42.83800
H  4.79800 4.23000 44.27500
H  5.71100 1.99200 40.52300
H  6.60500 0.70700 41.25700
H  8.56000 2.17400 41.67900
H  7.61300 3.64600 41.30800
H  -0.62200 2.47600 40.45900
H  -0.61000 3.51000 41.92400
H  -2.01500 2.59000 41.62500
H  -4.50700 -1.26000 42.32600
H  -3.27400 -1.55900 43.53500
H  -3.14700 -2.17400 41.83900
H  -0.01500 -5.24200 43.17100
H  1.19100 -5.45100 45.87000
H  -2.10300 -4.32400 44.56200
H  -1.08600 -4.90900 45.95700
H  -1.53400 -6.05100 44.63700
H  2.83400 -6.43300 43.70000
H  1.14800 -7.02000 43.58900
H  3.18900 -8.11100 45.15400
H  1.58600 -8.64600 44.87100
H  1.81500 -7.66900 46.26500
H  6.77100 -5.73400 44.96600
H  6.16700 -5.10400 46.55800
H  7.72900 -4.66200 45.84800
H  8.21400 -0.04400 43.02600
H  8.06600 3.27900 45.56300
H  9.84800 3.53400 45.04000
H  9.47300 2.40100 46.27800
Mg 8.11600 4.22400 27.31900
C  9.52200 2.36600 29.94800
C  6.44500 6.14600 29.51100
C  6.60500 5.43000 24.59900
C  9.82700 1.78500 25.15200
N  7.94800 4.19600 29.49800
C  8.69900 3.43300 30.36200
C  8.46700 3.99900 31.81800
C  7.39900 5.16500 31.65600
C  7.25000 5.18700 30.12300
C  5.97600 5.08300 32.38300
C  9.85200 4.50500 32.38000
C  10.10300 4.01200 33.81200
H  10.65800 5.10900 34.83500
N  6.72100 5.64000 27.11200
C  6.11200 6.36000 28.13800
C  5.43600 7.48700 27.54900
C  5.43900 7.20300 26.14300
C  6.26900 6.02200 25.87100
C  4.51400 8.40500 28.39100
C  4.73400 7.98200 25.08900
O  4.70900 7.69500 23.90000
C  4.07800 9.30800 25.38000
N  8.09700 3.59000 25.19200
C  7.40500 4.32400 24.28000
C  7.73800 3.88400 22.82500
C  8.89100 2.86400 23.00700
C  8.94000 2.73400 24.53800
C  6.54600 3.40800 21.95700
C  10.24400 3.25900 22.37000
C  11.05600 2.21600 21.66900
N  9.47800 2.48700 27.49400
C  10.00300 1.60000 26.56600
C  10.94100 0.68000 27.28700
C  10.76600 0.97300 28.66100
C  9.87700 1.98200 28.64000
C  11.60400 -0.44900 26.60800
C  11.17600 0.63000 30.02300
O  12.11600 -0.04500 30.41200
C  10.32800 1.55600 30.88200
C  9.55100 0.75800 31.90900
O  8.57000 0.01400 31.70800
O  9.95200 1.09700 33.17400
C  9.06000 0.59500 34.24100
H  6.13100 6.90800 30.22700
H  6.09700 5.74900 23.68700
H  10.56600 1.20500 24.59400
H  7.98600 3.20400 32.38800
H  7.71800 6.16000 31.96600
H  5.17900 5.30900 31.67500
H  6.02600 5.92000 33.07900
H  5.93400 4.18200 32.99500
H  9.83300 5.59300 32.45700
H  10.67800 4.28600 31.70300
H  10.87700 3.24700 33.75400
H  9.19300 3.56400 34.21000
H  3.56500 8.51600 27.86700
H  4.87600 9.43300 28.42900
H  4.36300 7.95700 29.37300
H  4.16000 9.95300 24.50500
H  4.65200 9.77200 26.18200
H  3.02000 9.06900 25.48800
H  8.09500 4.72900 22.23600
H  8.60900 1.86600 22.66900
H  5.65000 3.18400 22.53500
H  6.86000 2.53900 21.37900
H  6.24000 4.19100 21.26300
H  10.86400 3.43200 23.25000
H  10.22700 4.23800 21.89100
H  11.28800 2.60300 20.67700
H  10.59400 1.24200 21.50400
H  11.99900 2.12800 22.20900
H  12.33200 0.04900 25.96700
H  10.93800 -1.18700 26.16100
H  12.19100 -0.97900 27.35800
H  11.04500 2.18500 31.41000
H  8.01900 0.76400 33.96300
H  9.23500 1.01000 35.23400
H  9.20100 -0.48300 34.31600

