158

Mg 17.44600 52.46500 25.58000
C  19.16200 50.89100 28.17600
C  15.32300 53.76600 27.96900
C  15.82700 53.99400 23.12300
C  19.56500 50.94000 23.37900
N  17.20200 52.17400 27.80400
C  18.11700 51.60000 28.62300
C  17.72800 52.04800 30.10300
C  16.36500 52.76600 30.05100
C  16.23600 52.87200 28.49900
C  15.18100 52.08100 30.81100
C  18.92300 52.90700 30.72000
C  19.16000 52.78300 32.25600
H  18.09200 52.07900 33.15500
N  15.67900 53.56500 25.50300
C  15.06100 54.02800 26.62300
C  13.84800 54.74300 26.18500
C  13.92800 54.87900 24.78300
C  15.18300 54.11200 24.42700
C  12.73600 55.05200 27.18400
C  13.03000 55.71700 23.86200
O  13.23400 55.77900 22.63500
C  11.88500 56.56900 24.44300
N  17.46200 52.18900 23.59100
C  16.85500 53.09300 22.77600
C  17.12800 52.94900 21.34600
C  18.53900 52.21800 21.40400
C  18.53200 51.68000 22.86200
C  16.03900 52.12600 20.56000
C  19.78300 52.96300 20.86300
C  20.89600 52.10100 20.39000
N  18.99900 51.13000 25.70200
C  19.84600 50.66100 24.70800
C  20.98300 49.97100 25.24800
C  20.67800 49.95400 26.61500
C  19.47500 50.70400 26.84700
C  22.03000 49.12300 24.40000
C  21.19100 49.59800 27.88500
O  22.18200 49.05900 28.21200
C  20.23400 50.22500 28.99600
C  19.72100 49.19300 29.86500
O  18.95700 48.33900 29.53900
O  20.17600 49.39800 31.14600
C  19.46400 48.43500 32.06400
H  14.77000 54.42400 28.64300
H  15.40500 54.62400 22.33700
H  20.46200 50.83400 22.76500
H  17.58700 51.13700 30.68500
H  16.36000 53.76200 30.49400
H  14.60200 52.71800 31.48100
H  15.62200 51.38000 31.52000
H  14.62300 51.72000 29.94800
H  18.55600 53.92600 30.59400
H  19.78400 52.72300 30.07800
H  19.33300 53.78000 32.66200
H  20.10000 52.34200 32.58600
H  12.98800 55.95400 27.74200
H  12.61800 54.36600 28.02300
H  11.77300 55.17400 26.68800
H  12.28500 57.05100 25.33600
H  11.19100 55.73200 24.50500
H  11.45000 57.31400 23.77700
H  17.34100 53.85800 20.78300
H  18.57700 51.25600 20.89300
H  15.35300 51.77400 21.33100
H  16.55800 51.29900 20.07600
H  15.61000 52.87200 19.89100
H  20.14900 53.52700 21.72100
H  19.38600 53.56900 20.04800
H  20.57500 51.06100 20.32400
H  21.75600 52.27900 21.03600
H  21.02800 52.45100 19.36600
H  21.85100 49.20000 23.32700
H  21.93300 48.07700 24.69100
H  23.06400 49.35800 24.65200
H  20.88900 50.77100 29.67600
H  18.38700 48.60200 32.04500
H  19.82200 48.44400 33.09300
H  19.66900 47.42900 31.69900
Mg -11.92100 37.91000 42.38400
C  -9.67700 35.36900 41.78700
C  -9.95100 39.88200 40.34700
C  -14.34700 40.28800 42.51500
C  -14.16300 35.71200 43.82200
N  -10.09000 37.62700 41.15400
C  -9.29900 36.50200 41.06600
C  -8.21400 36.60800 39.97000
C  -8.09300 38.12400 39.70900
C  -9.46600 38.61700 40.40500
C  -6.87600 38.95700 40.27800
C  -8.65000 35.81500 38.67700
C  -7.70200 34.67400 38.28900
H  -6.53100 34.99500 37.32000
N  -12.02200 39.94100 41.71400
C  -11.11500 40.47500 40.85500
C  -11.52700 41.84600 40.54600
C  -12.83400 42.00600 41.11600
C  -13.11200 40.77600 41.90800
C  -10.65800 42.72700 39.71100
C  -13.76800 43.19600 40.90400
O  -13.47800 44.02700 40.05700
C  -15.13900 43.44600 41.63300
N  -14.00300 37.91100 42.89900
C  -14.72100 39.03900 42.94400
C  -16.10800 38.72800 43.55900
C  -16.07200 37.23900 43.82600
C  -14.66600 36.90600 43.49900
C  -16.26900 39.60600 44.85100
C  -17.06200 36.36700 42.96500
C  -18.33900 35.91400 43.67000
N  -12.01600 35.93100 42.72700
C  -12.85600 35.24300 43.49900
C  -12.25700 33.92400 43.79300
C  -11.06100 33.93800 43.08800
C  -10.92500 35.17900 42.45200
C  -12.85400 32.80800 44.66500
C  -9.81100 33.21300 42.83800
O  -9.43000 32.13900 43.24600
C  -8.82900 34.09400 41.90900
C  -7.50600 34.26300 42.49100
O  -6.57700 33.47400 42.21100
O  -7.30500 35.45300 43.12200
C  -6.00200 35.69600 43.67600
H  -9.36500 40.45100 39.62300
H  -15.08800 41.03000 42.81900
H  -14.79700 35.00500 44.36000
H  -7.22600 36.25900 40.27300
H  -8.18600 38.35800 38.64800
H  -6.22400 39.35200 39.49900
H  -6.25100 38.24300 40.81400
H  -7.20700 39.81400 40.86500
H  -8.79500 36.43600 37.79300
H  -9.65300 35.43800 38.87300
H  -8.19800 33.85200 37.77200
H  -7.10500 34.23200 39.08600
H  -10.87600 43.76600 39.95800
H  -10.84500 42.50000 38.66100
H  -9.64300 42.53000 40.05600
H  -15.79100 42.57500 41.56700
H  -15.63000 44.33600 41.23900
H  -14.97500 43.63600 42.69300
H  -16.81700 38.90200 42.75000
H  -16.31100 37.08900 44.87900
H  -16.60100 39.00800 45.70000
H  -16.93200 40.44000 44.61800
H  -15.29600 40.03000 45.09900
H  -16.47500 35.50700 42.64300
H  -17.27400 36.87300 42.02300
H  -18.34300 34.83000 43.78100
H  -19.21600 36.15200 43.06700
H  -18.43700 36.29000 44.68800
H  -13.93400 32.90400 44.55600
H  -12.67900 32.88000 45.73800
H  -12.44600 31.87900 44.26600
H  -8.69000 33.56300 40.96700
H  -5.42200 36.47100 43.17500
H  -5.39800 34.79100 43.75200
H  -6.19600 36.15900 44.64300

