158

Mg 23.95800 -4.52500 45.78200
C  26.14200 -2.13900 44.26800
C  21.64600 -3.61700 43.58400
C  22.32800 -7.40300 46.53300
C  26.78800 -5.73300 47.58600
N  23.90300 -2.98300 44.13000
C  24.87200 -2.15100 43.65000
C  24.41100 -1.38100 42.40400
C  22.84900 -1.67100 42.45100
C  22.74900 -2.76600 43.50700
C  22.04600 -0.38300 42.93900
C  25.08600 -1.95200 41.11400
C  25.69400 -0.94000 40.16700
H  25.20500 -0.96300 38.72100
N  22.20900 -5.41900 45.12900
C  21.39400 -4.89800 44.21500
C  20.30500 -5.78500 43.95900
C  20.42400 -6.85200 44.93600
C  21.64300 -6.57100 45.63600
C  19.20100 -5.44100 43.03000
C  19.41900 -7.95200 45.08400
O  18.50400 -8.04300 44.24200
C  19.43700 -8.90400 46.29200
N  24.55500 -6.38900 46.88400
C  23.63400 -7.35700 47.09800
C  24.26800 -8.49500 47.86000
C  25.65200 -7.91600 48.35500
C  25.68600 -6.63800 47.52300
C  23.44100 -9.01200 49.11200
C  26.91000 -8.83200 48.10200
C  27.90400 -8.98700 49.31700
N  26.01900 -4.00200 45.98900
C  26.99900 -4.56000 46.82600
C  28.22400 -3.83700 46.60100
C  27.92700 -2.82800 45.64500
C  26.61600 -3.01700 45.23200
C  29.51400 -4.21800 47.27300
C  28.44500 -1.65600 44.97300
O  29.58500 -1.16300 45.05400
C  27.33700 -1.23400 44.01000
C  27.14200 0.20500 44.16000
O  26.36800 0.72100 44.95300
O  27.85800 0.92400 43.30400
C  27.43300 2.37700 43.23300
H  20.86400 -3.24700 42.91700
H  21.81400 -8.30900 46.85800
H  27.60400 -6.11800 48.20100
H  24.53800 -0.33000 42.66200
H  22.39700 -1.95600 41.50100
H  22.63700 0.52700 43.03800
H  21.54300 -0.57000 43.88800
H  21.38600 -0.24700 42.08200
H  24.40000 -2.55100 40.51500
H  25.94700 -2.55500 41.40300
H  26.77700 -1.06000 40.13200
H  25.46400 0.05800 40.54100
H  18.26700 -5.65800 43.55000
H  19.38200 -5.99400 42.10900
H  19.12600 -4.37400 42.82300
H  19.73300 -8.38600 47.20400
H  20.02700 -9.79600 46.07700
H  18.38400 -9.18200 46.34000
H  24.47200 -9.27900 47.13100
H  25.62300 -7.64000 49.40900
H  22.89000 -9.92800 48.89900
H  22.75000 -8.24400 49.45900
H  24.09600 -9.19600 49.96400
H  27.50600 -8.50900 47.24800
H  26.54300 -9.80900 47.78800
H  28.78200 -8.44700 48.96300
H  28.15200 -10.03400 49.49600
H  27.51700 -8.51100 50.21900
H  29.23100 -4.49600 48.28800
H  30.30300 -3.47200 47.18400
H  29.73100 -5.11400 46.69200
H  27.59200 -1.37900 42.96000
H  28.32300 3.00500 43.26900
H  26.73500 2.80800 43.95000
H  27.14500 2.35500 42.18200
Mg 49.30400 34.54800 27.36300
C  47.08900 33.61300 30.08000
C  49.92400 37.46900 28.97400
C  50.59900 35.72900 24.59000
C  48.38200 31.52000 25.80000
N  48.66100 35.27800 29.25100
C  47.76400 34.85200 30.25100
C  47.62500 35.88200 31.36700
C  48.40300 37.04400 30.81100
C  49.06800 36.53800 29.62100
C  47.53500 38.39500 30.51800
C  48.10000 35.45300 32.81200
C  47.00800 35.54700 33.85400
H  47.01600 36.83100 34.76400
N  50.15400 36.30600 26.90000
C  50.38300 37.42300 27.66200
C  50.97700 38.48700 26.83800
C  51.40100 37.92200 25.67100
C  50.63100 36.64500 25.64200
C  51.17300 39.90300 27.31300
C  52.27400 38.43600 24.64900
O  52.65500 37.80100 23.68700
C  52.91000 39.79900 24.79900
N  49.32800 33.71100 25.43900
C  50.09300 34.37500 24.55900
C  50.37200 33.47900 23.34200
C  49.80800 32.07800 23.72100
C  49.14900 32.43200 25.10400
C  49.90100 34.02200 22.04900
C  50.87500 31.04800 23.80900
C  50.85900 30.16000 22.52500
N  48.01200 32.89500 27.76500
C  47.68400 31.73400 27.02100
C  46.62100 30.91700 27.72300
C  46.41000 31.70100 28.89100
C  47.27200 32.79300 28.93800
C  46.01800 29.59700 27.25600
C  45.55300 31.73800 30.05100
O  44.59800 31.01900 30.34900
C  45.94800 32.98200 30.86800
C  46.08700 32.60400 32.30800
O  47.00300 31.93200 32.77200
O  44.89800 32.93100 32.92800
C  44.63700 32.28700 34.20200
H  50.04700 38.42600 29.48500
H  51.13600 36.05000 23.69500
H  48.22500 30.59000 25.25100
H  46.57400 36.17200 31.39500
H  49.25800 37.24000 31.45800
H  47.26200 38.41500 29.46300
H  48.05500 39.33100 30.71900
H  46.54000 38.47900 30.95500
H  48.96700 35.99200 33.19600
H  48.39200 34.40800 32.70600
H  46.92900 34.64800 34.46500
H  46.07300 35.66600 33.30700
H  50.65200 40.12000 28.24500
H  50.83000 40.56000 26.51400
H  52.23600 40.08600 27.47100
H  53.33200 39.94800 25.79300
H  52.09000 40.51400 24.74000
H  53.61300 39.98900 23.98800
H  51.45200 33.40900 23.20800
H  49.06900 31.83800 22.95600
H  48.90600 33.84900 21.64000
H  50.64500 33.69000 21.32400
H  49.92100 35.10500 22.16800
H  50.66600 30.35800 24.62600
H  51.88000 31.46800 23.77200
H  51.91000 29.96700 22.31300
H  50.48500 30.66100 21.63200
H  50.48000 29.14900 22.67400
H  46.00100 29.62100 26.16600
H  44.99600 29.43400 27.59800
H  46.56200 28.68800 27.51400
H  45.08200 33.61800 30.68800
H  43.66800 32.53400 34.63700
H  45.38900 32.61500 34.92000
H  44.65000 31.20400 34.08300

