158

Mg -10.03100 40.24200 39.30700
C  -8.79300 37.04000 38.34300
C  -6.93800 41.60100 38.34700
C  -11.52400 43.25500 38.87500
C  -13.31000 38.73300 39.49800
N  -8.19500 39.44200 38.47400
C  -7.92400 38.09800 38.14900
C  -6.53900 37.95000 37.36100
C  -5.83900 39.20100 38.05100
C  -7.07300 40.18300 38.31400
C  -4.92400 38.88600 39.25000
C  -6.75400 37.98000 35.83900
C  -6.15500 36.89800 34.90400
H  -7.15300 36.17000 33.91500
N  -9.34500 42.21300 38.84500
C  -8.02500 42.49800 38.53700
C  -7.96900 43.96200 38.40300
C  -9.25500 44.48100 38.54900
C  -10.11100 43.32100 38.72500
C  -6.64500 44.77500 38.05300
C  -9.57400 45.92400 38.44900
O  -8.71700 46.81000 38.27600
C  -10.97500 46.37400 38.89500
N  -12.21100 40.88700 39.46300
C  -12.44300 42.19500 39.13900
C  -13.95700 42.45000 39.10400
C  -14.49000 40.98800 39.22100
C  -13.33700 40.06900 39.53900
C  -14.56900 43.51300 40.07000
C  -15.31100 40.41000 38.01000
C  -16.78900 39.97800 38.40200
N  -10.93300 38.27000 39.23500
C  -12.20200 37.83300 39.40300
C  -12.18500 36.39700 39.36900
C  -10.91100 36.00300 38.93800
C  -10.19300 37.22500 38.78400
C  -13.34900 35.56400 39.71600
C  -10.01000 34.89900 38.56400
O  -10.23100 33.70100 38.64200
C  -8.69900 35.59400 38.11200
C  -7.55700 34.97300 38.84300
O  -7.01000 35.41100 39.82700
O  -7.16800 33.78300 38.28400
C  -6.01700 33.03200 38.87200
H  -5.93500 42.00400 38.18800
H  -12.09400 44.12700 38.54800
H  -14.23900 38.17300 39.36800
H  -6.06700 37.00600 37.63200
H  -5.17500 39.55100 37.26100
H  -5.17000 37.98000 39.80300
H  -4.97000 39.83400 39.78500
H  -3.92200 38.70800 38.85900
H  -6.21300 38.89300 35.59000
H  -7.79500 38.03600 35.52300
H  -5.79500 36.12400 35.58200
H  -5.38000 37.44500 34.36800
H  -6.49900 45.45700 38.89000
H  -6.86500 45.27200 37.10800
H  -5.75100 44.15200 38.06600
H  -10.94400 47.43300 39.15400
H  -11.16400 45.80100 39.80200
H  -11.65600 45.97000 38.14500
H  -14.25900 42.83200 38.12900
H  -15.14800 40.93200 40.08800
H  -14.93100 42.95400 40.93300
H  -15.34300 44.14200 39.63000
H  -13.79300 44.17200 40.46000
H  -14.73100 39.66800 37.46000
H  -15.34200 41.25500 37.32300
H  -16.81700 40.00400 39.49100
H  -16.88100 38.96800 38.00200
H  -17.49700 40.72900 38.05200
H  -13.95500 36.26100 40.29500
H  -13.12000 34.72000 40.36700
H  -13.72600 35.16600 38.77500
H  -8.54100 35.46300 37.04100
H  -5.10900 33.56100 38.58500
H  -6.09800 32.04400 38.41900
H  -6.08600 32.87600 39.94900
Mg -4.58800 25.26500 25.92200
C  -3.89800 27.04400 28.85900
C  -5.93500 22.84500 27.89200
C  -4.93700 23.47900 23.10900
C  -2.50300 27.40400 24.18000
N  -4.79900 24.92200 28.13800
C  -4.54200 25.78900 29.10900
C  -5.13800 25.33600 30.39700
C  -5.40800 23.87000 30.15800
C  -5.44100 23.86300 28.60900
C  -4.35300 22.81500 30.61700
C  -6.40000 26.22300 30.71600
C  -6.63600 26.55500 32.22500
H  -6.15300 25.52200 33.34200
N  -5.50200 23.55100 25.56400
C  -6.00400 22.63500 26.49400
C  -6.58000 21.49400 25.78000
C  -6.28800 21.73500 24.41300
C  -5.56800 23.00300 24.30400
C  -7.43300 20.39900 26.44000
C  -6.74100 21.01500 23.15500
O  -6.53100 21.41300 22.00000
C  -7.39500 19.69800 23.26500
N  -4.05100 25.58200 23.84900
C  -4.26800 24.65100 22.94100
C  -3.44500 24.88300 21.60700
C  -2.58900 26.20500 22.01900
C  -3.14400 26.48300 23.42200
C  -2.71400 23.65800 21.10400
C  -2.70000 27.44200 21.02800
C  -1.50100 28.19400 20.77300
N  -3.47500 26.91100 26.34200
C  -2.67800 27.72700 25.51200
C  -2.08600 28.73000 26.31500
C  -2.59500 28.60600 27.61900
C  -3.42600 27.40800 27.58600
C  -1.10800 29.70000 25.79600
C  -2.56200 29.10800 28.98500
O  -1.86000 30.01900 29.42900
C  -3.44700 28.10500 29.85400
C  -2.55400 27.52300 30.89000
O  -1.46600 27.00000 30.66900
O  -3.29300 27.57400 32.07400
C  -2.43700 27.07900 33.17400
H  -6.39300 22.03200 28.46100
H  -4.82000 22.81500 22.25000
H  -1.83600 28.04900 23.60400
H  -4.44000 25.54600 31.20700
H  -6.42000 23.64000 30.49000
H  -3.53100 23.26300 31.17600
H  -3.91700 22.25900 29.78800
H  -4.77000 22.09600 31.32200
H  -7.24800 25.75100 30.21900
H  -6.33500 27.13000 30.11500
H  -7.72100 26.60300 32.32100
H  -6.39100 27.58200 32.49300
H  -7.22700 19.42400 25.99900
H  -8.44800 20.56700 26.07900
H  -7.25400 20.24600 27.50500
H  -6.76400 19.02200 23.84200
H  -7.50600 19.31700 22.25000
H  -8.41600 19.78300 23.63800
H  -4.18400 25.15500 20.85400
H  -1.55000 25.88300 22.08300
H  -1.88700 24.06500 20.52300
H  -3.41400 23.11100 20.47200
H  -2.23200 23.05200 21.87100
H  -3.55400 28.02700 21.36900
H  -3.17300 27.11100 20.10300
H  -1.73300 29.23100 20.52900
H  -0.92600 27.70500 19.98600
H  -0.89700 28.32000 21.67100
H  -0.14000 29.24200 25.99800
H  -1.28100 30.63900 26.32200
H  -1.19900 29.80200 24.71500
H  -4.27900 28.57700 30.37600
H  -2.28000 26.00800 33.04500
H  -2.91900 27.33600 34.11800
H  -1.41800 27.45600 33.26400

