158

Mg 17.49000 -1.40700 28.20900
C  16.22000 0.63500 30.84300
C  19.38300 -3.07200 30.51900
C  19.09900 -2.73100 25.67500
C  15.63400 0.69600 26.06400
N  17.67400 -1.22200 30.45900
C  17.08000 -0.36000 31.31400
C  17.47700 -0.74300 32.78600
C  18.72700 -1.69600 32.59600
C  18.60700 -2.02100 31.09600
C  20.10800 -0.97500 32.92600
C  16.26700 -1.33000 33.53100
C  15.94200 -0.65800 34.95000
H  17.17600 -0.05500 35.63000
N  18.96100 -2.73600 28.08000
C  19.56900 -3.39200 29.14200
C  20.32100 -4.55600 28.69500
C  20.23700 -4.49600 27.24100
C  19.42000 -3.27400 26.91000
C  21.07700 -5.47400 29.59600
C  21.06700 -5.29900 26.18200
O  20.94800 -5.20400 24.94600
C  22.02100 -6.38500 26.65700
N  17.50800 -1.03400 26.17100
C  18.23400 -1.70000 25.31700
C  18.13400 -1.12200 23.96100
C  16.89000 -0.15900 23.98600
C  16.69400 -0.08200 25.55600
C  19.33600 -0.46800 23.33100
C  15.58200 -0.71100 23.29300
C  14.94800 0.21000 22.27700
N  16.16200 0.26400 28.34700
C  15.40100 0.94500 27.39500
C  14.44000 1.87700 28.01300
C  14.69800 1.64300 29.39800
C  15.80300 0.76200 29.52800
C  13.60600 2.91600 27.38500
C  14.30800 2.10000 30.70400
O  13.39300 2.87500 30.95200
C  15.36900 1.51000 31.66600
C  16.15300 2.54100 32.34200
O  17.37400 2.69400 32.29300
O  15.34000 3.15200 33.28800
C  15.98300 3.99100 34.27400
H  19.97600 -3.64200 31.23800
H  19.57800 -3.35900 24.92000
H  15.17900 1.43000 25.39600
H  17.74600 0.18900 33.28500
H  18.54400 -2.55100 33.24700
H  20.66400 -1.59000 33.63400
H  20.08300 0.05500 33.28300
H  20.74100 -0.79700 32.05700
H  16.24400 -2.41900 33.49400
H  15.42700 -1.07500 32.88500
H  15.44200 -1.35800 35.62000
H  15.24800 0.13900 34.68300
H  20.88800 -6.46800 29.19100
H  20.58300 -5.43900 30.56700
H  22.08200 -5.07500 29.72800
H  22.13400 -7.13700 25.87700
H  21.70100 -7.01800 27.48400
H  22.99300 -5.91800 26.81400
H  17.92100 -2.04300 23.41900
H  17.10900 0.80300 23.52100
H  19.44600 0.53100 23.75200
H  19.31600 -0.39100 22.24400
H  20.20000 -1.04500 23.65900
H  14.87800 -1.04800 24.05300
H  15.74800 -1.65500 22.77300
H  14.93300 -0.26100 21.29400
H  15.42500 1.18900 22.30100
H  13.90900 0.38200 22.55800
H  12.57400 2.64200 27.60600
H  13.72300 3.15000 26.32700
H  13.67300 3.87400 27.90000
H  14.75200 1.11100 32.47200
H  16.27900 4.93400 33.81500
H  16.84500 3.52500 34.75200
H  15.20000 4.25100 34.98700
Mg -12.47700 38.32900 42.56300
C  -9.83600 36.05200 41.92900
C  -10.68300 40.69800 40.85700
C  -15.19200 39.99100 42.45000
C  -14.27700 35.40600 43.66000
N  -10.53900 38.35300 41.46100
C  -9.66700 37.28300 41.31800
C  -8.49800 37.78800 40.42000
C  -8.55100 39.38300 40.49800
C  -9.99800 39.51800 40.95700
C  -7.49100 40.12400 41.36400
C  -8.63000 37.19100 39.02600
C  -7.54900 36.11600 38.73500
H  -6.58900 36.39300 37.64100
N  -12.88900 40.14700 41.89900
C  -11.96000 41.04400 41.29400
C  -12.60400 42.27400 41.06000
C  -13.99100 42.07000 41.47900
C  -14.07400 40.65700 41.97300
C  -11.94900 43.40800 40.41300
C  -15.05400 43.18200 41.50200
O  -14.78200 44.24200 40.91300
C  -16.37300 43.06600 42.20300
N  -14.51700 37.67400 42.70100
C  -15.46300 38.62100 42.80000
C  -16.77900 38.07900 43.30200
C  -16.47300 36.58700 43.53000
C  -15.01300 36.51700 43.26400
C  -17.24200 38.80900 44.63300
C  -17.32300 35.59600 42.68000
C  -17.60400 34.23200 43.37400
N  -12.07100 36.17100 42.95500
C  -12.90900 35.18900 43.41000
C  -12.11200 33.97300 43.60500
C  -10.85200 34.25400 43.07000
C  -10.97300 35.62000 42.61400
C  -12.41600 32.69000 44.22300
C  -9.44000 33.78900 42.82700
O  -8.95600 32.70600 43.13100
C  -8.79500 34.90600 41.97900
C  -7.38700 35.11500 42.45800
O  -6.35900 34.46800 42.17100
O  -7.40700 36.27000 43.14800
C  -6.21800 36.95000 43.54900
H  -10.04700 41.47200 40.42300
H  -16.15700 40.49400 42.53900
H  -14.88700 34.56600 43.99600
H  -7.54000 37.49800 40.85200
H  -8.31700 39.84900 39.54100
H  -7.96100 40.72800 42.14100
H  -6.75300 40.72900 40.83800
H  -6.95300 39.38800 41.96100
H  -8.43300 37.96100 38.27900
H  -9.61900 36.74700 38.90700
H  -8.06800 35.29500 38.24000
H  -7.07500 35.76500 39.65200
H  -12.45800 43.77800 39.52200
H  -10.94200 43.17400 40.06900
H  -11.84300 44.23500 41.11400
H  -16.17300 42.72100 43.21700
H  -17.00900 42.38000 41.64300
H  -16.91700 44.00600 42.29400
H  -17.56800 38.17700 42.55700
H  -16.58300 36.31900 44.58100
H  -17.87900 38.25300 45.32200
H  -17.83100 39.67200 44.32400
H  -16.30800 39.10200 45.11300
H  -16.68800 35.50800 41.79900
H  -18.26800 36.07200 42.41900
H  -18.67200 34.01900 43.40800
H  -17.08500 34.21000 44.33300
H  -17.18700 33.35900 42.87200
H  -13.27700 32.89200 44.86100
H  -11.60400 32.28000 44.82200
H  -12.63900 31.95300 43.45100
H  -8.67200 34.54500 40.95800
H  -6.54900 37.87400 44.02200
H  -5.59200 37.13200 42.67500
H  -5.70600 36.34900 44.30100

