158

Mg 45.71300 4.96800 47.11500
C  43.64100 7.72300 46.66300
C  43.07800 2.90100 46.35200
C  47.98600 2.35000 46.95500
C  48.45800 7.16800 47.34000
N  43.75600 5.30600 46.33700
C  43.09100 6.51800 46.29900
C  41.58800 6.28600 45.80900
C  41.32900 4.79300 46.06600
C  42.81700 4.25400 46.34000
C  40.34400 4.55500 47.20300
C  41.33400 6.74900 44.34200
C  39.84200 7.21200 43.96900
H  39.53800 7.72900 42.57100
N  45.48200 2.90000 46.77500
C  44.31800 2.19700 46.59100
C  44.55500 0.78300 46.38700
C  45.98700 0.59000 46.48200
C  46.62500 1.97000 46.72100
C  43.53400 -0.27000 45.98600
C  46.70800 -0.66700 46.17900
O  46.20700 -1.75100 46.21700
C  48.15200 -0.69300 45.73300
N  47.94000 4.76400 47.24100
C  48.55900 3.56500 47.24200
C  50.07000 3.70100 47.32600
C  50.17600 5.32000 47.33400
C  48.77600 5.79600 47.35400
C  50.65000 2.94800 48.51600
C  50.87500 5.94300 46.10800
C  52.18900 6.73200 46.35200
N  46.01400 7.00700 47.11200
C  47.13200 7.74600 47.31100
C  46.84400 9.15000 47.29100
C  45.40800 9.18800 47.11600
C  45.02600 7.85900 46.97100
C  47.78200 10.32900 47.42000
C  44.24200 10.04900 46.93600
O  44.16100 11.23300 47.10100
C  43.08600 9.19300 46.55000
C  41.99600 9.29800 47.59800
O  41.94400 8.66200 48.66400
O  41.01200 10.18700 47.13700
C  39.90500 10.59900 48.04700
H  42.14400 2.37500 46.14600
H  48.66300 1.50200 46.83700
H  49.20900 7.95100 47.21400
H  41.06200 6.94800 46.49600
H  40.82000 4.25400 45.26800
H  39.62600 5.37600 47.20900
H  40.75500 4.44600 48.20600
H  39.75100 3.69500 46.89100
H  41.63500 5.90700 43.71800
H  41.95900 7.63300 44.21700
H  39.68500 8.10200 44.57800
H  39.10200 6.46100 44.24500
H  43.58600 -1.22500 46.50900
H  43.53300 -0.38400 44.90200
H  42.55500 0.17000 46.17700
H  48.34800 -1.61300 45.18200
H  48.60500 -0.59600 46.72000
H  48.50100 0.17300 45.17100
H  50.62300 3.27700 46.48700
H  50.62700 5.53700 48.30300
H  49.88800 2.51200 49.16100
H  51.41600 3.45000 49.10600
H  51.21100 2.10100 48.12000
H  50.22000 6.70500 45.68500
H  50.99600 5.20700 45.31400
H  52.31700 6.62000 47.42900
H  52.05200 7.80300 46.20200
H  53.02900 6.37700 45.75400
H  47.34100 11.26900 47.08700
H  48.66100 10.24800 46.78100
H  48.16500 10.25700 48.43800
H  42.60800 9.26000 45.57300
H  38.98000 10.11100 47.74100
H  39.72300 11.65900 47.87300
H  40.14300 10.38700 49.08900
Mg 16.63400 51.30400 26.41200
C  18.89900 49.94800 28.76500
C  14.53500 52.10400 28.99200
C  14.69800 52.43900 24.12500
C  19.05600 50.28800 23.99200
N  16.64600 50.95900 28.56900
C  17.78300 50.58100 29.32800
C  17.61500 50.96000 30.76700
C  16.05800 51.23400 30.83000
C  15.66700 51.48000 29.38100
C  15.23000 50.10700 31.37400
C  18.51800 52.08900 31.30600
C  18.84700 51.98900 32.82800
H  17.87100 51.31200 33.79800
N  14.75900 52.06200 26.54600
C  14.04200 52.36300 27.71600
C  12.80100 52.92200 27.32400
C  12.80200 53.07200 25.93700
C  14.10300 52.50700 25.46900
C  11.64400 53.18100 28.38100
C  11.75100 53.54900 24.91900
O  11.98800 53.59000 23.72400
C  10.38900 53.94900 25.38400
N  16.75900 51.15200 24.31200
C  15.81100 51.82300 23.59700
C  16.25900 51.95400 22.13300
C  17.74500 51.35600 22.11400
C  17.84700 50.83100 23.55400
C  15.28200 51.14100 21.15800
C  18.80700 52.42100 21.72200
C  19.53800 52.17800 20.48700
N  18.52300 50.28100 26.27900
C  19.41200 49.91300 25.27000
C  20.53600 49.22600 25.75500
C  20.41200 49.30600 27.09900
C  19.10700 49.84600 27.37300
C  21.75800 48.63700 25.00400
C  21.02700 48.85500 28.33400
O  22.03300 48.18000 28.60500
C  20.14300 49.39000 29.44400
C  19.84200 48.40500 30.55100
O  19.44500 47.25400 30.38100
O  20.45400 48.88300 31.67100
C  20.65400 47.82000 32.64400
H  13.93900 52.54000 29.79600
H  14.13400 53.07500 23.43900
H  19.84200 50.01800 23.28300
H  17.83300 49.98500 31.20300
H  15.86400 52.16700 31.35900
H  15.85200 49.28100 31.71900
H  14.63100 49.66600 30.57700
H  14.67900 50.44700 32.25100
H  17.99800 53.03800 31.17900
H  19.41100 52.02400 30.68500
H  19.14400 53.00300 33.09300
H  19.74900 51.37900 32.86500
H  11.33400 54.22600 28.35800
H  12.04400 52.87900 29.34900
H  10.71400 52.63600 28.22000
H  9.71000 54.01300 24.53300
H  10.51100 54.96000 25.77200
H  10.01300 53.20900 26.09100
H  16.09400 53.02600 22.03100
H  17.73100 50.50500 21.43300
H  15.01300 50.23200 21.69600
H  15.91300 50.90700 20.30100
H  14.42000 51.73600 20.85500
H  19.47300 52.80400 22.49500
H  18.23300 53.34300 21.61700
H  19.39700 52.97000 19.75100
H  19.22200 51.23500 20.04100
H  20.58700 52.07800 20.76400
H  21.70800 47.63100 24.58800
H  22.66700 48.68500 25.60400
H  21.85600 49.31400 24.15600
H  20.71900 50.19200 29.90600
H  21.18500 48.14000 33.54000
H  21.18300 46.98800 32.17800
H  19.71900 47.42500 33.04100

