158

Mg 54.11500 23.54700 43.98700
C  51.66300 26.04200 43.25700
C  52.30400 21.22900 42.44200
C  56.83100 21.65300 44.03000
C  56.24400 26.32300 45.03000
N  52.30500 23.72100 42.77000
C  51.38400 24.68100 42.82700
C  50.10700 24.18800 42.02200
C  50.25800 22.63600 42.15900
C  51.71600 22.55600 42.47700
C  49.36100 21.93400 43.27200
C  50.04500 24.76000 40.58900
C  51.40500 24.90700 39.84200
H  51.18800 25.59500 38.41100
N  54.48400 21.67600 43.41800
C  53.64300 20.86400 42.76500
C  54.24000 19.57700 42.59500
C  55.49200 19.67200 43.19200
C  55.62200 21.07700 43.56900
C  53.58300 18.35200 41.95000
C  56.46600 18.45700 43.36800
O  56.16400 17.25900 43.13100
C  57.85500 18.67900 43.81000
N  56.24200 24.03000 44.54600
C  57.13000 22.93100 44.52300
C  58.50500 23.35800 44.92400
C  58.35500 24.87800 45.22000
C  56.88600 25.13100 44.84400
C  59.13900 22.41200 46.08600
C  59.46600 25.78700 44.55900
C  60.19200 26.67600 45.51300
N  54.07300 25.74500 44.14900
C  54.92000 26.63900 44.74900
C  54.21100 28.00200 44.90100
C  52.87200 27.72100 44.37400
C  52.88000 26.40400 43.86400
C  54.64700 29.19100 45.62200
C  51.58800 28.27700 44.12800
O  51.16700 29.39000 44.35800
C  50.68500 27.15900 43.45400
C  50.17500 27.79700 42.22300
O  50.87900 28.00500 41.25800
O  48.82600 28.02500 42.29400
C  48.10700 28.21100 40.98600
H  51.68200 20.35000 42.26300
H  57.79000 21.13000 44.01800
H  56.84000 27.14500 45.43100
H  49.12000 24.52900 42.33500
H  50.00200 22.12700 41.23000
H  48.54000 22.62700 43.45300
H  49.93900 21.87600 44.19500
H  49.04600 20.97300 42.86500
H  49.53100 25.71800 40.50500
H  49.42600 24.08800 39.99500
H  51.71300 23.86300 39.78100
H  52.07500 25.48900 40.47500
H  52.98700 18.58000 41.06600
H  52.98700 17.73800 42.62600
H  54.36800 17.67700 41.60900
H  57.76500 19.29900 44.70200
H  58.36400 19.17000 42.98100
H  58.39200 17.74400 43.96700
H  59.16700 23.27600 44.06200
H  58.38300 24.92900 46.30900
H  59.32000 22.98100 46.99800
H  60.10900 22.00300 45.80300
H  58.47500 21.56300 46.24900
H  59.03500 26.42200 43.78500
H  60.26500 25.16400 44.15700
H  60.16900 27.69500 45.12700
H  61.24000 26.38300 45.44900
H  59.84700 26.54800 46.53900
H  53.97100 29.22500 46.47700
H  54.45800 30.03800 44.96400
H  55.71500 29.09200 45.81900
H  49.86600 26.86300 44.11000
H  48.15300 27.31500 40.36700
H  48.63700 28.94300 40.37500
H  47.08900 28.59700 41.03500
Mg 6.46700 53.80300 41.62700
C  5.83300 50.39500 41.60000
C  9.44600 53.04800 40.22100
C  6.88200 57.06200 41.01200
C  2.99000 54.35500 42.37100
N  7.35600 51.94500 40.59600
C  6.99400 50.69800 40.97300
C  8.06300 49.58800 40.45600
C  9.32600 50.54400 40.42400
C  8.67500 51.93600 40.31800
C  10.40100 50.27900 41.56700
C  7.80200 48.86300 39.00000
C  6.70100 49.54000 38.06700
H  7.30600 49.99400 36.75500
N  8.14600 54.92100 40.97000
C  9.25700 54.39100 40.35300
C  10.08600 55.46900 39.97900
C  9.42900 56.67700 40.25800
C  8.04600 56.26900 40.70300
C  11.48100 55.32300 39.29600
C  9.99500 58.05600 40.01200
O  11.16000 58.29400 39.72800
C  9.09600 59.13900 40.10900
N  5.05100 55.39400 41.51500
C  5.59800 56.66000 41.44600
C  4.54600 57.68400 41.79500
C  3.19500 56.85000 41.88200
C  3.78000 55.43300 41.98900
C  4.86400 58.64100 42.89800
C  2.30700 56.96900 40.64200
C  0.99700 57.74500 40.83100
N  4.72600 52.63600 41.95200
C  3.40100 52.99600 42.33700
C  2.73000 51.78200 42.86100
C  3.69700 50.73900 42.53500
C  4.81400 51.29300 41.95200
C  1.46700 51.63600 43.56900
C  3.69100 49.34700 42.49800
O  2.87900 48.50400 42.86700
C  5.08700 49.06600 41.83300
C  4.79100 48.28500 40.65500
O  3.90500 48.50300 39.82200
O  5.54300 47.10500 40.68900
C  5.24400 46.19700 39.57400
H  10.49400 52.83600 39.99800
H  7.03300 58.14200 40.96600
H  2.02000 54.67600 42.75800
H  8.26000 48.86600 41.24900
H  9.94000 50.23800 39.57700
H  10.79100 51.18300 42.03400
H  11.34400 49.92000 41.15500
H  9.98900 49.60900 42.32100
H  7.49200 47.83500 39.18600
H  8.75300 48.89000 38.46700
H  6.28900 50.40700 38.58300
H  5.87600 48.85100 37.88400
H  11.52000 54.24800 39.12200
H  12.28300 55.64800 39.95900
H  11.57800 55.83200 38.33800
H  8.17300 58.88200 39.58900
H  9.57700 60.03300 39.71400
H  9.00500 59.33300 41.17800
H  4.40900 58.27000 40.88600
H  2.69400 57.17200 42.79500
H  5.94700 58.55700 42.97800
H  4.46000 58.28400 43.84600
H  4.40800 59.58200 42.59200
H  1.96400 55.99900 40.28200
H  2.78700 57.37300 39.75100
H  0.96200 58.56700 40.11500
H  0.94000 58.09700 41.86100
H  0.14400 57.11900 40.57100
H  1.45100 51.04400 44.48500
H  0.77200 51.10100 42.92200
H  1.28300 52.68000 43.81900
H  5.56200 48.34700 42.50000
H  4.34800 45.57700 39.59600
H  6.13000 45.57800 39.43400
H  5.22000 46.83500 38.69100

