158

Mg 8.51600 3.76900 27.97000
C  9.53900 2.10100 30.87400
C  6.58100 5.83000 29.88000
C  7.04500 4.84200 25.19200
C  9.87100 1.04100 26.13500
N  8.03800 3.87700 30.11700
C  8.66600 3.12600 31.17200
C  8.32800 3.64500 32.56500
C  7.20500 4.67600 32.15400
C  7.18000 4.78500 30.62900
C  5.85000 4.26100 32.79200
C  9.56700 4.29300 33.38700
C  9.81500 3.61000 34.72700
H  9.94600 4.55800 35.92100
N  7.17700 5.28000 27.62000
C  6.53500 6.06900 28.52100
C  5.70700 7.03300 27.82100
C  5.87500 6.75800 26.42000
C  6.76300 5.56600 26.35300
C  4.95400 8.14200 28.54700
C  5.15200 7.44800 25.33100
O  5.29900 7.13500 24.15100
C  4.30900 8.57400 25.56800
N  8.40200 3.00000 26.01900
C  7.77200 3.71300 25.01900
C  8.06100 3.12100 23.65200
C  8.95400 1.91300 23.99400
C  9.05200 1.95300 25.50100
C  6.71000 2.90800 22.82200
C  10.36700 2.11900 23.27700
C  10.84900 0.80300 22.68100
N  9.64400 2.04900 28.31400
C  10.22500 1.06500 27.45800
C  11.13400 0.23500 28.20900
C  10.86700 0.60300 29.53600
C  9.94500 1.65200 29.58200
C  11.89400 -0.90500 27.69100
C  11.18600 0.27900 30.91500
O  11.96100 -0.54800 31.36400
C  10.32700 1.22700 31.79500
C  9.56300 0.35600 32.66900
O  8.54100 -0.22600 32.42700
O  10.11300 0.39500 33.99100
C  9.41300 -0.19300 35.15900
H  5.98400 6.45500 30.54800
H  6.70400 5.35700 24.29200
H  10.25300 0.27700 25.45400
H  7.86100 2.80700 33.08200
H  7.43900 5.67500 32.52300
H  6.15400 3.99000 33.80300
H  5.39000 3.38800 32.32900
H  5.12100 5.07100 32.79600
H  9.53300 5.38100 33.44900
H  10.38500 4.13200 32.68500
H  10.76700 3.07800 34.73300
H  9.00500 2.93200 34.99300
H  5.26800 8.19400 29.59000
H  3.88700 7.92900 28.48500
H  5.02100 9.11300 28.05600
H  3.98700 8.91100 24.58300
H  4.81400 9.40800 26.05600
H  3.44000 8.29300 26.16300
H  8.56200 3.89500 23.07000
H  8.53600 0.92700 23.79100
H  6.68400 3.65800 22.03100
H  5.85600 2.96600 23.49700
H  6.66900 1.88800 22.43900
H  11.12100 2.28200 24.04700
H  10.30600 2.84100 22.46200
H  11.92700 0.83500 22.52400
H  10.48000 0.72100 21.65800
H  10.50400 -0.07300 23.23000
H  11.89600 -1.10500 26.61900
H  11.50300 -1.85100 28.06600
H  12.93000 -0.79100 28.01000
H  11.14700 1.59000 32.41400
H  8.71700 -1.00600 34.95000
H  8.90300 0.68400 35.55800
H  10.06700 -0.47000 35.98500
Mg 16.93300 51.92700 26.49600
C  19.04800 50.49700 28.96800
C  14.73200 52.80300 28.76300
C  15.02900 52.85300 23.96100
C  19.35400 50.67900 24.09200
N  16.89000 51.61200 28.63300
C  17.87000 51.05700 29.47000
C  17.41700 51.18800 30.90100
C  15.93700 51.71600 30.77400
C  15.82000 52.04300 29.28400
C  14.98600 50.56400 31.16600
C  18.37600 52.14300 31.69400
C  18.53400 51.80100 33.24100
H  17.70000 52.48600 34.28000
N  15.05000 52.64500 26.43200
C  14.28000 53.02100 27.45600
C  13.15000 53.81000 26.94200
C  13.09600 53.53600 25.51000
C  14.48600 52.97700 25.25500
C  12.24400 54.45600 27.99100
C  12.07400 53.77100 24.35900
O  12.17500 53.31000 23.21800
C  10.80300 54.43900 24.62200
N  17.22800 51.85100 24.30100
C  16.18500 52.24000 23.52300
C  16.53300 52.03700 22.09100
C  18.13600 51.75200 22.12000
C  18.29200 51.47300 23.58100
C  15.65600 51.05700 21.30400
C  19.15300 52.91700 21.79200
C  20.36600 52.55400 20.89400
N  18.85700 50.85300 26.48700
C  19.69700 50.40700 25.48600
C  20.85500 49.81500 25.96300
C  20.70800 49.83200 27.31700
C  19.42000 50.49400 27.66000
C  21.92200 49.23300 25.10600
C  21.27900 49.44000 28.60000
O  22.37900 48.97700 28.86800
C  20.26700 49.96600 29.75000
C  20.12400 48.92300 30.77100
O  19.21900 48.04400 30.77400
O  21.03700 49.03900 31.78000
C  20.78400 48.30100 33.05100
H  14.07400 53.07000 29.59300
H  14.46300 53.23600 23.10900
H  20.10100 50.24000 23.42700
H  17.58200 50.17500 31.27000
H  15.71800 52.52500 31.47100
H  15.23200 49.64100 30.64100
H  13.95400 50.74900 30.86700
H  15.08700 50.37800 32.23500
H  17.93800 53.14000 31.74300
H  19.39200 52.13300 31.29900
H  19.54800 51.92200 33.62400
H  18.36900 50.72600 33.31900
H  12.97900 54.90300 28.66000
H  11.67300 53.73600 28.57700
H  11.64000 55.21400 27.49200
H  10.79400 55.50100 24.86600
H  10.32400 53.99700 25.49500
H  10.06100 54.45400 23.82300
H  16.47200 52.96400 21.52100
H  18.28600 50.85800 21.51500
H  14.58100 51.22200 21.37800
H  15.97000 50.07400 21.65400
H  15.97400 51.17200 20.26800
H  19.55400 53.30700 22.72800
H  18.52100 53.69100 21.35700
H  20.21800 53.32600 20.13800
H  20.29500 51.52600 20.53700
H  21.29800 52.72400 21.43300
H  22.42000 49.97600 24.48300
H  21.52300 48.48700 24.41700
H  22.55700 48.75500 25.85100
H  20.64700 50.78800 30.35700
H  21.69600 48.15700 33.63000
H  20.35700 47.31100 32.88600
H  20.14300 48.78900 33.78500

