158

Mg 35.79700 1.34100 29.50800
C  33.44700 2.62900 31.81700
C  38.24100 1.74600 32.01600
C  38.04400 0.57000 27.19000
C  33.33700 1.78900 27.07800
N  35.81000 2.32800 31.63500
C  34.68300 2.51700 32.39400
C  35.04100 2.52000 33.86300
C  36.66800 2.46100 33.89900
C  36.98200 2.14900 32.43200
C  37.50900 3.74400 34.27800
C  34.31900 1.35700 34.61200
C  33.92900 1.53700 36.13500
H  34.66300 2.70400 36.82200
N  37.83000 1.10900 29.60000
C  38.62300 1.20100 30.67400
C  39.93400 0.73200 30.26500
C  39.95000 0.49800 28.86600
C  38.56000 0.73800 28.50200
C  41.09500 0.73000 31.26700
C  41.07600 0.09900 27.92200
O  40.90500 0.12900 26.68800
C  42.48500 -0.29600 28.44300
N  35.71200 1.32200 27.46300
C  36.73400 0.92600 26.73600
C  36.42900 0.74400 25.22600
C  34.88800 1.17700 25.20700
C  34.57400 1.45400 26.68700
C  37.26400 1.70800 24.41500
C  33.99200 0.12000 24.56000
C  33.55500 -1.13300 25.32000
N  33.78500 1.95100 29.41300
C  32.91400 2.01400 28.38000
C  31.63100 2.54200 28.81800
C  31.80400 2.69900 30.19400
C  33.11300 2.39700 30.46000
C  30.56500 3.00800 27.94800
C  31.09100 3.13000 31.38400
O  29.94300 3.53100 31.58800
C  32.15200 3.06500 32.47400
C  32.30400 4.39200 33.15600
O  32.93400 5.30600 32.69500
O  31.69400 4.45300 34.36300
C  32.06800 5.58400 35.14600
H  38.92300 1.74800 32.86900
H  38.74200 0.22600 26.42300
H  32.56800 1.82300 26.30300
H  34.58900 3.45700 34.18800
H  36.99400 1.58200 34.45500
H  38.22000 3.52200 35.07300
H  36.70000 4.38000 34.63600
H  37.99100 4.22000 33.42400
H  34.80700 0.39600 34.77300
H  33.36900 1.18300 34.10800
H  34.05200 0.67000 36.78500
H  32.84800 1.52400 36.27300
H  41.91900 1.34200 30.89900
H  41.37100 -0.32300 31.20400
H  40.92000 0.97500 32.31400
H  42.34200 -1.07200 29.19500
H  43.01500 0.59000 28.79400
H  43.07000 -0.61700 27.58200
H  36.63000 -0.28400 24.92600
H  34.79300 2.14400 24.71200
H  38.20800 1.18300 24.27200
H  37.47200 2.64600 24.92900
H  36.72300 1.94300 23.49800
H  34.46200 -0.29000 23.66600
H  33.09300 0.64800 24.24200
H  32.53200 -0.94200 25.64400
H  34.23600 -1.30900 26.15200
H  33.59500 -2.01400 24.67900
H  31.11400 3.59200 27.20900
H  29.83000 3.67100 28.40300
H  30.15700 2.10600 27.49300
H  31.77700 2.41200 33.26200
H  31.31300 6.36300 35.03900
H  33.05700 6.01000 34.98000
H  32.05000 5.27000 36.19000
Mg 30.05100 59.18700 41.24200
C  26.90800 57.99900 40.18300
C  31.58600 56.54900 39.57100
C  32.95600 60.94500 41.28100
C  28.34000 62.12700 42.30600
N  29.27800 57.58200 40.02000
C  27.99100 57.19300 39.73000
C  27.91600 55.89200 38.93500
C  29.38100 55.27100 39.09800
C  30.19800 56.56300 39.58800
C  29.47500 54.04700 40.07500
C  27.43900 56.14300 37.47400
C  26.73100 54.94300 36.76700
H  26.69200 54.82800 35.22500
N  32.00600 58.73300 40.73800
C  32.43300 57.58800 40.05600
C  33.89300 57.65600 39.83800
C  34.36400 58.90100 40.34800
C  33.11700 59.60900 40.87800
C  34.69800 56.56900 39.14100
C  35.79000 59.43400 40.29900
O  36.66600 58.79900 39.70600
C  36.18300 60.78100 40.90700
N  30.59200 61.27900 41.59500
C  31.87600 61.78400 41.48400
C  31.94300 63.25200 42.05800
C  30.48300 63.39000 42.69200
C  29.72000 62.25200 42.15500
C  33.05000 63.29100 43.13100
C  29.79000 64.74500 42.28300
C  28.78700 65.34800 43.25500
N  28.03000 60.01400 41.25700
C  27.53400 61.10100 41.79200
C  26.13100 61.16700 41.66000
C  25.74500 59.89800 41.03600
C  27.01000 59.19400 40.87600
C  25.12000 62.24900 42.09400
C  24.75000 58.97200 40.54100
O  23.49200 59.14500 40.44600
C  25.43600 57.66900 40.04000
C  25.11800 56.47400 40.81100
O  25.26400 56.34600 42.02300
O  24.56200 55.50100 39.96400
C  24.14900 54.25300 40.66500
H  32.02500 55.64800 39.13900
H  33.84300 61.58100 41.26200
H  27.79200 62.93400 42.79700
H  27.18000 55.23100 39.39400
H  29.77300 54.94800 38.13300
H  29.81700 54.38400 41.05400
H  30.11000 53.23400 39.72300
H  28.53000 53.52900 40.23900
H  28.29700 56.35700 36.83700
H  26.71700 56.95600 37.39900
H  25.70000 54.78300 37.08400
H  27.24100 54.00300 36.98000
H  35.15800 56.95000 38.23000
H  34.03400 55.76800 38.81400
H  35.39000 56.18600 39.89100
H  35.79600 61.63800 40.35700
H  37.26800 60.83800 41.00000
H  35.87100 60.77400 41.95200
H  32.11400 63.83000 41.15000
H  30.54900 63.32300 43.77800
H  32.65700 63.61400 44.09600
H  33.75900 64.06600 42.84200
H  33.48600 62.31300 43.33500
H  29.23300 64.48300 41.38300
H  30.49600 65.46700 41.87200
H  29.17400 66.35900 43.37800
H  28.76200 64.82100 44.20900
H  27.84400 65.30800 42.70900
H  25.05700 62.17500 43.18000
H  24.14100 62.19000 41.61700
H  25.61700 63.19600 41.88400
H  25.04100 57.65500 39.02400
H  24.46800 54.10100 41.69600
H  24.69900 53.44200 40.18700
H  23.08200 54.05900 40.76900

