158

Mg -1.33900 18.18200 27.58800
C  -1.96500 15.88700 30.22400
C  -2.35400 20.62400 29.77600
C  -1.24700 20.31800 25.08400
C  -1.36000 15.48000 25.34400
N  -1.77100 18.20200 29.88000
C  -1.95400 17.20600 30.71500
C  -2.28800 17.69500 32.19200
C  -2.52300 19.19500 31.98000
C  -2.23000 19.37900 30.44000
C  -3.97400 19.76600 32.25900
C  -1.13200 17.37300 33.17400
C  -1.59900 16.88900 34.49000
H  -0.69300 16.99400 35.66400
N  -1.50100 20.18400 27.50200
C  -1.96600 20.99800 28.50200
C  -2.07300 22.40600 28.01900
C  -1.69000 22.38000 26.58300
C  -1.41800 20.91300 26.34300
C  -2.64400 23.41300 28.89800
C  -1.60700 23.47400 25.64800
O  -1.31900 23.40900 24.46100
C  -1.72700 24.87800 26.24200
N  -1.41000 17.92000 25.45000
C  -1.18600 19.00400 24.59900
C  -1.05400 18.51400 23.15300
C  -0.75600 16.95200 23.39900
C  -1.20400 16.76800 24.85900
C  -2.24100 18.80100 22.20800
C  0.68700 16.41400 23.25600
C  1.64900 16.99700 24.29100
N  -1.63400 16.10400 27.69800
C  -1.56300 15.15800 26.67200
C  -1.93200 13.89000 27.31800
C  -2.04100 14.09900 28.66500
C  -1.83000 15.45900 28.88900
C  -1.84000 12.58300 26.64200
C  -2.19500 13.36500 29.89700
O  -2.24200 12.16300 30.10900
C  -2.10900 14.54900 30.95100
C  -0.96800 14.25800 31.83000
O  0.22700 14.28400 31.49200
O  -1.48200 13.92400 33.14100
C  -0.44700 13.33000 34.02600
H  -2.89300 21.31200 30.43100
H  -1.09500 20.97300 24.22400
H  -1.37500 14.62600 24.66400
H  -3.19600 17.16500 32.47900
H  -1.85300 19.90000 32.47200
H  -4.62200 19.68600 31.38600
H  -4.04300 20.84600 32.38800
H  -4.52100 19.38300 33.12100
H  -0.66800 18.29800 33.51900
H  -0.30300 16.79800 32.76000
H  -1.89000 15.84200 34.40300
H  -2.42400 17.56100 34.72600
H  -2.46000 23.27600 29.96400
H  -3.72900 23.31200 28.92600
H  -2.31300 24.41800 28.63700
H  -2.75400 25.11600 26.51700
H  -1.26900 25.55800 25.52300
H  -1.08200 24.95900 27.11600
H  -0.13900 18.81100 22.64100
H  -1.28700 16.23300 22.77600
H  -3.13100 18.21300 22.43500
H  -1.96700 18.64800 21.16400
H  -2.55700 19.83200 22.36800
H  1.04900 16.68600 22.26500
H  0.59600 15.33100 23.33000
H  1.37400 16.85400 25.33600
H  1.70100 18.08200 24.19200
H  2.65300 16.63600 24.07100
H  -0.89700 12.12100 26.93400
H  -1.96500 12.60300 25.56000
H  -2.67600 11.94300 26.92400
H  -3.04800 14.55900 31.50400
H  0.32000 12.75500 33.50700
H  -0.94000 12.78700 34.83200
H  0.20700 14.05400 34.51200
Mg 9.07500 48.16100 25.05000
C  6.75300 49.02300 27.39900
C  11.61600 49.53000 26.87100
C  11.17300 47.45600 22.49000
C  6.37200 47.79400 22.64000
N  9.17700 49.08300 26.95400
C  8.09700 49.21900 27.83900
C  8.62200 49.63300 29.17100
C  10.06200 50.24100 28.81200
C  10.32200 49.61700 27.43600
C  10.10900 51.72200 28.70200
C  8.83300 48.36800 30.19000
C  9.29200 48.65500 31.66900
H  8.77000 47.81000 32.82600
N  11.13800 48.31700 24.80200
C  12.02900 48.82200 25.76100
C  13.35600 48.70700 25.24100
C  13.22000 48.02600 24.01800
C  11.78000 47.89600 23.71900
C  14.54900 49.18100 26.05700
C  14.32600 47.74500 22.98000
O  14.11000 47.23500 21.88200
C  15.69200 48.14100 23.26000
N  8.70800 47.88700 22.86100
C  9.81700 47.48400 22.12900
C  9.41600 47.05000 20.67600
C  7.86000 47.36700 20.69600
C  7.58000 47.58400 22.14200
C  10.09800 47.73900 19.49300
C  7.00900 46.29800 19.91100
C  6.32800 46.80500 18.69000
N  6.98300 48.15800 25.05500
C  6.06400 47.97900 24.04800
C  4.70600 47.99500 24.59900
C  4.90200 48.41800 25.91600
C  6.29400 48.57100 26.14200
C  3.43000 47.85700 23.86300
C  4.29300 48.83100 27.15600
O  3.09000 48.92400 27.41600
C  5.47000 49.34700 28.11900
C  5.29500 48.72100 29.43100
O  4.97500 47.56800 29.63300
O  5.39300 49.66600 30.42200
C  5.12200 49.37700 31.79600
H  12.44900 49.95800 27.43300
H  11.81500 47.13100 21.66800
H  5.47600 47.75700 22.01700
H  7.91200 50.33100 29.61500
H  10.81500 49.96900 29.55200
H  10.67300 52.18400 29.51200
H  9.10200 52.13900 28.66400
H  10.65300 51.86300 27.76800
H  9.56900 47.69200 29.75600
H  7.91500 47.78100 30.18400
H  9.05100 49.69500 31.88500
H  10.37700 48.58400 31.74800
H  14.96400 50.06900 25.58000
H  15.33500 48.42600 26.08800
H  14.28900 49.43000 27.08600
H  15.90900 47.37700 24.00700
H  15.62800 49.15400 23.65700
H  16.33200 48.03200 22.38500
H  9.78800 46.02500 20.66900
H  7.66000 48.37200 20.32300
H  10.23300 48.80400 19.68100
H  9.55800 47.61300 18.55500
H  11.07400 47.35300 19.19700
H  6.26100 46.05500 20.66600
H  7.57800 45.37200 19.83100
H  5.25000 46.70600 18.81300
H  6.70900 46.27400 17.81800
H  6.55400 47.86300 18.56100
H  2.68400 47.38100 24.49900
H  3.44600 47.37500 22.88500
H  3.03600 48.87200 23.81100
H  5.23100 50.40400 28.23600
H  6.03900 49.57500 32.35200
H  4.79900 48.35200 31.97800
H  4.32000 50.06200 32.07000

