158

Mg 6.85000 57.41200 41.86200
C  5.77900 54.08000 41.92900
C  9.83000 56.30600 40.51700
C  7.75400 60.66200 41.71000
C  3.66000 58.39200 43.02400
N  7.51600 55.35500 40.87900
C  7.02400 54.13000 41.24200
C  7.86600 53.02100 40.63700
C  9.25000 53.80500 40.63900
C  8.82800 55.26000 40.63400
C  10.11100 53.55400 41.86900
C  7.44900 52.60600 39.26900
C  7.47000 51.10900 38.86600
H  6.52200 50.56600 37.77300
N  8.53300 58.35800 41.13700
C  9.69300 57.76300 40.68500
C  10.65400 58.77200 40.41900
C  10.12500 60.03700 40.87100
C  8.74400 59.78100 41.19600
C  12.06900 58.49500 39.90400
C  10.79400 61.41700 40.71500
O  11.97800 61.48100 40.35200
C  10.09400 62.71100 40.95100
N  5.72300 59.26700 41.99800
C  6.42900 60.41900 42.13200
C  5.50000 61.54100 42.56400
C  4.17000 60.85600 42.98100
C  4.54700 59.41000 42.62800
C  6.13700 62.44200 43.67100
C  2.98600 61.37200 42.11500
C  1.65400 61.39900 42.95300
N  5.07900 56.46300 42.36700
C  3.90900 56.98300 42.92500
C  2.99100 55.92700 43.24600
C  3.77900 54.73300 43.05200
C  4.96400 55.13200 42.35900
C  1.59700 56.07800 43.72600
C  3.75800 53.33200 43.22100
O  2.86100 52.60500 43.68500
C  5.13900 52.84600 42.61400
C  4.88000 51.72700 41.71100
O  4.23700 51.78700 40.68300
O  5.19300 50.49700 42.14600
C  4.61200 49.29100 41.58600
H  10.85000 55.98400 40.29800
H  8.06500 61.70900 41.72000
H  2.71700 58.56400 43.54800
H  7.80900 52.15200 41.29300
H  9.88700 53.57900 39.78300
H  9.63600 52.95600 42.64600
H  10.28500 54.47400 42.42800
H  11.10000 53.11700 41.72800
H  7.92400 53.15200 38.45300
H  6.40200 52.87600 39.13700
H  7.21600 50.59400 39.79300
H  8.49000 50.86300 38.57100
H  12.27600 57.42900 39.99900
H  12.81300 58.92700 40.57400
H  12.26500 58.82000 38.88100
H  10.01900 62.94500 42.01300
H  9.16800 62.75600 40.37700
H  10.70900 63.54700 40.61600
H  5.27700 62.18000 41.71000
H  4.00400 60.97500 44.05200
H  6.91900 61.98100 44.27400
H  5.39600 63.01700 44.22600
H  6.71600 63.21700 43.16900
H  2.87100 60.74900 41.22800
H  3.08400 62.38400 41.72400
H  1.70900 62.17500 43.71600
H  1.54100 60.50100 43.56000
H  0.66600 61.40600 42.49100
H  1.69600 55.75800 44.76300
H  0.93500 55.51800 43.06600
H  1.26100 57.11500 43.72600
H  5.67700 52.45500 43.47700
H  5.08100 48.41100 42.02600
H  4.91500 49.34700 40.54000
H  3.52600 49.23700 41.65100
Mg -4.88100 24.99300 25.92800
C  -3.16100 26.66300 28.52800
C  -5.64000 22.57000 28.24300
C  -6.28100 23.31300 23.42000
C  -3.15600 27.06500 23.66000
N  -4.14100 24.48500 28.19100
C  -3.74800 25.50300 29.04100
C  -4.16900 25.18000 30.52800
C  -4.77400 23.76600 30.34100
C  -4.87000 23.58800 28.88300
C  -3.85400 22.63800 30.99400
C  -4.95600 26.27900 31.18100
C  -4.57600 26.75300 32.63600
H  -4.17700 25.66500 33.61100
N  -5.77200 23.20000 25.82200
C  -6.00400 22.37600 26.89900
C  -6.83300 21.24000 26.49100
C  -7.02400 21.39700 25.04100
C  -6.34800 22.72300 24.67800
C  -7.19700 20.07800 27.41600
C  -7.78400 20.54700 24.08400
O  -7.76500 20.74200 22.90400
C  -8.51600 19.42300 24.62700
N  -4.76300 25.20200 23.89400
C  -5.55300 24.43200 23.03600
C  -5.28700 24.84600 21.59500
C  -4.35100 26.08200 21.74200
C  -4.12200 26.18800 23.23100
C  -4.60500 23.70900 20.74600
C  -4.96900 27.40800 21.18400
C  -4.01200 28.09500 20.13200
N  -3.45900 26.53400 26.04900
C  -2.84100 27.23700 25.03600
C  -2.02300 28.32800 25.60700
C  -2.10100 28.13800 26.95600
C  -2.98400 27.00400 27.18900
C  -1.32700 29.35900 24.78500
C  -1.69700 28.62300 28.29900
O  -0.97200 29.54800 28.60300
C  -2.51100 27.70200 29.34900
C  -1.57900 27.13300 30.27600
O  -0.81700 26.25700 30.03300
O  -1.58200 27.91300 31.35600
C  -0.60100 27.63100 32.32600
H  -6.10500 21.89400 28.96300
H  -6.79500 22.80500 22.60100
H  -2.73100 27.72700 22.90200
H  -3.24600 25.01300 31.08200
H  -5.76600 23.54600 30.73600
H  -4.36500 22.07000 31.77200
H  -2.87700 22.91400 31.39100
H  -3.60200 22.01100 30.13900
H  -6.00700 26.03200 31.03600
H  -4.88300 27.23000 30.65200
H  -5.33000 27.42200 33.05200
H  -3.74900 27.46000 32.57900
H  -7.59600 19.13300 27.04700
H  -7.94700 20.39300 28.14200
H  -6.27200 19.74300 27.88400
H  -8.89400 19.74600 25.59700
H  -7.78900 18.61300 24.56500
H  -9.35600 19.12400 24.00000
H  -6.22500 25.11300 21.11000
H  -3.35600 25.97000 21.31300
H  -4.14900 23.06300 21.49600
H  -3.90600 23.92300 19.93800
H  -5.49300 23.14000 20.46900
H  -5.15800 28.08000 22.02100
H  -5.97800 27.16600 20.85200
H  -4.62100 28.41100 19.28500
H  -3.23700 27.37600 19.86800
H  -3.67500 28.98900 20.65800
H  -1.95500 29.77800 23.99900
H  -0.47600 28.87800 24.30300
H  -1.01600 30.24500 25.33900
H  -3.17900 28.34200 29.92400
H  -0.71000 26.61000 32.69200
H  -0.71800 28.35300 33.13300
H  0.38100 27.76800 31.87400

