158

Mg 7.83400 2.97000 28.16400
C  9.62700 1.56200 30.95300
C  6.38100 5.09100 30.18300
C  6.47800 4.24300 25.42000
C  9.93600 0.90600 26.09600
N  7.80000 3.04700 30.40700
C  8.68400 2.51500 31.35000
C  8.47300 3.12400 32.68400
C  7.35200 4.11400 32.49100
C  7.07600 4.10100 30.93800
C  6.06700 3.84400 33.30200
C  9.76400 3.77000 33.40800
C  9.59700 4.91000 34.44400
H  10.36200 4.66800 35.75100
N  6.52400 4.40400 27.85800
C  6.09000 5.25400 28.79000
C  5.35000 6.40000 28.21000
C  5.32300 6.08300 26.77400
C  6.12600 4.85400 26.63500
C  4.60000 7.44100 29.02700
C  4.70900 6.87300 25.61200
O  4.87200 6.66900 24.42300
C  3.77600 7.96800 25.88200
N  8.19300 2.60400 26.07300
C  7.37100 3.14800 25.12900
C  7.78600 2.74700 23.66600
C  9.07700 1.85900 23.91800
C  9.00100 1.71700 25.43000
C  6.64100 2.07100 22.92200
C  10.34400 2.35300 23.24600
C  11.45000 3.01900 24.14400
N  9.35500 1.47000 28.37400
C  10.09300 0.83400 27.42100
C  11.11200 0.04700 28.05900
C  10.96200 0.24200 29.47500
C  9.90500 1.15500 29.59800
C  12.07800 -0.83700 27.32600
C  11.42900 -0.06700 30.79600
O  12.36700 -0.80000 31.10400
C  10.48300 0.70400 31.80200
C  9.68400 -0.11100 32.74800
O  8.82200 -0.94200 32.46200
O  10.14700 0.02800 34.00300
C  9.40900 -0.67300 35.05000
H  6.10000 5.86500 30.90100
H  6.15300 4.68700 24.47700
H  10.63400 0.38800 25.43500
H  8.31300 2.17900 33.20300
H  7.72000 5.11100 32.73400
H  5.37300 4.67600 33.42000
H  6.39000 3.34900 34.21800
H  5.38700 3.20900 32.73500
H  10.47200 4.10200 32.64900
H  10.31600 3.01600 33.97000
H  8.57700 5.18000 34.71700
H  10.06000 5.79500 34.00600
H  5.07200 8.41000 28.86100
H  4.82000 7.17700 30.06100
H  3.55300 7.63500 28.79300
H  3.05100 7.54000 26.57500
H  3.17500 8.25600 25.01900
H  4.34200 8.80600 26.28800
H  8.04000 3.65900 23.12400
H  8.87100 0.81900 23.66300
H  5.74300 2.00200 23.53600
H  6.95300 1.10200 22.53400
H  6.24000 2.61000 22.06300
H  10.16600 2.88900 22.31300
H  10.77400 1.39200 22.96500
H  11.07500 3.28000 25.13400
H  11.92800 3.86600 23.65300
H  12.21200 2.27200 24.36500
H  12.52100 -0.43000 26.41600
H  11.71100 -1.83800 27.10000
H  12.95400 -0.90100 27.97100
H  11.15500 1.40900 32.29200
H  8.46100 -1.16500 34.83400
H  9.21800 0.08900 35.80600
H  10.19400 -1.30000 35.47300
Mg 25.82800 1.03900 28.76600
C  27.73100 0.61700 31.79200
C  22.98100 1.22900 30.84000
C  24.04500 1.09300 26.08100
C  28.65800 0.18000 27.04500
N  25.43800 1.01100 31.14300
C  26.34100 0.93900 32.11600
C  25.72600 1.10100 33.47800
C  24.20500 1.15200 33.16600
C  24.16000 1.15400 31.66200
C  23.31200 -0.00300 33.66400
C  26.38100 2.29500 34.28300
C  27.13300 2.09700 35.67500
H  26.92100 3.12600 36.87400
N  23.78800 1.12700 28.48600
C  22.82300 1.20600 29.44800
C  21.48200 1.19300 28.81000
C  21.78800 1.15500 27.41700
C  23.20800 1.16400 27.28800
C  20.19300 0.93400 29.47600
C  20.85600 1.06500 26.19400
O  21.26100 1.14200 25.02200
C  19.35700 0.95000 26.41100
N  26.29100 0.55300 26.83800
C  25.40300 0.87500 25.86300
C  26.11200 1.01000 24.50400
C  27.52600 0.51800 24.81100
C  27.47800 0.38000 26.31700
C  25.44300 0.21000 23.34400
C  28.68900 1.31000 24.16500
C  29.24200 0.72300 22.83800
N  27.77200 0.47500 29.30000
C  28.82800 0.16200 28.40200
C  30.02200 0.01200 29.16100
C  29.66200 0.14400 30.50100
C  28.25900 0.40700 30.51800
C  31.43200 -0.27600 28.62200
C  30.13200 0.11300 31.85900
O  31.25600 -0.16900 32.23500
C  28.90100 0.35100 32.78400
C  28.58500 -0.80600 33.68200
O  27.79500 -1.68400 33.43700
O  29.28300 -0.57400 34.84600
C  28.74800 -1.41100 35.93700
H  22.12100 1.39900 31.49200
H  23.45400 1.36000 25.20200
H  29.63500 0.08200 26.56600
H  25.86400 0.15400 34.00100
H  23.83700 2.15000 33.40300
H  22.55500 0.50100 34.26500
H  23.89100 -0.73900 34.22300
H  22.77400 -0.58000 32.91200
H  25.66900 3.07300 34.55600
H  27.03300 2.83600 33.59700
H  28.19100 2.29100 35.50000
H  26.91300 1.09300 36.03900
H  19.70800 0.03000 29.10800
H  19.59800 1.84500 29.41200
H  20.36600 0.72700 30.53200
H  18.73600 1.28700 25.58100
H  19.09900 1.59900 27.24700
H  19.06400 -0.09700 26.48800
H  26.07000 2.07100 24.26000
H  27.73700 -0.45500 24.36700
H  25.25500 1.03700 22.66000
H  24.42200 -0.14700 23.48200
H  26.16300 -0.51100 22.95700
H  29.57300 1.38200 24.79900
H  28.27800 2.28200 23.89100
H  29.08700 1.49900 22.08900
H  28.75300 -0.18600 22.48800
H  30.30100 0.52500 23.00500
H  31.55200 0.20200 27.65000
H  31.58800 -1.35300 28.55100
H  32.13500 0.25100 29.26800
H  29.09700 1.26600 33.34200
H  28.91100 -2.44600 35.63300
H  27.69800 -1.22900 36.16500
H  29.42300 -1.40500 36.79300

