158

Mg 45.19200 4.17700 47.14500
C  43.04600 6.91100 47.01100
C  42.56800 2.02500 46.72700
C  47.41900 1.73800 46.37700
C  47.97300 6.47800 47.26800
N  43.07500 4.44300 46.88700
C  42.37500 5.63600 46.95200
C  40.83800 5.33400 46.87700
C  40.75800 3.82200 46.86800
C  42.21600 3.39900 46.84800
C  39.93900 3.08800 48.01500
C  40.12700 6.11100 45.67800
C  40.86800 6.21200 44.32500
H  40.04500 6.40100 43.06100
N  45.02700 2.11100 46.67100
C  43.84200 1.43300 46.54000
C  44.19700 0.08500 46.36800
C  45.56300 -0.01700 46.08800
C  46.08000 1.31400 46.38700
C  43.25800 -1.03000 46.32800
C  46.26200 -1.25800 45.61700
O  45.60600 -2.30900 45.61000
C  47.67800 -1.36400 45.07500
N  47.44500 4.14900 46.98000
C  48.04700 3.00800 46.65500
C  49.61400 3.26400 46.45700
C  49.71900 4.71500 46.77100
C  48.30200 5.15700 47.07200
C  50.53400 2.30900 47.19800
C  50.37400 5.60700 45.64600
C  51.74500 5.09600 45.16700
N  45.47500 6.27500 47.17300
C  46.62800 7.04800 47.25600
C  46.13800 8.44900 47.21300
C  44.79400 8.40700 47.25300
C  44.42200 7.04700 47.19500
C  46.95400 9.60200 47.07400
C  43.62200 9.20000 47.26300
O  43.49100 10.42600 47.55500
C  42.45300 8.27300 47.11500
C  41.57800 8.44300 48.29600
O  41.58300 7.78000 49.31500
O  40.62400 9.40200 48.11400
C  39.64600 9.72800 49.17400
H  41.68100 1.38800 46.72300
H  48.08200 0.92600 46.07300
H  48.81600 7.17000 47.20700
H  40.29400 5.65400 47.76600
H  40.44900 3.45700 45.88800
H  39.21000 3.80400 48.39300
H  40.59000 2.84400 48.85400
H  39.36500 2.23100 47.66100
H  39.94300 7.13600 46.00200
H  39.16500 5.60000 45.63900
H  41.46900 5.30800 44.22400
H  41.61800 7.00200 44.35300
H  42.28700 -0.60600 46.58500
H  43.63300 -1.87600 46.90400
H  43.10600 -1.42600 45.32400
H  47.88400 -2.39100 44.77400
H  48.30800 -1.14200 45.93600
H  47.83600 -0.62100 44.29300
H  49.69000 3.11800 45.37900
H  50.28900 4.85100 47.69000
H  49.97400 1.80600 47.98700
H  51.33600 2.90000 47.63900
H  50.78200 1.46100 46.56000
H  50.49300 6.65000 45.94000
H  49.62000 5.63600 44.85900
H  52.46500 5.91300 45.19000
H  51.72100 4.66700 44.16500
H  52.15400 4.39400 45.89400
H  47.14300 10.13200 48.00700
H  46.45900 10.38000 46.49300
H  47.95200 9.44200 46.66500
H  42.01500 8.55000 46.15600
H  38.69200 10.10300 48.80500
H  40.00400 10.54100 49.80600
H  39.43600 8.91500 49.86900
Mg 27.03300 49.90100 26.79500
C  24.96900 50.97500 29.49300
C  29.56400 49.42700 29.09700
C  29.11300 49.37200 24.25200
C  24.52800 51.17500 24.62200
N  27.22300 50.19300 28.99800
C  26.23700 50.48500 29.82800
C  26.72000 50.37400 31.25800
C  28.21100 49.95200 31.20100
C  28.38300 49.82700 29.64600
C  29.26800 50.81800 31.96200
C  25.77500 49.49800 32.17000
C  25.28500 50.05200 33.51600
H  26.20000 49.91200 34.77000
N  28.99600 49.29600 26.68600
C  29.81800 49.08100 27.74300
C  31.05300 48.51700 27.24700
C  30.99700 48.53500 25.81000
C  29.65500 49.08100 25.50800
C  32.07700 47.84600 28.21000
C  32.05600 48.16600 24.78900
O  31.97500 48.16800 23.56000
C  33.36000 47.74600 25.27300
N  26.87500 50.33200 24.82300
C  27.89200 49.91200 23.94300
C  27.45000 50.21400 22.54000
C  25.94600 50.46300 22.65500
C  25.73000 50.74400 24.10900
C  28.26300 51.44000 22.04700
C  24.97700 49.42600 22.10400
C  25.32900 47.95200 22.44300
N  25.11000 50.81700 26.96300
C  24.26600 51.33600 26.01600
C  23.12200 51.94700 26.61500
C  23.31600 51.83100 27.97300
C  24.56300 51.22100 28.17100
C  21.94000 52.51500 25.96300
C  22.71600 52.15700 29.23900
O  21.64900 52.65100 29.56000
C  23.81900 51.69900 30.26300
C  24.31800 52.87300 31.03700
O  25.11900 53.77500 30.67600
O  23.57000 52.96300 32.17900
C  24.04000 53.96300 33.17000
H  30.44000 49.23100 29.71800
H  29.70100 48.93200 23.44400
H  23.72000 51.48800 23.95700
H  26.70100 51.41100 31.59500
H  28.38600 48.92400 31.51600
H  29.73800 51.41200 31.17800
H  29.91900 50.12600 32.49600
H  28.77100 51.41200 32.72900
H  26.21900 48.51200 32.30600
H  24.85400 49.40800 31.59400
H  24.29900 49.64300 33.73700
H  25.07600 51.11700 33.41100
H  32.34000 46.86000 27.82700
H  31.72400 47.91500 29.23900
H  33.00700 48.35200 27.94900
H  33.76000 48.58100 25.84900
H  34.02900 47.44200 24.46800
H  33.39400 46.80200 25.81600
H  27.82700 49.53600 21.77500
H  25.68400 51.38400 22.13400
H  29.09400 51.73000 22.69000
H  27.64200 52.33500 22.07100
H  28.78800 51.33400 21.09700
H  24.99800 49.59500 21.02800
H  23.98000 49.49700 22.53800
H  26.07100 47.75300 23.21600
H  25.74100 47.53500 21.52400
H  24.44800 47.36400 22.70000
H  21.87500 52.09500 24.96000
H  22.15600 53.58200 26.02100
H  21.04100 52.35900 26.55900
H  23.38700 50.99700 30.97500
H  24.98600 53.62400 33.59200
H  23.31400 53.86800 33.97700
H  24.02200 54.98800 32.80000

