158

Mg 42.79000 41.61500 26.02300
C  42.10600 43.77700 28.67500
C  44.36000 39.62800 28.33700
C  43.81000 39.68100 23.51100
C  41.53100 43.95700 23.86700
N  43.02400 41.65800 28.25700
C  42.57600 42.52600 29.12700
C  42.89300 42.22400 30.57900
C  44.03100 41.14200 30.42400
C  43.83300 40.75300 28.90200
C  45.40500 41.55400 30.86000
C  41.58700 41.66600 31.23200
C  41.06800 42.46800 32.42700
H  41.78400 42.40300 33.66300
N  43.80000 39.82600 25.90600
C  44.33200 39.15500 26.95500
C  44.91000 37.95200 26.47700
C  44.82400 37.94800 25.05900
C  44.18100 39.20400 24.77300
C  45.48400 36.93700 27.39700
C  45.25400 36.98800 24.02600
O  45.31500 37.27200 22.80700
C  45.46200 35.55600 24.36900
N  42.71400 41.79500 24.02400
C  43.12200 40.85800 23.16300
C  42.81300 41.31900 21.75800
C  41.92100 42.61300 21.86700
C  42.02400 42.78900 23.34900
C  44.01600 41.45100 20.79400
C  40.41700 42.45200 21.32500
C  39.43600 41.53000 22.14000
N  42.01700 43.47200 26.17900
C  41.59900 44.34900 25.18900
C  41.33600 45.62100 25.77000
C  41.40300 45.38200 27.15800
C  41.83000 44.09800 27.34300
C  41.08800 46.96400 25.11000
C  41.18300 45.98200 28.43300
O  40.71500 47.07900 28.67500
C  41.56000 44.97100 29.51900
C  42.46000 45.63800 30.50800
O  43.62700 45.95700 30.31200
O  41.60300 46.03200 31.48700
C  42.24800 46.89100 32.49300
H  44.81200 39.06700 29.15800
H  43.87400 39.07000 22.60800
H  41.08200 44.58600 23.09500
H  43.13000 43.04900 31.25000
H  43.77800 40.23600 30.97500
H  45.44000 42.60400 31.15100
H  45.88600 41.61300 29.88400
H  45.81200 40.76200 31.48700
H  41.73200 40.59400 31.36100
H  40.88300 41.82100 30.41500
H  40.13100 42.03300 32.77700
H  40.97600 43.50600 32.10900
H  45.46400 37.08900 28.47600
H  46.50400 36.67600 27.11600
H  44.83900 36.05800 27.38900
H  45.17300 34.86000 23.58100
H  44.82400 35.39100 25.23700
H  46.47000 35.36300 24.73700
H  42.12100 40.61400 21.29700
H  42.38600 43.47100 21.38300
H  44.95000 41.12600 21.25100
H  44.19200 42.50500 20.58100
H  43.88600 41.06600 19.78300
H  40.35800 42.04400 20.31600
H  40.04600 43.47600 21.37300
H  39.79200 41.07700 23.06600
H  39.19800 40.64600 21.54900
H  38.49900 42.07900 22.22900
H  42.04500 47.18000 24.63400
H  40.96600 47.73900 25.86600
H  40.18200 46.83800 24.51800
H  40.68300 44.53700 29.99900
H  41.54700 47.65600 32.82700
H  43.24700 47.22700 32.21500
H  42.53500 46.25400 33.33000
Mg 9.68800 48.37400 26.02300
C  7.82600 48.76400 28.99000
C  12.21400 49.96300 27.55500
C  11.44000 47.97100 23.06400
C  6.68300 47.83100 24.26300
N  9.90900 49.26800 28.06200
C  9.13400 49.11500 29.12100
C  9.84700 49.55200 30.42500
C  11.01000 50.39500 29.85700
C  11.03700 49.94100 28.38900
C  10.75000 51.91400 30.06300
C  10.19100 48.29600 31.30300
C  10.09400 48.37900 32.85000
H  10.14400 47.03600 33.67900
N  11.55300 48.90100 25.32000
C  12.46200 49.52900 26.15200
C  13.78000 49.43400 25.48600
C  13.59200 48.81000 24.26700
C  12.14600 48.49700 24.18600
C  15.11000 49.86700 26.17900
C  14.54600 48.50400 23.09100
O  14.25200 48.09000 21.95900
C  16.03800 48.83200 23.24400
N  9.24100 48.07800 23.94000
C  10.10600 47.89000 22.93100
C  9.39700 47.41100 21.66100
C  7.84600 47.51400 22.07400
C  7.89800 47.81800 23.57500
C  9.78900 48.27100 20.43000
C  7.09000 46.24900 21.57800
C  6.87700 46.01700 20.10100
N  7.67400 48.32900 26.49400
C  6.53400 48.12800 25.63400
C  5.39200 48.01400 26.49000
C  5.84300 48.24500 27.78300
C  7.19500 48.43300 27.73800
C  3.98700 47.62000 26.04100
C  5.46600 48.29000 29.20300
O  4.29800 48.17000 29.66200
C  6.76800 48.58300 29.99200
C  6.88400 47.31000 30.76700
O  7.09900 46.17900 30.35200
O  6.84700 47.54500 32.13400
C  7.08400 46.28100 32.90400
H  13.04900 50.39000 28.11400
H  12.07100 47.70600 22.21400
H  5.72800 47.67100 23.75800
H  9.17000 50.14700 31.03900
H  11.97500 50.07200 30.24700
H  10.02900 52.03100 30.87200
H  10.35800 52.24900 29.10200
H  11.63700 52.48800 30.33100
H  11.25300 48.08800 31.17400
H  9.73100 47.37700 30.94000
H  9.20700 48.95600 33.11400
H  11.00500 48.84000 33.23000
H  15.77600 49.01100 26.28900
H  14.94900 50.42400 27.10200
H  15.55100 50.55900 25.46200
H  16.51300 48.72200 22.26900
H  16.48000 48.10300 23.92300
H  16.23000 49.88500 23.45000
H  9.67500 46.37600 21.46100
H  7.37000 48.43400 21.73400
H  10.58300 48.98000 20.66200
H  8.95400 48.82500 20.00000
H  10.25200 47.65800 19.65700
H  6.11800 46.28400 22.06900
H  7.54900 45.34100 21.96900
H  5.87400 45.61800 19.94800
H  7.61100 45.31600 19.70400
H  6.99300 47.00300 19.65200
H  3.89900 47.08500 25.09500
H  3.44000 48.50200 25.70900
H  3.54900 47.04400 26.85600
H  6.57000 49.42100 30.66100
H  7.42500 46.63800 33.87500
H  7.91100 45.68300 32.52100
H  6.15100 45.72400 32.99500

