158

Mg 17.30200 -2.02700 28.60400
C  16.40100 0.25100 30.98900
C  19.29900 -3.60700 30.91800
C  18.48500 -4.09200 26.09400
C  15.80900 -0.09700 26.17900
N  17.94600 -1.66600 30.65600
C  17.22700 -0.76100 31.49900
C  17.69100 -0.86700 32.94400
C  18.90200 -1.85400 32.81600
C  18.70500 -2.41400 31.37500
C  20.32700 -1.35500 33.10100
C  16.45600 -1.33900 33.78100
C  16.24100 -0.68200 35.11900
H  17.54300 -0.29700 35.85500
N  18.54300 -3.72500 28.59600
C  19.27800 -4.24600 29.65800
C  20.02100 -5.48000 29.23800
C  19.66600 -5.58200 27.81900
C  18.88600 -4.42600 27.46000
C  20.79400 -6.38800 30.10000
C  20.08000 -6.68100 26.80700
O  19.65800 -6.71300 25.68000
C  20.96000 -7.82900 27.41700
N  16.90500 -2.27800 26.46400
C  17.64800 -3.09200 25.65300
C  17.35500 -2.65600 24.20800
C  16.40100 -1.44900 24.26300
C  16.39900 -1.27300 25.73100
C  18.71600 -2.14800 23.49900
C  14.92400 -1.79400 23.64000
C  13.88500 -2.38900 24.63600
N  16.32200 -0.29100 28.53300
C  15.69500 0.29800 27.48700
C  14.97700 1.51700 27.95100
C  15.23500 1.53600 29.30600
C  16.05000 0.38900 29.61200
C  14.21300 2.42700 27.08900
C  14.99500 2.22300 30.59400
O  14.32600 3.20000 30.85400
C  15.80500 1.45800 31.69500
C  16.54100 2.44000 32.61800
O  17.38500 3.17100 32.19600
O  16.01200 2.46200 33.87700
C  16.59100 3.58200 34.64500
H  19.96300 -4.16500 31.58200
H  18.93700 -4.61600 25.24900
H  15.35100 0.48400 25.37600
H  18.01400 0.11200 33.30000
H  18.76300 -2.63700 33.56100
H  20.60100 -2.01400 33.92500
H  20.22900 -0.33000 33.45700
H  21.00500 -1.38500 32.24800
H  16.69800 -2.38800 33.95100
H  15.49300 -1.32400 33.27100
H  15.81900 -1.47300 35.73900
H  15.49100 0.10800 35.08500
H  21.76200 -6.47200 29.60500
H  20.19400 -7.27800 30.29000
H  21.08900 -6.03200 31.08700
H  21.90800 -7.33900 27.63900
H  21.07900 -8.57700 26.63200
H  20.70900 -8.26900 28.38200
H  17.05600 -3.49300 23.57800
H  16.82100 -0.59300 23.73500
H  19.49000 -1.94200 24.23800
H  18.53800 -1.22100 22.95500
H  19.25600 -2.91300 22.94100
H  14.94700 -2.63500 22.94800
H  14.40000 -0.96200 23.16900
H  13.13200 -1.61000 24.75700
H  14.34500 -2.65200 25.58900
H  13.41000 -3.31500 24.31100
H  13.78900 1.86100 26.26000
H  14.80900 3.18200 26.57600
H  13.49000 2.99900 27.67100
H  15.05400 1.06800 32.38200
H  16.78500 4.47900 34.05600
H  17.48300 3.22800 35.16200
H  15.87200 3.75800 35.44400
Mg -11.77700 38.21300 41.93900
C  -9.58300 35.63500 40.89600
C  -9.50900 40.44100 40.53400
C  -14.13100 40.47100 41.92800
C  -13.94600 35.79200 43.13000
N  -9.68000 38.09200 41.03500
C  -9.01200 36.96600 40.72800
C  -7.79100 37.23400 39.91100
C  -7.59800 38.83400 40.12200
C  -9.00100 39.17200 40.63700
C  -6.51900 39.11700 41.19100
C  -7.95800 36.86200 38.38800
C  -6.91300 35.92500 37.75500
H  -5.99900 36.56000 36.70300
N  -11.82400 40.15700 41.40200
C  -10.78700 40.94600 40.83100
C  -11.19400 42.29700 40.67500
C  -12.58800 42.30700 40.97000
C  -12.88600 40.94400 41.49600
C  -10.34000 43.39200 40.06700
C  -13.44700 43.55800 40.80500
O  -12.99300 44.59400 40.27800
C  -14.93000 43.54400 41.10700
N  -13.79800 38.12000 42.29700
C  -14.45900 39.27500 42.53600
C  -15.87700 39.05000 43.17200
C  -15.97500 37.50400 43.26000
C  -14.48600 37.10100 42.98500
C  -16.08200 39.89600 44.54200
C  -16.86000 36.83400 42.16100
C  -17.33600 35.42200 42.47800
N  -11.90400 36.11000 41.95400
C  -12.74100 35.29100 42.60400
C  -12.28100 33.88900 42.46000
C  -11.06100 33.98400 41.72300
C  -10.84600 35.40000 41.54700
C  -13.08500 32.70300 42.76900
C  -10.04800 33.21000 40.99200
O  -9.94400 31.99000 40.77300
C  -9.19600 34.32400 40.31000
C  -7.69800 33.91900 40.37400
O  -6.89700 34.24700 41.25300
O  -7.36900 33.22400 39.23300
C  -6.06800 32.52500 39.33200
H  -8.81200 41.18900 40.14800
H  -14.97900 41.13900 41.76400
H  -14.62300 35.08100 43.60800
H  -6.97700 36.63900 40.32500
H  -7.34700 39.33600 39.18800
H  -5.74600 38.36100 41.32500
H  -7.00000 39.41200 42.12400
H  -5.99800 39.99000 40.79800
H  -7.92400 37.77500 37.79400
H  -8.95900 36.49400 38.16400
H  -7.31500 35.08800 37.18400
H  -6.28700 35.49600 38.53700
H  -10.80300 43.82500 39.18100
H  -9.38000 43.05000 39.68000
H  -10.14600 44.15500 40.82200
H  -15.47100 42.86400 40.44800
H  -15.28000 44.55400 40.89300
H  -15.09500 43.51100 42.18400
H  -16.71200 39.31000 42.52200
H  -16.32800 37.06100 44.19200
H  -16.68400 39.32400 45.24700
H  -16.65800 40.77700 44.25800
H  -15.11300 40.00700 45.03000
H  -16.24900 36.81500 41.25900
H  -17.73000 37.45300 41.94100
H  -17.73600 35.10800 43.44200
H  -16.66800 34.60300 42.21100
H  -18.18800 35.19200 41.83800
H  -14.14100 32.86400 42.55300
H  -13.04900 32.53400 43.84500
H  -12.88500 31.79200 42.20600
H  -9.51300 34.46100 39.27600
H  -5.52000 32.51200 40.27400
H  -5.37500 32.90300 38.58000
H  -6.28700 31.50500 39.01800

