158

Mg 25.08200 1.49700 28.92400
C  27.05600 1.09600 31.82900
C  22.28500 1.70800 30.86100
C  23.41400 1.64300 26.10900
C  27.99000 0.63100 27.11100
N  24.74200 1.31500 31.12200
C  25.67600 1.32000 32.09100
C  24.99800 1.61400 33.46600
C  23.46800 1.59400 33.11600
C  23.43800 1.57100 31.60500
C  22.77600 0.33400 33.70700
C  25.43800 2.89800 34.18000
C  26.02100 2.70900 35.55300
H  25.84400 3.82800 36.58800
N  23.13800 1.55800 28.55300
C  22.10000 1.64000 29.44400
C  20.88200 1.63500 28.74000
C  21.15600 1.59200 27.38200
C  22.59300 1.54700 27.26400
C  19.57100 1.66100 29.46900
C  20.21100 1.47300 26.19900
O  20.59100 1.17400 25.11000
C  18.74300 1.68800 26.37400
N  25.67700 1.25500 26.93200
C  24.81600 1.51200 25.93600
C  25.53500 1.43800 24.58400
C  27.01900 1.34800 24.91600
C  26.89200 1.05400 26.41400
C  24.94500 0.33000 23.62600
C  27.86500 2.57600 24.62600
C  27.16700 3.95900 24.94500
N  27.16700 0.99200 29.32900
C  28.18800 0.67800 28.48500
C  29.37800 0.43200 29.26300
C  29.01600 0.67000 30.62700
C  27.65400 0.96800 30.56100
C  30.68200 -0.02800 28.66300
C  29.53400 0.76000 31.92500
O  30.65300 0.65100 32.41700
C  28.24100 1.10800 32.81200
C  28.13900 0.15600 33.94700
O  27.40700 -0.81300 34.00400
O  28.89500 0.51300 34.96200
C  28.77500 -0.10200 36.22700
H  21.42100 1.93400 31.49000
H  22.89000 1.78500 25.16200
H  28.80500 0.30000 26.46500
H  25.31100 0.76400 34.07200
H  22.94100 2.49700 33.42500
H  21.83800 0.51300 34.23300
H  23.51200 -0.24600 34.26200
H  22.53200 -0.44200 32.98100
H  24.59900 3.57200 34.35000
H  26.27000 3.36500 33.65200
H  27.09000 2.69800 35.33800
H  25.57400 1.79100 35.93400
H  18.84900 1.10400 28.87300
H  19.21700 2.68500 29.59200
H  19.62500 1.10900 30.40700
H  18.41100 1.58300 25.34100
H  18.52500 2.72600 26.62700
H  18.16100 1.10000 27.08300
H  25.33100 2.36700 24.05200
H  27.50300 0.51500 24.40600
H  24.75200 0.85000 22.68700
H  23.99600 -0.02300 24.02900
H  25.63300 -0.51400 23.62200
H  28.07100 2.57900 23.55500
H  28.89600 2.42300 24.94600
H  26.83900 4.33300 23.97500
H  27.84200 4.66800 25.42400
H  26.32200 3.81900 25.62000
H  30.92400 0.48000 27.72900
H  30.53700 -1.09100 28.47200
H  31.49900 0.13400 29.36600
H  28.42300 2.09900 33.22700
H  27.77300 0.09400 36.60800
H  29.43500 0.38600 36.94500
H  29.09100 -1.14500 36.26100
Mg 46.72900 25.48500 28.36300
C  47.36700 27.62400 31.06200
C  46.25900 22.89300 30.65900
C  46.16200 23.26300 25.89000
C  47.65300 27.91200 26.06500
N  46.85900 25.32800 30.60000
C  47.00400 26.38100 31.52800
C  46.89500 25.89100 32.96000
C  46.67400 24.32200 32.74200
C  46.66800 24.13300 31.26200
C  47.62700 23.30800 33.54400
C  45.77900 26.67100 33.88100
C  46.25000 26.71100 35.33400
H  45.40800 27.60100 36.30300
N  46.18100 23.45900 28.33500
C  46.08800 22.53700 29.38100
C  45.70900 21.21500 28.86900
C  45.60700 21.37100 27.45700
C  45.98300 22.78200 27.13600
C  45.66000 19.99700 29.70500
C  45.21300 20.27600 26.40300
O  45.18900 20.36800 25.20300
C  44.94700 18.96000 26.87000
N  47.03500 25.57100 26.28300
C  46.58000 24.50100 25.50800
C  46.77000 24.90000 24.02200
C  47.08100 26.42800 24.02900
C  47.27300 26.68800 25.53800
C  47.83800 24.03800 23.20200
C  45.85900 27.35500 23.54700
C  46.20200 28.55500 22.58400
N  47.43000 27.32000 28.45800
C  47.79400 28.21700 27.40300
C  48.23700 29.48800 28.04000
C  48.12300 29.26300 29.47900
C  47.68000 27.92500 29.64800
C  49.06300 30.44700 27.34900
C  48.42200 29.80500 30.72000
O  49.09600 30.79400 30.98600
C  47.78900 28.91400 31.72500
C  48.85900 28.72800 32.77800
O  49.93100 28.26400 32.66100
O  48.31600 29.18900 33.97400
C  49.06300 29.40000 35.15800
H  46.07700 22.12900 31.41800
H  45.98400 22.47400 25.15700
H  47.77600 28.66700 25.28500
H  47.85800 25.90400 33.47100
H  45.65500 24.16300 33.09400
H  48.29300 23.80000 34.25300
H  48.14000 22.70000 32.79900
H  46.99900 22.65800 34.15300
H  44.82300 26.14800 33.90900
H  45.53600 27.62600 33.41500
H  47.23600 27.17200 35.27400
H  46.25200 25.67000 35.65700
H  44.60500 19.74500 29.81000
H  46.11800 20.03200 30.69400
H  46.02800 19.01100 29.42100
H  44.12200 19.07400 27.57300
H  45.79200 18.51900 27.39900
H  44.60300 18.28500 26.08500
H  45.85200 24.74300 23.45500
H  47.98700 26.73600 23.50800
H  48.04800 23.05800 23.62900
H  48.70600 24.67000 23.01500
H  47.36600 23.87900 22.23300
H  45.29200 27.63000 24.43600
H  45.20500 26.71300 22.95600
H  47.26900 28.75900 22.49200
H  45.62800 29.44600 22.84000
H  45.87600 28.48700 21.54600
H  50.08400 30.07600 27.26000
H  48.98600 31.42200 27.83200
H  48.69900 30.56500 26.32800
H  46.90700 29.41800 32.12000
H  48.92500 30.38200 35.61100
H  50.11200 29.10600 35.13100
H  48.54100 28.76900 35.87800

