158

Mg 46.25800 4.90500 48.54100
C  44.65700 7.95900 47.63900
C  43.41900 3.24000 47.78500
C  47.96800 2.13800 48.54500
C  49.18900 6.74900 49.07500
N  44.28800 5.52200 47.97000
C  43.86400 6.84200 47.63700
C  42.37900 6.81300 47.36600
C  41.96800 5.33100 47.56500
C  43.24800 4.62100 47.81300
C  40.89400 4.97700 48.65900
C  42.06200 7.47900 46.05100
C  40.70900 8.19100 46.09500
H  39.80400 7.60700 45.02200
N  45.76000 2.96300 48.24700
C  44.56900 2.46400 47.93400
C  44.58800 1.08300 47.98300
C  45.95100 0.70300 48.11400
C  46.64800 1.96200 48.27900
C  43.49600 0.17300 47.78100
C  46.48700 -0.71000 48.30100
O  45.74300 -1.68300 48.24200
C  47.94900 -1.03200 48.53700
N  48.40900 4.54000 48.44700
C  48.75200 3.25100 48.82800
C  50.11900 3.18500 49.50200
C  50.54700 4.61200 49.32400
C  49.30900 5.37200 49.00700
C  50.18500 2.58400 50.94500
C  51.77500 4.89600 48.33300
C  53.05900 5.61900 48.96200
N  46.84500 6.97100 48.37600
C  48.05000 7.56800 48.74900
C  47.95600 8.99000 48.57500
C  46.60700 9.24700 48.17600
C  45.96300 7.97500 48.04000
C  48.96300 10.09100 49.07000
C  45.60100 10.24400 47.79300
O  45.84600 11.43200 47.58400
C  44.25600 9.49600 47.49600
C  43.26600 9.82700 48.55600
O  43.31700 9.37700 49.71200
O  42.25700 10.57600 48.03100
C  41.21700 10.92400 48.95200
H  42.46600 2.73100 47.62600
H  48.44200 1.19600 48.82600
H  50.03000 7.36200 49.40300
H  41.90000 7.43200 48.12400
H  41.56900 4.87000 46.66200
H  40.62000 5.97200 49.01100
H  41.41400 4.38400 49.41200
H  40.03700 4.43800 48.25400
H  41.94100 6.67800 45.32200
H  42.80300 8.16900 45.64700
H  40.87500 9.26000 45.96100
H  40.24700 8.08600 47.07700
H  43.38900 -0.45400 48.66600
H  43.63700 -0.47700 46.91700
H  42.56500 0.72500 47.65400
H  48.66100 -0.79500 47.74700
H  47.95900 -2.12100 48.50900
H  48.28200 -0.68100 49.51400
H  50.73200 2.55200 48.86100
H  50.75200 5.00300 50.32000
H  50.03600 3.44200 51.60100
H  51.10600 2.08000 51.23700
H  49.34400 1.93700 51.19300
H  51.50800 5.44100 47.42800
H  52.08500 3.96700 47.85400
H  52.99500 6.66700 48.67100
H  54.04800 5.27800 48.65600
H  53.03800 5.43900 50.03700
H  49.58200 9.63500 49.84200
H  48.39100 10.91700 49.49100
H  49.52800 10.47200 48.21900
H  43.81400 9.76000 46.53600
H  41.03900 10.10700 49.65200
H  40.32900 11.09000 48.34200
H  41.41100 11.89600 49.40500
Mg 54.40200 24.38100 44.53300
C  52.12500 26.88500 43.76600
C  52.11900 22.00200 43.90800
C  56.87700 22.22400 44.64300
C  56.63400 27.00200 45.46700
N  52.39000 24.52500 43.82100
C  51.58000 25.60800 43.58000
C  50.19300 25.10600 43.23100
C  50.14700 23.62600 43.73300
C  51.65600 23.34200 43.88000
C  49.44700 23.44600 45.11000
C  49.58200 25.41100 41.80600
C  48.01800 25.52300 41.78600
H  47.61200 24.51200 40.68700
N  54.45900 22.36000 44.16300
C  53.43300 21.51900 43.96400
C  53.92100 20.20900 43.97200
C  55.28100 20.23700 44.15900
C  55.61200 21.63000 44.38100
C  53.07100 18.93100 43.83400
C  56.12800 18.96000 44.35900
O  55.58500 17.81500 44.38700
C  57.64900 19.05600 44.76900
N  56.47800 24.66500 44.86200
C  57.27300 23.50000 44.83600
C  58.72200 23.89700 44.96800
C  58.61700 25.48600 45.16500
C  57.21300 25.72000 45.27900
C  59.50100 23.23600 46.10700
C  59.41500 26.23200 44.05900
C  58.61200 26.86000 42.85700
N  54.47300 26.57500 44.56800
C  55.36700 27.42000 45.11200
C  54.85800 28.72400 45.17400
C  53.51700 28.59200 44.69100
C  53.37800 27.21800 44.32400
C  55.58700 29.98600 45.54300
C  52.24900 29.28000 44.36100
O  51.93500 30.47900 44.43700
C  51.33300 28.18800 43.74400
C  50.99400 28.51900 42.34600
O  51.89200 28.44600 41.53900
O  49.75900 29.04600 42.11100
C  49.36000 29.05700 40.68100
H  51.31500 21.26400 43.86500
H  57.69300 21.49900 44.67100
H  57.39500 27.76300 45.64800
H  49.53600 25.57600 43.96300
H  49.65900 23.00700 42.98000
H  49.18400 24.37100 45.62400
H  50.14000 22.87300 45.72500
H  48.52700 22.86200 45.08500
H  49.94000 24.70300 41.05900
H  49.93200 26.34200 41.36000
H  47.64400 26.47400 41.40500
H  47.66500 25.17100 42.75500
H  53.41800 18.08800 43.23700
H  52.14500 19.08100 43.27900
H  52.86900 18.59500 44.85100
H  57.89700 18.03000 45.04300
H  57.59700 19.65700 45.67700
H  58.31100 19.46500 44.00500
H  59.23100 23.61000 44.04700
H  58.96900 25.80500 46.14600
H  60.11200 23.99900 46.59000
H  60.07300 22.42300 45.65900
H  58.73000 22.93500 46.81600
H  60.13800 25.53700 43.63100
H  59.94300 26.99300 44.63600
H  57.57000 26.54900 42.78600
H  59.07700 26.61400 41.90200
H  58.70900 27.93700 42.99900
H  56.64700 29.73400 45.53300
H  55.29400 30.31400 46.54000
H  55.42300 30.75000 44.78300
H  50.34600 28.19600 44.20700
H  49.46000 30.10600 40.40200
H  48.35100 28.68100 40.51100
H  49.97700 28.51000 39.96800

