158

Mg -1.50300 18.03900 27.84800
C  -2.09800 15.52400 30.44000
C  -2.31300 20.39800 30.23600
C  -1.72700 20.27700 25.39800
C  -1.16700 15.45800 25.62600
N  -2.18200 17.92900 30.08900
C  -2.20500 16.84900 30.90600
C  -2.68600 17.24800 32.38400
C  -2.87500 18.85600 32.17700
C  -2.42000 19.12600 30.74400
C  -4.32900 19.31300 32.54400
C  -1.66800 16.69400 33.40900
C  -1.32900 17.64100 34.56600
H  -0.77800 17.07400 35.85000
N  -1.96200 20.05300 27.82800
C  -2.22900 20.81500 28.93300
C  -2.28300 22.17000 28.50900
C  -2.06200 22.23600 27.12100
C  -1.91500 20.83000 26.71400
C  -2.58100 23.35900 29.42900
C  -1.98500 23.43200 26.17000
O  -1.78800 23.37500 24.92000
C  -2.12800 24.77000 26.77100
N  -1.62900 17.89600 25.81500
C  -1.59700 18.97900 24.97300
C  -1.50600 18.49800 23.52600
C  -1.16000 16.98100 23.66300
C  -1.31900 16.76800 25.16400
C  -2.86300 18.77700 22.74000
C  0.25900 16.69800 22.99700
C  1.48200 17.38600 23.59300
N  -1.59500 15.93500 27.97300
C  -1.47800 15.01600 26.90500
C  -1.50800 13.65700 27.50200
C  -1.74900 13.79600 28.89700
C  -1.86100 15.17500 29.09700
C  -1.39600 12.37400 26.69700
C  -1.93800 13.04300 30.03100
O  -2.05600 11.85800 30.27800
C  -2.13500 14.13700 31.16400
C  -1.07100 13.92000 32.16300
O  0.06400 14.27500 32.02500
O  -1.57800 13.28900 33.22100
C  -0.71600 12.99100 34.29600
H  -2.38400 21.22100 30.95000
H  -1.82800 20.98900 24.57700
H  -0.99900 14.69700 24.86100
H  -3.61100 16.68800 32.52300
H  -2.16100 19.49900 32.69200
H  -4.32400 19.97900 33.40600
H  -4.95600 18.51200 32.93600
H  -4.76200 19.85700 31.70500
H  -0.71400 16.44000 32.94800
H  -2.07200 15.82400 33.92700
H  -2.21900 18.24800 34.72600
H  -0.43400 18.17900 34.25300
H  -1.82000 24.13000 29.31700
H  -2.44700 23.09900 30.47900
H  -3.61600 23.65500 29.25800
H  -3.07000 24.96800 27.28300
H  -2.02500 25.51200 25.97800
H  -1.30400 24.90700 27.47100
H  -0.63400 19.01200 23.12100
H  -1.99600 16.38200 23.30200
H  -2.60200 19.08400 21.72700
H  -3.36700 19.62300 23.20800
H  -3.45800 17.87000 22.84800
H  0.20400 17.07700 21.97700
H  0.31900 15.60900 22.97500
H  1.61500 18.25100 22.94300
H  2.43300 16.85800 23.52700
H  1.33900 17.70000 24.62700
H  -0.82900 12.53700 25.78100
H  -2.38400 12.01800 26.40500
H  -0.82900 11.58300 27.18800
H  -3.06000 14.05800 31.73500
H  -1.45200 12.47100 34.90900
H  -0.31900 13.85900 34.82200
H  0.07500 12.34800 33.90800
Mg 26.66000 50.17200 25.91400
C  24.72000 51.38400 28.63100
C  28.80600 48.62200 28.16500
C  28.15600 48.86400 23.34600
C  24.43500 51.92000 23.79800
N  26.72200 50.07900 28.08500
C  25.79800 50.56600 28.99200
C  26.24600 50.22700 30.41600
C  27.69600 49.59800 30.21700
C  27.80200 49.47300 28.72800
C  28.90000 50.38500 30.85100
C  25.22000 49.31500 31.20700
C  24.66100 49.74900 32.54600
H  24.33800 48.81400 33.74300
N  28.44600 49.06600 25.74200
C  29.11100 48.50200 26.80100
C  30.20800 47.78900 26.27200
C  29.94100 47.62500 24.83700
C  28.78200 48.48800 24.57200
C  31.35600 47.31700 27.08200
C  30.77000 46.98400 23.86500
O  30.55200 47.10500 22.66200
C  31.96600 46.24800 24.25800
N  26.45300 50.48600 23.89000
C  27.04300 49.67900 23.03100
C  26.61900 49.82600 21.55300
C  25.37400 50.76500 21.76100
C  25.44500 51.14500 23.25500
C  27.77300 50.32800 20.66300
C  23.90100 50.09500 21.60300
C  22.95800 50.87600 20.67800
N  25.08800 51.59600 26.09200
C  24.22200 52.09400 25.12600
C  23.11900 52.76700 25.82600
C  23.28200 52.51400 27.16100
C  24.45200 51.73200 27.28600
C  21.85700 53.31100 25.25800
C  22.59000 52.63200 28.44100
O  21.59900 53.24400 28.74300
C  23.58500 51.95600 29.43500
C  24.12300 52.86000 30.56400
O  25.24400 53.37500 30.57400
O  23.26000 52.95400 31.63100
C  23.54600 53.66100 32.87900
H  29.33600 47.95300 28.84700
H  28.57300 48.25700 22.54000
H  23.57100 52.24800 23.21500
H  26.34300 51.10200 31.05800
H  27.81000 48.63900 30.72200
H  29.50000 50.66000 29.98400
H  29.41800 49.79800 31.60900
H  28.53000 51.30400 31.30500
H  25.70000 48.33800 31.27300
H  24.34000 49.26800 30.56500
H  23.65700 50.14300 32.38800
H  25.27900 50.52500 32.99800
H  32.27000 47.68000 26.61200
H  31.30000 46.22900 27.10500
H  31.34200 47.75900 28.07900
H  32.13600 45.81900 25.24600
H  32.74900 46.92900 23.92600
H  32.06400 45.44200 23.53100
H  26.16100 48.94400 21.10700
H  25.59400 51.64000 21.14900
H  28.75400 50.07500 21.06500
H  27.85300 51.40600 20.52100
H  27.69500 50.04200 19.61400
H  23.37300 50.04800 22.55600
H  24.05800 49.07900 21.24200
H  22.81500 50.17700 19.85400
H  23.35900 51.82600 20.32700
H  21.96200 51.11800 21.04700
H  21.55400 52.83400 24.32600
H  21.95400 54.37800 25.05700
H  21.05200 53.05400 25.94600
H  23.03900 51.12600 29.88200
H  23.52200 52.95700 33.71100
H  22.83800 54.48500 32.96500
H  24.53400 54.12000 32.91900

