158

Mg 41.06100 9.24200 29.82500
C  42.93100 10.35400 32.56700
C  38.81300 7.88500 31.86100
C  39.71400 7.96100 27.10700
C  44.05400 9.91800 27.88900
N  40.83500 9.18600 31.96000
C  41.70300 9.80800 32.93900
C  41.00000 9.68100 34.33300
C  39.84900 8.64700 34.02000
C  39.80200 8.55300 32.54000
C  39.93200 7.25800 34.74500
C  40.56700 11.09500 34.84700
C  39.78800 11.10500 36.19600
H  40.31400 11.79700 37.42000
N  39.37800 8.16500 29.50600
C  38.50900 7.67700 30.44300
C  37.39200 7.12200 29.82100
C  37.57900 7.21300 28.36400
C  38.95600 7.75300 28.28400
C  36.21000 6.47700 30.63200
C  36.61500 6.90700 27.25200
O  36.91800 6.85300 26.04500
C  35.11200 6.54500 27.56900
N  41.80500 9.05800 27.72900
C  40.95400 8.50600 26.77600
C  41.66700 8.52800 25.41700
C  43.00700 9.39800 25.71100
C  42.98200 9.39500 27.21400
C  41.86500 7.04700 24.74800
C  43.09400 10.86500 25.15600
C  41.86500 11.81200 25.41300
N  43.00400 10.04200 30.09700
C  44.09200 10.26000 29.21600
C  45.13900 10.91900 29.85000
C  44.73100 10.98900 31.17900
C  43.43200 10.45100 31.26900
C  46.36300 11.42400 29.22600
C  45.04700 11.45000 32.56800
O  46.02900 12.13200 32.89900
C  43.93800 11.04100 33.53000
C  44.50900 10.16200 34.50100
O  45.13300 9.17900 34.22300
O  44.14700 10.52300 35.78300
C  44.22900 9.59100 36.90500
H  38.07100 7.55100 32.59000
H  39.26800 7.57300 26.18900
H  44.87800 10.13700 27.20700
H  41.71000 9.17200 34.98400
H  38.86300 8.99700 34.32500
H  39.50100 7.35800 35.74200
H  40.97700 6.97700 34.87200
H  39.41400 6.48400 34.17900
H  39.95700 11.57500 34.08200
H  41.49000 11.65700 34.98800
H  39.55900 10.05400 36.36600
H  38.84300 11.53500 35.86400
H  35.98300 5.48500 30.24300
H  35.33200 7.12300 30.65500
H  36.51200 6.32000 31.66800
H  34.62300 6.42800 26.60300
H  34.59000 7.40000 27.99900
H  35.05600 5.55600 28.02200
H  41.09500 9.01800 24.62900
H  43.94100 8.90200 25.44500
H  41.32000 7.04500 23.80500
H  41.55200 6.27500 25.45100
H  42.94100 6.91800 24.63700
H  43.05600 10.78000 24.07000
H  43.98900 11.41800 25.43900
H  42.10600 12.56700 26.16100
H  41.09200 11.15600 25.81400
H  41.65900 12.23700 24.43100
H  46.13200 11.99600 28.32800
H  47.06700 10.66200 28.89300
H  46.96800 12.01600 29.91200
H  43.58800 11.96100 33.99700
H  45.30200 9.50100 37.07400
H  43.69300 8.67000 36.67600
H  43.77700 9.96600 37.82400
Mg 4.51700 53.21600 40.59600
C  4.76500 49.70400 40.72300
C  7.78900 53.28500 39.45100
C  3.96500 56.31100 39.73500
C  1.38000 53.03200 42.11400
N  6.01100 51.56400 39.94700
C  5.93700 50.21900 40.15500
C  7.31000 49.51900 39.87000
C  8.23900 50.74200 39.79600
C  7.33800 51.97400 39.72500
C  9.42100 50.81400 40.90300
C  7.47200 48.47400 38.66100
C  6.58900 48.59300 37.38300
H  7.00700 49.39300 36.12400
N  5.70400 54.61900 39.56000
C  7.02900 54.48600 39.18400
C  7.48900 55.70900 38.53100
C  6.35900 56.57200 38.66900
C  5.23600 55.84800 39.33800
C  8.83100 55.79200 37.89500
C  6.34500 58.01000 38.18900
O  7.31900 58.58200 37.71700
C  5.04400 58.80800 38.17900
N  2.84800 54.42900 40.75800
C  2.95900 55.67300 40.35300
C  1.77500 56.45200 40.82900
C  0.88900 55.36400 41.58600
C  1.70400 54.15900 41.47900
C  2.13700 57.76900 41.67900
C  -0.60600 55.35000 41.04800
C  -1.66100 55.38300 42.08200
N  3.34000 51.74800 41.40700
C  2.11700 51.79800 42.07500
C  1.74500 50.53600 42.59600
C  2.68100 49.64700 42.04300
C  3.62500 50.44400 41.37100
C  0.56400 50.19300 43.43800
C  3.15100 48.28500 41.99000
O  2.55200 47.35700 42.54900
C  4.55400 48.25000 41.12800
C  4.41100 47.44400 39.92700
O  3.61800 47.61900 39.02700
O  5.08700 46.29100 40.13800
C  4.64800 45.09100 39.29500
H  8.79100 53.43800 39.04600
H  3.68700 57.36500 39.66400
H  0.44100 53.06700 42.67100
H  7.50100 48.84200 40.70200
H  8.85500 50.68700 38.89900
H  9.27700 51.72600 41.48200
H  10.45800 50.81500 40.56800
H  9.27500 50.00800 41.62200
H  7.17600 47.49900 39.04900
H  8.51500 48.49000 38.34500
H  5.60800 48.98300 37.65400
H  6.32200 47.57900 37.08400
H  8.93800 55.09200 37.06600
H  9.60600 55.71200 38.65800
H  8.85300 56.75000 37.37600
H  5.14300 59.63500 37.47500
H  4.96300 59.23100 39.18100
H  4.20800 58.23200 37.78200
H  1.21900 56.72400 39.93200
H  0.93900 55.73100 42.61100
H  1.57100 57.90300 42.60100
H  1.84100 58.66800 41.13900
H  3.19100 57.77300 41.95600
H  -0.75900 54.42800 40.48700
H  -0.80100 56.19800 40.39100
H  -1.36200 55.24300 43.12100
H  -2.45800 54.64500 41.99000
H  -2.22800 56.30700 41.97000
H  0.73200 50.33500 44.50600
H  0.41500 49.11600 43.36200
H  -0.34500 50.66300 43.06300
H  5.31600 47.92600 41.83800
H  5.08300 45.19400 38.30100
H  3.56300 45.03800 39.20200
H  4.94500 44.20300 39.85400

