158

Mg 53.76800 23.87300 44.26600
C  50.78800 25.52700 43.44000
C  52.34800 21.05100 43.01100
C  56.76300 22.46600 44.23400
C  55.16800 26.97800 45.17800
N  51.84300 23.50300 43.23800
C  50.73800 24.25800 42.98100
C  49.61300 23.48000 42.33900
C  50.01500 21.94500 42.72900
C  51.57800 22.16000 43.03900
C  49.21800 21.17200 43.87600
C  49.50600 23.83400 40.82000
C  48.05700 24.01700 40.22000
H  47.83800 23.23900 38.88000
N  54.47300 21.99000 43.64900
C  53.71800 20.95400 43.26500
C  54.57000 19.74300 43.04800
C  55.88400 20.10200 43.50800
C  55.80800 21.55500 43.77900
C  54.12700 18.39500 42.35500
C  57.10400 19.25800 43.50600
O  56.98500 18.07700 43.19400
C  58.43500 19.72200 44.13800
N  55.67300 24.68900 44.42000
C  56.80500 23.83600 44.37500
C  58.13900 24.70400 44.42800
C  57.56800 26.02000 45.07400
C  56.07600 25.92100 44.90400
C  59.33800 24.15900 45.19100
C  58.11200 27.42200 44.66800
C  59.10200 28.03000 45.66100
N  53.19800 25.87900 44.32200
C  53.82000 26.98100 44.85700
C  52.73600 27.92300 45.12900
C  51.58200 27.44700 44.53100
C  51.91400 26.21000 44.01400
C  53.02400 29.21300 45.79300
C  50.23000 27.73200 44.35000
O  49.62200 28.73900 44.67000
C  49.64300 26.52100 43.44300
C  49.21100 27.05000 42.12200
O  50.00800 27.43200 41.28700
O  47.86600 27.21000 42.04000
C  47.25700 27.84900 40.84700
H  51.82900 20.14700 42.68500
H  57.78000 22.07000 44.21400
H  55.53200 27.77300 45.83200
H  48.74800 23.89600 42.85500
H  49.91300 21.34100 41.82700
H  48.60000 21.89900 44.40300
H  49.93900 20.74100 44.57100
H  48.60300 20.34800 43.51400
H  49.97700 23.03000 40.25600
H  50.12600 24.70700 40.61400
H  47.85700 25.08500 40.12600
H  47.27000 23.72300 40.91600
H  54.20800 18.50400 41.27400
H  53.11600 18.29200 42.75000
H  54.63000 17.46900 42.63400
H  58.93500 20.35900 43.40800
H  59.00600 18.82700 44.38800
H  58.19600 20.20600 45.08400
H  58.40700 24.86000 43.38300
H  57.63100 26.01300 46.16200
H  59.60300 24.89500 45.95000
H  60.11800 23.92800 44.46600
H  59.12900 23.22700 45.71800
H  57.30000 28.06300 44.32400
H  58.56600 27.29600 43.68500
H  59.99300 28.27200 45.08200
H  59.27500 27.35900 46.50200
H  58.55200 28.90600 46.00500
H  54.07900 29.28800 46.05600
H  52.50800 29.24300 46.75300
H  52.81400 29.96300 45.03100
H  48.78200 26.13900 43.99100
H  46.23100 27.50400 40.97400
H  47.62800 27.39400 39.92800
H  47.27900 28.92300 41.02700
Mg 35.24800 48.62300 25.49800
C  35.40900 46.96000 28.54700
C  34.22800 51.44700 27.20500
C  34.53300 49.98600 22.47700
C  36.21900 45.64300 23.86600
N  34.77000 49.08300 27.72100
C  35.01800 48.29200 28.72800
C  34.90900 49.03500 30.05400
C  34.38700 50.39900 29.61500
C  34.44600 50.33000 28.09800
C  32.91200 50.79200 29.98600
C  36.23300 49.03200 30.81300
C  36.10200 48.66200 32.28100
H  34.77700 49.10700 32.95000
N  34.53500 50.50600 24.84300
C  34.19100 51.57700 25.68200
C  33.89100 52.73600 24.90500
C  34.01500 52.32400 23.53200
C  34.34600 50.90900 23.53700
C  33.48800 54.05600 25.60600
C  33.76800 53.19200 22.29100
O  33.83200 52.74600 21.19400
C  33.44900 54.66600 22.53700
N  35.24900 47.90200 23.46500
C  34.98300 48.69300 22.39800
C  35.36000 48.07200 21.07600
C  36.23200 46.87800 21.60600
C  35.89200 46.77500 23.10000
C  34.17700 47.60400 20.23700
C  37.76000 47.13400 21.17400
C  38.72600 47.90300 22.14400
N  35.70400 46.67800 26.01100
C  36.10200 45.50800 25.29600
C  36.48300 44.40900 26.17900
C  36.18500 44.98600 27.42700
C  35.59100 46.31000 27.31500
C  37.16500 43.18200 25.78800
C  36.44100 44.67300 28.85800
O  37.05900 43.71100 29.33700
C  35.82300 45.93000 29.59400
C  34.62500 45.40400 30.18000
O  33.57600 45.16200 29.64200
O  34.91900 45.10600 31.47800
C  33.74800 44.61900 32.26400
H  33.92100 52.29900 27.81600
H  34.47100 50.58600 21.56700
H  36.53100 44.78200 23.27100
H  34.16400 48.49600 30.63900
H  35.00700 51.25500 29.88200
H  32.22200 50.79800 29.14200
H  32.84700 51.75000 30.50000
H  32.50200 50.00200 30.61400
H  36.77000 49.95400 30.58900
H  36.96700 48.37700 30.34200
H  36.89600 49.07000 32.90600
H  36.28900 47.58900 32.32100
H  32.50800 54.34600 25.22900
H  34.06800 54.95200 25.38700
H  33.42000 53.99400 26.69200
H  32.50400 54.83900 23.05200
H  33.31500 55.20000 21.59600
H  34.22800 55.15300 23.12300
H  35.96200 48.68400 20.40500
H  35.83800 45.94100 21.21200
H  34.29600 46.61600 19.79400
H  34.07400 48.27200 19.38200
H  33.29700 47.64000 20.88000
H  37.70000 47.65700 20.21900
H  38.18100 46.18100 20.85100
H  38.31700 48.02900 23.14600
H  38.98100 48.87700 21.72700
H  39.57800 47.24200 22.30400
H  37.84100 42.90400 26.59600
H  37.61100 43.07400 24.79900
H  36.44900 42.36300 25.72100
H  36.58400 46.25800 30.30200
H  33.00700 45.41400 32.18300
H  33.92400 44.31900 33.29700
H  33.26700 43.77900 31.76300

