158

Mg 36.00200 49.89300 25.84600
C  36.46200 48.05500 28.80800
C  35.11200 52.50400 27.64500
C  35.24000 51.22800 22.86700
C  37.15400 46.89800 24.03600
N  35.66700 50.09500 27.96500
C  35.92200 49.33000 29.02800
C  35.58300 49.93000 30.40100
C  35.03400 51.33700 29.90400
C  35.28000 51.32200 28.40200
C  33.60600 51.68800 30.33000
C  36.80400 50.03700 31.36500
C  36.65800 49.73100 32.86900
H  35.31600 49.50900 33.54100
N  35.32600 51.62600 25.34400
C  35.09800 52.67300 26.22200
C  34.80100 53.81500 25.44400
C  34.74200 53.45800 24.07700
C  35.04500 52.01500 24.06500
C  34.67300 55.14900 26.12900
C  34.51400 54.31500 22.85900
O  34.47000 53.84900 21.71500
C  34.32700 55.77900 22.86200
N  36.08800 49.12600 23.73400
C  35.78000 49.97300 22.74100
C  36.11500 49.33300 21.38600
C  37.08500 48.15700 21.76900
C  36.71900 47.97800 23.25300
C  34.81700 48.90400 20.64300
C  38.63500 48.54200 21.63900
C  39.63600 47.34700 21.76500
N  36.73500 47.90600 26.24500
C  37.14600 46.82500 25.44500
C  37.60000 45.76100 26.29000
C  37.30900 46.21200 27.59500
C  36.80700 47.50300 27.52000
C  38.30300 44.48400 25.88400
C  37.34900 45.77200 29.00600
O  37.60100 44.67100 29.54500
C  36.82000 47.00200 29.85700
C  35.70600 46.57500 30.69400
O  34.57600 46.33200 30.32100
O  36.15600 46.18600 31.95900
C  35.15300 45.52900 32.84700
H  34.92900 53.37600 28.27500
H  35.11000 51.71700 21.89900
H  37.61700 46.10000 23.45100
H  34.81400 49.29700 30.84400
H  35.67600 52.13700 30.27300
H  33.16800 50.84300 30.86100
H  32.99600 51.65900 29.42800
H  33.55300 52.67500 30.79100
H  37.27100 51.01300 31.23900
H  37.57300 49.36800 30.97800
H  37.14100 50.53800 33.42000
H  37.27500 48.87100 33.12900
H  35.53400 55.78800 25.93000
H  34.53300 55.14200 27.21000
H  33.73800 55.62800 25.84000
H  34.83600 56.22500 23.71700
H  33.26500 55.96200 23.02300
H  34.74100 56.18100 21.93700
H  36.52600 50.13800 20.77600
H  36.82900 47.21100 21.29300
H  34.78100 49.51300 19.74000
H  33.92800 49.31100 21.12500
H  34.71700 47.88400 20.27300
H  38.80800 49.25200 22.44800
H  38.81400 49.06900 20.70100
H  39.03000 46.47100 21.53300
H  40.20300 47.43300 22.69200
H  40.26600 47.60900 20.91500
H  38.99600 44.66100 25.06100
H  37.58500 43.73400 25.55200
H  38.88800 44.09700 26.71900
H  37.53100 47.38400 30.58900
H  34.82300 44.56500 32.46100
H  34.23400 46.07600 33.05700
H  35.51100 45.37100 33.86400
Mg -5.39400 25.20600 25.96000
C  -3.61200 26.90500 28.37700
C  -6.92300 23.39800 28.54200
C  -7.07500 23.48000 23.73600
C  -3.32800 26.64000 23.60000
N  -5.28900 25.18200 28.18900
C  -4.50100 26.00600 28.95500
C  -4.82600 25.81800 30.50800
C  -5.74800 24.50900 30.53600
C  -5.96800 24.29000 28.97400
C  -5.20600 23.27600 31.26000
C  -5.47300 27.18700 31.13000
C  -5.97000 27.43400 32.59200
H  -5.67900 26.29100 33.68400
N  -6.84800 23.64500 26.14600
C  -7.34700 23.07100 27.25400
C  -8.34300 22.11600 26.93900
C  -8.39100 22.10200 25.48300
C  -7.42900 23.13200 25.05300
C  -9.23800 21.44000 27.98500
C  -9.22200 21.14800 24.61600
O  -9.18300 21.27000 23.39700
C  -10.02000 20.08800 25.17000
N  -5.18800 24.85200 24.00000
C  -6.09400 24.29400 23.26500
C  -5.75300 24.54200 21.75400
C  -4.80400 25.73900 21.81200
C  -4.39700 25.74900 23.24900
C  -5.21400 23.30600 21.07600
C  -5.47800 27.01100 21.37700
C  -4.73600 28.02900 20.52600
N  -3.86700 26.66100 25.88200
C  -3.01100 27.01900 24.90200
C  -1.98100 27.95100 25.36800
C  -2.19600 27.93900 26.77900
C  -3.32600 27.08800 26.98200
C  -0.96200 28.66600 24.56300
C  -1.75500 28.42200 28.06200
O  -0.93700 29.20600 28.51500
C  -2.63900 27.77700 29.13900
C  -1.71100 26.98200 30.09800
O  -1.03100 26.01700 29.86600
O  -1.75700 27.54700 31.32100
C  -1.41500 26.71300 32.46400
H  -7.36900 22.81100 29.34800
H  -7.85500 23.14300 23.05000
H  -2.64600 27.05200 22.85400
H  -3.82400 25.70600 30.92100
H  -6.59300 24.86300 31.12600
H  -4.99400 22.53000 30.49500
H  -6.00900 22.90200 31.89500
H  -4.31300 23.54700 31.82400
H  -6.28100 27.31100 30.40900
H  -4.65700 27.86400 30.87500
H  -7.05100 27.55000 32.51900
H  -5.43200 28.31400 32.94400
H  -9.99700 22.21500 28.08800
H  -8.75500 21.31600 28.95500
H  -9.50700 20.42100 27.70600
H  -10.83900 20.50600 25.75500
H  -9.33200 19.44500 25.71900
H  -10.44100 19.48600 24.36400
H  -6.70700 24.70600 21.25300
H  -3.89300 25.56300 21.24000
H  -4.30000 23.59000 20.55500
H  -5.96900 22.94500 20.37800
H  -4.95900 22.55300 21.82200
H  -5.82700 27.40600 22.33100
H  -6.33100 26.70300 20.77200
H  -5.45700 28.42800 19.81200
H  -3.87600 27.68500 19.95100
H  -4.35000 28.77700 21.21800
H  -0.95400 28.20000 23.57700
H  0.01600 28.46400 24.99900
H  -1.34600 29.68600 24.58800
H  -3.21900 28.50900 29.70000
H  -0.34500 26.88000 32.59300
H  -1.64800 25.65200 32.37300
H  -1.91600 27.10500 33.34900

