158

Mg 16.44300 51.30200 25.28300
C  18.26300 50.24000 28.11100
C  14.00900 52.39500 27.39100
C  14.49200 51.68700 22.54000
C  18.93500 49.81500 23.30600
N  16.18900 51.21300 27.52900
C  17.12800 50.93400 28.43900
C  16.61400 51.26800 29.91500
C  15.18900 51.83200 29.65300
C  15.11300 51.81900 28.11600
C  13.96900 51.05100 30.17900
C  17.48200 52.30500 30.61900
C  18.13800 51.93200 31.96600
H  17.29400 51.18100 32.94100
N  14.52200 51.97800 24.98400
C  13.68900 52.42600 25.99000
C  12.52000 52.98500 25.38600
C  12.69700 52.94700 23.98500
C  13.97800 52.17400 23.75900
C  11.28100 53.52900 26.15600
C  11.80900 53.54800 22.86600
O  12.09600 53.36400 21.66400
C  10.44100 54.26600 23.18300
N  16.74400 50.87600 23.25500
C  15.71200 51.07700 22.35300
C  16.18400 50.80500 20.84500
C  17.70200 50.39400 21.06300
C  17.81100 50.34400 22.60200
C  15.33100 49.73400 20.23100
C  18.72200 51.39400 20.41300
C  19.03900 51.14800 18.92700
N  18.28800 50.24800 25.59500
C  19.13700 49.64200 24.69300
C  20.32300 49.14400 25.39500
C  19.92100 49.32600 26.69300
C  18.78100 50.04500 26.78600
C  21.56000 48.56600 24.86800
C  20.37800 49.00000 28.05400
O  21.35500 48.31300 28.42500
C  19.37800 49.68600 28.97600
C  18.92200 48.59700 29.90300
O  18.09000 47.72900 29.59900
O  19.62700 48.63300 31.06700
C  19.17200 47.67500 32.05200
H  13.22100 52.71700 28.07500
H  13.97900 51.85900 21.59200
H  19.64300 49.40400 22.58400
H  16.60400 50.34000 30.48700
H  15.10200 52.86400 29.99300
H  13.24600 51.75100 30.59900
H  14.25700 50.32000 30.93500
H  13.45400 50.48000 29.40700
H  16.96400 53.25500 30.75200
H  18.44600 52.35500 30.11400
H  18.46400 52.86200 32.43300
H  19.04300 51.35200 31.78500
H  11.46100 53.59300 27.22900
H  10.45500 52.81800 26.14300
H  11.03700 54.53400 25.81200
H  9.99400 54.48000 22.21300
H  10.64400 55.12000 23.82800
H  9.74000 53.64100 23.73700
H  16.07100 51.75300 20.32000
H  17.81400 49.34400 20.79500
H  14.47000 50.04900 19.64200
H  15.02300 49.04800 21.02000
H  15.85800 49.08800 19.52900
H  19.64800 51.40300 20.98700
H  18.26300 52.38200 20.44800
H  19.06700 50.12500 18.55200
H  20.03100 51.54700 18.71800
H  18.23600 51.68000 18.41500
H  21.64200 47.48100 24.94200
H  22.27200 49.16500 25.43600
H  21.61700 48.88300 23.82700
H  19.85700 50.51200 29.50100
H  19.68800 47.82200 33.00100
H  19.42700 46.69900 31.63700
H  18.13100 47.73400 32.36900
Mg -10.28600 39.81200 42.12100
C  -9.36400 36.47700 41.56600
C  -7.30500 40.86800 41.05300
C  -11.70000 42.76500 41.89700
C  -13.66100 38.54200 42.97300
N  -8.52600 38.74700 41.52300
C  -8.39100 37.44700 41.29700
C  -7.03000 37.21400 40.46600
C  -6.25800 38.50600 40.74000
C  -7.40300 39.47200 41.13700
C  -5.14500 38.44600 41.90700
C  -7.23400 37.04200 38.93200
C  -6.65500 35.78900 38.25700
H  -5.62800 36.12800 37.16700
N  -9.52400 41.59500 41.74600
C  -8.28000 41.87200 41.20300
C  -8.13100 43.28900 40.95300
C  -9.46700 43.83600 41.13500
C  -10.31800 42.76000 41.62600
C  -6.81000 43.89300 40.46600
C  -9.82000 45.29600 40.80700
O  -8.88000 46.06300 40.67700
C  -11.19500 45.82900 40.76200
N  -12.43900 40.48900 42.35100
C  -12.63600 41.81200 42.24800
C  -14.12800 42.18700 42.60700
C  -14.76000 40.76200 42.96800
C  -13.50700 39.87100 42.90800
C  -14.44900 43.32700 43.68800
C  -15.92200 40.30600 42.05000
C  -17.18500 39.82200 42.78900
N  -11.31900 37.87800 42.34400
C  -12.63100 37.56200 42.74400
C  -12.72800 36.08400 42.70300
C  -11.46600 35.60000 42.29400
C  -10.63700 36.74000 42.14400
C  -14.01800 35.27400 42.94900
C  -10.70400 34.41900 41.90700
O  -10.98300 33.24700 42.05800
C  -9.30800 34.96100 41.41700
C  -8.27300 34.34900 42.33800
O  -8.23500 34.34200 43.52900
O  -7.22400 33.91900 41.53300
C  -5.90600 33.59700 42.19500
H  -6.29700 41.21300 40.81300
H  -12.23300 43.71700 41.92400
H  -14.65300 38.12500 43.16000
H  -6.45400 36.34900 40.79400
H  -5.75100 38.98500 39.90300
H  -5.29900 39.27200 42.60200
H  -4.14400 38.49000 41.47800
H  -5.16600 37.52200 42.48400
H  -7.00900 37.88500 38.28000
H  -8.32100 36.98000 38.89200
H  -7.50000 35.31400 37.75900
H  -6.19300 35.04600 38.90600
H  -6.02700 43.86400 41.22200
H  -6.87600 44.92300 40.11400
H  -6.41100 43.26400 39.67000
H  -11.89400 45.05600 40.44600
H  -11.16700 46.61400 40.00600
H  -11.46900 46.16800 41.76200
H  -14.44400 42.50800 41.61500
H  -15.06900 40.92000 44.00100
H  -14.99100 44.15000 43.22100
H  -13.49300 43.68100 44.07300
H  -15.10500 43.05400 44.51500
H  -15.45100 39.57600 41.39300
H  -16.24600 41.06000 41.33200
H  -18.09600 40.22200 42.34400
H  -17.14700 39.85600 43.87800
H  -17.24000 38.74700 42.61800
H  -14.60000 35.23500 42.02800
H  -14.59500 35.49700 43.84700
H  -13.69400 34.24200 43.08100
H  -9.12600 34.61400 40.39900
H  -5.93900 32.77300 42.90800
H  -5.46500 34.47200 42.67200
H  -5.25800 33.13400 41.45000

