158

Mg 45.45200 3.61400 48.12600
C  43.59600 6.47900 47.35400
C  42.57800 1.69500 47.31900
C  47.41800 0.79200 47.89800
C  48.28600 5.50200 48.15500
N  43.22100 4.11800 47.64200
C  42.73200 5.33600 47.31000
C  41.15900 5.24900 46.98100
C  40.88500 3.72200 47.29400
C  42.31100 3.12400 47.41300
C  40.10300 3.47000 48.58100
C  40.75400 5.65500 45.50600
C  39.59200 6.62800 45.27700
H  38.70000 6.35800 43.99800
N  45.03400 1.54600 47.68800
C  43.84300 0.97200 47.36800
C  43.94200 -0.49800 47.25000
C  45.33600 -0.82200 47.52100
C  46.02800 0.54100 47.74400
C  42.75300 -1.36700 46.93400
C  45.93400 -2.22400 47.49500
O  45.21700 -3.19200 47.26100
C  47.42300 -2.48600 47.68200
N  47.55200 3.15400 48.23000
C  48.11100 1.96000 48.04300
C  49.62300 2.06200 48.24900
C  49.90100 3.61500 48.10300
C  48.49300 4.10800 48.27400
C  49.99000 1.41900 49.57300
C  50.57300 4.05100 46.75200
C  51.93400 4.70700 46.76800
N  45.90800 5.61400 47.89300
C  47.05200 6.29300 47.98100
C  46.89100 7.67200 47.56600
C  45.52000 7.77400 47.32200
C  44.98700 6.55700 47.61000
C  48.00300 8.71400 47.56700
C  44.40900 8.66000 46.98200
O  44.36700 9.91500 46.81300
C  43.11000 7.83000 46.91800
C  42.13600 8.44500 47.88200
O  41.86800 8.03400 49.01900
O  41.51200 9.47100 47.18900
C  40.53600 10.36100 47.91000
H  41.75300 1.05000 47.00900
H  48.12600 -0.03700 47.83600
H  49.07500 6.23700 47.97600
H  40.62700 5.92400 47.65100
H  40.36200 3.23400 46.47100
H  39.64800 4.39800 48.92700
H  40.74100 3.01200 49.33700
H  39.19400 2.88700 48.44100
H  40.40400 4.76400 44.98400
H  41.68800 5.94000 45.02300
H  39.93900 7.65400 45.15900
H  38.96200 6.44600 46.14800
H  42.82400 -1.64400 45.88200
H  41.79000 -0.89300 47.12300
H  42.96000 -2.20800 47.59600
H  48.04400 -2.36700 46.79400
H  47.33600 -3.54900 47.90400
H  47.66800 -1.94900 48.59800
H  50.12900 1.43300 47.51600
H  50.45200 4.06600 48.92800
H  50.72100 2.04400 50.08500
H  50.45900 0.46100 49.34900
H  49.09700 1.23500 50.17100
H  49.92700 4.71700 46.18100
H  50.67600 3.19500 46.08400
H  52.63800 4.07900 46.22300
H  52.34100 4.81300 47.77300
H  51.86900 5.65800 46.23800
H  47.92200 9.57800 46.90800
H  49.04500 8.40300 47.63900
H  47.90900 9.10700 48.58000
H  42.63600 7.87100 45.93800
H  39.97300 9.83300 48.68000
H  39.83600 10.71200 47.15100
H  41.02200 11.27000 48.26300
Mg 54.49400 24.18600 45.43600
C  51.71200 26.26500 44.92100
C  52.70900 21.46600 44.25700
C  57.25700 22.43700 45.56500
C  56.28100 27.12900 46.31500
N  52.44200 23.99900 44.59800
C  51.53100 24.96000 44.37800
C  50.25400 24.36200 43.73800
C  50.49700 22.81500 44.01700
C  51.98600 22.75800 44.21700
C  49.94700 22.23600 45.30000
C  50.25700 24.76000 42.19200
C  48.94400 25.13800 41.44000
H  48.44900 24.18000 40.27400
N  54.85000 22.16900 45.02700
C  54.03000 21.22200 44.52000
C  54.78000 19.96100 44.41600
C  56.09000 20.19600 44.93000
C  56.07500 21.64000 45.24000
C  54.04300 18.64100 44.01000
C  57.18400 19.12300 45.13900
O  56.89800 18.00200 44.74400
C  58.51900 19.48900 45.61600
N  56.55200 24.73900 45.79900
C  57.47300 23.73300 45.87500
C  58.82800 24.35300 46.31700
C  58.52900 25.89400 46.31900
C  57.01300 25.87600 46.24400
C  59.33000 23.62700 47.61600
C  59.06200 26.86000 45.08100
C  60.54100 26.63700 44.70800
N  54.17100 26.28300 45.60400
C  54.97400 27.34900 46.03000
C  54.20600 28.50300 46.10900
C  52.94800 28.16000 45.67000
C  52.91700 26.77100 45.40700
C  54.67400 29.79500 46.50100
C  51.62100 28.75400 45.40300
O  51.15800 29.84100 45.61800
C  50.79700 27.51900 44.82300
C  50.35900 27.89700 43.44200
O  51.20500 28.26000 42.60800
O  48.98700 27.81400 43.27400
C  48.49800 28.30200 41.99600
H  52.00500 20.67600 43.98900
H  58.22300 21.94300 45.68400
H  56.80300 28.03200 46.64000
H  49.38200 24.68400 44.30600
H  50.25100 22.18100 43.16600
H  49.08100 22.78400 45.67200
H  50.65300 22.11100 46.12100
H  49.61100 21.22300 45.07600
H  50.66800 23.88700 41.68500
H  50.90800 25.61800 42.02100
H  49.09000 26.05000 40.86100
H  48.18700 25.29400 42.20800
H  53.56700 18.82700 43.04700
H  53.28600 18.15300 44.62500
H  54.74100 17.83100 43.79700
H  59.13000 20.07300 44.92800
H  59.05700 18.58900 45.91700
H  58.34000 20.00000 46.56200
H  59.55100 24.21000 45.51300
H  58.63500 26.34800 47.30500
H  59.74900 24.37400 48.29000
H  60.08200 22.85300 47.46500
H  58.51700 23.21800 48.21600
H  58.77100 27.87300 45.36100
H  58.54900 26.74000 44.12700
H  60.54900 26.14600 43.73500
H  61.00300 26.04700 45.50000
H  61.15000 27.51700 44.49800
H  54.19400 30.01300 47.45500
H  54.36600 30.35500 45.61800
H  55.73600 30.03000 46.55700
H  49.95300 27.27100 45.46600
H  49.09800 28.01900 41.13100
H  48.63400 29.38400 41.99900
H  47.46000 28.14900 41.69900

