158

Mg 44.96600 3.09200 47.20900
C  42.99900 5.97000 46.77200
C  42.07800 1.14500 46.74300
C  46.99400 0.36900 46.61200
C  47.85000 5.18400 46.72500
N  42.80700 3.53800 46.80000
C  42.27400 4.76900 46.78900
C  40.74500 4.64000 46.39800
C  40.38500 3.09000 46.62400
C  41.83300 2.52200 46.79800
C  39.54000 2.97000 47.94500
C  40.40500 5.17400 44.94400
C  39.21200 6.20800 44.81400
H  38.29500 6.04200 43.68700
N  44.57500 1.08400 46.96500
C  43.34500 0.47200 46.89100
C  43.55300 -0.99600 46.83800
C  44.94800 -1.25200 46.81700
C  45.59700 0.09900 46.87400
C  42.34700 -1.93100 46.76500
C  45.59800 -2.63500 46.65900
O  44.92100 -3.65700 46.86100
C  46.90200 -2.81700 46.24100
N  47.10100 2.81900 46.72400
C  47.67000 1.59400 46.62100
C  49.22000 1.73600 46.38600
C  49.51200 3.25000 46.40200
C  48.06600 3.78800 46.63500
C  50.00000 0.90800 47.38900
C  50.13600 3.80500 45.08000
C  51.04100 4.94800 45.19200
N  45.45900 5.14500 47.04200
C  46.63600 5.86900 46.93500
C  46.35300 7.33700 46.82900
C  44.92000 7.40800 46.77700
C  44.42600 6.05400 46.88000
C  47.29800 8.41400 46.52400
C  43.70900 8.28100 46.60600
O  43.61500 9.49200 46.54500
C  42.46800 7.40500 46.52400
C  41.64300 7.90600 47.68700
O  41.75900 7.49600 48.79500
O  40.84500 8.99600 47.22500
C  40.15600 9.74400 48.33100
H  41.19000 0.52200 46.61700
H  47.74800 -0.39100 46.40000
H  48.77100 5.71100 46.46700
H  40.08700 5.25800 47.00900
H  39.93900 2.66500 45.72600
H  40.15700 2.53200 48.73100
H  38.69200 2.36900 47.61800
H  39.24300 3.95400 48.30900
H  40.10500 4.32600 44.32900
H  41.31900 5.66700 44.61100
H  39.54300 7.24200 44.71800
H  38.63500 6.19200 45.73900
H  42.63100 -2.70600 46.05300
H  41.39300 -1.54700 46.40300
H  42.24400 -2.41700 47.73500
H  47.11600 -2.24500 45.33900
H  47.12500 -3.84400 45.95200
H  47.60500 -2.55700 47.03200
H  49.25400 1.35400 45.36600
H  50.14600 3.47100 47.26100
H  49.35500 0.25500 47.97700
H  50.61800 1.49500 48.06800
H  50.59400 0.15400 46.87200
H  49.36600 4.00200 44.33400
H  50.61200 2.92300 44.65100
H  50.92200 5.37900 46.18600
H  50.62100 5.79600 44.65000
H  52.04500 4.66700 44.87300
H  48.10900 8.48800 47.24900
H  46.73700 9.34800 46.54900
H  47.69100 8.32500 45.51200
H  41.97200 7.45900 45.55400
H  39.24700 9.22500 48.63500
H  39.86500 10.74000 47.99700
H  40.74400 9.84600 49.24300
Mg 7.15400 54.30200 40.94900
C  6.87100 50.69700 41.00300
C  10.43700 53.75600 40.11300
C  7.30500 57.50300 40.08900
C  3.86900 54.45000 41.87700
N  8.46800 52.38600 40.55200
C  8.12900 51.06600 40.65600
C  9.39600 50.15900 40.47400
C  10.59200 51.16800 40.65300
C  9.84000 52.55800 40.50100
C  11.53500 51.04900 41.84200
C  9.39300 49.38600 39.08200
C  9.12000 50.30100 37.85000
H  7.72100 50.36400 37.20500
N  8.67400 55.52000 40.20800
C  9.89600 55.09100 39.83200
C  10.58300 56.14900 39.18200
C  9.80900 57.32100 39.21100
C  8.53000 56.83600 39.85900
C  11.99300 56.01200 38.55900
C  10.11800 58.79700 38.75900
O  11.27300 59.05200 38.41100
C  9.07700 59.92700 38.73300
N  5.81000 55.68900 40.83600
C  6.13000 57.03300 40.59900
C  4.95200 57.93400 40.99100
C  3.82500 56.94400 41.49800
C  4.51000 55.62800 41.36500
C  5.33000 59.09000 41.96400
C  2.47900 57.12800 40.70900
C  1.31400 57.84400 41.39500
N  5.58400 52.93900 41.28900
C  4.28300 53.12100 41.74300
C  3.69100 51.82700 42.18700
C  4.66700 50.90400 41.89100
C  5.80300 51.62500 41.32500
C  2.41000 51.68600 42.90200
C  4.93800 49.50500 41.95800
O  4.31600 48.68500 42.54000
C  6.33700 49.27600 41.30100
C  6.07900 48.47700 40.06100
O  5.92400 48.83400 38.90400
O  5.93700 47.19800 40.41500
C  5.36500 46.25700 39.45700
H  11.45300 53.46700 39.83600
H  7.29300 58.58600 39.94400
H  2.92300 54.70900 42.35500
H  9.35900 49.47200 41.31900
H  11.25700 51.11000 39.79100
H  12.57700 50.94600 41.54000
H  11.27300 50.33900 42.62700
H  11.44700 51.98200 42.39900
H  8.79300 48.47900 39.16100
H  10.43000 49.08500 38.92700
H  9.91900 49.97000 37.18600
H  9.22400 51.34100 38.16100
H  12.15700 54.96100 38.31800
H  12.81300 56.36000 39.18700
H  11.85200 56.61900 37.66400
H  8.17400 59.68000 38.17600
H  9.43800 60.83700 38.25400
H  8.73500 60.21600 39.72700
H  4.55600 58.37000 40.07400
H  3.61900 57.14500 42.54900
H  6.36100 59.40200 41.79700
H  5.04300 58.84800 42.98800
H  4.61500 59.89800 41.81300
H  2.11900 56.15500 40.37600
H  2.63400 57.69300 39.78900
H  1.58700 58.23000 42.37600
H  0.45600 57.18400 41.52200
H  0.92900 58.69200 40.82800
H  2.49600 52.21000 43.85400
H  2.00900 50.72500 43.22500
H  1.59200 52.17000 42.36900
H  7.08100 48.74300 41.89400
H  4.94700 45.40700 39.99700
H  6.11800 45.91400 38.74700
H  4.49400 46.65700 38.93900

