158

Mg 3.06900 -0.90600 44.25200
C  6.34300 -0.27100 43.22800
C  2.05100 1.64600 42.24800
C  -0.01600 -2.25500 44.19800
C  4.26800 -3.79800 45.80700
N  4.09500 0.39300 42.75500
C  5.44100 0.53700 42.57300
C  5.76700 1.79800 41.79500
C  4.38800 2.51500 41.67300
C  3.40100 1.50100 42.32400
C  4.36200 3.88000 42.42900
C  6.41300 1.51700 40.45400
C  7.16400 2.74400 39.83400
H  6.89200 3.23500 38.44900
N  1.12600 -0.21300 43.56500
C  0.97600 0.84100 42.68400
C  -0.37400 1.00400 42.39600
C  -1.06200 -0.06900 43.06200
C  0.00900 -0.92200 43.70500
C  -0.98300 1.99200 41.46500
C  -2.51200 -0.30200 43.07900
O  -3.22300 0.30000 42.31200
C  -3.08300 -1.06500 44.26000
N  2.30300 -2.74000 44.81400
C  1.00800 -3.06600 44.69900
C  0.69700 -4.50300 45.35800
C  1.98700 -4.86100 46.01400
C  2.89900 -3.70600 45.52900
C  -0.47400 -4.64100 46.33300
C  2.50400 -6.28500 45.63600
C  2.77800 -7.28900 46.75000
N  4.93000 -1.76700 44.66800
C  5.27400 -2.97000 45.34300
C  6.75600 -3.07100 45.43600
C  7.21300 -1.97600 44.67100
C  6.03000 -1.35800 44.11900
C  7.49500 -4.03500 46.28900
C  8.33900 -1.27300 44.15600
O  9.53300 -1.44800 44.33800
C  7.86500 -0.29300 43.12600
C  8.40400 0.96000 43.46500
O  8.33700 1.49500 44.55700
O  9.00900 1.55900 42.40800
C  9.68800 2.88100 42.54700
H  1.63600 2.42800 41.60900
H  -1.02600 -2.66900 44.22600
H  4.62500 -4.69600 46.31700
H  6.50600 2.36900 42.35700
H  4.07500 2.77200 40.66100
H  5.33400 4.16600 42.83100
H  3.76900 3.84600 43.34300
H  4.09000 4.69200 41.75400
H  5.67500 1.30300 39.68100
H  7.12400 0.69300 40.51700
H  8.22600 2.50400 39.79200
H  6.98000 3.56400 40.52800
H  -1.30000 1.56000 40.51600
H  -0.37400 2.86500 41.23000
H  -1.81900 2.48400 41.96300
H  -3.21700 -2.10300 43.95600
H  -4.02100 -0.51800 44.34900
H  -2.52900 -1.10700 45.19800
H  0.41900 -5.22000 44.58600
H  1.89500 -4.66400 47.08200
H  -0.08900 -4.98000 47.29500
H  -1.23700 -5.26600 45.87000
H  -0.93800 -3.65500 46.35800
H  3.43700 -6.11200 45.10000
H  1.91800 -6.83400 44.89900
H  3.85300 -7.45000 46.83800
H  2.33600 -8.26000 46.52600
H  2.31300 -6.95700 47.67800
H  8.56400 -3.99600 46.08400
H  7.09700 -4.98700 45.93700
H  7.33400 -3.80400 47.34200
H  8.08800 -0.62400 42.11200
H  8.93800 3.65500 42.38700
H  10.39400 2.95000 41.72000
H  10.12700 3.02500 43.53400
Mg -1.30900 34.53600 26.71100
C  -3.02000 32.75700 29.31600
C  -0.29400 36.73200 28.95800
C  -0.26800 36.39200 24.24700
C  -2.94900 32.32400 24.45900
N  -1.75300 34.71100 28.91200
C  -2.31100 33.82400 29.80600
C  -2.09400 34.19900 31.31600
C  -1.27300 35.58700 31.05100
C  -1.00400 35.68700 29.56200
C  -1.93600 36.91300 31.54200
C  -1.33300 33.11900 32.12000
C  -2.17200 32.49300 33.28700
H  -1.43700 32.24200 34.63600
N  -0.30500 36.28500 26.58800
C  0.05700 37.05200 27.64400
C  0.88800 38.12800 27.21400
C  0.99000 38.03600 25.78700
C  0.12200 36.88200 25.46100
C  1.53800 39.20800 28.10600
C  1.70300 38.86500 24.81500
O  1.72200 38.73000 23.59600
C  2.62400 39.95700 25.21500
N  -1.61800 34.33400 24.65000
C  -0.98400 35.21000 23.85700
C  -1.12600 34.80200 22.34300
C  -1.80900 33.38100 22.42300
C  -2.15900 33.33100 23.90900
C  -1.89300 35.85400 21.39800
C  -1.01100 32.14900 21.87100
C  0.36600 32.02300 22.50100
N  -2.68100 32.79500 26.84200
C  -3.25600 32.08600 25.85000
C  -4.20600 31.08100 26.42100
C  -4.06100 31.27700 27.82400
C  -3.11900 32.28700 28.02200
C  -5.04600 29.98500 25.77200
C  -4.48600 30.80900 29.09200
O  -5.28100 29.91700 29.46900
C  -3.93200 31.76000 30.14600
C  -4.98000 32.36700 30.95400
O  -5.62400 33.40400 30.62600
O  -5.12900 31.70600 32.17800
C  -5.69100 32.47900 33.24400
H  0.14900 37.45400 29.64600
H  0.12100 36.94300 23.38900
H  -3.19200 31.43700 23.87100
H  -3.05900 34.41700 31.77400
H  -0.29600 35.51400 31.53000
H  -1.35400 37.41500 32.31500
H  -2.87900 36.53700 31.93700
H  -2.15800 37.59200 30.71900
H  -0.47700 33.61700 32.57600
H  -0.83500 32.41800 31.45000
H  -2.55800 31.51600 32.99500
H  -2.99700 33.14600 33.57300
H  1.07000 40.13900 27.78700
H  2.61100 39.24400 27.91900
H  1.37800 39.00200 29.16500
H  3.09700 40.23800 24.27400
H  3.36500 39.52500 25.88800
H  2.14200 40.70200 25.84800
H  -0.11800 34.64700 21.95900
H  -2.74500 33.16300 21.90900
H  -1.18000 36.26500 20.68300
H  -2.26900 36.73600 21.91600
H  -2.79800 35.46700 20.92800
H  -0.99000 32.19200 20.78200
H  -1.50300 31.18300 21.98300
H  1.17000 32.56000 21.99700
H  0.71200 30.99400 22.59000
H  0.21900 32.36000 23.52700
H  -5.98200 30.08400 26.32200
H  -4.67000 28.97600 25.94200
H  -5.15300 30.16200 24.70200
H  -3.29000 31.23600 30.85400
H  -6.21000 31.79300 33.91300
H  -6.46100 33.19100 32.94700
H  -5.01100 33.06800 33.86100

