158

Mg 6.70100 56.63600 40.98300
C  5.50400 53.53900 40.96900
C  9.60400 55.59600 39.41100
C  7.54600 59.90700 40.25500
C  3.64700 57.78200 42.39900
N  7.50900 54.79000 40.42500
C  6.81700 53.57600 40.45200
C  7.61600 52.45600 39.86400
C  9.04600 53.06700 39.84900
C  8.73100 54.58200 39.86600
C  10.01700 52.72100 41.14200
C  7.04600 52.09500 38.41900
C  7.43400 50.66100 38.06400
H  7.61600 50.31500 36.52800
N  8.34200 57.61000 39.98600
C  9.48600 56.99700 39.46800
C  10.32900 57.94700 38.85400
C  9.80900 59.25100 39.17400
C  8.49300 58.95200 39.80300
C  11.62300 57.62300 38.19100
C  10.47900 60.63900 39.01500
O  11.53600 60.74400 38.40900
C  9.89500 61.88500 39.52200
N  5.57600 58.50200 41.09100
C  6.27300 59.73500 40.87200
C  5.45300 60.95300 41.27500
C  4.18500 60.25800 41.94900
C  4.46100 58.75400 41.79600
C  6.17700 62.07100 42.10800
C  2.84000 60.79600 41.46300
C  1.76800 60.94900 42.67200
N  4.93600 55.79800 41.71800
C  3.82500 56.37400 42.23400
C  2.89600 55.38300 42.63900
C  3.56600 54.20200 42.24000
C  4.70000 54.54400 41.53700
C  1.50300 55.63300 43.19000
C  3.48200 52.72400 42.11800
O  2.57800 51.94100 42.47000
C  4.68800 52.25100 41.26200
C  4.18700 51.64600 40.04900
O  3.40000 52.18500 39.34200
O  4.64800 50.40300 39.89300
C  4.09700 49.82500 38.68200
H  10.47900 55.11900 38.96400
H  7.77900 60.95500 40.05200
H  2.76800 58.22900 42.86700
H  7.48200 51.53500 40.43100
H  9.53800 52.80700 38.91100
H  9.59000 51.85900 41.65500
H  10.15000 53.58800 41.78800
H  11.00800 52.57600 40.71300
H  7.45600 52.73600 37.63800
H  5.95900 52.17300 38.41000
H  6.64800 49.99400 38.41900
H  8.32200 50.31100 38.59000
H  12.48900 58.16200 38.57500
H  11.55600 58.01400 37.17600
H  11.77200 56.55200 38.06200
H  9.54800 61.79800 40.55100
H  9.07100 62.14900 38.85800
H  10.65300 62.66800 39.48900
H  5.16500 61.40700 40.32700
H  4.36100 60.38600 43.01700
H  7.22800 61.89500 42.33500
H  5.62700 62.24500 43.03400
H  6.10800 63.05800 41.65100
H  2.47000 60.14900 40.66800
H  2.83200 61.80900 41.06000
H  1.42300 61.95500 42.91000
H  2.18200 60.51600 43.58300
H  0.92900 60.27300 42.50600
H  1.00500 56.42500 42.63000
H  1.52100 55.97600 44.22400
H  0.91000 54.71800 43.18200
H  5.35600 51.49600 41.67600
H  4.64300 48.89400 38.52800
H  4.17500 50.43000 37.77900
H  3.05000 49.60000 38.88500
Mg -0.25500 43.28800 24.61100
C  2.02800 42.98700 27.33600
C  -2.73300 42.34800 26.84200
C  -2.33900 43.30800 22.05700
C  2.54400 43.58300 22.42200
N  -0.33500 42.83500 26.87500
C  0.71900 42.82500 27.75000
C  0.28000 42.60300 29.19400
C  -1.27300 42.15100 29.00100
C  -1.49400 42.48300 27.51500
C  -1.66100 40.67400 29.33300
C  0.55400 43.91200 30.05400
C  1.05200 43.63700 31.44100
H  0.80100 42.25400 32.04000
N  -2.27300 43.07600 24.45300
C  -3.05700 42.65400 25.48000
C  -4.38500 42.61700 24.84200
C  -4.40700 42.83200 23.51400
C  -2.92400 43.06500 23.27700
C  -5.56600 42.19500 25.64500
C  -5.54200 42.90400 22.44700
O  -5.35900 43.20800 21.27100
C  -6.92800 42.63800 22.89600
N  0.04600 43.36900 22.55200
C  -0.96400 43.42400 21.68000
C  -0.54900 43.76100 20.19600
C  1.01000 43.91400 20.43000
C  1.21100 43.65700 21.90800
C  -1.05800 42.72700 19.15800
C  1.42100 45.31100 19.90200
C  0.97200 46.51400 20.67700
N  1.85600 43.22100 24.78600
C  2.85400 43.35900 23.80300
C  4.08900 43.38400 24.44400
C  3.85000 43.13000 25.80600
C  2.43800 42.98400 25.97500
C  5.39400 43.46000 23.84400
C  4.48400 42.95700 27.13200
O  5.68100 43.00800 27.46800
C  3.26800 42.97400 28.13700
C  3.49800 41.76300 28.93800
O  2.98800 40.64100 28.71900
O  4.28100 42.17600 30.00000
C  4.65500 41.07200 30.85200
H  -3.50300 42.03500 27.55000
H  -3.03000 43.29500 21.21200
H  3.40800 43.89400 21.83200
H  0.73100 41.66600 29.51900
H  -1.85300 42.93700 29.48300
H  -2.26200 40.70800 30.24200
H  -0.85600 39.99400 29.61300
H  -2.30300 40.24400 28.56500
H  -0.39000 44.45200 30.13500
H  1.17800 44.61000 29.49500
H  0.53500 44.37600 32.05200
H  2.12800 43.78200 31.34400
H  -6.12400 41.44000 25.09200
H  -6.21100 43.06200 25.78700
H  -5.23800 41.82600 26.61700
H  -7.16500 41.57500 22.94300
H  -7.50500 43.10600 22.09900
H  -7.23600 43.23000 23.75800
H  -0.95300 44.75400 20.00400
H  1.55300 43.15700 19.86400
H  -0.22100 42.15400 18.76000
H  -1.52300 43.24900 18.32100
H  -1.75100 41.98900 19.56300
H  1.01200 45.41100 18.89600
H  2.50900 45.33900 19.83800
H  1.85100 46.98700 21.11300
H  0.43400 46.22100 21.57800
H  0.46600 47.23800 20.03900
H  6.05800 43.37600 24.70400
H  5.55500 44.36400 23.25600
H  5.58200 42.70700 23.07800
H  3.30500 43.86800 28.75900
H  5.69200 41.24900 31.13600
H  4.65900 40.03900 30.50400
H  4.05700 41.03100 31.76300

