158

Mg 16.83700 53.02800 26.71600
C  18.85000 51.22600 28.89500
C  14.49700 53.52200 29.08400
C  14.66700 54.26000 24.28000
C  18.82500 51.83900 24.11000
N  16.76800 52.54400 28.77300
C  17.70400 51.79800 29.43500
C  17.34400 51.94400 30.93400
C  15.81600 52.46300 30.96500
C  15.69400 52.86000 29.51900
C  14.82500 51.28600 31.27300
C  18.29100 52.97600 31.61600
C  18.68300 52.59700 33.07600
H  17.57000 52.14400 34.01700
N  15.05800 54.00200 26.72700
C  14.23600 54.18500 27.84700
C  13.01500 54.93100 27.52900
C  13.08900 55.17300 26.15200
C  14.33600 54.47800 25.62600
C  11.99400 55.34500 28.55700
C  12.04500 55.89300 25.23300
O  12.10000 55.81900 24.04600
C  10.81600 56.65100 25.75300
N  16.75800 53.01100 24.53800
C  15.77600 53.58600 23.78900
C  16.13800 53.63300 22.30000
C  17.62700 53.15300 22.28500
C  17.73700 52.57400 23.68500
C  15.22200 52.67100 21.37600
C  18.71700 54.26700 21.90900
C  19.17500 54.20600 20.44300
N  18.57500 51.89600 26.51000
C  19.26400 51.45700 25.38000
C  20.51700 50.90400 25.86000
C  20.42600 50.73200 27.19200
C  19.15700 51.28300 27.54100
C  21.70000 50.55400 24.91600
C  21.06500 50.18400 28.40900
O  22.13400 49.62700 28.49900
C  20.08900 50.63200 29.57600
C  19.64000 49.32800 30.23900
O  19.11200 48.36600 29.72900
O  19.84500 49.50700 31.60600
C  19.42500 48.30900 32.35500
H  13.72500 53.54100 29.85700
H  14.01300 54.60400 23.47600
H  19.59400 51.58400 23.37800
H  17.49300 50.95300 31.36200
H  15.74500 53.32200 31.63300
H  13.98600 51.73700 31.80300
H  15.28900 50.68500 32.05500
H  14.51600 50.73800 30.38300
H  17.87400 53.98100 31.56500
H  19.24200 52.92300 31.08600
H  19.07200 53.52900 33.48400
H  19.51400 51.89100 33.08100
H  12.23800 54.79100 29.46400
H  10.98600 55.14700 28.19300
H  12.12000 56.40600 28.77000
H  11.18300 57.44900 26.39900
H  10.10600 55.95900 26.20800
H  10.29700 57.07700 24.89400
H  16.12500 54.65800 21.92800
H  17.83100 52.32100 21.61200
H  14.20400 52.70000 21.76500
H  15.54300 51.62900 21.37600
H  15.11300 52.89900 20.31600
H  19.54100 54.22800 22.62200
H  18.23100 55.23900 21.99300
H  18.52700 53.67500 19.74600
H  20.06200 53.57200 20.44900
H  19.27800 55.23100 20.08700
H  21.70500 51.28900 24.11100
H  21.63500 49.59500 24.40300
H  22.60500 50.58200 25.52300
H  20.52700 51.26100 30.35100
H  19.70300 48.40200 33.40500
H  19.84000 47.39200 31.93600
H  18.33600 48.35400 32.36100
Mg -5.90600 25.84100 26.35400
C  -4.66300 27.22700 29.24600
C  -7.86300 23.65700 28.55400
C  -6.46200 23.71700 23.81700
C  -3.59200 27.59900 24.52000
N  -6.32700 25.54500 28.64200
C  -5.60200 26.18900 29.58000
C  -6.06800 25.76800 30.97400
C  -6.78300 24.42200 30.73600
C  -7.01700 24.53600 29.24000
C  -6.03200 23.09900 31.24400
C  -7.00600 26.86800 31.58600
C  -6.88200 26.94100 33.17800
H  -6.14100 25.87900 34.00400
N  -7.07100 24.07200 26.17000
C  -7.88400 23.44200 27.10900
C  -8.72900 22.45400 26.45000
C  -8.26200 22.38900 25.08300
C  -7.20400 23.41700 24.93500
C  -9.78900 21.72900 27.14100
C  -8.74100 21.42200 23.99200
O  -8.11900 21.34400 22.98000
C  -10.00500 20.61800 24.11600
N  -5.08000 25.65400 24.52000
C  -5.52100 24.77500 23.57300
C  -4.86100 25.02000 22.17500
C  -4.17100 26.36500 22.40600
C  -4.24300 26.57200 23.96100
C  -3.97600 23.84300 21.70300
C  -4.68100 27.65600 21.59700
C  -3.53100 28.42400 20.75500
N  -4.51200 27.27200 26.80100
C  -3.57600 27.92100 25.95400
C  -2.83200 28.88500 26.63600
C  -3.21400 28.65900 27.94900
C  -4.25500 27.68300 27.97700
C  -1.90300 29.80100 25.94700
C  -3.00100 29.09900 29.35700
O  -2.31700 29.94100 29.85500
C  -3.84400 28.07500 30.21800
C  -2.91900 27.37700 31.22100
O  -2.24600 26.36900 31.07000
O  -2.85700 28.11500 32.37600
C  -2.15000 27.36300 33.48000
H  -8.31900 22.91400 29.21100
H  -6.57300 22.96700 23.03200
H  -2.94800 28.20000 23.87400
H  -5.08500 25.65300 31.43100
H  -7.71900 24.46700 31.29200
H  -6.16100 22.28100 30.53600
H  -6.39100 22.80900 32.23200
H  -5.00800 23.35300 31.51700
H  -8.04100 26.58000 31.40100
H  -6.82900 27.85600 31.16200
H  -7.94500 27.05700 33.38900
H  -6.39700 27.90300 33.34000
H  -10.78100 22.01600 26.79300
H  -9.66500 21.85500 28.21600
H  -9.55300 20.66500 27.13600
H  -9.75800 19.75800 24.73800
H  -10.34200 20.25000 23.14700
H  -10.63700 21.34800 24.62200
H  -5.64600 25.11800 21.42500
H  -3.14300 26.26200 22.06000
H  -3.99300 23.16000 22.55200
H  -2.92100 24.11900 21.68600
H  -4.36600 23.34200 20.81700
H  -5.23500 28.30100 22.27900
H  -5.46400 27.31500 20.91900
H  -3.54000 29.49100 20.97700
H  -3.83800 28.20700 19.73200
H  -2.54500 27.98900 20.91600
H  -1.95000 29.73700 24.86000
H  -0.87500 29.50100 26.15300
H  -2.06500 30.84600 26.21000
H  -4.55200 28.64900 30.81600
H  -1.12900 27.74100 33.42300
H  -2.19800 26.27500 33.51700
H  -2.61800 27.75200 34.38400

