158

Mg 47.57300 24.34600 28.26300
C  48.48600 26.56900 30.84900
C  46.76200 21.97300 30.66100
C  46.71300 22.18600 25.80900
C  48.44900 26.78900 26.00400
N  47.56800 24.25300 30.48900
C  47.95800 25.29600 31.34900
C  47.63000 24.90300 32.81500
C  47.25300 23.37100 32.65700
C  47.18800 23.17700 31.18100
C  48.28800 22.41400 33.32600
C  46.56700 25.74100 33.52100
C  46.16500 25.42200 34.91900
H  46.47100 26.46000 36.03200
N  46.84500 22.36900 28.22500
C  46.49900 21.55800 29.33600
C  45.93600 20.33300 28.91800
C  45.92200 20.33600 27.48700
C  46.53900 21.62100 27.08400
C  45.41100 19.26600 29.79400
C  45.52700 19.23900 26.53200
O  45.52000 19.41100 25.29900
C  45.12700 17.86100 27.08700
N  47.78100 24.38000 26.16600
C  47.32200 23.41800 25.38000
C  47.38500 23.79200 23.80500
C  47.71000 25.28900 23.98800
C  48.02700 25.55700 25.47700
C  48.39300 23.00100 23.03100
C  46.56200 26.28400 23.50800
C  47.08100 27.59900 22.71100
N  48.26900 26.26600 28.27900
C  48.61200 27.16500 27.30400
C  48.98600 28.46000 27.78400
C  48.81400 28.24000 29.13300
C  48.48100 26.87200 29.42000
C  49.33000 29.69600 27.06400
C  48.97800 29.00200 30.42900
O  49.34400 30.15000 30.65800
C  48.77000 27.89000 31.57400
C  49.90400 27.80400 32.50300
O  51.00000 27.25800 32.32700
O  49.55100 28.43700 33.62900
C  50.37400 28.33400 34.87900
H  46.48800 21.22000 31.40300
H  46.36900 21.63300 24.93200
H  48.63900 27.55700 25.25100
H  48.59100 25.06300 33.30400
H  46.24200 23.23200 33.04000
H  48.68900 21.73300 32.57500
H  47.78500 21.72700 34.00600
H  49.14300 22.81200 33.87300
H  45.63400 25.60100 32.97500
H  46.75700 26.80300 33.37100
H  46.63700 24.49800 35.25200
H  45.11200 25.14900 34.84900
H  45.50200 19.42500 30.86800
H  46.03200 18.38000 29.65800
H  44.39500 19.09700 29.43900
H  44.26700 17.92400 27.75500
H  45.92600 17.46900 27.71600
H  44.84000 17.26200 26.22300
H  46.38200 23.60000 23.42300
H  48.58500 25.46600 23.36300
H  49.36600 23.49200 23.06600
H  48.19600 22.84500 21.97000
H  48.54600 22.02800 23.49900
H  45.96900 26.63400 24.35300
H  45.92500 25.67900 22.86300
H  48.16700 27.55200 22.63400
H  46.72000 28.47200 23.25500
H  46.52100 27.68100 21.77900
H  49.07200 30.51700 27.73300
H  48.71000 29.79500 26.17300
H  50.37500 29.75500 26.76100
H  47.82200 28.15000 32.04600
H  51.10900 29.13800 34.83200
H  50.97500 27.42500 34.85700
H  49.79000 28.41900 35.79500
Mg 48.08700 34.00100 26.48000
C  46.45800 32.84400 29.17600
C  48.98900 36.88800 28.17800
C  49.53000 35.23500 23.65100
C  47.03600 31.23300 24.63600
N  47.70300 34.77900 28.41500
C  47.17100 34.01700 29.45600
C  47.23800 34.76200 30.71400
C  47.78100 36.19900 30.33700
C  48.19200 35.97100 28.90000
C  46.65700 37.23100 30.35900
C  48.32400 34.04100 31.62400
C  48.31500 34.32100 33.10100
H  47.11700 35.12500 33.65900
N  49.12800 35.90700 25.96200
C  49.42300 36.90600 26.86700
C  50.28800 37.82600 26.15300
C  50.42500 37.33600 24.85000
C  49.70700 36.10200 24.76700
C  50.92700 39.03800 26.81100
C  51.25800 37.93800 23.67700
O  51.32100 37.42000 22.55500
C  52.16300 39.19500 23.92100
N  48.37400 33.29300 24.51400
C  49.01500 33.98300 23.56300
C  49.05900 33.29800 22.21100
C  48.59000 31.85300 22.59000
C  47.90000 32.10100 23.92500
C  48.24300 33.94600 21.07400
C  49.59400 30.69500 22.68300
C  50.02600 30.00200 21.40900
N  46.86400 32.42600 26.70300
C  46.56300 31.36200 25.90900
C  45.71300 30.46500 26.73200
C  45.57600 31.07500 27.92800
C  46.38300 32.19700 27.89200
C  45.05700 29.11900 26.36000
C  45.03800 30.83600 29.25000
O  44.55500 29.78100 29.64600
C  45.45100 32.08000 30.15500
C  45.86000 31.67500 31.49500
O  46.87400 31.04600 31.75200
O  44.87500 31.99500 32.35500
C  44.77000 31.22000 33.60700
H  49.29000 37.80500 28.68800
H  50.07500 35.48300 22.73700
H  46.72600 30.28800 24.18700
H  46.33400 34.88000 31.31200
H  48.63400 36.58900 30.89300
H  45.93000 37.09600 29.55800
H  47.17100 38.17400 30.17500
H  46.14900 37.27300 31.32300
H  49.19000 34.59700 31.26500
H  48.46700 32.98600 31.38800
H  49.28100 34.62500 33.50300
H  48.24100 33.33600 33.56100
H  50.37300 39.84300 26.32900
H  51.99800 39.10500 26.62100
H  50.69400 39.05400 27.87500
H  52.52200 39.38100 22.90900
H  52.95000 38.93500 24.62900
H  51.56400 40.05000 24.23300
H  50.06100 33.30700 21.78100
H  47.89100 31.38100 21.89900
H  47.40100 33.33300 20.75100
H  48.91100 34.14300 20.23600
H  47.76200 34.85800 21.43000
H  49.19000 29.98300 23.40300
H  50.41900 31.14500 23.23600
H  49.51600 30.48400 20.57500
H  49.71500 28.96800 21.56300
H  51.10300 30.16500 21.43200
H  44.38200 29.24200 25.51400
H  44.54900 28.67500 27.21600
H  45.79500 28.37100 26.07200
H  44.53300 32.66400 30.21700
H  45.31800 30.28300 33.69900
H  43.70500 31.10900 33.81200
H  45.13400 31.82000 34.44100

