158

Mg 43.86000 3.91200 47.53700
C  41.99300 6.78500 47.09700
C  41.02700 2.05300 47.02200
C  45.95300 1.27900 47.30800
C  46.75300 6.08400 47.49800
N  41.73200 4.36000 47.26200
C  41.20400 5.60700 47.02200
C  39.69300 5.57500 46.66300
C  39.37200 4.10200 47.07600
C  40.75400 3.46400 47.18800
C  38.73500 4.13200 48.47500
C  39.44000 6.01600 45.24600
C  38.30500 6.98800 44.94200
H  37.45800 6.61900 43.68200
N  43.54100 1.96600 47.35400
C  42.32200 1.40600 47.14800
C  42.54100 0.00200 46.86600
C  43.95100 -0.28200 46.89700
C  44.55600 1.02600 47.20600
C  41.46300 -0.96100 46.64600
C  44.56500 -1.63600 46.57100
O  43.86100 -2.58700 46.21300
C  46.12400 -1.88700 46.56100
N  46.08600 3.76400 47.11700
C  46.65300 2.49900 47.32200
C  48.14300 2.58700 47.58800
C  48.42600 4.07200 47.62700
C  47.00100 4.70700 47.40800
C  48.57300 1.80800 48.91200
C  49.39400 4.55900 46.51000
C  50.34100 5.69700 46.85600
N  44.35900 6.05000 47.43100
C  45.53200 6.74600 47.54300
C  45.28700 8.17400 47.49600
C  43.88000 8.26000 47.32300
C  43.34500 6.94700 47.29700
C  46.28100 9.25700 47.51600
C  42.76900 9.16200 47.24100
O  42.67000 10.35100 47.19500
C  41.52100 8.26600 46.97200
C  40.61200 8.65500 48.05700
O  40.67900 8.32600 49.28200
O  39.60700 9.45100 47.52800
C  38.70200 10.03600 48.53000
H  40.16000 1.42700 46.79900
H  46.56200 0.38600 47.46400
H  47.68100 6.64100 47.64700
H  39.18000 6.27100 47.32600
H  38.79000 3.70600 46.24300
H  39.42900 4.42400 49.26200
H  38.17900 3.22700 48.72300
H  37.97700 4.90200 48.61500
H  39.23200 5.09500 44.70100
H  40.36300 6.43100 44.84200
H  38.72900 7.98500 44.81500
H  37.64100 7.07800 45.80200
H  40.57400 -0.68300 47.21200
H  41.64400 -1.98200 46.98200
H  41.13100 -1.00100 45.60800
H  46.57900 -1.88500 47.55100
H  46.67500 -1.23000 45.88700
H  46.31000 -2.90000 46.20300
H  48.72000 2.20200 46.74700
H  48.82200 4.42200 48.58100
H  47.75600 1.91700 49.62600
H  49.46600 2.21900 49.38200
H  48.64400 0.76200 48.61500
H  48.92000 4.97900 45.62400
H  49.99300 3.72500 46.14300
H  50.07800 6.13600 47.81900
H  50.26700 6.46100 46.08200
H  51.36500 5.32700 46.80700
H  47.11000 8.98900 46.86100
H  46.54000 9.50900 48.54500
H  45.63900 10.03300 47.09800
H  41.18000 8.49200 45.96200
H  39.08300 11.04700 48.67500
H  38.49000 9.47900 49.44300
H  37.73100 10.25500 48.08700
Mg 6.79800 53.95500 41.65700
C  6.18200 50.51000 41.55500
C  10.04300 53.38200 40.49300
C  6.93300 57.18100 40.81700
C  3.32000 54.30600 42.31700
N  7.82700 52.12700 40.90900
C  7.49000 50.84300 41.10600
C  8.69200 49.89600 40.96600
C  9.81800 50.92400 41.14600
C  9.19800 52.21900 40.75600
C  10.65400 51.00300 42.49300
C  8.74100 48.95800 39.63800
C  8.78800 49.79700 38.35600
H  7.76200 49.40800 37.27200
N  8.23600 55.13800 40.73500
C  9.54800 54.67700 40.36900
C  10.26000 55.80200 39.91600
C  9.33600 56.88200 39.76600
C  8.08700 56.43400 40.42100
C  11.66400 55.75200 39.29700
C  9.62100 58.17300 39.07600
O  10.73900 58.35900 38.62000
C  8.42500 59.20300 38.82200
N  5.34600 55.43500 41.59100
C  5.77100 56.71200 41.35300
C  4.58100 57.78400 41.65600
C  3.37200 56.79600 41.64200
C  4.04100 55.47900 41.87400
C  4.83000 58.49400 43.03300
C  2.35100 56.72200 40.48700
C  0.91200 56.38000 40.85100
N  5.12800 52.75200 42.09100
C  3.80900 53.01800 42.46000
C  3.04600 51.78200 42.76500
C  3.98300 50.78500 42.34600
C  5.18900 51.42000 41.90100
C  1.67100 51.63000 43.21200
C  4.12500 49.37500 42.25500
O  3.28500 48.52600 42.57500
C  5.58700 49.06400 41.73800
C  5.39200 48.39400 40.49200
O  4.85600 48.92300 39.48800
O  5.75300 47.14500 40.59500
C  5.51900 46.20700 39.41500
H  11.12900 53.26800 40.48300
H  6.90600 58.27200 40.77700
H  2.25900 54.43900 42.53700
H  8.62600 49.14900 41.75700
H  10.55200 50.65300 40.38700
H  10.71200 52.01300 42.89800
H  11.66700 50.61300 42.39100
H  10.24200 50.37300 43.28100
H  7.93700 48.22300 39.65500
H  9.67200 48.39400 39.69400
H  9.76600 49.79500 37.87400
H  8.74000 50.86100 38.59000
H  11.61300 55.98600 38.23400
H  12.16000 54.79000 39.41900
H  12.23100 56.58900 39.70400
H  7.61200 58.55700 38.48900
H  8.70400 59.83100 37.97600
H  8.25000 59.74300 39.75300
H  4.45000 58.56500 40.90600
H  2.81000 56.94500 42.56400
H  3.88000 58.50200 43.56700
H  5.15000 59.53500 42.97400
H  5.45900 57.97700 43.75800
H  2.57300 55.86700 39.84700
H  2.45300 57.63000 39.89300
H  0.90500 56.01600 41.87900
H  0.60400 55.53000 40.24200
H  0.30400 57.23500 40.55600
H  1.58600 50.66200 43.70600
H  1.14800 51.55900 42.25800
H  1.56400 52.51200 43.84200
H  6.24000 48.40000 42.30400
H  6.48000 45.74500 39.19100
H  5.25200 46.63300 38.44800
H  4.69200 45.52800 39.62400

