158

Mg 47.93600 25.37000 28.34400
C  48.85500 27.57800 30.78600
C  46.98800 23.15600 30.82900
C  47.18700 23.10200 25.96900
C  49.53900 27.35900 25.97500
N  47.91600 25.36300 30.60100
C  48.25700 26.44700 31.38500
C  47.85900 26.17900 32.83900
C  47.52400 24.61600 32.85500
C  47.33800 24.37500 31.35500
C  48.62500 23.73300 33.49500
C  46.68900 27.07800 33.33300
C  46.98000 28.07000 34.54000
H  45.91600 28.08700 35.71100
N  47.13800 23.42700 28.38400
C  46.85900 22.75900 29.48500
C  46.32400 21.43700 29.05800
C  46.31100 21.34700 27.66300
C  46.83700 22.64800 27.27800
C  46.12300 20.31600 30.01100
C  45.87700 20.24100 26.64200
O  45.99900 20.42400 25.45100
C  45.35100 18.93700 27.04100
N  48.28800 25.27400 26.29800
C  47.82800 24.27400 25.51300
C  48.31100 24.45300 24.03500
C  48.94500 25.83100 23.95600
C  48.91900 26.15000 25.51900
C  49.23600 23.28700 23.54800
C  48.17700 26.84900 22.97900
C  49.06900 27.56300 21.88100
N  48.97300 27.13700 28.28900
C  49.50500 27.87700 27.31000
C  50.12800 29.06100 27.84100
C  49.88100 29.02900 29.18600
C  49.20500 27.80800 29.41100
C  50.73300 30.22100 27.19400
C  49.99100 29.69000 30.41200
O  50.45400 30.78000 30.71700
C  49.20700 28.90600 31.44600
C  50.16000 28.74900 32.58400
O  51.14700 28.01400 32.60400
O  49.75400 29.56900 33.58900
C  50.62300 29.34200 34.79300
H  46.71300 22.57700 31.71300
H  46.94700 22.33600 25.22800
H  50.12900 28.02800 25.34500
H  48.73100 26.35800 33.46800
H  46.58100 24.48900 33.38600
H  48.19400 23.30800 34.40100
H  49.46900 24.33700 33.83100
H  49.00300 23.10200 32.69100
H  45.75200 26.58400 33.59100
H  46.43200 27.76500 32.52700
H  46.88600 29.06400 34.10100
H  47.99100 28.07800 34.94700
H  45.08600 20.37100 30.34200
H  46.75300 20.60600 30.85300
H  46.43400 19.34200 29.63200
H  44.49100 19.18700 27.66200
H  46.16600 18.49400 27.61200
H  45.09900 18.30100 26.19300
H  47.39000 24.33000 23.46400
H  49.98600 25.70800 23.66000
H  48.84000 22.93200 22.59700
H  49.16900 22.51800 24.31800
H  50.23900 23.70500 23.46000
H  47.87600 27.73300 23.54000
H  47.24800 26.39900 22.62900
H  49.87000 26.90300 21.54500
H  49.42000 28.53300 22.23300
H  48.48900 27.80000 20.98900
H  51.08600 29.92500 26.20600
H  51.65400 30.53500 27.68400
H  50.12900 31.12600 27.12200
H  48.26100 29.31300 31.80200
H  50.09000 28.55100 35.32000
H  50.55000 30.23600 35.41200
H  51.67800 29.14400 34.60400
Mg 31.57400 59.02200 39.92600
C  29.05700 56.87500 38.82900
C  33.85700 56.88200 38.95200
C  33.78100 61.53900 40.36200
C  28.93400 61.51700 40.23100
N  31.48900 57.12800 38.85900
C  30.40200 56.36400 38.72700
C  30.74100 55.05000 38.13800
C  32.25500 54.89300 38.43100
C  32.58000 56.38000 38.77300
C  32.54000 53.95300 39.63100
C  30.29600 54.79000 36.63600
C  29.30100 53.64100 36.23600
H  28.22300 54.09800 35.29700
N  33.60200 59.21200 39.66400
C  34.35400 58.18600 39.22200
C  35.71300 58.64500 39.18100
C  35.72700 60.03900 39.52300
C  34.32700 60.34300 39.86700
C  36.88400 57.82500 38.75200
C  36.88600 60.99900 39.34300
O  37.95400 60.60200 38.81700
C  36.82700 62.46100 39.53900
N  31.38100 61.26300 40.20900
C  32.43000 62.00500 40.50500
C  32.11700 63.48900 40.80700
C  30.52900 63.40600 40.72200
C  30.29400 61.99900 40.27700
C  32.63700 63.88600 42.22500
C  29.80000 64.57400 39.91600
C  30.17900 66.10700 40.13400
N  29.36200 59.20100 39.64900
C  28.47300 60.24100 39.89000
C  27.17000 59.82900 39.60600
C  27.29800 58.47800 39.20100
C  28.64600 58.12500 39.23300
C  25.87700 60.56700 39.84500
C  26.57800 57.30000 38.77300
O  25.37400 57.12600 38.67900
C  27.68300 56.27300 38.40000
C  27.30100 55.01400 39.26700
O  27.65100 54.79100 40.37200
O  26.44000 54.32000 38.45300
C  25.87700 53.06800 38.89600
H  34.64800 56.16200 38.73400
H  34.51500 62.29900 40.63900
H  28.07900 62.18500 40.35300
H  30.18600 54.25900 38.64100
H  32.81000 54.58600 37.54500
H  31.93100 53.05000 39.60300
H  32.36100 54.42900 40.59500
H  33.59000 53.67800 39.52600
H  31.19500 54.71900 36.02500
H  29.87200 55.74400 36.32200
H  28.81500 53.20000 37.10600
H  29.69700 52.76600 35.72200
H  37.23900 58.06100 37.74900
H  36.78900 56.75100 38.59100
H  37.59200 58.03300 39.55500
H  35.88700 62.86900 39.16800
H  37.69400 62.96900 39.11600
H  36.82900 62.65300 40.61200
H  32.59800 64.17800 40.11200
H  30.13300 63.33900 41.73500
H  32.87400 63.01500 42.83600
H  31.92200 64.37700 42.88500
H  33.54600 64.46800 42.07600
H  28.72100 64.47900 40.03800
H  29.91800 64.27400 38.87500
H  29.26200 66.63600 40.39200
H  30.57500 66.59800 39.24500
H  30.92800 66.20400 40.92000
H  25.17400 60.25900 39.07200
H  26.02900 61.64600 39.80300
H  25.48300 60.42400 40.85100
H  27.61400 55.97500 37.35300
H  25.19500 53.37900 39.68800
H  26.65800 52.43100 39.30900
H  25.28700 52.61000 38.10200

