158

Mg 35.58100 2.40700 30.14900
C  33.04900 3.14800 32.34100
C  37.86200 2.73700 32.65900
C  37.95100 1.83100 27.80300
C  33.22600 2.55600 27.45000
N  35.46600 2.93500 32.22800
C  34.32600 2.96200 32.94300
C  34.50700 2.93100 34.47700
C  36.06700 3.22500 34.49700
C  36.55700 2.94600 33.06500
C  36.39200 4.65600 34.87200
C  33.98400 1.66700 35.26500
C  33.60700 1.89200 36.79800
H  34.40700 2.93300 37.66400
N  37.59200 2.24900 30.29500
C  38.35100 2.45400 31.43300
C  39.77100 2.21300 31.06200
C  39.79200 1.80900 29.70900
C  38.40200 1.96100 29.22900
C  40.91400 2.19000 32.06900
C  40.94300 1.43700 28.74200
O  40.77400 0.90800 27.59400
C  42.38100 1.49200 29.18400
N  35.62400 2.39500 27.86700
C  36.76600 1.99800 27.23000
C  36.44900 1.69000 25.74700
C  34.96400 2.01700 25.65300
C  34.53800 2.42600 27.06300
C  37.35600 2.38300 24.74300
C  34.08500 0.88900 24.96500
C  33.58700 -0.27400 25.83600
N  33.50000 2.67900 29.91100
C  32.70100 2.73700 28.72600
C  31.31500 3.01600 29.15800
C  31.39800 3.25500 30.56100
C  32.73600 2.98800 30.94800
C  30.09400 3.23000 28.29700
C  30.73100 3.64800 31.79300
O  29.58100 4.06800 31.95200
C  31.74900 3.38400 33.01700
C  31.73500 4.62200 33.84700
O  32.35800 5.70900 33.69600
O  30.85100 4.40400 34.87200
C  31.06400 5.15900 36.13700
H  38.65900 2.93100 33.37900
H  38.67600 1.61300 27.01600
H  32.44400 2.48500 26.69100
H  33.98600 3.79800 34.88300
H  36.70500 2.61100 35.13300
H  37.16500 4.80900 35.62500
H  35.49600 5.17000 35.22100
H  36.61600 5.26000 33.99300
H  34.73000 0.87500 35.32500
H  33.14200 1.28300 34.68800
H  33.83300 0.94700 37.29300
H  32.53600 2.09500 36.79600
H  40.53400 2.17400 33.09100
H  41.57900 3.04100 31.92200
H  41.63100 1.37200 32.00500
H  42.97100 1.63300 28.27800
H  42.55800 0.52300 29.65100
H  42.55100 2.33800 29.85000
H  36.59300 0.61600 25.63600
H  34.87000 2.95700 25.11000
H  36.83500 2.94100 23.96400
H  37.98800 1.66300 24.22400
H  37.97500 3.03100 25.36300
H  34.67100 0.50100 24.13100
H  33.21000 1.32900 24.48500
H  34.05500 -1.15100 25.39000
H  32.49800 -0.31200 25.84600
H  33.91300 -0.14300 26.86800
H  29.17400 2.76800 28.65500
H  30.18000 2.72800 27.33400
H  30.01200 4.28900 28.05000
H  31.38300 2.59300 33.67200
H  30.82200 6.21900 36.06000
H  32.04400 4.92500 36.55400
H  30.38400 4.76000 36.89000
Mg 40.55800 8.83700 29.48100
C  42.45800 9.97600 32.19100
C  38.35900 7.52900 31.78000
C  39.02000 7.48600 26.84300
C  43.27600 9.68900 27.32400
N  40.49300 8.55400 31.74000
C  41.30400 9.23100 32.64000
C  40.84300 8.99200 34.02900
C  39.64000 8.01300 33.87900
C  39.45900 8.02800 32.41100
C  39.75200 6.51900 34.51000
C  40.47700 10.33200 34.77500
C  40.17100 10.21000 36.19100
H  41.12000 11.04900 37.15100
N  38.96400 7.75000 29.35900
C  38.22200 7.29300 30.42200
C  36.95000 6.76200 29.84100
C  37.13500 6.68500 28.43100
C  38.41000 7.37100 28.11600
C  35.73300 6.24800 30.63300
C  36.15500 6.10800 27.44200
O  36.35300 6.08500 26.20700
C  34.79700 5.58900 27.84900
N  41.15900 8.61500 27.35000
C  40.25900 8.02900 26.47100
C  40.86200 7.84900 25.09300
C  42.30200 8.59900 25.26100
C  42.34300 8.96800 26.68700
C  40.90600 6.31400 24.60200
C  42.39100 9.66200 24.14000
C  41.67000 10.97300 24.42300
N  42.41300 9.80900 29.65100
C  43.35100 10.08800 28.67500
C  44.47900 10.67100 29.32400
C  44.12000 10.76400 30.68700
C  42.90500 10.13100 30.81000
C  45.76300 10.98900 28.74300
C  44.59400 11.15800 31.91900
O  45.65600 11.76600 32.22200
C  43.59800 10.75100 33.06400
C  44.37700 10.10400 34.21000
O  45.32700 9.29700 34.11100
O  43.85800 10.47000 35.38400
C  44.50900 9.84100 36.57700
H  37.58700 7.28200 32.51200
H  38.50500 7.08900 25.96600
H  44.14300 9.97800 26.72700
H  41.55300 8.46400 34.66500
H  38.71600 8.51600 34.16400
H  39.37100 5.77800 33.80800
H  39.17500 6.34900 35.41900
H  40.80200 6.22900 34.56700
H  39.60700 10.79800 34.31200
H  41.36300 10.96100 34.69100
H  40.23800 9.17700 36.53600
H  39.19800 10.66400 36.37700
H  35.77900 5.17000 30.78800
H  34.83300 6.64000 30.16000
H  35.80700 6.70800 31.61800
H  34.74900 4.80400 28.60400
H  34.38600 5.21600 26.91100
H  34.11000 6.38100 28.14500
H  40.28000 8.40300 24.35600
H  43.12800 7.89000 25.31100
H  40.48200 6.33100 23.59800
H  40.37400 5.64900 25.28300
H  41.95900 6.03900 24.54500
H  42.16300 9.21700 23.17100
H  43.44900 9.90700 24.04500
H  40.94100 10.91800 25.23200
H  41.14700 11.26800 23.51300
H  42.39100 11.77200 24.59300
H  45.63800 11.45800 27.76700
H  46.42600 10.13200 28.62900
H  46.20800 11.72800 29.41000
H  43.06400 11.65000 33.37500
H  43.98600 10.08600 37.50200
H  45.52500 10.13500 36.84000
H  44.50400 8.76300 36.41700

