158

Mg 17.41800 -0.93500 27.92900
C  16.34400 0.92200 30.63300
C  19.37800 -2.67100 30.16700
C  18.93000 -2.35700 25.29200
C  15.44300 1.00700 25.82400
N  18.05400 -0.70700 30.18800
C  17.43500 0.07600 31.05600
C  17.85600 -0.28400 32.51800
C  19.01200 -1.34300 32.33800
C  18.82400 -1.58500 30.80200
C  20.40500 -0.73400 32.70700
C  16.65800 -0.79500 33.39400
C  16.55500 -0.18300 34.80000
H  17.79000 0.39300 35.46600
N  18.87900 -2.38200 27.78100
C  19.48800 -3.04200 28.81100
C  20.17700 -4.23100 28.24800
C  20.13300 -4.11600 26.80100
C  19.27300 -2.91300 26.55300
C  20.86200 -5.27800 29.20300
C  20.76200 -4.97300 25.71700
O  20.47500 -4.85500 24.55100
C  21.65700 -6.11800 26.07400
N  17.30600 -0.65300 25.89400
C  18.08000 -1.31800 24.98800
C  17.70800 -0.95000 23.61200
C  16.45200 -0.01100 23.75700
C  16.38900 0.16600 25.31700
C  18.90100 -0.33300 22.86100
C  15.06400 -0.44300 23.18200
C  14.47700 0.22100 21.94500
N  16.18700 0.62800 28.13500
C  15.34900 1.26700 27.24400
C  14.52400 2.30900 27.90000
C  14.86000 2.13100 29.22200
C  15.94400 1.16400 29.34400
C  13.60700 3.23300 27.20200
C  14.53600 2.64100 30.47900
O  13.69000 3.43900 30.81300
C  15.48400 1.90800 31.49000
C  16.25700 2.89000 32.21700
O  17.10400 3.56600 31.64100
O  16.03000 2.90700 33.56900
C  16.51200 4.10000 34.30300
H  20.02500 -3.19500 30.87300
H  19.32100 -2.96300 24.47100
H  14.81100 1.59200 25.15300
H  18.38000 0.54800 32.98900
H  18.82800 -2.25300 32.90800
H  21.19200 -1.20400 32.11800
H  20.56800 -0.94800 33.76300
H  20.50700 0.33600 32.52500
H  16.81700 -1.86600 33.52100
H  15.74500 -0.62200 32.82500
H  16.40900 -1.00900 35.49600
H  15.74800 0.54700 34.85900
H  21.86500 -5.45700 28.81700
H  20.35200 -6.23500 29.31900
H  20.86000 -4.88400 30.21900
H  22.64300 -5.71700 26.31100
H  21.63900 -6.73800 25.17800
H  21.33000 -6.71000 26.92900
H  17.53900 -1.84700 23.01700
H  16.70500 0.98800 23.40300
H  19.79900 -0.27000 23.47600
H  18.67500 0.66400 22.48300
H  19.08000 -1.03900 22.05000
H  14.27900 -0.42200 23.93800
H  15.13700 -1.51100 22.97900
H  13.53300 0.65400 22.27700
H  14.24200 -0.45000 21.11900
H  15.12700 1.00200 21.55000
H  12.61300 2.80600 27.06400
H  13.96100 3.70300 26.28500
H  13.54200 3.92900 28.03800
H  14.71000 1.53400 32.16000
H  17.45800 3.82900 34.77000
H  15.78000 4.34800 35.07200
H  16.55300 4.96300 33.63900
Mg 29.67400 57.56700 39.93800
C  27.08700 55.37000 38.82100
C  31.92100 55.10800 38.83900
C  32.20900 59.88700 40.12600
C  27.33000 60.15700 40.26600
N  29.46000 55.42200 39.05900
C  28.35500 54.74300 38.72000
C  28.62100 53.27900 38.25900
C  30.14300 53.21900 38.48900
C  30.56200 54.61100 38.94300
C  30.59100 52.21400 39.50800
C  28.16900 53.04100 36.77100
C  28.75300 53.97300 35.61600
H  27.74700 54.77200 34.69700
N  31.77200 57.48900 39.70600
C  32.48600 56.36500 39.15500
C  33.87100 56.69600 39.15900
C  33.98300 58.02100 39.73200
C  32.64800 58.52900 39.95200
C  34.98900 55.70500 38.73300
C  35.32600 58.81600 39.91600
O  36.35900 58.35300 39.48100
C  35.41700 60.25900 40.54400
N  29.74000 59.79200 40.08500
C  30.91900 60.46200 40.25400
C  30.61000 62.02000 40.31000
C  28.98400 62.00300 40.37400
C  28.65500 60.58700 40.29300
C  31.29700 62.86500 41.31100
C  28.22000 62.91800 39.44300
C  26.92200 63.65300 39.92600
N  27.57800 57.73900 39.81500
C  26.83500 58.86300 39.95300
C  25.48600 58.50500 39.77300
C  25.53000 57.15200 39.35200
C  26.86500 56.70100 39.34000
C  24.34100 59.52300 39.94300
C  24.70800 56.00500 38.86200
O  23.51900 55.88200 38.66900
C  25.69100 54.90600 38.46500
C  25.44600 53.67900 39.24000
O  25.67100 53.48900 40.42400
O  24.78400 52.78100 38.44200
C  24.30300 51.51400 39.02700
H  32.56300 54.24300 38.66500
H  33.00100 60.63900 40.11600
H  26.61700 60.95800 40.47200
H  28.03400 52.69600 38.96800
H  30.62500 52.95700 37.54700
H  31.11100 51.51800 38.85000
H  29.73800 51.79500 40.04200
H  31.33200 52.67300 40.16300
H  27.09100 52.90700 36.86100
H  28.69700 52.10200 36.60800
H  29.38900 53.40600 34.93600
H  29.54500 54.65800 35.91900
H  35.53300 56.04400 37.85100
H  34.52000 54.72600 38.64300
H  35.67900 55.45700 39.53900
H  36.36200 60.56000 40.99500
H  34.68200 60.46100 41.32300
H  35.11900 60.90000 39.71300
H  30.83200 62.45900 39.33700
H  28.84900 62.36700 41.39200
H  31.99100 63.43700 40.69500
H  31.74200 62.28100 42.11600
H  30.63900 63.59800 41.78000
H  28.02800 62.33100 38.54500
H  28.90000 63.74000 39.22300
H  26.07100 63.48800 39.26500
H  27.00600 64.73800 39.98300
H  26.58200 63.29600 40.89900
H  24.24200 59.75200 41.00400
H  23.37400 59.16700 39.58700
H  24.45800 60.49400 39.46300
H  25.50800 54.77100 37.39900
H  24.64500 51.30800 40.04100
H  24.53100 50.63800 38.42000
H  23.22400 51.64800 39.10200

