158

Mg 55.39900 25.74300 44.62100
C  52.35600 27.35300 43.76900
C  53.98700 22.86300 43.66300
C  58.38700 24.48800 44.59300
C  56.62200 28.96900 45.72900
N  53.41500 25.20700 43.38000
C  52.28600 25.98300 43.43100
C  51.12000 25.14200 42.96700
C  51.60300 23.72600 43.50500
C  53.14400 23.93600 43.46300
C  51.15000 23.40200 45.00300
C  50.57700 25.17000 41.51700
C  49.11100 24.73600 41.39400
H  48.72000 23.73300 40.25600
N  56.12700 23.83300 44.16900
C  55.33700 22.82000 43.77800
C  56.17100 21.66800 43.78100
C  57.48500 22.08100 44.12200
C  57.43500 23.53900 44.31300
C  55.61200 20.26400 43.46300
C  58.62000 21.12700 44.07000
O  58.43000 19.90800 43.73400
C  60.05700 21.65500 44.22900
N  57.14900 26.59600 45.11300
C  58.28100 25.80700 45.03500
C  59.58400 26.72400 45.33500
C  58.97400 28.05200 45.85800
C  57.49700 27.85200 45.52600
C  60.58400 26.12800 46.38600
C  59.69600 29.35000 45.32000
C  59.09800 30.06200 44.08100
N  54.69100 27.75800 44.80300
C  55.23500 28.87200 45.42600
C  54.19600 29.90700 45.49100
C  53.09000 29.38200 44.84700
C  53.40000 28.00600 44.47400
C  54.30300 31.24700 46.04400
C  51.77600 29.67800 44.37000
O  51.21200 30.70600 44.51000
C  51.24500 28.42300 43.63100
C  51.06800 28.75500 42.19900
O  51.94600 29.17900 41.47100
O  49.79400 28.50900 41.86100
C  49.47500 29.09500 40.55600
H  53.56700 21.85700 43.60600
H  59.38600 24.04700 44.59700
H  57.07300 29.90200 46.07200
H  50.25800 25.46200 43.55200
H  51.24100 22.91000 42.87900
H  52.03200 23.29700 45.63400
H  50.67400 22.43500 44.84200
H  50.39100 24.12100 45.31200
H  51.15300 24.47900 40.90100
H  50.71500 26.20900 41.21900
H  48.59300 25.66600 41.15800
H  48.71700 24.34100 42.33000
H  55.63100 20.13600 42.38100
H  54.55800 20.20200 43.73500
H  56.09000 19.43500 43.98500
H  60.37300 22.38500 43.48400
H  60.80300 20.86000 44.21500
H  60.16100 22.15400 45.19200
H  59.98100 26.83200 44.32500
H  59.09300 27.99500 46.94000
H  60.86200 26.76900 47.22200
H  61.46500 25.70700 45.90200
H  60.01800 25.34400 46.88700
H  60.73000 29.05400 45.14600
H  59.69200 30.10200 46.11000
H  59.99600 30.22100 43.48300
H  58.55700 30.94800 44.41100
H  58.35200 29.42300 43.61000
H  53.68000 31.29700 46.93700
H  53.96600 31.99200 45.32400
H  55.32000 31.50200 46.34100
H  50.39800 28.03500 44.19600
H  50.15400 29.84600 40.15200
H  48.42400 29.38200 40.61200
H  49.45300 28.33600 39.77400
Mg -5.80400 24.98300 25.56800
C  -4.66500 26.64800 28.59300
C  -7.52700 22.91800 27.51100
C  -6.31100 23.15600 22.91100
C  -3.65800 27.06300 23.78700
N  -6.07800 24.79900 27.77800
C  -5.57800 25.64900 28.81000
C  -6.18000 25.12900 30.18700
C  -6.83500 23.73800 29.76400
C  -6.79000 23.79400 28.24200
C  -6.23800 22.46200 30.40700
C  -7.25000 26.21300 30.73300
C  -7.11800 26.66100 32.24200
H  -6.20600 25.77300 33.12400
N  -6.74100 23.27200 25.24200
C  -7.52400 22.63300 26.14200
C  -8.34800 21.63300 25.49500
C  -7.96600 21.63000 24.13100
C  -6.93000 22.67100 24.04000
C  -9.33700 20.78300 26.24200
C  -8.35300 20.64100 23.00100
O  -7.82600 20.68000 21.89300
C  -9.35200 19.55400 23.14300
N  -4.94500 25.01100 23.60800
C  -5.48200 24.28300 22.66800
C  -4.84600 24.50600 21.26900
C  -4.01500 25.83600 21.48300
C  -4.24400 26.04100 23.00300
C  -3.96600 23.32100 20.61600
C  -4.25000 27.07800 20.51200
C  -3.12100 27.29600 19.46700
N  -4.45500 26.57100 26.05700
C  -3.71000 27.35100 25.20100
C  -3.01700 28.37800 25.93900
C  -3.35000 28.16700 27.26400
C  -4.24700 27.07000 27.30600
C  -2.23900 29.50500 25.28000
C  -3.13700 28.58200 28.64800
O  -2.45800 29.54900 29.02100
C  -4.09400 27.73700 29.55300
C  -3.28700 27.23200 30.73800
O  -2.79700 26.13200 30.91500
O  -3.24900 28.29000 31.59200
C  -2.36400 28.13800 32.67500
H  -8.05800 22.19400 28.13300
H  -6.50200 22.63600 21.97000
H  -3.02900 27.78000 23.25500
H  -5.49000 24.81800 30.97100
H  -7.88400 23.71900 30.05800
H  -5.90700 21.77900 29.62500
H  -7.00400 22.03400 31.05400
H  -5.42200 22.65700 31.10400
H  -8.22700 25.77700 30.52300
H  -7.15200 27.13800 30.16400
H  -8.03900 26.86400 32.78800
H  -6.69300 27.65900 32.35000
H  -8.89000 19.78900 26.22500
H  -10.22800 20.74500 25.61600
H  -9.63100 21.06300 27.25400
H  -10.27700 20.12300 23.05500
H  -9.24300 19.07800 24.11800
H  -9.43000 18.79200 22.36700
H  -5.65600 24.85600 20.62900
H  -2.96800 25.57000 21.34100
H  -2.91600 23.56000 20.44800
H  -4.31500 23.08800 19.61000
H  -3.95300 22.42400 21.23500
H  -4.31800 27.90300 21.22000
H  -5.24500 26.93800 20.08800
H  -2.23400 27.40500 20.09100
H  -3.21200 28.25900 18.96500
H  -2.98500 26.52800 18.70600
H  -1.90600 30.17200 26.07600
H  -2.90300 30.10900 24.66200
H  -1.37300 29.12800 24.73600
H  -4.87900 28.35800 29.98300
H  -1.41700 27.91900 32.18200
H  -2.71100 27.51900 33.50300
H  -2.25700 29.14700 33.07200

