158

Mg 49.20000 35.36400 27.63800
C  46.84700 34.08000 30.09100
C  49.78100 38.03500 29.74200
C  51.16100 36.71000 25.30000
C  48.22400 32.85000 25.52800
N  48.45300 35.91900 29.70900
C  47.48400 35.26900 30.47300
C  47.28200 36.07400 31.80400
C  48.05300 37.44200 31.51100
C  48.80100 37.17600 30.15400
C  47.23200 38.76900 31.56500
C  47.64300 35.47400 33.18800
C  48.85300 34.56700 33.26000
H  50.15400 35.22700 33.80500
N  50.30700 37.08300 27.54300
C  50.50600 38.06100 28.56200
C  51.24300 39.16100 28.05700
C  51.80800 38.77500 26.76700
C  51.10400 37.52400 26.49600
C  51.40700 40.49400 28.80700
C  52.87900 39.39100 26.04300
O  53.28900 38.88400 25.04500
C  53.39300 40.74400 26.43400
N  49.65800 34.85700 25.76000
C  50.45900 35.56300 24.94900
C  50.87900 34.86100 23.73700
C  49.76100 33.73600 23.76100
C  49.21200 33.72600 25.12900
C  50.74200 35.67900 22.39600
C  50.34100 32.37500 23.41000
C  49.58900 31.58700 22.24000
N  48.00600 33.65900 27.82000
C  47.63000 32.83900 26.82600
C  46.69800 31.80000 27.39800
C  46.38900 32.28200 28.68000
C  47.17800 33.38600 28.87000
C  46.03100 30.62500 26.65900
C  45.60200 31.98500 29.83000
O  44.85600 31.02100 30.05200
C  45.77600 33.20900 30.82900
C  45.95400 32.67200 32.23900
O  46.98800 32.10300 32.62300
O  44.87300 32.91000 33.04300
C  44.76300 32.41400 34.40900
H  49.88600 38.87800 30.42900
H  51.80200 37.08200 24.49700
H  47.94000 32.09100 24.79600
H  46.22100 36.32200 31.77300
H  48.77900 37.67000 32.29100
H  47.59800 39.43500 32.34600
H  46.17700 38.60800 31.78300
H  47.26600 39.22500 30.57600
H  46.78600 35.00700 33.67300
H  47.78600 36.32400 33.85400
H  49.06400 34.09200 32.30200
H  48.71900 33.73500 33.95200
H  50.68800 40.66300 29.60800
H  51.22600 41.26900 28.06200
H  52.43600 40.51800 29.16500
H  54.02800 40.74400 27.31900
H  52.59400 41.48500 26.39500
H  54.09200 41.14800 25.70100
H  51.88000 34.43300 23.78600
H  48.97600 34.07800 23.08700
H  51.54100 36.41000 22.27300
H  49.79100 36.21000 22.41200
H  50.91500 34.95900 21.59500
H  50.20700 31.71100 24.26400
H  51.38200 32.46400 23.09900
H  48.92700 30.85000 22.69500
H  50.29900 31.02200 21.63500
H  49.00500 32.23900 21.59000
H  46.84500 29.92400 26.47300
H  45.62100 31.08900 25.76200
H  45.18700 30.25700 27.24400
H  44.88900 33.83700 30.74500
H  44.14300 31.52400 34.52100
H  44.39200 33.20200 35.06500
H  45.78500 32.15000 34.68100
Mg -6.12100 24.67300 25.83800
C  -4.65300 26.30600 28.57300
C  -7.99400 22.78200 28.09500
C  -7.18900 22.83600 23.25200
C  -3.84600 26.29300 23.81000
N  -6.27100 24.65500 28.03000
C  -5.63600 25.37700 28.95900
C  -6.06200 24.98900 30.35700
C  -6.85200 23.67500 30.24200
C  -7.10200 23.69300 28.68600
C  -6.09600 22.50900 30.90600
C  -6.87100 26.14900 31.05600
C  -6.64200 26.49900 32.59000
H  -5.80500 25.52600 33.51100
N  -7.54000 23.16700 25.66500
C  -8.20800 22.55000 26.69700
C  -9.17900 21.64100 26.12900
C  -8.93300 21.61300 24.70800
C  -7.82800 22.54200 24.50100
C  -10.28700 21.03100 26.90200
C  -9.74000 20.87000 23.61300
O  -9.43600 20.88000 22.39200
C  -10.89000 20.08900 24.03600
N  -5.62500 24.56600 23.87000
C  -6.12800 23.67400 22.96600
C  -5.70100 23.87500 21.51300
C  -4.61000 24.99200 21.66500
C  -4.68000 25.34400 23.20100
C  -5.27900 22.52400 20.81400
C  -4.92900 26.22400 20.77600
C  -3.72200 26.70600 20.08600
N  -4.55700 26.05300 26.16000
C  -3.76900 26.66200 25.19400
C  -2.82700 27.65800 25.77700
C  -3.16900 27.56200 27.17400
C  -4.23200 26.61100 27.34300
C  -1.91600 28.54700 25.04100
C  -2.78400 28.05900 28.44900
O  -2.01300 28.91100 28.78000
C  -3.78300 27.27300 29.44700
C  -2.91900 26.52300 30.35700
O  -2.51700 25.34600 30.18300
O  -2.51400 27.28300 31.36100
C  -1.62900 26.72400 32.39500
H  -8.62700 22.15400 28.72600
H  -7.58800 22.27100 22.40700
H  -3.23400 26.80400 23.06400
H  -5.10800 24.80200 30.85000
H  -7.85100 23.65600 30.67700
H  -6.50200 22.43800 31.91500
H  -5.01200 22.62100 30.94900
H  -6.44700 21.60600 30.40800
H  -7.93400 25.92900 30.95200
H  -6.64400 27.03900 30.47000
H  -7.62800 26.56200 33.05100
H  -6.30300 27.52900 32.70100
H  -10.27800 21.51000 27.88200
H  -10.14000 19.98700 27.17800
H  -11.31700 21.12300 26.55700
H  -10.60900 19.31000 24.74500
H  -11.11200 19.40100 23.22000
H  -11.75700 20.68300 24.32400
H  -6.58200 24.21100 20.96600
H  -3.64800 24.54300 21.41500
H  -4.22400 22.64300 20.56700
H  -5.94700 22.31200 19.97900
H  -5.29900 21.76500 21.59700
H  -5.36200 27.05000 21.34100
H  -5.72100 26.02400 20.05400
H  -3.80600 27.25900 19.15000
H  -2.90800 26.02400 19.84100
H  -3.30700 27.45800 20.75700
H  -2.41400 29.45200 24.69400
H  -1.48000 27.90800 24.27300
H  -1.12100 28.73700 25.76100
H  -4.47400 27.98400 29.89900
H  -1.30200 27.61000 32.93900
H  -0.74800 26.26300 31.94700
H  -2.20900 25.97900 32.93900

