158

Mg -1.12000 17.58300 27.26200
C  -1.64000 15.17500 29.74200
C  -1.59000 20.03100 29.48800
C  -0.55900 19.87100 24.71400
C  -0.50900 14.95000 24.90900
N  -1.57900 17.60600 29.35400
C  -1.79200 16.48400 30.23500
C  -2.02100 16.98000 31.71800
C  -2.05700 18.51600 31.49700
C  -1.83700 18.75700 30.00200
C  -3.31400 19.26400 32.18600
C  -0.86700 16.50000 32.65700
C  -0.55400 17.33700 33.92200
H  -0.12600 16.45100 35.12800
N  -1.19400 19.65400 27.07300
C  -1.43200 20.50300 28.13300
C  -1.38800 21.91200 27.67300
C  -0.99500 21.80600 26.27400
C  -0.97100 20.37700 25.94700
C  -1.73700 23.08300 28.53500
C  -0.88600 22.92200 25.25900
O  -0.66900 22.81700 24.03200
C  -1.24600 24.29500 25.85100
N  -0.71700 17.43800 25.12400
C  -0.57600 18.54000 24.26500
C  -0.37400 18.03600 22.82400
C  -0.14000 16.53400 23.01300
C  -0.43100 16.28200 24.46800
C  -1.62800 18.46900 21.89400
C  1.26700 16.04100 22.58100
C  2.46300 16.20700 23.50100
N  -1.17500 15.50900 27.25400
C  -0.83600 14.55400 26.29300
C  -1.11500 13.21400 26.76600
C  -1.37800 13.36600 28.13000
C  -1.38000 14.78700 28.36200
C  -0.96800 11.92000 26.01200
C  -1.65600 12.74600 29.40900
O  -1.69500 11.55900 29.68000
C  -1.88000 13.89100 30.47000
C  -0.94600 13.42400 31.57400
O  0.26600 13.47100 31.51200
O  -1.67000 12.69700 32.50000
C  -0.82000 12.17900 33.56300
H  -1.86500 20.82200 30.18900
H  -0.47200 20.45000 23.79200
H  -0.18400 14.18400 24.20200
H  -2.96500 16.57700 32.08500
H  -1.15200 18.98600 31.88200
H  -2.98300 19.97100 32.94700
H  -3.87800 18.48800 32.70400
H  -3.99100 19.78400 31.50800
H  -0.03100 16.26700 31.99700
H  -1.25300 15.57300 33.08100
H  -1.46100 17.91300 34.10500
H  0.20900 18.08800 33.71700
H  -2.55000 23.60300 28.02900
H  -0.86400 23.71500 28.70000
H  -2.09700 22.83500 29.53300
H  -2.31500 24.34300 26.05400
H  -1.09900 25.05800 25.08600
H  -0.53600 24.45900 26.66200
H  0.50100 18.52800 22.39900
H  -0.92000 15.96000 22.51300
H  -1.81200 19.52500 22.09400
H  -2.45900 17.94800 22.36800
H  -1.50900 18.29100 20.82500
H  1.57600 16.52200 21.65300
H  1.29500 14.96300 22.42600
H  3.38500 16.39500 22.95100
H  2.54900 15.43500 24.26600
H  2.43400 17.15600 24.03700
H  -0.31600 12.11100 25.15900
H  -1.98400 11.68200 25.69800
H  -0.72400 11.06600 26.64400
H  -2.90200 13.90200 30.84900
H  -0.37800 11.21100 33.32300
H  -1.35500 12.14600 34.51200
H  0.01500 12.84600 33.77800
Mg 48.60100 46.05600 43.41300
C  45.32200 46.75100 42.47500
C  48.26600 42.84800 41.81200
C  51.87500 45.56500 43.59700
C  49.07200 49.45300 44.07100
N  47.01100 44.94800 42.21200
C  45.73000 45.44700 42.04600
C  44.84400 44.39200 41.26500
C  45.89100 43.16900 41.14200
C  47.12400 43.64500 41.84400
C  45.36600 41.94400 41.89700
C  44.47400 44.94600 39.85700
C  43.07000 44.93700 39.40200
H  42.66100 43.84500 38.33700
N  49.92400 44.41100 42.86300
C  49.60200 43.19000 42.24900
C  50.76800 42.34700 42.25200
C  51.86000 43.08500 42.84700
C  51.31500 44.42800 43.12300
C  50.73400 40.85900 41.99800
C  53.19600 42.60700 43.17900
O  53.55100 41.47700 42.77900
C  54.20400 43.35400 44.08300
N  50.26500 47.37200 43.76300
C  51.50600 46.89400 43.82000
C  52.57600 48.07400 43.97300
C  51.62000 49.24200 44.25000
C  50.25200 48.69800 44.05500
C  53.61700 47.90200 45.13600
C  51.80100 50.53400 43.36400
C  51.71400 52.00900 43.92800
N  47.46900 47.72500 43.49700
C  47.75800 49.03300 43.81400
C  46.53500 49.80300 43.79200
C  45.53300 48.91400 43.41500
C  46.18800 47.68300 43.07600
C  46.45100 51.26000 44.13700
C  44.09400 48.76500 43.20100
O  43.21300 49.54900 43.47300
C  43.92800 47.32600 42.60000
C  42.95300 46.53700 43.47700
O  42.98000 46.31600 44.71500
O  42.07400 45.86500 42.65500
C  41.41300 44.74300 43.29600
H  48.21100 41.84500 41.38300
H  52.96000 45.44800 43.62100
H  49.20400 50.52700 44.21500
H  43.97600 44.18200 41.89100
H  46.16000 42.95500 40.10800
H  44.36400 41.99000 42.32300
H  46.04800 41.79900 42.73500
H  45.34600 41.12100 41.18300
H  44.93500 44.27800 39.13000
H  44.99800 45.89900 39.78400
H  42.86800 45.88800 38.90900
H  42.49700 44.85300 40.32500
H  51.33700 40.61600 41.12300
H  49.76300 40.53300 41.62500
H  51.00300 40.11200 42.74500
H  53.71300 43.57100 45.03200
H  54.65500 44.13400 43.47000
H  54.95800 42.59300 44.28400
H  53.08400 48.29700 43.03400
H  51.60100 49.58400 45.28500
H  53.44400 48.40600 46.08700
H  54.54900 48.22000 44.67000
H  53.83300 46.89700 45.49800
H  51.07600 50.49200 42.55100
H  52.74700 50.39200 42.84100
H  50.93700 52.56500 43.40400
H  52.70700 52.45800 43.89300
H  51.53100 51.99900 45.00300
H  46.60900 51.84900 43.23300
H  47.24400 51.59400 44.80600
H  45.47500 51.51700 44.54700
H  43.39100 47.39800 41.65400
H  40.86800 44.94100 44.21900
H  42.09300 43.94700 43.59900
H  40.76500 44.37300 42.50300

