158

Mg 49.30400 34.54800 27.36300
C  47.08900 33.61300 30.08000
C  49.92400 37.46900 28.97400
C  50.59900 35.72900 24.59000
C  48.38200 31.52000 25.80000
N  48.66100 35.27800 29.25100
C  47.76400 34.85200 30.25100
C  47.62500 35.88200 31.36700
C  48.40300 37.04400 30.81100
C  49.06800 36.53800 29.62100
C  47.53500 38.39500 30.51800
C  48.10000 35.45300 32.81200
C  47.00800 35.54700 33.85400
H  47.01600 36.83100 34.76400
N  50.15400 36.30600 26.90000
C  50.38300 37.42300 27.66200
C  50.97700 38.48700 26.83800
C  51.40100 37.92200 25.67100
C  50.63100 36.64500 25.64200
C  51.17300 39.90300 27.31300
C  52.27400 38.43600 24.64900
O  52.65500 37.80100 23.68700
C  52.91000 39.79900 24.79900
N  49.32800 33.71100 25.43900
C  50.09300 34.37500 24.55900
C  50.37200 33.47900 23.34200
C  49.80800 32.07800 23.72100
C  49.14900 32.43200 25.10400
C  49.90100 34.02200 22.04900
C  50.87500 31.04800 23.80900
C  50.85900 30.16000 22.52500
N  48.01200 32.89500 27.76500
C  47.68400 31.73400 27.02100
C  46.62100 30.91700 27.72300
C  46.41000 31.70100 28.89100
C  47.27200 32.79300 28.93800
C  46.01800 29.59700 27.25600
C  45.55300 31.73800 30.05100
O  44.59800 31.01900 30.34900
C  45.94800 32.98200 30.86800
C  46.08700 32.60400 32.30800
O  47.00300 31.93200 32.77200
O  44.89800 32.93100 32.92800
C  44.63700 32.28700 34.20200
H  50.04700 38.42600 29.48500
H  51.13600 36.05000 23.69500
H  48.22500 30.59000 25.25100
H  46.57400 36.17200 31.39500
H  49.25800 37.24000 31.45800
H  47.26200 38.41500 29.46300
H  48.05500 39.33100 30.71900
H  46.54000 38.47900 30.95500
H  48.96700 35.99200 33.19600
H  48.39200 34.40800 32.70600
H  46.92900 34.64800 34.46500
H  46.07300 35.66600 33.30700
H  50.65200 40.12000 28.24500
H  50.83000 40.56000 26.51400
H  52.23600 40.08600 27.47100
H  53.33200 39.94800 25.79300
H  52.09000 40.51400 24.74000
H  53.61300 39.98900 23.98800
H  51.45200 33.40900 23.20800
H  49.06900 31.83800 22.95600
H  48.90600 33.84900 21.64000
H  50.64500 33.69000 21.32400
H  49.92100 35.10500 22.16800
H  50.66600 30.35800 24.62600
H  51.88000 31.46800 23.77200
H  51.91000 29.96700 22.31300
H  50.48500 30.66100 21.63200
H  50.48000 29.14900 22.67400
H  46.00100 29.62100 26.16600
H  44.99600 29.43400 27.59800
H  46.56200 28.68800 27.51400
H  45.08200 33.61800 30.68800
H  43.66800 32.53400 34.63700
H  45.38900 32.61500 34.92000
H  44.65000 31.20400 34.08300
Mg -2.25400 34.51700 27.01300
C  -4.36300 33.14100 29.46100
C  -1.21100 36.75600 29.42500
C  -0.62400 36.09000 24.57900
C  -3.79000 32.41800 24.69000
N  -2.87300 35.03100 29.13000
C  -3.54700 34.15300 29.98600
C  -3.31400 34.43600 31.48500
C  -2.55400 35.81000 31.42600
C  -2.23100 35.92500 29.89300
C  -3.39700 37.02900 31.99300
C  -2.66300 33.27300 32.38300
C  -3.51000 32.69700 33.54300
H  -2.76500 32.31300 34.80900
N  -0.97100 36.04500 26.98900
C  -0.66700 36.89000 28.08300
C  0.24500 37.93300 27.69500
C  0.33000 37.80700 26.28200
C  -0.42400 36.57500 25.88400
C  0.83000 38.96500 28.66700
C  1.04500 38.75100 25.30500
O  1.02300 38.48200 24.11500
C  1.80200 40.02900 25.76900
N  -2.31800 34.37300 24.87300
C  -1.49300 35.14900 24.08900
C  -1.44100 34.50600 22.62900
C  -2.20100 33.15200 22.85000
C  -2.76800 33.33100 24.21300
C  -2.20100 35.40100 21.56800
C  -1.29000 31.87700 22.92300
C  -1.88100 30.52000 22.21700
N  -3.75400 33.08700 26.96700
C  -4.27800 32.28700 26.00700
C  -5.18100 31.28100 26.56000
C  -5.20400 31.60900 27.97200
C  -4.35900 32.76500 28.14600
C  -5.84600 30.18800 25.79200
C  -5.74700 31.16300 29.16500
O  -6.43000 30.20900 29.53100
C  -5.20400 32.14800 30.24600
C  -6.28400 32.90000 30.94000
O  -6.87000 33.85800 30.52800
O  -6.54000 32.27700 32.10600
C  -7.72700 32.70200 32.89800
H  -0.68600 37.42900 30.10700
H  0.06500 36.49400 23.83400
H  -4.14800 31.60400 24.05600
H  -4.30500 34.62900 31.89400
H  -1.66400 35.77700 32.05300
H  -4.44700 36.98500 31.70200
H  -2.93600 37.82200 31.40400
H  -3.34000 37.15100 33.07500
H  -1.64300 33.58100 32.61000
H  -2.52700 32.37700 31.77600
H  -4.02100 31.80500 33.18000
H  -4.30800 33.40600 33.76200
H  0.81000 40.00600 28.34700
H  1.86300 38.61800 28.62200
H  0.52000 39.10400 29.70300
H  1.15200 40.85000 26.07000
H  2.40500 40.20900 24.87900
H  2.55200 39.80700 26.52800
H  -0.40900 34.33900 22.32200
H  -2.97000 32.95500 22.10400
H  -2.42800 36.40700 21.92000
H  -3.14600 34.95700 21.25200
H  -1.60700 35.53700 20.66400
H  -1.03800 31.62900 23.95400
H  -0.36100 32.10800 22.40200
H  -2.80700 30.71900 21.67800
H  -2.23000 29.73300 22.88600
H  -1.05400 30.23400 21.56700
H  -5.53300 29.40600 26.48400
H  -5.54000 30.17100 24.74600
H  -6.91600 30.39700 25.79900
H  -4.60900 31.60500 30.98000
H  -8.14400 31.80100 33.34800
H  -8.55100 33.10500 32.30900
H  -7.58300 33.43300 33.69400

