158

Mg 40.95600 9.66400 30.17800
C  42.92200 10.84800 32.76300
C  38.53200 8.71900 32.52200
C  39.11900 8.47800 27.68000
C  43.54800 10.34200 27.86900
N  40.82700 9.51800 32.43700
C  41.73900 10.27900 33.28400
C  41.10300 10.41700 34.73500
C  39.86300 9.47900 34.59600
C  39.67000 9.29000 33.08300
C  39.91300 8.15700 35.42900
C  40.77600 11.89400 35.12200
C  40.03500 12.07400 36.49700
H  40.58600 13.01700 37.61600
N  39.16400 8.74000 30.14600
C  38.29200 8.49500 31.17300
C  37.04000 7.88100 30.63700
C  37.21500 7.84500 29.18300
C  38.47900 8.39100 28.93300
C  35.88800 7.33600 31.51000
C  36.26300 7.25100 28.10000
O  36.43900 7.24400 26.88700
C  35.02600 6.53200 28.65400
N  41.30400 9.51100 28.12100
C  40.42900 8.93000 27.31200
C  40.92100 8.90200 25.81900
C  42.26200 9.65900 25.86700
C  42.40000 9.92900 27.41200
C  40.93800 7.50500 25.27600
C  42.35600 10.97200 25.02400
C  41.14400 11.97700 25.13800
N  42.86500 10.35900 30.27500
C  43.78200 10.67100 29.23400
C  44.91600 11.32200 29.88200
C  44.57600 11.44200 31.24000
C  43.34900 10.82800 31.36600
C  46.14500 11.77200 29.14100
C  45.06100 11.95900 32.55200
O  46.12600 12.52500 32.90500
C  43.99200 11.57100 33.54100
C  44.57600 10.74800 34.72000
O  45.20400 9.68000 34.66600
O  44.33300 11.42200 35.92300
C  44.97300 10.84300 37.07500
H  37.68100 8.60600 33.19700
H  38.63200 8.16500 26.75500
H  44.17500 10.54000 26.99700
H  41.92300 10.13300 35.39500
H  38.98600 9.99500 34.98600
H  40.14700 7.30800 34.78700
H  38.90700 8.09000 35.84300
H  40.62800 8.17300 36.25100
H  40.11500 12.33400 34.37400
H  41.72400 12.42600 35.20200
H  39.80000 11.07600 36.86800
H  39.05600 12.51600 36.31400
H  35.90900 7.56900 32.57500
H  35.79400 6.26600 31.32400
H  35.01900 7.89100 31.15600
H  35.45200 5.77000 29.30600
H  34.49300 6.13300 27.79000
H  34.44900 7.23100 29.25900
H  40.19100 9.44300 25.21700
H  43.08500 8.98000 25.64500
H  40.61200 6.75400 25.99600
H  41.94600 7.22300 24.97300
H  40.20500 7.18600 24.53500
H  42.38400 10.53000 24.02800
H  43.28500 11.50300 25.22700
H  41.46100 12.96700 25.46400
H  40.44200 11.63900 25.90100
H  40.61300 12.05900 24.19000
H  46.01600 11.83900 28.06100
H  46.95500 11.08000 29.36900
H  46.36900 12.77000 29.51900
H  43.68500 12.53900 33.93800
H  44.45800 11.30600 37.91600
H  46.04500 11.02700 37.14300
H  44.88700 9.76200 37.19000
Mg 16.68400 52.05200 26.26400
C  18.81000 50.35600 28.50400
C  14.38800 52.29200 28.68700
C  14.69600 53.57100 24.07700
C  19.03200 51.45700 23.76500
N  16.67300 51.41300 28.36600
C  17.67200 50.81900 29.16000
C  17.15700 50.56500 30.58200
C  15.63700 50.95900 30.51400
C  15.47300 51.54200 29.08900
C  14.61400 49.93400 31.02000
C  17.98700 51.17900 31.77500
C  17.95100 50.49000 33.11600
H  17.27600 51.32300 34.21000
N  14.79800 52.92900 26.38300
C  14.04000 52.94900 27.48400
C  12.89100 53.75400 27.17700
C  12.85800 54.06400 25.81400
C  14.17100 53.54700 25.39100
C  11.84800 54.15600 28.25900
C  11.84800 54.77100 24.99400
O  12.05400 54.94800 23.77700
C  10.46500 55.22300 25.50800
N  16.87500 52.34900 24.14100
C  15.89400 53.07800 23.49200
C  16.21100 53.13100 21.99400
C  17.68500 52.44500 21.92600
C  17.92500 52.11800 23.35700
C  15.23800 52.38700 21.07200
C  18.77900 53.34600 21.26700
C  19.17900 54.58300 21.95200
N  18.52100 51.04600 26.09700
C  19.34500 50.84400 24.99200
C  20.53400 50.10300 25.31400
C  20.34900 49.96500 26.72500
C  19.14400 50.50800 27.12600
C  21.66200 49.73700 24.44500
C  20.96800 49.34300 27.87100
O  21.98500 48.69800 27.98000
C  20.08800 49.81700 29.13900
C  19.74600 48.59700 29.96200
O  19.12100 47.62600 29.64700
O  20.34600 48.74300 31.17000
C  20.04000 47.74200 32.21800
H  13.75300 52.37100 29.57100
H  14.10200 54.17900 23.39200
H  19.86200 51.28600 23.07600
H  17.17400 49.48100 30.70300
H  15.42100 51.75800 31.22300
H  14.08100 50.27800 31.90700
H  15.21000 49.10300 31.39900
H  13.94300 49.44800 30.31100
H  17.54200 52.16100 31.93600
H  19.04200 51.23900 31.50800
H  18.93200 50.21100 33.50100
H  17.33900 49.58900 33.11800
H  12.26800 53.98500 29.25100
H  10.81500 53.80800 28.26800
H  11.83100 55.24600 28.27600
H  10.06600 54.35200 26.02800
H  9.83400 55.51100 24.66700
H  10.50800 56.00700 26.26400
H  16.16600 54.19000 21.74200
H  17.71400 51.49500 21.39100
H  14.54700 53.11700 20.65000
H  14.80400 51.64300 21.74000
H  15.77700 51.98400 20.21500
H  18.45100 53.61600 20.26300
H  19.69800 52.78000 21.11500
H  19.90700 54.43000 22.74900
H  18.45600 55.18800 22.49800
H  19.74800 55.17400 21.23500
H  21.40900 48.79600 23.95700
H  22.52400 49.53700 25.08100
H  21.83300 50.49000 23.67600
H  20.44300 50.62900 29.77300
H  20.66200 46.85000 32.15300
H  19.04100 47.30600 32.21000
H  20.09400 48.25200 33.18000

