158

Mg 47.67600 16.52900 28.72200
C  45.82900 15.94900 31.60900
C  49.99100 18.39000 30.73000
C  49.37500 17.30700 25.95200
C  45.33900 14.78600 26.93500
N  47.92600 17.09900 30.90600
C  46.98900 16.65700 31.86700
C  47.55800 17.09000 33.21900
C  48.60600 18.17100 32.87200
C  48.93600 17.82800 31.43400
C  48.09000 19.68800 32.93700
C  48.12400 15.87100 33.98400
C  48.01700 15.91200 35.57300
H  47.66000 17.21500 36.25300
N  49.48800 17.72300 28.37700
C  50.23900 18.41400 29.32400
C  51.32700 19.07000 28.54900
C  51.20000 18.68400 27.19000
C  49.97200 17.87100 27.10500
C  52.37400 19.97000 29.27300
C  52.09000 19.04200 25.99300
O  51.97900 18.61100 24.91200
C  53.19900 20.05200 26.05500
N  47.38900 16.23400 26.73500
C  48.15100 16.67200 25.69600
C  47.72000 16.11500 24.34100
C  46.50600 15.18500 24.69800
C  46.42800 15.37900 26.24200
C  47.51200 17.19200 23.27600
C  46.63500 13.66000 24.26600
C  45.62800 13.30400 23.17800
N  45.92400 15.72400 29.08500
C  44.99800 15.14400 28.21000
C  43.87600 14.65700 28.89300
C  44.20700 14.88800 30.18900
C  45.41800 15.60900 30.30500
C  42.65100 13.89600 28.36800
C  43.63000 14.81100 31.55600
O  42.61000 14.26300 31.92400
C  44.71600 15.44900 32.52500
C  44.08600 16.60400 33.26100
O  43.63800 17.67100 32.70100
O  44.15300 16.26900 34.57500
C  43.53200 17.31000 35.46300
H  50.64600 19.11200 31.22000
H  49.88800 17.55400 25.02100
H  44.55900 14.17000 26.48100
H  46.75100 17.54500 33.79300
H  49.50400 18.00800 33.46900
H  48.40700 20.20900 32.03300
H  48.52100 20.29400 33.73300
H  47.00300 19.72600 33.01500
H  49.15600 15.70500 33.67500
H  47.54500 15.01000 33.64900
H  48.94900 15.54500 36.00400
H  47.25300 15.16200 35.77800
H  53.39900 19.62800 29.12900
H  52.27500 20.02500 30.35700
H  52.21600 20.97700 28.88700
H  52.96500 20.94900 26.62800
H  53.46500 20.35200 25.04200
H  54.04500 19.48900 26.45000
H  48.54300 15.60300 23.84200
H  45.55600 15.52300 24.28500
H  46.50800 17.16500 22.85300
H  48.34000 17.09800 22.57300
H  47.59100 18.18200 23.72600
H  46.55200 12.93300 25.07400
H  47.65700 13.55100 23.90300
H  46.14800 13.06500 22.25000
H  44.89000 14.08200 22.98200
H  45.15700 12.35400 23.43200
H  43.01300 12.87000 28.29700
H  42.41000 14.16000 27.33800
H  41.75100 14.01300 28.97100
H  44.98800 14.69300 33.26100
H  43.85100 18.29000 35.11000
H  43.99600 17.17200 36.43900
H  42.45100 17.17000 35.45900
Mg 27.16900 49.59900 26.08300
C  25.01800 50.67700 28.69700
C  29.51300 48.81200 28.42000
C  29.46300 49.12500 23.50700
C  24.91800 50.92200 23.79100
N  27.30400 49.90800 28.27700
C  26.28700 50.17900 29.19300
C  26.59300 49.79000 30.62100
C  28.15100 49.54000 30.46500
C  28.35000 49.34000 28.92400
C  29.20700 50.48000 31.17900
C  25.72000 48.53900 31.04900
C  25.45900 48.25700 32.61300
H  25.91700 49.27300 33.68900
N  29.11800 48.90600 26.02700
C  29.89800 48.65900 27.09000
C  31.16900 48.22600 26.68400
C  31.29300 48.47900 25.26000
C  29.94600 48.86800 24.87400
C  32.20000 47.69300 27.61000
C  32.53800 48.37400 24.42900
O  32.54800 48.58200 23.22200
C  33.79900 47.87800 24.97700
N  27.14100 49.79300 23.92900
C  28.14900 49.55000 23.08100
C  27.73900 49.75200 21.64800
C  26.29800 50.27000 21.72200
C  26.09700 50.37700 23.24800
C  28.72300 50.65100 20.77400
C  25.26900 49.34500 21.04300
C  24.21300 50.08800 20.26000
N  25.29200 50.64200 26.13200
C  24.53600 51.12100 25.11700
C  23.33700 51.60100 25.72000
C  23.44600 51.43100 27.13200
C  24.69900 50.90700 27.33700
C  22.18900 52.26900 24.99000
C  22.81600 51.74600 28.39700
O  21.69000 52.20500 28.64600
C  23.81200 51.15900 29.45900
C  24.16800 52.17400 30.51300
O  25.08700 52.96400 30.47700
O  23.18200 52.17200 31.51500
C  23.40400 53.06700 32.67600
H  30.11400 48.28900 29.16700
H  30.19500 49.00200 22.70600
H  24.18800 51.22700 23.03800
H  26.33100 50.63000 31.26400
H  28.37800 48.59300 30.95500
H  28.58300 51.20700 31.70000
H  29.72600 51.08200 30.43300
H  29.90600 50.01300 31.87200
H  26.30500 47.75000 30.57700
H  24.72600 48.69100 30.62900
H  25.86600 47.29500 32.92400
H  24.38000 48.10400 32.56500
H  32.76100 46.87300 27.16100
H  31.66400 47.28300 28.46600
H  32.86700 48.53100 27.81500
H  34.61400 47.92800 24.25500
H  33.86800 46.87500 25.39900
H  34.09000 48.55300 25.78200
H  27.70700 48.72500 21.28400
H  26.24800 51.24100 21.23000
H  29.11600 51.38200 21.48000
H  28.17300 51.16900 19.98900
H  29.60700 50.15800 20.37000
H  24.87800 48.61100 21.74800
H  25.73600 48.69400 20.30400
H  23.32900 49.45400 20.33200
H  24.51700 50.39100 19.25800
H  23.91300 50.94400 20.86500
H  22.46800 53.23500 24.57000
H  21.30500 52.35200 25.62300
H  22.04700 51.67000 24.09100
H  23.20200 50.30400 29.75100
H  24.31200 52.60900 33.06800
H  22.55800 52.94700 33.35300
H  23.52600 54.13800 32.51900

