158

Mg 24.15200 -5.45400 45.29800
C  26.40300 -3.09500 43.85200
C  21.70500 -4.26300 43.12800
C  22.37500 -8.17300 45.96400
C  26.95800 -6.94200 46.86700
N  24.13600 -3.92700 43.70200
C  25.11800 -3.05100 43.27400
C  24.62300 -2.24500 42.04600
C  23.08100 -2.31400 42.27600
C  22.91000 -3.59000 43.04600
C  22.49700 -1.04900 42.82200
C  25.02900 -2.84300 40.68100
C  25.52100 -1.80000 39.64000
H  24.91600 -1.92500 38.24000
N  22.33400 -6.13700 44.64400
C  21.45200 -5.42300 43.86600
C  20.17200 -6.13300 43.85300
C  20.31900 -7.24100 44.69200
C  21.70000 -7.21900 45.16100
C  18.99900 -5.68600 43.07500
C  19.18300 -8.20500 45.15100
O  18.09900 -8.24300 44.69300
C  19.40800 -9.13400 46.26500
N  24.54100 -7.23900 46.28600
C  23.64900 -8.20800 46.49600
C  24.24700 -9.43100 47.20000
C  25.73600 -9.09100 47.44900
C  25.76200 -7.67200 46.77500
C  23.49500 -9.93100 48.51300
C  26.65800 -10.14500 46.84800
C  28.09900 -10.17100 47.33700
N  26.22000 -4.95600 45.68400
C  27.20400 -5.65100 46.34400
C  28.46700 -4.91600 46.17900
C  28.19200 -3.89800 45.18800
C  26.82700 -4.00000 44.90100
C  29.78800 -5.23200 46.82600
C  28.79000 -2.88800 44.36100
O  29.94900 -2.50200 44.33700
C  27.60800 -2.22700 43.43000
C  27.44100 -0.92700 43.93100
O  26.62900 -0.54300 44.79300
O  28.27700 -0.06900 43.25300
C  28.40400 1.28000 43.89400
H  20.91700 -3.86100 42.48600
H  21.97500 -9.18100 46.09500
H  27.74000 -7.38500 47.48600
H  24.96500 -1.23300 42.26500
H  22.43400 -2.40100 41.40300
H  23.29600 -0.45200 43.26200
H  21.76900 -1.22900 43.61300
H  22.04600 -0.51300 41.98700
H  24.29700 -3.54300 40.27900
H  25.97900 -3.36200 40.80200
H  26.59800 -1.87700 39.49000
H  25.18100 -0.80000 39.91000
H  18.09200 -6.29100 43.09200
H  19.24200 -5.56900 42.01900
H  18.74400 -4.69800 43.45700
H  18.42200 -9.30800 46.69500
H  19.98500 -8.68800 47.07500
H  19.81900 -10.05900 45.86000
H  24.16900 -10.31400 46.56500
H  25.89800 -8.93000 48.51500
H  23.08400 -10.92600 48.34100
H  22.69400 -9.24500 48.79000
H  24.17300 -10.03700 49.36000
H  26.74100 -9.91600 45.78500
H  26.27100 -11.16100 46.92400
H  28.23400 -11.24200 47.48400
H  28.09800 -9.65000 48.29400
H  28.91800 -10.00100 46.63700
H  30.38400 -6.09800 46.53800
H  29.70500 -5.37200 47.90400
H  30.28500 -4.26900 46.71600
H  27.85000 -2.36100 42.37500
H  28.98300 1.98600 43.29800
H  28.85100 1.09400 44.87100
H  27.45000 1.68300 44.23200
Mg 45.10100 4.58200 45.34900
C  43.10800 7.39100 45.84700
C  42.43900 2.62700 45.11500
C  47.29400 2.14300 44.58500
C  47.77500 6.88300 45.06600
N  42.94100 4.98700 45.40100
C  42.33400 6.15000 45.69700
C  40.77000 5.95700 45.87600
C  40.65000 4.33300 45.78900
C  42.11200 3.94400 45.44300
C  40.08100 3.64000 47.06900
C  39.91700 6.67400 44.75300
C  40.64100 7.13200 43.50000
H  40.09800 6.79200 42.08900
N  44.86900 2.63900 44.79100
C  43.67900 2.03400 44.82400
C  43.87700 0.61700 44.36900
C  45.31700 0.46600 44.23700
C  45.90000 1.78600 44.53100
C  42.77000 -0.38400 44.28500
C  46.05300 -0.81100 43.87600
O  45.46900 -1.87800 44.00300
C  47.51000 -0.90000 43.63800
N  47.26300 4.56200 44.80100
C  47.92900 3.33200 44.75700
C  49.43100 3.52300 44.66400
C  49.61300 5.11000 44.57300
C  48.14700 5.55300 44.82700
C  50.24700 2.88000 45.75700
C  50.08500 5.58900 43.13900
C  49.20300 5.19800 41.91700
N  45.45100 6.68800 45.46000
C  46.55700 7.40100 45.32400
C  46.28700 8.81000 45.48000
C  44.92300 8.82200 45.85500
C  44.44900 7.55200 45.68600
C  47.25200 9.87400 45.47000
C  43.79500 9.67100 46.16000
O  43.71500 10.91200 46.28600
C  42.57000 8.69900 46.29600
C  42.00400 8.70600 47.67800
O  42.45800 8.10900 48.61100
O  40.77300 9.35800 47.67900
C  39.92400 9.26900 48.91600
H  41.61600 1.92000 45.23300
H  48.05900 1.36600 44.52300
H  48.66300 7.51600 45.11900
H  40.50100 6.37400 46.84600
H  40.02900 4.08600 44.92700
H  39.95700 4.30800 47.92200
H  40.82400 2.87600 47.30000
H  39.09500 3.21100 46.89100
H  39.57800 7.59400 45.22900
H  39.02000 6.13300 44.45400
H  41.60500 6.63500 43.38900
H  40.80800 8.20900 43.48500
H  42.91300 -0.97100 43.37800
H  41.84600 0.19400 44.24600
H  42.68000 -0.98000 45.19300
H  47.81700 -1.84100 43.18200
H  48.06900 -0.91300 44.57400
H  47.78700 -0.05000 43.01500
H  49.59500 3.06400 43.68900
H  50.31800 5.47800 45.31800
H  49.50900 2.58900 46.50400
H  51.04400 3.50100 46.16600
H  50.64800 1.98600 45.28000
H  51.02300 5.12900 42.82700
H  50.28800 6.65800 43.21000
H  49.28600 5.90100 41.08800
H  48.12500 5.13000 42.05900
H  49.51400 4.24200 41.49600
H  47.59000 10.05600 44.45000
H  48.11000 9.61200 46.08800
H  46.82900 10.79600 45.86800
H  41.75900 8.89600 45.59500
H  39.40900 8.31000 48.97200
H  39.14400 10.00100 48.70600
H  40.47600 9.56700 49.80800

