158

Mg 43.96400 5.11900 47.06700
C  42.04100 8.08200 46.78200
C  41.02200 3.38700 46.56100
C  45.88700 2.39100 46.56100
C  46.90100 7.06700 46.74800
N  41.77200 5.65800 46.77400
C  41.25200 6.90700 46.63500
C  39.75000 6.81500 46.42200
C  39.43100 5.36100 46.83900
C  40.81000 4.74300 46.72100
C  38.79000 5.09700 48.23900
C  39.42700 7.09300 44.93200
C  38.75900 8.42200 44.58300
H  39.29600 9.30100 43.41400
N  43.49100 3.17300 46.77200
C  42.27900 2.63000 46.61700
C  42.38600 1.18400 46.40700
C  43.73300 0.88100 46.68300
C  44.51000 2.19300 46.58800
C  41.28000 0.29900 46.16100
C  44.30100 -0.53100 47.11800
O  43.61600 -1.53800 47.13500
C  45.70800 -0.58000 47.36900
N  46.11500 4.81400 46.52900
C  46.63300 3.52700 46.49800
C  48.21400 3.58000 46.44500
C  48.50000 5.11700 46.45400
C  47.06600 5.67800 46.55800
C  48.92300 2.89500 47.60700
C  49.36200 5.57700 45.24900
C  50.61300 6.33800 45.50400
N  44.49000 7.19400 46.84700
C  45.71400 7.83800 46.86900
C  45.46700 9.28100 46.92300
C  44.02100 9.44800 46.99400
C  43.49800 8.13000 46.90800
C  46.52200 10.37900 46.77300
C  42.91100 10.38200 47.03500
O  42.83500 11.59400 47.14800
C  41.63600 9.54100 46.76200
C  40.71800 9.84200 47.90900
O  40.79400 9.51700 49.12100
O  39.94100 10.78500 47.49800
C  39.09300 11.38300 48.51900
H  40.19000 2.71000 46.35300
H  46.48300 1.48400 46.43900
H  47.88700 7.53600 46.76900
H  39.17200 7.48000 47.06400
H  38.79200 4.85000 46.12000
H  39.36500 4.52900 48.97000
H  37.83700 4.61500 48.02300
H  38.74800 6.10200 48.66000
H  38.84100 6.29300 44.48000
H  40.37800 7.14200 44.40200
H  38.71000 9.05700 45.46800
H  37.74700 8.06600 44.39200
H  40.56900 0.48200 46.96700
H  41.54300 -0.75700 46.09200
H  40.75300 0.63300 45.26700
H  46.26600 -0.65800 46.43600
H  45.98000 -1.46500 47.94400
H  45.99500 0.27700 47.97800
H  48.43000 3.17100 45.45800
H  48.92000 5.44600 47.40400
H  49.31100 1.90300 47.37800
H  48.34600 2.84800 48.53100
H  49.81400 3.47200 47.85500
H  48.74100 6.28100 44.69500
H  49.67800 4.70700 44.67300
H  51.41500 6.08700 44.81100
H  50.89400 6.20700 46.54900
H  50.40600 7.39400 45.32900
H  46.17600 11.28800 46.28000
H  47.33900 9.90200 46.23200
H  46.95200 10.48000 47.76900
H  41.28700 9.96700 45.82200
H  38.83800 12.41500 48.27700
H  39.71200 11.46900 49.41200
H  38.21400 10.76200 48.68900
Mg -5.90300 24.87800 26.16800
C  -4.37300 26.14700 28.94600
C  -7.92600 22.89900 28.17400
C  -6.87400 23.04300 23.40000
C  -3.54600 26.48000 24.23300
N  -5.99300 24.41700 28.25400
C  -5.34900 25.14300 29.25500
C  -5.90300 24.75500 30.66400
C  -6.78100 23.49100 30.42400
C  -6.97500 23.61100 28.88800
C  -6.16800 22.14800 30.92600
C  -6.67500 25.95500 31.24700
C  -6.35400 26.28600 32.71800
H  -5.79400 25.26100 33.75300
N  -7.32000 23.29700 25.80900
C  -8.17700 22.73800 26.77600
C  -9.16900 21.95900 26.12500
C  -8.83100 21.94900 24.73700
C  -7.63100 22.80400 24.59400
C  -10.22600 21.24300 26.90900
C  -9.49500 21.23700 23.57000
O  -8.97600 21.08900 22.49500
C  -10.84400 20.66600 23.79200
N  -5.42400 24.77800 24.02100
C  -5.83000 23.90800 23.06200
C  -5.08500 24.06400 21.74300
C  -4.26500 25.40300 22.02900
C  -4.50600 25.65600 23.46600
C  -4.24200 22.78000 21.42100
C  -4.52900 26.73000 21.27400
C  -4.23600 26.58700 19.78900
N  -4.36300 26.20600 26.43100
C  -3.45500 26.80100 25.59600
C  -2.49100 27.66700 26.30700
C  -2.95000 27.53000 27.65400
C  -3.99400 26.52600 27.69200
C  -1.32200 28.46400 25.69700
C  -2.62400 27.87100 29.00900
O  -1.84900 28.66900 29.51400
C  -3.61600 27.01400 29.87700
C  -2.68500 26.25700 30.72000
O  -1.73200 25.62400 30.34200
O  -2.97100 26.39900 32.09100
C  -1.87000 26.01000 33.01100
H  -8.43500 22.25200 28.89100
H  -7.03100 22.46200 22.48800
H  -2.85800 26.95200 23.52900
H  -5.01800 24.47700 31.23600
H  -7.77700 23.56600 30.86000
H  -5.77800 21.58600 30.07800
H  -6.95600 21.55600 31.39200
H  -5.40900 22.38100 31.67200
H  -7.74100 25.73400 31.17800
H  -6.43300 26.82400 30.63500
H  -7.22200 26.78000 33.15400
H  -5.53300 26.99500 32.61500
H  -10.34700 21.80100 27.83700
H  -9.94000 20.20200 27.05900
H  -11.22100 21.30400 26.46700
H  -11.23600 20.32000 22.83500
H  -11.47400 21.51300 24.06200
H  -10.87400 19.85700 24.52200
H  -5.88200 24.24300 21.02200
H  -3.21800 25.16000 21.84800
H  -3.26100 23.01000 21.00500
H  -4.76700 22.11800 20.73300
H  -4.08200 22.14900 22.29500
H  -3.86400 27.51000 21.64300
H  -5.54400 27.03900 21.52500
H  -3.29000 26.99500 19.43100
H  -5.03100 27.09600 19.24400
H  -4.30300 25.53600 19.50400
H  -1.74900 29.43400 25.43900
H  -0.81900 28.05200 24.82200
H  -0.52300 28.66400 26.41100
H  -4.12000 27.82200 30.40600
H  -1.44400 25.04600 32.73500
H  -2.24800 26.08100 34.03100
H  -1.13400 26.80900 32.92000

