158

Mg 47.60700 24.77400 27.93100
C  48.51000 26.87000 30.62400
C  46.74700 22.37300 30.29700
C  47.19500 22.58500 25.39400
C  48.96400 27.06900 25.70400
N  47.62700 24.68000 30.18000
C  48.01400 25.62900 31.07700
C  47.71000 25.26800 32.53600
C  47.29600 23.74900 32.34300
C  47.09600 23.64300 30.88000
C  48.35800 22.79600 33.00400
C  46.65900 26.11300 33.27700
C  47.29800 26.89100 34.50700
H  46.45700 27.59800 35.56300
N  46.99700 22.74300 27.83500
C  46.63700 21.95900 28.93900
C  46.11400 20.74500 28.42800
C  46.29700 20.78200 26.97100
C  46.81000 22.08500 26.68800
C  45.62000 19.65000 29.36300
C  45.83200 19.72200 25.94900
O  46.18500 19.70000 24.76500
C  45.08900 18.55800 26.39400
N  48.07100 24.82500 25.89200
C  47.77900 23.84600 25.02700
C  48.18600 24.17000 23.58800
C  48.41700 25.70100 23.66700
C  48.49100 25.91400 25.17500
C  49.26300 23.24400 22.83400
C  47.28000 26.60500 23.07700
C  47.85400 27.88700 22.39000
N  48.57900 26.58300 28.07000
C  49.04300 27.34900 27.11000
C  49.61400 28.60100 27.69100
C  49.49900 28.42600 29.03200
C  48.82500 27.16100 29.24300
C  50.26700 29.72000 26.87500
C  49.72900 29.00100 30.37800
O  50.25900 30.06900 30.69900
C  49.04100 28.03400 31.43500
C  50.17500 27.64600 32.35200
O  50.71100 26.56400 32.28900
O  50.58800 28.71100 33.15600
C  51.66600 28.36900 34.01000
H  46.49700 21.59400 31.02100
H  46.97700 21.88300 24.58600
H  49.35700 27.87700 25.08400
H  48.71600 25.23200 32.95600
H  46.27800 23.61400 32.70700
H  47.94700 22.13400 33.76600
H  49.22800 23.25200 33.47700
H  48.73800 22.24000 32.14700
H  45.72900 25.57900 33.47300
H  46.45800 26.87300 32.52200
H  47.82900 27.75900 34.11500
H  47.95100 26.16500 34.99100
H  44.53500 19.54600 29.35700
H  45.86300 19.78700 30.41700
H  46.08400 18.73300 29.00000
H  44.24700 19.02300 26.90600
H  45.64800 17.87400 27.03300
H  44.78000 18.00300 25.50800
H  47.22300 23.96600 23.12000
H  49.37300 25.98200 23.22400
H  48.75600 22.48100 22.24200
H  49.89700 22.83700 23.62200
H  49.91400 23.89400 22.25000
H  46.50900 26.73700 23.83600
H  46.65000 26.12200 22.33000
H  47.71100 28.74200 23.05200
H  47.32300 28.12900 21.47000
H  48.88100 27.87900 22.02500
H  49.82500 29.87600 25.89100
H  51.35400 29.65300 26.81600
H  50.07600 30.54900 27.55600
H  48.23500 28.52200 31.98400
H  52.56900 28.10200 33.46100
H  51.44500 27.51100 34.64600
H  51.93700 29.19100 34.67300
Mg -10.96100 39.11200 40.18000
C  -10.17100 35.62200 39.98600
C  -7.78600 39.79600 39.17000
C  -12.03700 42.24700 39.87300
C  -14.32800 38.05900 41.02200
N  -9.21600 37.81700 39.51000
C  -9.09100 36.45200 39.55300
C  -7.68400 36.06600 39.05300
C  -6.85000 37.38700 39.23700
C  -8.02300 38.40800 39.32100
C  -5.85300 37.49800 40.41700
C  -7.59600 35.30500 37.69400
C  -7.00000 35.98500 36.51500
H  -7.79600 37.05500 35.72400
N  -10.01200 40.78900 39.54300
C  -8.69500 40.86700 39.32000
C  -8.41900 42.28700 39.20900
C  -9.56300 43.02500 39.36800
C  -10.60000 42.05000 39.60600
C  -6.98200 42.78200 38.98100
C  -9.70400 44.54100 39.44000
O  -8.69900 45.22500 39.29100
C  -10.90800 45.22300 39.73700
N  -12.98400 39.93600 40.22300
C  -13.06800 41.28900 40.09400
C  -14.50200 41.82300 40.29000
C  -15.20700 40.48800 40.94700
C  -14.17500 39.39500 40.57300
C  -14.63000 43.04300 41.18200
C  -16.66200 40.22800 40.48900
C  -17.73300 40.75000 41.37700
N  -12.03800 37.26200 40.59300
C  -13.35400 37.04100 41.02000
C  -13.50500 35.56700 41.31500
C  -12.26200 35.00100 40.86700
C  -11.42800 36.08800 40.45600
C  -14.67800 34.82500 41.90400
C  -11.55400 33.70600 40.69400
O  -11.83400 32.59100 41.02600
C  -10.26200 34.09700 39.90800
C  -9.07800 33.31100 40.47200
O  -8.66500 33.32000 41.57700
O  -8.40400 32.73800 39.41500
C  -7.34200 31.86900 39.76400
H  -6.74900 40.09400 39.00400
H  -12.39900 43.27500 39.80000
H  -15.35400 37.82900 41.31400
H  -7.26700 35.30000 39.70600
H  -6.30500 37.62400 38.32300
H  -6.04700 38.38000 41.02800
H  -4.92400 37.69300 39.88100
H  -5.74800 36.62700 41.06400
H  -8.59500 34.90500 37.51600
H  -6.99100 34.42300 37.90300
H  -6.86900 35.17200 35.80100
H  -5.98100 36.31500 36.71900
H  -7.21100 43.56700 38.26000
H  -6.40000 41.97400 38.53700
H  -6.50500 43.17000 39.88100
H  -11.29400 44.93100 40.71400
H  -11.51900 44.83100 38.92300
H  -10.84200 46.30700 39.64000
H  -15.00400 41.94300 39.33000
H  -15.31400 40.57100 42.02800
H  -15.14700 42.79500 42.10900
H  -15.21700 43.78300 40.63900
H  -13.69900 43.48200 41.54100
H  -16.76600 39.14400 40.44700
H  -16.85800 40.65800 39.50700
H  -17.32800 41.16900 42.29900
H  -18.41900 39.93100 41.58900
H  -18.28400 41.52700 40.84700
H  -14.72600 34.99100 42.98000
H  -14.49100 33.75400 41.82700
H  -15.54800 35.25100 41.40400
H  -10.51400 33.68200 38.93300
H  -6.64000 31.80100 38.93300
H  -7.84400 30.91000 39.89300
H  -6.82900 32.16000 40.68000

