158

Mg 24.16400 -5.36000 44.97000
C  26.34300 -2.96300 43.49300
C  21.63300 -4.11700 42.92600
C  22.56400 -8.22400 45.40300
C  27.08400 -6.94800 46.35100
N  24.03700 -3.69200 43.47200
C  25.01700 -2.92100 42.99000
C  24.52900 -2.00200 41.90500
C  22.90600 -2.04800 42.01400
C  22.82900 -3.37600 42.81300
C  22.23300 -0.99000 42.91600
C  25.08300 -2.59800 40.53900
C  25.57400 -1.64700 39.48300
H  25.05000 -1.79500 38.03800
N  22.36700 -6.02600 44.39400
C  21.43100 -5.36800 43.59200
C  20.25700 -6.22300 43.46000
C  20.50000 -7.45500 44.15800
C  21.89400 -7.28300 44.65300
C  19.00200 -5.81600 42.65100
C  19.46700 -8.51000 44.39600
O  18.35600 -8.38000 43.85800
C  19.64000 -9.60200 45.36300
N  24.72000 -7.25900 45.88200
C  23.83500 -8.28600 45.91300
C  24.46800 -9.46100 46.60000
C  25.75200 -8.92300 47.18600
C  25.91100 -7.64800 46.42200
C  23.46100 -10.17000 47.64400
C  27.02600 -9.84600 46.94900
C  27.84600 -10.22900 48.19500
N  26.25100 -4.98300 45.08300
C  27.29400 -5.74300 45.65300
C  28.52000 -4.99600 45.50600
C  28.17500 -3.86900 44.69400
C  26.78500 -3.96400 44.40200
C  29.85000 -5.35100 46.00900
C  28.67100 -2.67800 44.04700
O  29.78500 -2.17600 44.09400
C  27.53500 -2.08200 43.14700
C  27.18900 -0.67700 43.59500
O  26.64600 -0.24600 44.56500
O  27.61500 0.11000 42.59500
C  27.38500 1.57000 42.69500
H  20.78300 -3.68800 42.39200
H  22.01700 -9.13100 45.66500
H  27.97400 -7.42300 46.76900
H  24.92200 -0.99100 42.01200
H  22.41000 -2.04700 41.04400
H  21.45400 -0.43600 42.39200
H  23.01600 -0.30500 43.24100
H  21.73500 -1.43100 43.78000
H  24.34800 -3.27300 40.10000
H  25.97300 -3.09600 40.92300
H  26.65200 -1.78100 39.57700
H  25.38000 -0.62800 39.81900
H  18.78100 -6.53600 41.86300
H  19.10700 -4.85200 42.15400
H  18.04300 -5.76200 43.16700
H  20.11800 -9.25700 46.28100
H  20.20200 -10.36200 44.82000
H  18.65500 -10.00800 45.59200
H  24.77800 -10.24900 45.91400
H  25.79700 -8.67900 48.24700
H  22.51700 -9.64700 47.79600
H  23.80400 -10.40100 48.65200
H  23.21600 -11.13800 47.20500
H  27.70400 -9.48300 46.17700
H  26.69200 -10.77700 46.49100
H  28.81000 -9.72700 48.28600
H  27.95500 -11.31400 48.22000
H  27.23300 -9.96400 49.05600
H  29.83600 -5.33100 47.09900
H  30.63700 -4.70600 45.61600
H  30.08900 -6.31700 45.56500
H  27.70900 -2.05000 42.07200
H  27.90900 2.00100 41.84200
H  27.75400 1.87100 43.67600
H  26.30200 1.67200 42.63000
Mg -5.46200 25.05000 26.59900
C  -4.06600 26.50200 29.47700
C  -7.63400 23.16200 28.53900
C  -6.44600 23.51900 23.88800
C  -3.13000 26.86300 24.74000
N  -5.77200 24.88600 28.75000
C  -5.08400 25.53100 29.74300
C  -5.47800 24.92600 31.04800
C  -6.53100 23.83000 30.77600
C  -6.67100 24.00100 29.25900
C  -6.15400 22.45500 31.34800
C  -5.94900 26.02700 32.03900
C  -5.64800 25.70700 33.50100
H  -5.08000 24.38200 33.88800
N  -6.90100 23.66300 26.30300
C  -7.65000 22.94100 27.20200
C  -8.59000 21.98700 26.51500
C  -8.30300 22.16000 25.15600
C  -7.16400 23.16800 25.06200
C  -9.45900 21.13600 27.24000
C  -9.04700 21.58600 23.98400
O  -8.66500 21.71800 22.82700
C  -10.27300 20.64000 24.20400
N  -4.88100 25.22600 24.63300
C  -5.42100 24.41800 23.68600
C  -4.70400 24.51900 22.31200
C  -3.86600 25.84200 22.58000
C  -3.97900 26.06300 24.06800
C  -3.91100 23.22800 21.77700
C  -4.40500 27.10400 21.84300
C  -3.51500 27.71000 20.78800
N  -3.92500 26.53000 26.96900
C  -3.06900 27.17700 26.13000
C  -2.13900 28.03700 26.82600
C  -2.44100 27.77600 28.17800
C  -3.58100 26.80200 28.17600
C  -1.04900 28.81700 26.16100
C  -2.09000 28.02800 29.57900
O  -1.35300 28.74500 30.20500
C  -3.13200 27.22700 30.40000
C  -2.41200 26.38800 31.33900
O  -2.05500 25.19900 31.09400
O  -1.99700 27.09900 32.47000
C  -1.38800 26.32100 33.50100
H  -8.42900 22.70600 29.13300
H  -6.70400 22.95700 22.98800
H  -2.38500 27.35100 24.10800
H  -4.51300 24.49600 31.31400
H  -7.48300 24.18600 31.17000
H  -6.16800 21.69100 30.57100
H  -6.86800 22.13200 32.10600
H  -5.17400 22.39100 31.82100
H  -7.02300 26.21600 32.06600
H  -5.53600 27.00100 31.77800
H  -6.50700 25.92500 34.13700
H  -4.93400 26.43200 33.89000
H  -9.18600 20.18300 26.78700
H  -10.48300 21.35200 26.93500
H  -9.34800 21.06200 28.32200
H  -10.02000 19.73200 24.75300
H  -10.50700 20.23400 23.22000
H  -11.10600 21.19600 24.63300
H  -5.47500 24.68500 21.56000
H  -2.82100 25.61900 22.36500
H  -2.83700 23.36400 21.65000
H  -4.28000 22.84400 20.82600
H  -3.99900 22.40600 22.48800
H  -4.68800 27.88600 22.54800
H  -5.34500 26.82900 21.36500
H  -4.15300 27.84600 19.91500
H  -2.61500 27.10300 20.68200
H  -3.22300 28.69600 21.14800
H  -0.48600 29.36300 26.91800
H  -1.26100 29.48800 25.32900
H  -0.29100 28.14400 25.76100
H  -3.63900 28.00200 30.97400
H  -2.10200 26.28100 34.32400
H  -0.53900 26.94600 33.77900
H  -1.09100 25.32600 33.16900

