158

Mg 1.36100 8.68500 26.97000
C  1.87700 10.73900 29.74700
C  1.49400 5.94400 29.18500
C  1.22800 6.54400 24.32100
C  1.90700 11.38900 24.84200
N  1.55900 8.38800 29.16900
C  1.69300 9.41800 30.14200
C  1.53600 8.89100 31.56500
C  1.87600 7.35800 31.35900
C  1.61100 7.15400 29.85800
C  3.23900 6.85300 31.73800
C  0.07200 9.16400 32.05400
C  -0.23600 9.06500 33.53700
H  0.84700 8.68700 34.57300
N  1.43200 6.57200 26.73500
C  1.40500 5.62900 27.81500
C  1.14200 4.29700 27.25900
C  0.90400 4.46800 25.86400
C  1.22000 5.90100 25.55100
C  1.14400 3.11800 28.28000
C  0.32200 3.48500 24.83500
O  -0.09800 3.83700 23.72500
C  0.15800 2.13200 25.30100
N  1.69800 8.99800 24.75700
C  1.48500 7.88600 23.97000
C  1.38200 8.49700 22.50500
C  1.27400 10.07000 22.68700
C  1.70600 10.18000 24.14900
C  2.64100 8.11100 21.79200
C  -0.13200 10.69600 22.43100
C  -0.20500 11.99500 21.61800
N  1.77400 10.69200 27.18200
C  1.97000 11.65800 26.20300
C  2.20800 12.95800 26.90500
C  2.22700 12.63700 28.28500
C  1.94100 11.20900 28.36700
C  2.32600 14.29700 26.17600
C  2.24700 13.19300 29.64500
O  2.44200 14.32600 30.09600
C  1.92000 11.96100 30.62200
C  2.91600 11.94600 31.71000
O  4.12200 11.82600 31.56200
O  2.30500 12.23500 32.88000
C  3.20000 12.60600 33.96600
H  1.36900 5.15700 29.93100
H  1.28000 5.90500 23.43700
H  1.93500 12.23500 24.15200
H  2.34800 9.18500 32.23000
H  1.18400 6.71800 31.90600
H  3.89300 6.46800 30.95400
H  3.10100 6.07000 32.48400
H  3.82200 7.68900 32.12400
H  -0.52200 8.42700 31.51300
H  -0.19900 10.19300 31.81800
H  -1.01100 8.29900 33.55700
H  -0.69400 10.03300 33.74000
H  2.11100 3.33300 28.73500
H  1.14300 2.14400 27.79000
H  0.39200 3.26600 29.05600
H  -0.54300 2.27900 26.12300
H  1.14500 1.69100 25.44200
H  -0.24100 1.48800 24.51700
H  0.48800 8.14300 21.99000
H  1.96300 10.60000 22.03000
H  3.24400 8.97600 21.51300
H  2.42500 7.47700 20.93200
H  3.15400 7.53200 22.55900
H  -0.54400 10.89400 23.42000
H  -0.72900 9.91900 21.95300
H  0.74200 12.15900 21.10300
H  -0.63600 12.79600 22.21900
H  -0.89400 11.86500 20.78500
H  2.32000 15.14200 26.86500
H  1.46400 14.46000 25.53000
H  3.17600 14.25600 25.49600
H  0.98200 12.26700 31.08400
H  3.80200 13.43200 33.58800
H  3.91700 11.83900 34.26300
H  2.61300 13.08200 34.75100
Mg -12.96000 15.65800 41.99000
C  -9.89000 14.22800 41.67400
C  -11.61800 18.61700 40.39200
C  -16.05600 17.07000 41.72700
C  -14.29300 12.69600 42.99700
N  -10.91400 16.29700 41.19100
C  -9.79300 15.53600 41.18700
C  -8.59700 16.14800 40.42600
C  -9.18300 17.57800 40.08900
C  -10.71600 17.49300 40.52300
C  -8.44500 18.78100 40.75800
C  -8.43700 15.27800 39.14200
C  -7.01400 14.91100 38.73000
H  -6.34200 15.81700 37.67400
N  -13.73800 17.61700 41.31200
C  -13.00000 18.64800 40.72600
C  -13.90200 19.66700 40.33800
C  -15.22100 19.17100 40.51000
C  -15.05900 17.91700 41.24800
C  -13.47800 20.94000 39.57500
C  -16.54300 19.83000 40.14100
O  -16.60200 20.99600 39.75800
C  -17.90700 19.15300 40.31500
N  -14.89300 14.96400 42.30400
C  -16.01400 15.75400 42.25400
C  -17.25900 14.85100 42.60800
C  -16.69800 13.38900 42.82800
C  -15.17800 13.67100 42.72700
C  -18.10500 15.35500 43.84000
C  -17.31700 12.25500 41.93100
C  -17.63700 10.89700 42.51600
N  -12.33300 13.84200 42.29100
C  -12.94700 12.68700 42.84100
C  -11.97700 11.62100 43.12400
C  -10.73900 12.21800 42.72200
C  -11.01200 13.55200 42.20200
C  -12.19400 10.21700 43.64900
C  -9.35600 12.06600 42.73300
O  -8.73600 11.07100 43.16800
C  -8.74600 13.21200 41.89200
C  -7.60800 13.76000 42.67800
O  -7.60600 14.17500 43.79700
O  -6.51300 13.82300 41.87300
C  -5.27300 14.36900 42.52100
H  -11.27600 19.53800 39.91500
H  -17.12000 17.31300 41.76600
H  -14.70600 11.81600 43.49400
H  -7.68900 16.12800 41.02900
H  -9.12800 17.77300 39.01800
H  -7.39200 18.62200 40.98600
H  -8.79800 18.92200 41.77900
H  -8.63100 19.73700 40.26800
H  -8.76800 15.87500 38.29200
H  -9.10300 14.42600 39.00400
H  -7.01600 13.91400 38.29100
H  -6.32100 14.81700 39.56600
H  -14.27700 21.27900 38.91600
H  -12.65100 20.84200 38.87200
H  -13.18800 21.77500 40.21200
H  -17.82100 18.24800 39.71400
H  -18.61500 19.88100 39.91800
H  -18.11100 19.11900 41.38500
H  -17.90300 14.93700 41.73300
H  -16.96800 13.06200 43.83200
H  -18.64900 14.59900 44.40600
H  -18.91400 16.04600 43.60500
H  -17.31100 15.73900 44.48200
H  -16.89700 12.15000 40.93100
H  -18.25100 12.74100 41.64900
H  -17.28600 10.15100 41.80200
H  -18.68900 10.68500 42.70900
H  -17.07500 10.80400 43.44500
H  -12.56600 10.15300 44.67200
H  -11.28800 9.62400 43.52500
H  -13.00200 9.80600 43.04400
H  -8.40400 12.77700 40.95300
H  -4.64800 13.56400 42.90600
H  -5.47500 15.18600 43.21300
H  -4.69400 14.85400 41.73500

