158

Mg 35.69400 0.99400 28.96300
C  33.63800 2.61200 31.39300
C  38.20200 1.08100 31.36300
C  37.85300 0.23400 26.55400
C  33.35800 2.09900 26.57200
N  35.83200 1.63200 31.09700
C  34.81300 2.10200 31.87300
C  35.21800 2.13900 33.41800
C  36.82700 1.99600 33.39200
C  36.99100 1.51000 31.85500
C  37.66500 3.24400 33.84500
C  34.51300 0.99500 34.16800
C  34.43600 1.20900 35.65900
H  35.06500 2.41600 36.34700
N  37.69200 0.54700 28.92700
C  38.55000 0.65900 30.02600
C  39.91300 0.32400 29.58900
C  39.85200 -0.03400 28.14500
C  38.42100 0.17800 27.83300
C  41.10500 0.27500 30.55500
C  40.91200 -0.44300 27.19000
O  40.65000 -0.66400 25.98200
C  42.30600 -0.80100 27.59800
N  35.59600 1.09500 26.85800
C  36.62000 0.66900 26.11700
C  36.22500 0.61000 24.63100
C  34.65800 0.90100 24.74900
C  34.51800 1.47900 26.13300
C  37.05600 1.47600 23.70100
C  33.77100 -0.37000 24.60300
C  32.95700 -0.38100 23.35100
N  33.84800 2.13200 28.96400
C  33.01400 2.38200 27.93300
C  31.83300 3.02200 28.42700
C  32.03200 3.07900 29.78700
C  33.29100 2.60500 30.05300
C  30.66700 3.42400 27.63500
C  31.44700 3.44300 31.07300
O  30.34300 3.89700 31.33700
C  32.44300 3.20100 32.16600
C  32.59000 4.49400 32.95000
O  33.17500 5.54700 32.60700
O  31.91900 4.32700 34.23100
C  31.52200 5.63100 34.85900
H  39.00600 1.23500 32.08600
H  38.49800 -0.06000 25.72400
H  32.61500 2.13800 25.77200
H  35.05400 3.14400 33.80700
H  36.94700 1.13600 34.05100
H  36.97300 3.97900 34.25600
H  38.17500 3.66900 32.98000
H  38.37700 3.10800 34.65800
H  34.92600 -0.00700 34.05500
H  33.48900 0.98600 33.79400
H  34.81100 0.29800 36.12500
H  33.39500 1.35900 35.94500
H  41.49800 -0.70700 30.81700
H  40.93200 0.80200 31.49300
H  41.94200 0.60400 29.94000
H  42.76900 -1.33400 26.76700
H  42.36300 -1.42700 28.48800
H  42.81800 0.16100 27.60100
H  36.28500 -0.41600 24.26700
H  34.35100 1.72000 24.09900
H  37.85300 1.99700 24.23200
H  36.43700 2.16200 23.12200
H  37.43200 0.81000 22.92400
H  33.00900 -0.30200 25.37900
H  34.40000 -1.25800 24.66900
H  33.18600 0.40900 22.63600
H  31.89800 -0.37000 23.60900
H  33.08700 -1.33600 22.84400
H  30.82700 4.38500 27.14500
H  29.72400 3.43900 28.18200
H  30.49100 2.75100 26.79500
H  32.04700 2.45300 32.85300
H  31.02500 6.30200 34.15800
H  32.46900 6.04500 35.20600
H  30.89200 5.44600 35.72900
Mg 41.83000 40.72500 26.40200
C  41.02500 43.13800 28.80700
C  42.77400 38.56200 28.73800
C  42.63700 38.76800 23.92800
C  41.26200 43.35300 24.02100
N  42.00100 40.90200 28.52600
C  41.56900 41.94700 29.33600
C  41.56800 41.50100 30.79500
C  42.23200 40.05800 30.74400
C  42.27300 39.81300 29.24700
C  43.59100 39.83200 31.38700
C  40.14600 41.68900 31.46100
C  39.74000 40.80100 32.67500
H  39.03000 41.40500 33.83900
N  42.46100 38.87900 26.38500
C  42.84300 38.08100 27.43800
C  43.18100 36.77500 26.93900
C  43.08600 36.79900 25.46200
C  42.75300 38.17000 25.18000
C  43.52500 35.62000 27.88400
C  43.32900 35.71000 24.48700
O  43.05900 35.73600 23.31400
C  43.67900 34.35100 24.98400
N  42.10900 41.08000 24.20900
C  42.30200 40.00300 23.44400
C  42.16800 40.35700 21.92000
C  41.41900 41.77100 21.96400
C  41.53000 42.11000 23.53900
C  43.58500 40.44700 21.27400
C  40.01200 41.73100 21.32500
C  39.09500 40.73000 22.07000
N  41.25100 42.77000 26.33600
C  41.07900 43.63700 25.34700
C  40.66000 44.98700 25.84200
C  40.64800 44.80300 27.24000
C  40.93800 43.43900 27.47900
C  40.50700 46.21000 25.00400
C  40.27900 45.43700 28.54500
O  39.74000 46.50800 28.84300
C  40.52400 44.33700 29.65200
C  41.38000 44.77600 30.77000
O  42.58500 44.81100 30.67000
O  40.53000 45.10000 31.85200
C  41.37200 45.60700 32.89100
H  42.95300 37.92500 29.60700
H  42.75200 37.98500 23.17500
H  40.93800 44.13200 23.32800
H  42.22200 42.27300 31.20100
H  41.55000 39.34300 31.20600
H  43.85100 40.84800 31.68400
H  44.28400 39.32900 30.71200
H  43.44300 39.10900 32.19000
H  39.32600 41.58300 30.75000
H  40.15000 42.68000 31.91500
H  40.65400 40.32700 33.03200
H  39.16300 39.95000 32.31200
H  44.54500 35.23900 27.85100
H  42.91000 34.77500 27.57400
H  43.25000 35.80400 28.92300
H  44.46300 34.44400 25.73600
H  44.12000 33.82000 24.14100
H  42.92100 33.83700 25.57600
H  41.50600 39.61900 21.46700
H  42.11400 42.47500 21.50700
H  44.21400 39.70800 21.77100
H  44.03100 41.43600 21.37600
H  43.42400 40.16600 20.23300
H  40.06400 41.33700 20.31000
H  39.51500 42.69900 21.26300
H  39.57200 40.19100 22.88900
H  38.57700 40.04600 21.39900
H  38.28200 41.30600 22.51200
H  41.16600 46.24300 24.13600
H  40.80600 47.01000 25.68100
H  39.51500 46.42300 24.60400
H  39.56100 44.12100 30.11500
H  42.17300 46.24700 32.52100
H  41.84000 44.78800 33.43800
H  40.80000 46.28500 33.52400

