158

Mg 35.88400 48.93900 24.54500
C  36.32700 47.08200 27.56400
C  34.47500 51.46700 26.38300
C  35.31100 50.58000 21.64200
C  37.09000 46.08600 22.68100
N  35.31700 49.18500 26.69400
C  35.72200 48.38900 27.74800
C  35.35300 49.06000 29.12800
C  34.62500 50.38500 28.63000
C  34.85700 50.40600 27.14900
C  33.12100 50.50100 29.07800
C  36.61700 49.37400 30.06000
C  36.20700 49.05900 31.52200
H  35.01500 49.85800 32.20000
N  35.10500 50.71400 24.07300
C  34.49200 51.57900 24.98900
C  34.15700 52.82000 24.30400
C  34.40900 52.64500 22.92200
C  34.95200 51.31600 22.83600
C  33.74500 54.10900 25.00000
C  34.22700 53.66500 21.72200
O  34.50500 53.35300 20.53100
C  33.96200 55.13300 22.00800
N  36.13300 48.41300 22.47500
C  35.85100 49.30200 21.46600
C  35.83900 48.56700 20.11300
C  36.78600 47.31900 20.47600
C  36.64000 47.21000 21.99800
C  34.37700 48.26300 19.61100
C  38.24800 47.51000 20.26900
C  38.92500 46.59200 19.24300
N  36.41200 46.94700 24.94600
C  37.03900 45.94400 24.13000
C  37.48900 44.79300 24.94500
C  37.21200 45.25300 26.25200
C  36.63400 46.58200 26.23400
C  38.18600 43.48100 24.56600
C  37.32100 44.78000 27.58800
O  37.83200 43.72200 28.05700
C  36.78200 45.98800 28.47400
C  35.65100 45.52400 29.31200
O  34.62700 45.13600 28.86800
O  35.99100 45.46800 30.61700
C  35.03000 44.84300 31.56100
H  34.08900 52.27100 27.01300
H  35.14900 51.13300 20.71400
H  37.51700 45.19900 22.20800
H  34.67200 48.38500 29.64800
H  35.18400 51.26100 28.95900
H  32.99200 50.18700 30.11300
H  32.57800 49.94000 28.31800
H  32.87600 51.56300 29.05500
H  36.98100 50.38900 29.90000
H  37.44500 48.72000 29.78500
H  37.17100 49.09100 32.03100
H  35.78800 48.05400 31.48100
H  33.36000 53.82300 25.97900
H  32.97900 54.74900 24.56400
H  34.64800 54.69300 25.17900
H  32.92300 55.29000 22.29800
H  34.22100 55.71900 21.12600
H  34.57500 55.31700 22.89100
H  36.30200 49.21600 19.37000
H  36.28400 46.40600 20.15500
H  33.63700 48.54300 20.36000
H  34.32700 47.23000 19.26600
H  34.26400 48.79900 18.66900
H  38.84000 47.37200 21.17400
H  38.36100 48.52300 19.88200
H  38.18500 46.03300 18.66900
H  39.58100 45.85800 19.71000
H  39.41700 47.27300 18.54800
H  39.20100 43.60900 24.18800
H  37.59400 43.04100 23.76400
H  38.16900 42.83000 25.43900
H  37.56100 46.40300 29.11300
H  35.72400 44.32900 32.22500
H  34.46100 44.09600 31.00600
H  34.36500 45.59300 31.98800
Mg -1.64400 34.27800 26.78900
C  -3.29600 32.93800 29.58700
C  -0.04100 36.39900 29.00400
C  -0.41300 35.86300 24.15800
C  -3.63200 32.36500 24.70600
N  -1.74100 34.63400 29.02900
C  -2.38900 33.92800 29.96000
C  -1.97600 34.24000 31.41200
C  -1.08900 35.52700 31.18600
C  -0.94800 35.53500 29.62800
C  -1.48900 36.88000 31.91400
C  -1.26100 32.96000 32.01200
C  -2.08300 32.24300 33.14800
H  -1.42700 31.97800 34.54200
N  -0.32100 35.78500 26.57700
C  0.21000 36.55100 27.56200
C  1.19900 37.41600 26.97600
C  1.13300 37.28500 25.59200
C  0.05200 36.34400 25.41500
C  2.14000 38.28700 27.81000
C  1.88800 38.10200 24.55800
O  1.62400 38.02600 23.34100
C  2.98600 39.04500 24.92600
N  -1.99200 34.14300 24.68500
C  -1.32600 34.85600 23.80700
C  -1.63500 34.41700 22.35400
C  -2.70900 33.26900 22.55300
C  -2.76600 33.16200 24.06000
C  -2.13400 35.50500 21.43400
C  -2.29400 31.97900 21.74200
C  -1.21000 31.12900 22.42100
N  -3.12800 32.95700 27.02700
C  -3.85600 32.17200 26.08300
C  -4.73500 31.33000 26.72400
C  -4.50900 31.53600 28.08900
C  -3.61100 32.60000 28.24200
C  -5.75700 30.49200 25.93400
C  -4.94700 31.10000 29.39200
O  -5.82700 30.30300 29.76100
C  -4.20200 31.99600 30.37200
C  -5.23800 32.76700 31.11600
O  -5.72300 33.81900 30.78500
O  -5.50600 32.12000 32.29900
C  -6.62200 32.62800 33.05900
H  0.67700 36.98600 29.57900
H  0.03000 36.43700 23.34200
H  -4.09500 31.58500 24.09900
H  -2.86400 34.44900 32.00900
H  -0.13600 35.30000 31.66400
H  -2.26300 36.67000 32.65200
H  -1.81100 37.66900 31.23400
H  -0.63800 37.34400 32.41300
H  -0.29900 33.17900 32.47500
H  -1.02400 32.16600 31.30400
H  -2.38600 31.25500 32.80100
H  -3.07500 32.65900 33.32700
H  3.16300 38.13100 27.46600
H  2.25800 38.07400 28.87300
H  1.82300 39.32200 27.68200
H  2.57900 39.80400 25.59400
H  3.34100 39.49600 24.00000
H  3.81700 38.42800 25.26800
H  -0.70500 34.14200 21.85700
H  -3.71900 33.57800 22.28400
H  -1.33000 35.70000 20.72400
H  -2.24200 36.47300 21.92400
H  -3.05900 35.19500 20.95000
H  -1.99300 32.18700 20.71500
H  -3.19000 31.37600 21.59300
H  -0.76200 31.63200 23.27900
H  -0.41300 30.77500 21.76800
H  -1.69800 30.26600 22.87300
H  -6.70100 30.51600 26.47700
H  -5.47000 29.44600 25.83300
H  -5.99400 30.95600 24.97700
H  -3.69300 31.39400 31.12400
H  -7.44700 32.78800 32.36500
H  -6.25500 33.62500 33.30400
H  -6.90900 31.97300 33.88100

