158

Mg 26.47800 49.79800 25.95800
C  24.20900 50.93200 28.47100
C  28.60700 48.78100 28.45100
C  28.64900 48.78800 23.65600
C  24.28600 50.96000 23.62800
N  26.46600 50.01800 28.13100
C  25.41700 50.38000 29.02600
C  25.85300 50.26400 30.50900
C  27.23100 49.49600 30.43100
C  27.46500 49.51300 28.93100
C  28.31800 50.12500 31.30100
C  24.72600 49.75400 31.42800
C  25.07800 48.84300 32.63600
H  25.76200 49.62800 33.84100
N  28.40800 48.93900 26.00400
C  29.03400 48.48400 27.12800
C  30.18400 47.71100 26.67700
C  30.25300 47.79300 25.30500
C  29.11400 48.58300 24.93600
C  31.14000 46.98100 27.67300
C  31.24900 47.23200 24.35900
O  31.27400 47.33100 23.16600
C  32.39800 46.45200 24.98900
N  26.50300 50.03400 23.97000
C  27.44400 49.37900 23.20500
C  27.02500 49.26700 21.69200
C  25.49300 49.61500 21.85200
C  25.43300 50.24900 23.20500
C  27.73000 50.34900 20.82100
C  24.56400 48.27000 21.72200
C  23.93200 48.12400 20.28400
N  24.69200 50.88900 26.02900
C  23.93000 51.29000 24.93900
C  22.70800 51.81200 25.41400
C  22.72500 51.73000 26.77800
C  23.96400 51.16000 27.11400
C  21.59400 52.32400 24.59300
C  22.07800 51.91800 28.01800
O  21.04500 52.43500 28.21600
C  23.03600 51.43300 29.17500
C  23.31300 52.56600 30.12400
O  24.28400 53.35100 30.08300
O  22.41500 52.57700 31.14000
C  22.77000 53.42900 32.34000
H  29.30100 48.31500 29.15300
H  29.31900 48.57500 22.82000
H  23.40200 51.23500 23.04900
H  26.13200 51.28600 30.76700
H  27.10500 48.44300 30.68300
H  29.22100 50.23100 30.69900
H  28.63700 49.36000 32.00900
H  28.26800 51.15500 31.65400
H  24.04000 49.20000 30.78800
H  24.17400 50.62300 31.78400
H  25.70300 48.01000 32.31400
H  24.14000 48.36400 32.91600
H  32.19000 47.23900 27.53500
H  30.95000 45.93500 27.43300
H  30.87300 47.07400 28.72600
H  33.12000 46.13800 24.23500
H  31.86400 45.63800 25.48000
H  33.05900 47.03700 25.62900
H  27.27400 48.25400 21.37700
H  25.11000 50.34400 21.13800
H  27.15400 51.11500 20.30100
H  28.18600 49.86600 19.95700
H  28.47900 50.86000 21.42600
H  23.81000 48.28100 22.50900
H  25.24500 47.43000 21.86000
H  24.11100 47.09000 19.99100
H  24.44400 48.69000 19.50600
H  22.87100 48.36100 20.20900
H  21.04200 51.45100 24.24500
H  22.08800 52.78000 23.73500
H  20.95300 53.03400 25.11500
H  22.65900 50.60700 29.77700
H  22.89000 54.49100 32.12700
H  23.77000 53.11000 32.63200
H  22.18800 53.20100 33.23300
Mg -10.25100 39.87000 39.45200
C  -9.26000 36.48800 38.54600
C  -7.13000 40.89300 38.23600
C  -11.49300 43.02400 39.17400
C  -13.42400 38.66900 39.92000
N  -8.41500 38.76600 38.46700
C  -8.26200 37.43600 38.22800
C  -6.90500 37.21200 37.55000
C  -6.10800 38.54200 37.79000
C  -7.24300 39.44000 38.28500
C  -4.79600 38.49600 38.65600
C  -7.02600 36.68900 36.11300
C  -7.42200 37.74200 35.01100
H  -8.53000 37.61400 34.02900
N  -9.38800 41.73900 38.88700
C  -8.08700 41.85500 38.48900
C  -7.93600 43.32100 38.29500
C  -9.08700 44.01200 38.79600
C  -10.09300 42.94800 38.97000
C  -6.69100 43.93400 37.74200
C  -9.32500 45.52900 38.91800
O  -8.42500 46.33700 38.67000
C  -10.69800 46.18100 39.30400
N  -12.16000 40.67500 39.37000
C  -12.47200 42.03800 39.41700
C  -13.95100 42.38300 39.73500
C  -14.41300 40.92900 40.09700
C  -13.32200 40.01200 39.71200
C  -14.22900 43.49000 40.79400
C  -15.80600 40.56400 39.39700
C  -15.83700 39.96900 37.98000
N  -11.14500 37.92400 39.51100
C  -12.43900 37.66300 39.76400
C  -12.63100 36.27400 39.83700
C  -11.40100 35.72500 39.34400
C  -10.51700 36.82700 39.13500
C  -13.85400 35.59400 40.34300
C  -10.74800 34.52400 38.97300
O  -11.01100 33.34300 38.98900
C  -9.33700 35.00900 38.45200
C  -8.28900 34.28100 39.17700
O  -8.09100 34.34100 40.35700
O  -7.50700 33.59900 38.26300
C  -6.29800 33.01300 38.70800
H  -6.12300 41.19600 37.94100
H  -11.90100 44.03400 39.24800
H  -14.40100 38.25700 40.18200
H  -6.39900 36.50400 38.20600
H  -5.80200 39.02900 36.86400
H  -4.67300 37.47700 39.02100
H  -4.82700 39.11400 39.55400
H  -3.91100 38.73300 38.06600
H  -7.63900 35.78800 36.08200
H  -6.03900 36.33600 35.81200
H  -6.54700 37.67000 34.36500
H  -7.47500 38.72800 35.47200
H  -5.91100 43.95600 38.50400
H  -6.88000 44.96400 37.44200
H  -6.35000 43.27300 36.94500
H  -11.08900 45.60300 40.14100
H  -11.33900 45.92900 38.45900
H  -10.60200 47.26200 39.40800
H  -14.49400 42.66900 38.83500
H  -14.63500 41.00100 41.16200
H  -13.18300 43.64600 41.05900
H  -14.89000 43.26000 41.63000
H  -14.69400 44.29600 40.22600
H  -16.32900 41.51900 39.35400
H  -16.29700 39.93300 40.13800
H  -15.92700 38.88200 37.96900
H  -14.86500 40.11600 37.51000
H  -16.59700 40.45900 37.37200
H  -13.72000 34.56300 40.67000
H  -14.58700 35.64500 39.53800
H  -14.21400 36.21900 41.16000
H  -9.25100 34.70900 37.40800
H  -6.48100 32.00400 39.07600
H  -5.72600 33.60000 39.42700
H  -5.68900 33.12700 37.81200

