158

Mg 9.33500 3.15400 27.63500
C  10.90600 1.40600 30.34300
C  7.38600 4.81600 30.09700
C  7.52300 4.40100 25.23100
C  10.79000 0.71100 25.42500
N  9.19500 3.15500 29.95400
C  10.05700 2.42900 30.83700
C  9.78800 2.80100 32.35800
C  8.68300 3.94900 32.17400
C  8.34700 3.95400 30.65100
C  7.38200 3.75300 33.07600
C  11.10100 3.24200 33.19400
C  10.97400 4.37900 34.23600
H  11.60100 4.14600 35.65400
N  7.78500 4.58100 27.65300
C  7.10500 5.11800 28.71700
C  6.17000 6.07100 28.25400
C  6.13600 6.00600 26.80600
C  7.20800 4.98400 26.52800
C  5.43800 6.99800 29.25400
C  5.29300 6.77100 25.65400
O  5.41100 6.48000 24.50300
C  4.25000 7.77800 26.08900
N  9.24800 2.76400 25.67500
C  8.47600 3.47700 24.87800
C  8.74800 3.08600 23.45200
C  9.61500 1.82300 23.47400
C  9.92300 1.73400 24.98500
C  7.50600 2.88800 22.53200
C  10.94400 1.78800 22.61000
C  10.94600 0.62100 21.56800
N  10.62600 1.44800 27.75500
C  11.11400 0.55700 26.79700
C  11.92400 -0.41900 27.52400
C  11.91600 -0.07000 28.85100
C  11.10200 1.01600 28.99500
C  12.67700 -1.57100 26.90400
C  12.39800 -0.48200 30.15000
O  13.18000 -1.40000 30.50500
C  11.78400 0.48000 31.10500
C  10.99600 -0.27900 32.20400
O  9.81800 -0.64300 32.22200
O  11.80900 -0.21600 33.29200
C  11.10500 -0.48600 34.54700
H  6.94200 5.44500 30.87100
H  6.97900 4.76200 24.35600
H  11.16900 0.00500 24.68400
H  9.39700 1.88200 32.79500
H  9.14000 4.87900 32.51300
H  7.35800 4.60500 33.75500
H  7.45200 2.89400 33.74300
H  6.39600 3.58500 32.64200
H  11.91100 3.54300 32.53000
H  11.49300 2.33700 33.65800
H  9.93000 4.57000 34.48300
H  11.52700 5.16600 33.72300
H  6.11900 7.83400 29.41100
H  5.24000 6.51900 30.21300
H  4.51700 7.36300 28.79900
H  3.46300 7.40300 26.74200
H  3.71800 8.38300 25.35400
H  4.81600 8.50200 26.67500
H  9.40400 3.84900 23.03200
H  9.03300 0.94300 23.19900
H  6.75600 2.52400 23.23400
H  7.54800 2.15400 21.72700
H  7.21600 3.78400 21.98300
H  11.87900 1.60900 23.14000
H  11.19000 2.69200 22.05400
H  11.32900 1.06500 20.64900
H  9.92500 0.25700 21.45700
H  11.62900 -0.07600 22.05400
H  12.47600 -1.73600 25.84500
H  12.42400 -2.51200 27.39200
H  13.75700 -1.52900 27.04500
H  12.52600 1.03200 31.68200
H  11.69000 -1.20100 35.12600
H  10.05200 -0.76700 34.53700
H  11.34700 0.44600 35.05800
Mg 42.08800 41.08400 27.05100
C  41.19700 43.69200 29.40000
C  42.79600 39.06400 29.64400
C  42.92500 38.80200 24.85800
C  41.82600 43.46300 24.47200
N  41.89800 41.31500 29.21700
C  41.50100 42.38800 29.94000
C  41.54700 42.11700 31.48200
C  42.23200 40.68800 31.49500
C  42.32500 40.33400 30.03800
C  43.65300 40.61500 32.24500
C  40.21100 42.25100 32.20700
C  39.86600 41.36500 33.43200
H  39.41900 42.18900 34.70800
N  42.67900 39.22500 27.22100
C  42.96800 38.55800 28.37000
C  43.49100 37.23200 27.98200
C  43.58200 37.13400 26.59300
C  43.03200 38.42300 26.15800
C  43.79800 36.18300 28.97000
C  44.00300 36.00900 25.75400
O  43.97700 36.03100 24.52900
C  44.60400 34.80300 26.34900
N  42.32700 41.17500 24.98000
C  42.53500 40.02900 24.33100
C  42.67800 40.33500 22.80400
C  42.15300 41.76100 22.66800
C  42.07000 42.14400 24.12600
C  44.06800 39.97200 22.25800
C  40.82300 41.81900 21.89700
C  39.73300 40.71500 22.17400
N  41.72100 43.20400 26.88500
C  41.58100 43.98900 25.75700
C  41.12200 45.27700 26.18800
C  40.99400 45.26000 27.62000
C  41.28700 43.92800 28.02400
C  40.79200 46.45200 25.30300
C  40.53700 45.93900 28.86600
O  39.96600 46.99700 29.04100
C  40.78500 44.90800 30.13400
C  41.95700 45.38400 30.90800
O  43.12100 45.25400 30.61900
O  41.50800 45.87700 32.09400
C  42.46100 46.03400 33.14400
H  43.12600 38.38500 30.43400
H  42.96700 37.97200 24.14900
H  41.61800 44.11200 23.61900
H  42.21300 42.83200 31.96500
H  41.56700 39.92700 31.90200
H  43.54900 40.10200 33.20100
H  43.83700 41.66700 32.46600
H  44.42300 40.23700 31.57400
H  39.51000 41.81800 31.49400
H  39.93500 43.25800 32.51800
H  40.67100 40.67900 33.69500
H  39.14200 40.63200 33.07700
H  43.21600 36.31900 29.88200
H  44.87500 36.09700 29.10900
H  43.45100 35.19000 28.68400
H  45.27600 34.35200 25.61800
H  43.81000 34.13100 26.67200
H  45.30700 35.13500 27.11300
H  41.94300 39.58800 22.50500
H  42.83900 42.35700 22.06600
H  44.21000 38.96200 21.87300
H  44.83700 40.16400 23.00500
H  44.43900 40.71900 21.55600
H  41.09100 41.78000 20.84100
H  40.35100 42.79300 22.03300
H  39.53900 40.10600 21.29100
H  38.76100 41.12100 22.45400
H  40.03000 40.09100 23.01700
H  40.60900 46.05900 24.30300
H  41.57500 47.21000 25.30700
H  39.80900 46.83800 25.57300
H  39.96600 44.69700 30.82100
H  42.93300 47.01700 33.11500
H  43.14500 45.18800 33.20100
H  41.88000 45.74200 34.01900

