158

Mg -1.72400 17.30500 26.77000
C  -2.62600 14.99600 29.31600
C  -2.17300 19.75500 29.03200
C  -1.55700 19.49500 24.15700
C  -1.84300 14.68300 24.53600
N  -2.25400 17.29200 28.96200
C  -2.54900 16.27700 29.78900
C  -2.67100 16.83500 31.27500
C  -2.88200 18.34000 30.99100
C  -2.32400 18.49900 29.58100
C  -4.25500 19.09000 31.22300
C  -1.48500 16.46500 32.13600
C  -1.17700 17.27000 33.46800
H  -0.66200 16.58200 34.76300
N  -1.65400 19.34200 26.62100
C  -1.82400 20.16900 27.70400
C  -1.63700 21.52800 27.25400
C  -1.36000 21.51600 25.86300
C  -1.56100 20.02800 25.47800
C  -1.65600 22.70800 28.14600
C  -0.95500 22.54800 24.80500
O  -0.90700 22.32700 23.56000
C  -0.57200 23.96800 25.19600
N  -2.06500 17.12100 24.64700
C  -1.80700 18.15800 23.80400
C  -1.75400 17.79500 22.36900
C  -1.55600 16.17900 22.49000
C  -1.80000 15.96100 23.99600
C  -3.03300 18.19800 21.53200
C  -0.13600 15.71300 22.01700
C  1.03100 16.57000 22.55400
N  -2.22500 15.20600 26.79300
C  -2.19700 14.28700 25.86200
C  -2.64900 13.02700 26.39500
C  -2.76500 13.20900 27.77100
C  -2.56400 14.59600 27.97800
C  -2.75800 11.71100 25.59000
C  -2.93300 12.56100 29.04000
O  -3.06600 11.36000 29.23500
C  -2.88800 13.73000 30.07200
C  -1.81900 13.46300 31.14600
O  -0.59100 13.64900 30.95000
O  -2.37200 13.01900 32.36000
C  -1.42200 12.50000 33.38900
H  -2.39200 20.53900 29.76000
H  -1.50200 20.11500 23.26000
H  -1.73800 13.85000 23.83800
H  -3.53800 16.35000 31.72300
H  -2.33400 18.89200 31.75500
H  -4.86400 18.20400 31.40100
H  -4.41700 19.64900 30.30100
H  -4.35000 19.78400 32.05900
H  -0.59700 16.38100 31.50900
H  -1.67900 15.52100 32.64500
H  -1.97200 17.98300 33.68500
H  -0.27700 17.85700 33.28000
H  -0.75000 23.28300 28.33700
H  -2.23700 22.47200 29.03800
H  -2.26400 23.44100 27.61500
H  0.43800 23.99700 25.60500
H  -1.33800 24.35300 25.87000
H  -0.66800 24.54900 24.27800
H  -0.83900 18.21000 21.94600
H  -2.35100 15.60100 22.01900
H  -3.91000 18.54900 22.07600
H  -3.38100 17.30100 21.01900
H  -2.78900 19.00400 20.84000
H  -0.17600 15.85800 20.93700
H  0.08200 14.64500 22.05500
H  1.29900 17.22400 21.72400
H  1.85700 15.91300 22.82600
H  0.76100 17.21500 23.38900
H  -1.73800 11.34600 25.47000
H  -3.26600 11.77500 24.62700
H  -3.30200 11.02100 26.23500
H  -3.86300 13.70100 30.56000
H  -1.85200 11.61600 33.85900
H  -1.17100 13.20700 34.18100
H  -0.49100 12.09200 32.99400
Mg 48.03200 35.85900 27.89200
C  46.16300 33.90500 30.16900
C  48.29800 38.18400 30.29100
C  49.56900 37.66100 25.43100
C  47.46300 33.35200 25.42400
N  47.29700 36.02300 29.99100
C  46.65200 35.09600 30.76700
C  46.75600 35.45400 32.31500
C  47.13300 36.95500 32.19300
C  47.50300 37.12800 30.65400
C  46.15300 37.97700 32.71800
C  47.85800 34.53500 33.03000
C  48.00600 34.86200 34.45600
H  46.96700 35.56300 35.20500
N  48.75000 37.71200 27.85100
C  48.93000 38.51700 28.95700
C  49.71700 39.69700 28.58800
C  50.01200 39.55200 27.18600
C  49.45900 38.24200 26.75900
C  50.13500 40.68900 29.64200
C  50.67400 40.56700 26.21300
O  50.68800 40.44800 24.96500
C  51.31100 41.81100 26.83200
N  48.21200 35.63400 25.62600
C  48.92900 36.50800 24.89500
C  49.17300 36.06100 23.45600
C  48.64200 34.59500 23.47300
C  48.03700 34.54700 24.87800
C  48.44900 36.86700 22.32900
C  49.74700 33.45000 23.22700
C  49.31800 32.47700 22.06600
N  47.05600 33.95200 27.78300
C  46.88900 33.07300 26.70700
C  46.21800 31.91900 27.18800
C  45.81300 32.26100 28.48800
C  46.36100 33.48500 28.83400
C  45.77000 30.77100 26.33900
C  45.02600 31.79300 29.62200
O  44.43900 30.70900 29.77400
C  45.14100 32.89800 30.76900
C  45.32000 32.33200 32.12500
O  45.95600 31.35500 32.52200
O  44.52300 33.07600 32.93200
C  44.43100 32.73700 34.31600
H  48.28300 39.01500 30.99900
H  50.21300 38.15600 24.70200
H  47.48400 32.53600 24.70000
H  45.74800 35.40500 32.72800
H  48.03500 37.07100 32.79300
H  46.64100 38.71900 33.35000
H  45.35100 37.59400 33.34900
H  45.59900 38.49800 31.93800
H  48.78700 34.70300 32.48500
H  47.69300 33.46200 32.93400
H  48.90100 35.48000 34.52700
H  48.15000 33.89300 34.93400
H  51.20900 40.55200 29.76900
H  49.68800 40.44200 30.60500
H  49.80600 41.69300 29.37300
H  51.55700 41.88900 27.89100
H  50.78300 42.65700 26.39200
H  52.33200 41.88000 26.45800
H  50.23200 36.02500 23.19700
H  47.86800 34.52100 22.70900
H  49.16000 37.59100 21.93100
H  47.58300 37.42900 22.68100
H  48.16600 36.26300 21.46700
H  49.93200 32.87800 24.13600
H  50.62000 34.00900 22.89200
H  49.95900 32.46400 21.18500
H  48.30900 32.74800 21.75400
H  49.41000 31.43900 22.38800
H  46.71300 30.58700 25.82600
H  44.98300 30.93900 25.60300
H  45.46900 29.95600 26.99700
H  44.14400 33.33800 30.76100
H  43.75200 33.40800 34.84200
H  45.44900 32.70700 34.70400
H  43.96900 31.75500 34.42800

