158

Mg 8.23900 2.52100 28.43300
C  9.96700 1.32700 31.38800
C  6.16500 4.16500 30.54000
C  6.77000 3.63700 25.78000
C  9.91000 -0.00000 26.68600
N  8.05300 2.62900 30.66200
C  8.93100 2.19200 31.57700
C  8.63600 2.77700 32.92800
C  7.22200 3.37400 32.76300
C  7.07600 3.39300 31.19700
C  6.13200 2.55400 33.46000
C  9.72400 3.82300 33.33400
C  9.63900 4.49700 34.64500
H  10.53200 3.94100 35.77800
N  6.63900 3.79600 28.18200
C  5.90700 4.43800 29.18800
C  5.02300 5.42600 28.62100
C  5.21100 5.26500 27.22000
C  6.17900 4.22200 26.94800
C  4.11600 6.26200 29.38200
C  4.43500 6.08100 26.09800
O  4.62200 5.88300 24.90500
C  3.42200 7.08000 26.44100
N  8.28000 1.89300 26.48100
C  7.62400 2.56800 25.51300
C  7.87800 1.99400 24.12400
C  8.81000 0.72200 24.51400
C  9.11000 0.94400 25.94600
C  6.53500 1.69500 23.26100
C  9.99600 0.53100 23.41700
C  10.94900 1.70500 23.41300
N  9.63000 1.00200 28.88500
C  10.29200 0.10000 28.05200
C  11.34900 -0.65100 28.71500
C  11.25000 -0.16400 30.00000
C  10.14500 0.77100 30.09800
C  12.33800 -1.61400 28.00900
C  11.77600 -0.33800 31.37800
O  12.64000 -1.11400 31.80300
C  11.03600 0.67900 32.29600
C  10.32000 -0.04600 33.38600
O  9.31100 -0.67800 33.28200
O  11.02500 0.07100 34.53200
C  10.51300 -0.37700 35.80000
H  5.54100 4.71700 31.24600
H  6.35800 4.00600 24.83900
H  10.38000 -0.70400 25.99500
H  8.70100 1.91000 33.58500
H  7.19800 4.37700 33.19100
H  5.99400 1.54300 33.07800
H  5.17500 3.06700 33.36100
H  6.30100 2.42700 34.52900
H  9.64600 4.56600 32.54000
H  10.73900 3.42800 33.34800
H  8.63700 4.31000 35.03200
H  9.85600 5.56300 34.57500
H  4.32700 6.09800 30.43900
H  3.06800 5.96800 29.33300
H  4.22900 7.33700 29.23800
H  2.95600 7.36600 25.49800
H  4.03900 7.84200 26.91500
H  2.68800 6.68900 27.14600
H  8.44400 2.73000 23.55200
H  8.28000 -0.23100 24.52200
H  5.64800 1.84700 23.87500
H  6.43400 0.64600 22.98400
H  6.51200 2.27100 22.33500
H  9.51900 0.63500 22.44200
H  10.52900 -0.42000 23.40300
H  11.96300 1.33300 23.55900
H  10.60300 2.47100 24.10600
H  10.91500 2.36400 22.54500
H  13.22200 -1.72900 28.63700
H  12.62900 -1.40500 26.98000
H  11.88700 -2.60700 28.02500
H  11.81500 1.31600 32.71400
H  9.84000 0.35600 36.24400
H  11.39700 -0.48500 36.42800
H  9.91600 -1.27800 35.65900
Mg -5.25000 25.55400 25.43900
C  -3.89100 26.64300 28.43400
C  -7.25900 23.40600 27.24900
C  -6.07800 24.03000 22.57800
C  -2.51300 27.09300 23.79700
N  -5.43000 25.04400 27.62900
C  -4.91700 25.72900 28.67900
C  -5.49500 25.20000 30.01500
C  -6.39500 24.02200 29.64100
C  -6.42400 24.19600 28.07400
C  -5.89800 22.59700 29.97300
C  -6.12000 26.30900 31.00600
C  -5.92400 26.06300 32.53300
H  -5.47200 24.76100 33.19100
N  -6.65800 24.07800 25.01200
C  -7.34500 23.36300 25.87700
C  -8.27700 22.58400 25.18600
C  -8.04400 22.86500 23.78100
C  -6.84300 23.68900 23.73600
C  -9.43100 21.64800 25.77200
C  -8.68300 22.24400 22.50800
O  -8.34000 22.45200 21.36600
C  -9.84200 21.36300 22.67200
N  -4.44200 25.59500 23.44400
C  -5.04100 24.89900 22.38900
C  -4.17600 25.10300 21.11400
C  -3.18000 26.21000 21.50200
C  -3.36200 26.30300 23.03500
C  -3.57100 23.80200 20.61500
C  -3.34000 27.62100 20.80200
C  -2.46600 28.00100 19.59600
N  -3.64900 26.92100 25.91800
C  -2.55800 27.47200 25.17600
C  -1.71100 28.22500 26.05000
C  -2.21100 27.90400 27.38000
C  -3.34400 27.14200 27.20800
C  -0.56400 29.10600 25.67400
C  -1.96000 28.06500 28.80600
O  -1.02900 28.60700 29.39000
C  -3.07100 27.27000 29.57100
C  -2.43000 26.25900 30.57600
O  -1.89200 25.16000 30.25300
O  -2.43400 26.82100 31.82300
C  -1.67100 26.09700 32.83700
H  -8.02500 22.84800 27.79100
H  -6.29200 23.58700 21.60300
H  -1.69400 27.65300 23.33900
H  -4.64700 24.85000 30.60300
H  -7.34700 24.26600 30.11300
H  -5.80200 21.85800 29.17800
H  -6.66400 22.22500 30.65400
H  -4.97800 22.59700 30.55700
H  -7.19600 26.30900 30.82900
H  -5.58800 27.24500 30.84100
H  -6.87300 26.32600 32.99900
H  -5.23500 26.79800 32.95100
H  -9.62300 21.65500 26.84500
H  -9.34300 20.62400 25.40900
H  -10.34100 22.05300 25.33000
H  -10.62400 21.88400 23.22500
H  -9.51700 20.41100 23.09200
H  -10.31400 21.13200 21.71600
H  -4.87400 25.49100 20.37200
H  -2.20300 25.88000 21.15000
H  -2.52300 23.71100 20.89900
H  -3.75300 23.73400 19.54300
H  -4.04300 22.90600 21.01800
H  -3.20000 28.48600 21.45100
H  -4.36300 27.65100 20.42600
H  -2.06200 29.01300 19.58900
H  -2.94700 27.76200 18.64700
H  -1.62000 27.31700 19.51500
H  -0.34900 28.85400 24.63500
H  0.23400 28.77800 26.34000
H  -0.75700 30.17700 25.74300
H  -3.69900 27.99400 30.08900
H  -0.79300 26.71700 33.02100
H  -1.24800 25.13900 32.53600
H  -2.29700 26.05200 33.72800

