158

Mg 48.04300 34.31800 27.22300
C  46.19100 32.93000 29.86900
C  48.40900 37.19400 29.14900
C  48.94800 36.07900 24.48300
C  47.13700 31.66500 25.15300
N  47.35200 35.01100 29.19800
C  46.75000 34.17700 30.17500
C  46.94500 34.74800 31.59200
C  47.33000 36.20300 31.25000
C  47.79400 36.13600 29.78100
C  46.21100 37.23200 31.41400
C  48.13000 33.89500 32.25300
C  48.05000 33.70900 33.74700
H  47.17000 34.75800 34.53300
N  48.68800 36.28900 26.95200
C  48.78400 37.34100 27.81600
C  49.31200 38.56300 27.17300
C  49.52100 38.21000 25.77700
C  49.03500 36.78100 25.72000
C  49.59400 39.89300 27.92400
C  50.00800 39.12600 24.59000
O  50.16000 38.71900 23.45800
C  50.51900 40.50500 24.82700
N  47.88900 33.98700 25.09800
C  48.43700 34.81600 24.19800
C  48.64300 34.25800 22.78500
C  47.99800 32.82900 22.96900
C  47.64300 32.80500 24.49300
C  48.13600 35.10500 21.56700
C  48.96700 31.72300 22.59100
C  50.26200 31.64200 23.40900
N  46.98500 32.57600 27.41600
C  46.75500 31.56600 26.51700
C  46.03500 30.52400 27.22500
C  45.63800 31.07400 28.50800
C  46.33800 32.33200 28.61900
C  45.85100 29.17500 26.70800
C  44.91400 30.82000 29.67100
O  44.23300 29.86900 29.99400
C  45.08000 32.13700 30.52000
C  45.29500 31.72300 31.90600
O  46.08800 30.86600 32.30600
O  44.46300 32.40400 32.73700
C  44.35700 31.95300 34.14400
H  48.62200 38.12400 29.68200
H  49.22500 36.66100 23.60200
H  46.70000 30.92300 24.48100
H  46.00600 34.66400 32.13900
H  48.25200 36.53200 31.72900
H  46.75800 38.16900 31.51600
H  45.50700 37.01700 32.21800
H  45.64600 37.36500 30.49200
H  49.01400 34.50000 32.05300
H  48.26200 32.94400 31.73700
H  49.06500 33.86700 34.11000
H  47.75900 32.67000 33.90300
H  50.34700 40.54300 27.47800
H  49.90400 39.60500 28.92900
H  48.59900 40.32000 28.05200
H  51.49400 40.41200 25.30500
H  49.74100 41.09500 25.31200
H  50.79700 40.88800 23.84500
H  49.72800 34.24800 22.67500
H  47.12700 32.59400 22.35900
H  47.38500 35.86800 21.77500
H  47.68900 34.45200 20.81700
H  49.00200 35.61500 21.14600
H  49.27000 31.99400 21.57900
H  48.47700 30.76900 22.39600
H  50.37500 32.45900 24.12200
H  51.11500 31.63800 22.73000
H  50.26700 30.70700 23.97000
H  45.45100 28.54800 27.50500
H  46.81800 28.80000 26.37100
H  45.09400 29.09900 25.92700
H  44.13600 32.66900 30.40000
H  44.06100 30.90400 34.14400
H  43.61500 32.59600 34.61800
H  45.34900 32.07000 34.58000
Mg 42.23300 40.79700 26.80900
C  41.30500 43.11400 29.34000
C  42.96500 38.60900 29.38800
C  43.54600 38.80600 24.50900
C  41.69600 43.28600 24.38200
N  42.09000 40.84300 29.17400
C  41.67900 41.89100 29.96000
C  41.77200 41.53900 31.40700
C  42.35200 40.07800 31.42100
C  42.41900 39.81700 29.89400
C  43.63100 39.81300 32.14100
C  40.50600 41.79600 32.34300
C  40.52700 41.05900 33.73400
H  40.46100 41.95200 35.04800
N  43.09900 38.95300 26.93800
C  43.27300 38.14500 28.05900
C  43.70300 36.82500 27.61000
C  43.92200 36.87800 26.22700
C  43.52700 38.23500 25.85200
C  43.88500 35.69800 28.69600
C  44.31300 35.82800 25.23900
O  44.50100 35.94800 24.01100
C  44.32200 34.44200 25.71300
N  42.52700 40.96400 24.76800
C  43.20200 40.07200 24.01400
C  43.22600 40.51300 22.53600
C  42.69100 41.95300 22.57400
C  42.17900 42.06400 23.98400
C  44.66000 40.39400 21.88500
C  41.63900 42.31500 21.55300
C  40.15800 42.00500 21.84800
N  41.52200 42.78000 26.80700
C  41.32200 43.66200 25.72000
C  40.85500 44.93500 26.17400
C  40.82200 44.77100 27.56500
C  41.26200 43.45500 27.92000
C  40.44700 46.07900 25.33900
C  40.41800 45.44500 28.83400
O  39.96200 46.57100 28.99800
C  40.81300 44.41200 30.02700
C  42.07100 44.96300 30.68700
O  43.11000 45.20000 30.12700
O  41.80000 45.39400 31.95600
C  42.80900 46.18800 32.64600
H  43.15300 37.90400 30.20000
H  44.06800 38.18400 23.77800
H  41.42300 44.03400 23.63400
H  42.53500 42.21100 31.79900
H  41.57600 39.38600 31.74900
H  43.74600 40.60300 32.88300
H  44.42600 39.81000 31.39500
H  43.41000 38.86500 32.63000
H  39.61400 41.55900 31.76400
H  40.50300 42.87500 32.50000
H  41.46600 40.51300 33.82400
H  39.72800 40.31700 33.72100
H  43.81400 34.64400 28.43000
H  43.23000 35.77600 29.56400
H  44.89500 35.95300 29.01500
H  45.21400 34.35400 26.33200
H  44.27600 33.67300 24.94100
H  43.37500 34.30500 26.23500
H  42.50500 39.85700 22.04900
H  43.46200 42.72300 22.57000
H  45.36900 39.98000 22.60100
H  45.02000 41.37500 21.57500
H  44.73600 39.66600 21.07800
H  41.95500 41.81200 20.63900
H  41.78800 43.34700 21.23700
H  40.19400 41.50700 22.81700
H  39.74900 41.27200 21.15400
H  39.53100 42.89700 21.87300
H  41.39400 46.54500 25.06600
H  39.83800 46.71200 25.98400
H  39.93900 45.66000 24.47100
H  40.02000 44.34300 30.77100
H  42.56100 46.19600 33.70800
H  42.62500 47.18300 32.24200
H  43.83500 45.84100 32.52300

