158

Mg 42.08800 40.91300 26.78800
C  40.87000 43.15900 29.26300
C  43.17200 38.84700 29.27100
C  43.14000 38.90200 24.42000
C  41.32200 43.38800 24.35900
N  42.05200 41.05200 29.02100
C  41.46100 42.02200 29.80400
C  41.68800 41.83400 31.34200
C  42.51700 40.43600 31.30500
C  42.57600 40.04900 29.80400
C  43.95700 40.52300 31.84900
C  40.26900 41.67500 32.01700
C  40.08500 42.50100 33.24200
H  39.69500 41.72700 34.52600
N  42.94800 39.00100 26.84600
C  43.29000 38.31100 28.01200
C  43.87300 36.97100 27.64000
C  43.81700 37.00100 26.23500
C  43.31500 38.35800 25.78000
C  44.35900 35.94700 28.63600
C  44.17100 35.96500 25.27500
O  44.31700 36.21600 24.10200
C  44.40000 34.55200 25.70400
N  42.25200 41.10900 24.74200
C  42.72100 40.15000 23.93100
C  42.66900 40.50800 22.42100
C  42.03800 41.90000 22.42200
C  41.83800 42.13600 23.91700
C  44.01100 40.30000 21.68000
C  40.64200 41.96800 21.70300
C  40.36700 43.18700 20.83100
N  41.33200 42.84600 26.77100
C  41.05100 43.73800 25.71300
C  40.43100 44.87100 26.24300
C  40.29900 44.67100 27.60800
C  40.90100 43.47800 27.90900
C  39.91500 45.94600 25.34400
C  39.75100 45.30400 28.82800
O  39.08800 46.33300 28.98000
C  40.19100 44.34000 30.01200
C  41.01200 45.22100 30.80800
O  42.19000 45.41200 30.63200
O  40.35500 45.75600 31.88400
C  41.23100 46.45500 32.93600
H  43.32300 38.09300 30.04600
H  43.56400 38.24300 23.65900
H  41.17900 44.11900 23.56000
H  42.32600 42.61000 31.76500
H  41.98500 39.72700 31.93900
H  44.35900 41.44200 32.27600
H  44.68900 40.24700 31.08900
H  43.96600 39.82000 32.68200
H  40.13600 40.60300 32.16200
H  39.47400 41.87300 31.29900
H  39.22200 43.16000 33.14900
H  40.99800 43.05900 33.45000
H  43.96000 34.97200 28.35700
H  44.18700 36.16700 29.69000
H  45.44500 35.95600 28.55100
H  45.36700 34.42300 26.19000
H  44.45700 33.86800 24.85700
H  43.62900 34.13400 26.35200
H  41.95300 39.76100 22.07800
H  42.76500 42.69900 22.27000
H  44.43700 41.23800 21.32400
H  43.60700 39.67400 20.88500
H  44.67200 39.85800 22.42500
H  39.79400 41.71400 22.34000
H  40.70600 41.13700 21.00100
H  41.16700 43.90800 20.99600
H  39.45900 43.64600 21.22200
H  40.27200 42.88600 19.78800
H  39.60200 45.62200 24.35100
H  40.68700 46.70400 25.20500
H  38.99700 46.31400 25.80100
H  39.34700 44.11600 30.66500
H  40.52100 47.18100 33.33300
H  42.08700 47.02800 32.58000
H  41.62800 45.68400 33.59600
Mg 5.43600 54.15900 40.10500
C  4.61700 50.65800 40.13700
C  8.56600 53.21100 39.05700
C  6.04400 57.31800 39.43300
C  2.05600 54.93400 40.54600
N  6.37300 52.12500 39.45400
C  5.88300 50.87900 39.57000
C  6.95900 49.82700 39.22000
C  8.24500 50.72700 39.38400
C  7.69900 52.15500 39.32500
C  9.20300 50.61300 40.66300
C  6.79300 49.13300 37.87800
C  6.27500 49.84500 36.64600
H  7.12900 50.95200 36.05900
N  7.08200 55.09100 39.23100
C  8.30900 54.60700 39.03200
C  9.23500 55.68200 38.82400
C  8.55500 56.93000 38.79500
C  7.15600 56.49700 39.14800
C  10.76300 55.34700 38.64100
C  9.17200 58.33000 38.59000
O  10.38500 58.49800 38.44700
C  8.26800 59.54200 38.29800
N  4.24300 55.80300 39.94500
C  4.80800 57.06000 39.84700
C  3.76100 58.17700 40.14900
C  2.43800 57.37300 40.28400
C  2.96100 55.94200 40.23100
C  4.01200 59.04200 41.39900
C  1.37600 57.64700 39.23200
C  -0.01700 58.03200 39.86400
N  3.69700 53.04100 40.42800
C  2.41600 53.52400 40.70800
C  1.63200 52.34900 41.04200
C  2.41500 51.18900 40.91500
C  3.65400 51.69900 40.44500
C  0.18100 52.34400 41.36700
C  2.48400 49.81500 41.05000
O  1.61500 49.00300 41.38500
C  3.98200 49.37200 40.64700
C  3.90300 48.33000 39.65500
O  3.86800 48.50400 38.46000
O  4.16500 47.05700 40.14800
C  4.13600 45.88100 39.20700
H  9.59000 52.95400 38.78000
H  6.18900 58.40000 39.39600
H  1.08900 55.16900 40.99700
H  6.96900 49.10200 40.03400
H  8.93500 50.50300 38.57100
H  8.92900 49.72700 41.23600
H  9.04900 51.45600 41.33700
H  10.25200 50.55200 40.37200
H  6.28500 48.20900 38.15400
H  7.77000 48.87100 37.47200
H  5.27300 50.21500 36.86700
H  6.15300 49.06700 35.89200
H  11.17300 56.06700 37.93300
H  10.83600 54.41000 38.08900
H  11.43000 55.20000 39.49000
H  8.76200 60.35500 37.76700
H  7.95600 60.03500 39.21900
H  7.35700 59.25300 37.77400
H  3.76300 58.88700 39.32200
H  2.03900 57.50700 41.29000
H  4.57700 58.37200 42.04800
H  3.06500 59.35900 41.83400
H  4.50700 59.98000 41.14900
H  1.37200 56.87000 38.46800
H  1.69300 58.50600 38.64000
H  0.00400 58.00000 40.95300
H  -0.86700 57.39200 39.62600
H  -0.20000 59.08500 39.65400
H  -0.44000 53.19900 41.09900
H  0.23400 52.32500 42.45600
H  -0.26700 51.42100 41.00000
H  4.47600 48.90000 41.49600
H  3.16800 45.39100 39.09800
H  4.60800 44.98600 39.61200
H  4.47900 46.13200 38.20300

