158

Mg 17.30800 -1.21600 28.29200
C  16.22700 0.90900 30.91300
C  19.15400 -2.94300 30.42400
C  18.66900 -2.71400 25.52400
C  15.73800 1.10100 26.04800
N  17.57200 -1.01400 30.46500
C  16.99500 -0.18300 31.33100
C  17.52100 -0.49700 32.71200
C  18.59800 -1.57600 32.48100
C  18.41600 -1.94300 31.00400
C  19.99100 -1.28200 32.99500
C  16.33800 -0.79400 33.67600
C  16.47900 -0.29000 35.13000
H  17.80700 0.20000 35.61800
N  18.62600 -2.68300 28.06100
C  19.33200 -3.27700 29.02300
C  20.14100 -4.38500 28.52800
C  19.88800 -4.47800 27.13100
C  19.00900 -3.21500 26.82500
C  21.02200 -5.28400 29.40500
C  20.24200 -5.52500 26.19900
O  19.87700 -5.55300 25.03700
C  21.13100 -6.73400 26.59000
N  17.25300 -0.78900 26.05600
C  17.88500 -1.61400 25.12300
C  17.38200 -1.42500 23.71100
C  16.37100 -0.19200 23.97800
C  16.37800 0.04500 25.45200
C  18.52900 -1.21800 22.67800
C  15.04600 -0.46500 23.38200
C  14.00000 -1.17100 24.21100
N  16.10700 0.57900 28.39900
C  15.58500 1.45400 27.43700
C  14.88400 2.56400 27.98400
C  15.08500 2.33500 29.42200
C  15.78900 1.19900 29.60300
C  14.16900 3.64000 27.18200
C  14.72300 2.89100 30.68500
O  14.06900 3.87400 31.01300
C  15.49000 1.97200 31.73200
C  16.36100 2.96100 32.51600
O  17.28500 3.58000 32.00900
O  15.86900 3.15800 33.82400
C  16.48300 4.07000 34.75600
H  19.76500 -3.46900 31.16100
H  19.08100 -3.32500 24.71800
H  15.19000 1.73300 25.34600
H  18.14300 0.33600 33.04100
H  18.31200 -2.45600 33.05800
H  20.21900 -1.89100 33.86900
H  20.12300 -0.23900 33.28300
H  20.71100 -1.52500 32.21400
H  16.41600 -1.87400 33.79900
H  15.39900 -0.47300 33.22400
H  16.17100 -1.17800 35.68100
H  15.78300 0.52300 35.33600
H  20.63700 -6.29200 29.25600
H  20.95100 -5.06600 30.47100
H  22.06400 -5.19300 29.09900
H  20.52800 -7.43100 27.17200
H  21.97200 -6.44600 27.22000
H  21.55800 -7.27000 25.74200
H  16.81900 -2.33200 23.49200
H  16.83300 0.68800 23.53100
H  19.44900 -1.68600 23.02800
H  18.57900 -0.14300 22.50700
H  18.22200 -1.77700 21.79400
H  15.19900 -1.25300 22.64400
H  14.68100 0.39000 22.81400
H  14.08800 -0.87100 25.25500
H  14.12900 -2.23900 24.38600
H  12.98800 -0.92900 23.88600
H  14.01500 3.31900 26.15200
H  14.76600 4.54900 27.11200
H  13.19700 3.94100 27.57200
H  14.75600 1.46100 32.35500
H  16.44400 5.10000 34.40300
H  17.52600 3.77300 34.86500
H  15.91500 4.05500 35.68600
Mg 47.45000 35.28400 26.93500
C  45.43300 33.83500 29.39100
C  48.34700 37.78500 29.07900
C  49.14700 36.62500 24.44400
C  46.49900 32.71700 24.73600
N  46.75000 35.76600 28.85800
C  46.11000 34.98100 29.76000
C  46.44900 35.38700 31.19000
C  46.91600 36.86000 30.99300
C  47.36500 36.81200 29.52800
C  45.80900 37.97200 31.27000
C  47.48900 34.36000 31.72400
C  47.54900 34.23000 33.24500
H  46.60200 35.06300 34.09600
N  48.57700 36.97600 26.83800
C  48.87600 37.89100 27.79500
C  49.73200 38.93000 27.24700
C  49.95200 38.60900 25.91000
C  49.19600 37.35100 25.59800
C  50.11300 40.12000 28.13400
C  50.83600 39.38000 24.97100
O  50.96600 39.06100 23.80700
C  51.64300 40.54400 25.56900
N  47.69100 34.74200 24.78500
C  48.45600 35.49000 24.00000
C  48.65700 34.86100 22.60200
C  47.97200 33.48500 22.73000
C  47.38200 33.60100 24.11800
C  48.10300 35.65800 21.36700
C  48.77000 32.12500 22.47200
C  50.05900 32.20100 21.65100
N  46.24200 33.61400 27.03900
C  45.92100 32.69900 26.04500
C  45.01000 31.76800 26.58600
C  44.70600 32.17900 27.88700
C  45.48900 33.32100 28.08900
C  44.55500 30.55700 25.72900
C  43.95000 31.83700 29.02700
O  43.18900 30.89000 29.28000
C  44.33100 32.96300 30.05200
C  44.58000 32.37700 31.44200
O  45.55900 31.68500 31.76000
O  43.52000 32.75100 32.29900
C  43.44700 32.25700 33.69200
H  48.61200 38.45800 29.89700
H  49.94100 36.92500 23.75700
H  46.24300 31.86900 24.09700
H  45.57600 35.36300 31.84200
H  47.73400 37.06000 31.68500
H  45.98900 38.55600 32.17300
H  44.81100 37.57000 31.44200
H  45.78800 38.72500 30.48200
H  48.48500 34.69800 31.44100
H  47.46200 33.40200 31.20400
H  48.57900 34.41400 33.55200
H  47.37400 33.17000 33.42800
H  49.58200 40.93000 27.63400
H  51.19600 40.23100 28.19900
H  49.77400 40.19100 29.16700
H  52.16600 40.02200 26.37100
H  50.94400 41.33400 25.84500
H  52.36100 40.90400 24.83200
H  49.70300 34.61300 22.42500
H  47.04700 33.45700 22.15300
H  47.75600 34.97700 20.59000
H  48.84100 36.29000 20.87300
H  47.22400 36.25400 21.61300
H  48.10700 31.38900 22.01600
H  49.00100 31.72300 23.45800
H  49.99100 33.04000 20.95700
H  50.14900 31.29300 21.05500
H  50.96300 32.12900 22.25600
H  43.84300 29.98700 26.32600
H  45.38800 29.87900 25.54000
H  44.10500 30.98500 24.83400
H  43.33800 33.40800 30.10300
H  43.30500 33.15000 34.30000
H  44.31400 31.67700 34.00900
H  42.61600 31.55300 33.65600

