158

Mg 52.47300 24.19900 44.47200
C  49.75600 26.34200 44.02600
C  50.27600 21.52700 44.11400
C  55.13300 22.26600 43.90600
C  54.51900 27.05100 44.81900
N  50.31500 23.99400 43.83700
C  49.41000 25.04200 43.75000
C  47.97400 24.48600 43.59900
C  48.13200 22.98300 43.91000
C  49.71000 22.78200 44.01200
C  47.40100 22.30300 45.11800
C  47.17700 24.71300 42.26900
C  47.95700 24.58500 40.95000
H  47.40700 25.21400 39.72500
N  52.68100 22.10300 44.16400
C  51.65700 21.20600 44.29800
C  52.25100 19.90900 44.31400
C  53.68800 20.00100 44.22900
C  53.88300 21.48600 44.04100
C  51.40600 18.61800 44.58000
C  54.70700 18.90800 44.38500
O  54.39400 17.74800 44.58900
C  56.12600 19.30000 44.36000
N  54.46800 24.64000 44.30100
C  55.37200 23.62400 44.12700
C  56.82200 24.27800 43.94200
C  56.60800 25.81300 44.25100
C  55.10500 25.84800 44.42600
C  57.94100 23.50700 44.71800
C  57.20000 26.93300 43.30900
C  57.75100 28.22600 43.96700
N  52.21300 26.22800 44.50100
C  53.12800 27.25500 44.89400
C  52.35600 28.47400 45.11900
C  51.06900 28.11800 44.80000
C  51.05400 26.78400 44.37200
C  52.68500 29.75300 45.75300
C  49.71200 28.69000 44.79100
O  49.26000 29.68700 45.25500
C  48.84200 27.62700 44.11900
C  48.30000 28.06200 42.83200
O  48.89100 28.01400 41.74100
O  47.05100 28.54200 42.97700
C  46.40600 29.10800 41.80500
H  49.56300 20.71200 44.25300
H  56.02000 21.73000 43.56100
H  55.14600 27.93000 44.98100
H  47.43300 24.90900 44.44600
H  47.84200 22.31600 43.09900
H  47.15300 21.31600 44.72600
H  46.45600 22.76800 45.39900
H  48.05700 22.30000 45.98800
H  46.55900 25.60700 42.35800
H  46.49000 23.86800 42.29800
H  47.82000 23.54000 40.67400
H  48.96500 24.84600 41.27100
H  51.35100 17.86400 43.79500
H  50.45400 18.96800 44.97900
H  51.75700 18.01000 45.41300
H  56.67900 18.40200 44.63600
H  56.25700 20.04200 45.14800
H  56.48000 19.71800 43.41800
H  57.19000 24.17000 42.92200
H  57.08400 25.98300 45.21600
H  58.72000 24.23300 44.95200
H  58.22500 22.62300 44.14700
H  57.57400 23.12100 45.66900
H  56.34700 27.22300 42.69700
H  57.97900 26.51900 42.66900
H  57.86700 28.13300 45.04700
H  57.04400 29.02700 43.75300
H  58.63700 28.55200 43.42200
H  52.31300 30.63400 45.23100
H  53.76800 29.84000 45.84700
H  52.37800 29.80200 46.79700
H  47.94800 27.44900 44.71600
H  45.35300 29.31800 41.99300
H  46.41900 28.46900 40.92200
H  46.98000 29.95700 41.43500
Mg -10.14400 17.54500 42.65300
C  -6.72300 16.53400 42.24600
C  -9.22600 20.65300 41.89100
C  -13.36800 18.00700 41.99900
C  -10.86900 13.95100 42.76000
N  -8.13500 18.44500 41.93500
C  -6.89100 17.90700 41.99300
C  -5.79000 19.10800 41.85700
C  -6.66100 20.33400 41.98000
C  -8.09000 19.78600 41.96200
C  -6.52500 21.40500 43.13600
C  -4.97800 19.04500 40.55400
C  -5.72000 18.52700 39.32000
H  -5.38700 19.01500 37.88900
N  -11.15900 19.14200 42.04700
C  -10.62700 20.36100 41.76800
C  -11.64700 21.26500 41.37200
C  -12.87700 20.50600 41.39800
C  -12.51300 19.18500 41.85600
C  -11.34900 22.69000 40.97900
C  -14.14400 21.12400 40.95800
O  -14.16400 22.25500 40.55700
C  -15.52200 20.44000 40.90600
N  -11.88700 16.17500 42.63000
C  -13.10500 16.69900 42.34000
C  -14.18800 15.59600 42.30200
C  -13.27600 14.33000 42.17700
C  -11.90200 14.86100 42.59800
C  -15.13700 15.46200 43.52000
C  -13.13700 13.71100 40.69900
C  -14.36900 12.89800 40.28000
N  -9.06200 15.62200 42.74500
C  -9.50900 14.30500 42.80600
C  -8.33600 13.49400 42.99900
C  -7.23500 14.34200 42.88200
C  -7.72800 15.63600 42.63700
C  -8.29900 12.07000 43.21000
C  -5.72300 14.42600 42.88500
O  -4.93100 13.55000 43.03200
C  -5.40300 15.88400 42.61400
C  -4.82600 16.51200 43.81100
O  -5.37800 16.76600 44.89800
O  -3.52200 16.89600 43.60100
C  -2.81800 17.50400 44.73200
H  -8.86500 21.66400 41.69600
H  -14.43600 18.12100 41.80000
H  -11.15100 12.89800 42.82900
H  -5.18300 19.06800 42.76200
H  -6.51300 20.96700 41.10500
H  -5.60100 21.16300 43.66200
H  -7.36600 21.34600 43.82700
H  -6.46100 22.43000 42.77000
H  -4.07400 18.46300 40.73300
H  -4.77400 20.09200 40.33100
H  -6.79600 18.51800 39.49400
H  -5.38000 17.50900 39.12700
H  -11.35600 22.79800 39.89400
H  -10.35500 23.02300 41.27800
H  -12.05800 23.42600 41.35800
H  -15.95500 20.46600 41.90600
H  -15.28400 19.48000 40.44900
H  -16.12300 20.98300 40.17700
H  -14.79100 15.68900 41.39900
H  -13.59700 13.54700 42.86400
H  -15.00200 14.52700 44.06400
H  -16.19700 15.55700 43.28700
H  -14.88500 16.31600 44.14900
H  -12.18100 13.21100 40.54600
H  -13.25900 14.53100 39.99100
H  -14.87400 13.54100 39.55800
H  -15.03700 12.63100 41.09900
H  -14.03600 11.93300 39.90000
H  -7.32000 11.59500 43.15000
H  -8.93500 11.63600 42.43900
H  -8.62400 11.83900 44.22400
H  -4.71400 15.97300 41.77400
H  -2.51000 18.39700 44.18900
H  -2.08300 16.75100 45.01700
H  -3.41500 17.76800 45.60500

