158

Mg -2.06000 18.10900 27.35100
C  -2.63000 15.77200 29.63300
C  -2.81600 20.60100 29.55200
C  -1.62700 20.19400 24.81500
C  -1.60100 15.50200 24.94900
N  -2.79800 18.14600 29.27600
C  -2.79500 17.07800 30.17700
C  -2.88400 17.48500 31.70600
C  -3.12400 19.03000 31.57900
C  -2.89300 19.32500 30.05300
C  -4.54900 19.64600 32.09400
C  -1.79200 17.01300 32.65500
C  -1.39000 17.80600 33.92800
H  -0.77600 16.98500 35.00500
N  -2.25200 20.10600 27.20700
C  -2.56100 20.98000 28.21600
C  -2.38900 22.37000 27.72200
C  -1.82700 22.25300 26.40700
C  -1.78800 20.84100 26.08700
C  -2.69100 23.59200 28.68100
C  -1.26500 23.39700 25.60800
O  -0.72900 23.25000 24.51400
C  -1.26200 24.77100 26.14800
N  -1.82500 17.84800 25.17100
C  -1.55100 18.90300 24.43600
C  -1.35500 18.48900 22.92600
C  -1.06000 17.00500 22.99300
C  -1.49900 16.71200 24.43800
C  -2.60100 18.73600 22.05600
C  0.40900 16.64100 22.72600
C  1.52600 17.18100 23.73200
N  -1.92100 16.11000 27.27600
C  -1.86100 15.14000 26.27100
C  -1.97700 13.81300 26.84000
C  -2.33300 13.98200 28.13300
C  -2.32300 15.38100 28.30900
C  -1.80800 12.52700 26.20100
C  -2.63400 13.29900 29.31900
O  -2.66600 12.11100 29.48200
C  -2.83400 14.40100 30.39600
C  -1.79700 14.01700 31.39300
O  -0.57600 14.23300 31.32800
O  -2.35600 13.29500 32.47000
C  -1.49600 13.04200 33.61700
H  -2.66100 21.35100 30.33000
H  -1.39800 20.80300 23.93800
H  -1.27400 14.69600 24.28800
H  -3.84500 17.08000 32.02300
H  -2.33600 19.53900 32.13400
H  -4.27200 20.34600 32.88200
H  -5.15900 18.98800 32.71300
H  -5.12300 20.09800 31.28500
H  -0.84500 17.09800 32.12300
H  -1.95600 15.96100 32.88900
H  -2.25900 18.36400 34.27700
H  -0.57200 18.49600 33.71900
H  -1.75000 24.05300 28.98000
H  -3.22100 23.20800 29.55300
H  -3.35800 24.34300 28.25900
H  -2.24300 25.18800 26.37400
H  -0.80100 25.46700 25.44700
H  -0.64200 24.79400 27.04400
H  -0.51500 19.03600 22.49900
H  -1.62700 16.37400 22.30900
H  -3.32800 19.19700 22.72500
H  -3.05700 17.85300 21.60800
H  -2.31800 19.48300 21.31400
H  0.69100 16.87100 21.69800
H  0.46600 15.55800 22.61900
H  2.09500 16.38800 24.21800
H  1.05800 17.77100 24.52000
H  2.26900 17.85200 23.30000
H  -1.06200 12.57500 25.40700
H  -2.68200 11.99800 25.82200
H  -1.44100 11.85300 26.97500
H  -3.84600 14.24200 30.76800
H  -2.10500 13.43400 34.43100
H  -0.57600 13.62500 33.58300
H  -1.33200 11.96500 33.62100
Mg 30.92000 58.23400 40.06000
C  28.15800 56.52400 38.87400
C  32.90700 55.59700 39.13500
C  33.52300 60.24200 40.47300
C  28.86100 61.19600 40.24800
N  30.59500 56.28900 38.97400
C  29.38100 55.74800 38.78200
C  29.48600 54.18300 38.45600
C  31.05700 53.87200 38.74500
C  31.61500 55.36400 38.96800
C  31.15300 52.92200 39.91500
C  29.00600 53.75300 37.01100
C  29.73100 54.53500 35.82700
H  28.75600 55.36300 34.96000
N  32.92400 57.93200 39.89900
C  33.53100 56.81900 39.52200
C  34.96200 57.03800 39.51200
C  35.20700 58.35900 39.87300
C  33.89300 58.90100 40.16600
C  36.05000 56.01800 39.29800
C  36.60300 59.01100 39.97900
O  37.58500 58.34000 39.67100
C  36.82900 60.35700 40.52400
N  31.14300 60.48600 40.37600
C  32.38000 60.99500 40.56500
C  32.31600 62.49900 40.95500
C  30.75900 62.80400 40.75200
C  30.19800 61.40600 40.53200
C  32.93500 62.89900 42.34500
C  30.39500 63.75000 39.58700
C  30.32600 65.26500 39.79300
N  28.88600 58.75300 39.83400
C  28.28700 59.95500 39.88000
C  26.92700 59.75200 39.66600
C  26.77700 58.42500 39.34500
C  28.04700 57.86400 39.28500
C  25.79300 60.78600 39.68400
C  25.86100 57.32500 38.94800
O  24.61600 57.28200 38.78900
C  26.74200 56.05800 38.77100
C  26.51800 54.94700 39.76000
O  27.17500 54.71200 40.79600
O  25.56100 54.06400 39.27200
C  25.21400 52.98500 40.20700
H  33.47300 54.66700 39.04100
H  34.40200 60.86000 40.66600
H  28.18600 62.05200 40.30800
H  28.89900 53.66700 39.21500
H  31.61000 53.41400 37.92600
H  30.19300 52.69200 40.37700
H  31.62600 53.49900 40.71000
H  31.67500 52.00100 39.65300
H  27.94100 53.77700 36.78000
H  29.34300 52.72400 36.88700
H  30.22700 53.83700 35.15300
H  30.37100 55.28600 36.29000
H  36.73600 56.35600 38.52100
H  35.72300 54.97900 39.25600
H  36.66700 56.04100 40.19600
H  36.31600 60.55000 41.46600
H  36.60000 61.04600 39.71100
H  37.89900 60.42300 40.72000
H  32.79500 63.16300 40.23600
H  30.38200 63.25200 41.67200
H  32.21400 62.98600 43.15800
H  33.62800 63.73400 42.24800
H  33.59100 62.07000 42.61000
H  29.48100 63.43500 39.08400
H  31.09300 63.53300 38.77900
H  29.50400 65.71200 39.23400
H  31.23600 65.73900 39.42400
H  30.06800 65.44900 40.83600
H  26.20700 61.75300 39.39800
H  25.38300 60.86300 40.69100
H  25.08500 60.45400 38.92500
H  26.55000 55.69300 37.76200
H  24.40600 53.36100 40.83500
H  26.05900 52.63900 40.80300
H  24.94500 52.17500 39.52900

