158

Mg 26.82700 50.66100 27.52100
C  24.61200 51.84600 29.92000
C  28.88500 49.68000 29.94000
C  28.87300 49.72200 25.09000
C  24.57300 52.03200 25.11200
N  26.69300 50.72500 29.61500
C  25.74300 51.29500 30.46000
C  26.00400 51.05200 31.90000
C  27.51200 50.49700 31.88700
C  27.71700 50.27200 30.37500
C  28.62700 51.48900 32.36700
C  25.07600 49.97200 32.54100
C  24.44700 50.34500 33.90400
H  25.42200 50.93700 35.01100
N  28.61000 49.86300 27.46500
C  29.30600 49.51300 28.61300
C  30.60700 48.98600 28.27000
C  30.71700 49.12300 26.85600
C  29.35700 49.56400 26.38400
C  31.60400 48.52700 29.21100
C  31.88500 48.77200 25.91300
O  31.80400 48.76000 24.67500
C  33.21400 48.27500 26.34100
N  26.76100 50.84400 25.31800
C  27.69400 50.32200 24.57200
C  27.26200 50.31200 23.14100
C  25.84700 50.91000 23.16900
C  25.71200 51.32000 24.62700
C  28.21000 51.07600 22.10400
C  24.71500 49.86800 22.84700
C  23.52900 50.40900 22.07000
N  24.97000 51.80400 27.44600
C  24.19100 52.36100 26.41600
C  23.08700 53.04800 26.94500
C  23.17200 52.91100 28.31200
C  24.35200 52.15400 28.57500
C  22.01300 53.72700 26.26500
C  22.56400 53.24600 29.55500
O  21.59600 53.95500 29.72000
C  23.52300 52.66900 30.69700
C  23.92700 53.86300 31.58300
O  24.94200 54.52400 31.33600
O  23.04700 54.02100 32.60400
C  23.46200 54.90400 33.70500
H  29.42300 49.26600 30.79600
H  29.55000 49.41800 24.28900
H  23.97700 52.34100 24.25100
H  25.85300 51.96700 32.47300
H  27.61800 49.54300 32.40400
H  29.29400 51.73700 31.54200
H  29.20000 50.97000 33.13500
H  28.27900 52.42700 32.79800
H  25.66300 49.06400 32.67800
H  24.26800 49.70800 31.85800
H  23.84500 49.49900 34.23700
H  23.76000 51.14100 33.61500
H  31.75000 47.44700 29.19600
H  31.36100 48.70500 30.25800
H  32.54800 49.07100 29.21300
H  33.62700 47.79400 25.45400
H  32.90300 47.40600 26.92100
H  33.59600 49.19200 26.79100
H  27.22300 49.24700 22.91100
H  25.78400 51.85600 22.63100
H  29.10100 51.55500 22.51200
H  27.65700 51.75900 21.46000
H  28.59000 50.27300 21.47200
H  24.40300 49.38800 23.77500
H  25.11500 49.00700 22.31000
H  22.55400 50.46200 22.55500
H  23.49200 49.63300 21.30600
H  23.69800 51.35600 21.55800
H  22.32700 54.09300 25.28700
H  21.69700 54.53700 26.92200
H  21.19200 53.02000 26.14900
H  22.90000 52.01800 31.31000
H  23.47800 55.93700 33.35800
H  24.40200 54.60400 34.16900
H  22.79700 54.85800 34.56800
Mg -10.97100 16.53200 41.66700
C  -7.58000 16.60800 41.33900
C  -11.10600 19.84800 40.62800
C  -14.18900 16.27800 41.71100
C  -10.67400 12.96600 42.31500
N  -9.48500 17.99800 40.85300
C  -8.12800 17.83400 40.91000
C  -7.30300 19.08200 40.41100
C  -8.55300 20.10900 40.42400
C  -9.81100 19.32900 40.70000
C  -8.35200 21.41300 41.21900
C  -6.60000 18.83600 39.00800
C  -5.10000 19.07500 38.90200
H  -4.41600 18.18400 37.93000
N  -12.46400 17.85100 41.21800
C  -12.35700 19.19100 40.82300
C  -13.68300 19.78600 40.71800
C  -14.63400 18.73700 40.88300
C  -13.78100 17.53700 41.31000
C  -13.99100 21.23500 40.27300
C  -16.25100 18.86600 40.70900
O  -16.78300 19.94500 40.47000
C  -17.03800 17.68200 40.80500
N  -12.28700 14.81500 42.02200
C  -13.58500 15.01600 42.03300
C  -14.39500 13.75100 42.38200
C  -13.30300 12.67200 42.47400
C  -12.00900 13.48600 42.24400
C  -15.32100 13.82800 43.56900
C  -13.47400 11.40400 41.60900
C  -13.95400 10.17200 42.37800
N  -9.51100 15.05900 41.82100
C  -9.52600 13.72600 42.08600
C  -8.18300 13.20800 42.19500
C  -7.36800 14.38200 42.00100
C  -8.22800 15.37400 41.62500
C  -7.76600 11.79000 42.50400
C  -6.02600 14.84000 41.90600
O  -4.98700 14.23000 42.07800
C  -6.05200 16.30300 41.50100
C  -5.41700 17.18100 42.53000
O  -5.99100 17.63000 43.50500
O  -4.06500 17.33200 42.29500
C  -3.37100 18.09800 43.36000
H  -11.16400 20.91100 40.38200
H  -15.27200 16.15300 41.75600
H  -10.55800 11.93400 42.65100
H  -6.67600 19.36900 41.25500
H  -8.62800 20.49500 39.40700
H  -7.45500 21.30300 41.82700
H  -9.22300 21.54000 41.86200
H  -8.20000 22.33200 40.65400
H  -7.13300 19.36500 38.21800
H  -6.72500 17.81200 38.65600
H  -4.54100 18.93900 39.82800
H  -4.90400 20.11800 38.64900
H  -14.70700 21.26000 39.45300
H  -13.11000 21.78800 39.94700
H  -14.42300 21.76400 41.12200
H  -17.95400 17.86700 40.24400
H  -17.02700 17.44200 41.86800
H  -16.58300 16.91600 40.17700
H  -14.90200 13.49900 41.45100
H  -13.23500 12.38800 43.52400
H  -15.09000 13.01500 44.25700
H  -16.37700 13.84200 43.29900
H  -15.06300 14.77400 44.04600
H  -12.52600 11.11900 41.15300
H  -14.21000 11.57200 40.82300
H  -14.63000 10.22300 43.23200
H  -13.08700 9.59100 42.69100
H  -14.23100 9.37000 41.69300
H  -8.60800 11.17100 42.81300
H  -6.97600 11.84800 43.25300
H  -7.39500 11.25900 41.62800
H  -5.48600 16.38800 40.57200
H  -2.29900 18.08100 43.16800
H  -3.35600 17.67400 44.36400
H  -3.73000 19.12600 43.39200

