158

Mg -0.01000 7.40800 27.31800
C  1.08700 9.56600 29.91300
C  -0.12800 4.82200 29.73300
C  -0.65800 5.33700 24.82100
C  0.56600 9.95200 25.09300
N  0.60700 7.21800 29.56400
C  0.80300 8.31900 30.44700
C  0.64100 7.89900 31.89900
C  0.51100 6.36400 31.77800
C  0.36500 6.05700 30.26600
C  1.66100 5.58900 32.41400
C  -0.61800 8.58500 32.54400
C  -0.52800 8.91100 34.06900
H  0.66000 8.46700 34.91400
N  -0.35500 5.33200 27.25300
C  -0.35200 4.48400 28.28900
C  -0.59400 3.13000 27.77800
C  -0.74800 3.27400 26.35700
C  -0.55500 4.69800 26.08700
C  -0.54600 1.92100 28.68000
C  -1.08800 2.17200 25.38300
O  -1.20700 2.42800 24.19800
C  -1.33500 0.74500 25.81500
N  0.01200 7.59100 25.28000
C  -0.26400 6.58300 24.41800
C  -0.31500 7.02900 22.99500
C  -0.24100 8.59600 23.13500
C  0.09500 8.74500 24.58500
C  0.83200 6.48500 22.14400
C  -1.57300 9.37900 22.79000
C  -1.41500 10.62400 21.87000
N  0.78000 9.34700 27.37200
C  0.95000 10.25700 26.39500
C  1.33000 11.51200 26.96400
C  1.36900 11.30300 28.37100
C  1.04400 9.97200 28.57100
C  1.69900 12.75000 26.18600
C  1.68400 11.95200 29.65600
O  2.21500 13.03800 29.92900
C  1.39700 10.88500 30.75800
C  2.59300 10.82600 31.65300
O  3.40900 9.92300 31.62800
O  2.48300 11.73300 32.70600
C  3.46400 11.64900 33.76900
H  -0.30700 3.98200 30.40700
H  -0.91500 4.67200 23.99300
H  0.60300 10.79400 24.39800
H  1.55300 8.21500 32.40500
H  -0.36600 6.02400 32.32900
H  2.19800 6.16300 33.16900
H  2.25200 5.35100 31.52900
H  1.27100 4.67700 32.86500
H  -1.43200 7.88700 32.34700
H  -0.83500 9.46300 31.93600
H  -1.40600 8.45000 34.52200
H  -0.61900 9.99700 34.05600
H  0.20700 1.28000 28.22200
H  -1.53400 1.46000 28.63900
H  -0.31200 2.04900 29.73700
H  -1.85200 0.19100 25.03100
H  -1.88700 0.58200 26.74000
H  -0.32400 0.36800 25.96700
H  -1.27100 6.72300 22.56900
H  0.57600 9.04200 22.56900
H  1.68100 7.15100 22.29600
H  0.58100 6.39300 21.08700
H  1.11100 5.49000 22.48900
H  -1.99100 9.79600 23.70600
H  -2.30200 8.69300 22.35900
H  -0.37300 10.75400 21.57700
H  -1.72500 11.50700 22.43000
H  -2.10900 10.50800 21.03800
H  0.73600 13.10900 25.82400
H  2.21900 12.41300 25.28900
H  2.29200 13.43700 26.79100
H  0.61400 11.25100 31.42200
H  3.08400 11.11000 34.63700
H  3.77800 12.66500 34.00900
H  4.35400 11.12400 33.42300
Mg 36.23300 49.03300 25.40900
C  36.40900 46.96600 28.23000
C  34.78700 51.41400 27.49000
C  35.90400 50.95700 22.68900
C  37.22400 46.29400 23.44800
N  35.49300 49.06100 27.61600
C  35.96400 48.25600 28.55800
C  35.57600 48.74800 29.99900
C  34.91400 50.17500 29.68700
C  35.03000 50.19600 28.14400
C  33.43000 50.47300 30.20800
C  36.81600 48.85000 30.89600
C  36.57000 48.44700 32.35500
H  36.67300 49.52400 33.51000
N  35.56500 50.97100 25.16500
C  34.92400 51.77800 26.11400
C  34.60300 53.03800 25.39800
C  35.10500 52.95400 24.05400
C  35.51400 51.55000 23.91800
C  33.95000 54.18500 26.20500
C  34.99700 54.03900 23.02400
O  35.39100 53.84100 21.89800
C  34.35800 55.36900 23.33900
N  36.53900 48.64500 23.36800
C  36.29500 49.62000 22.47500
C  36.56600 48.97300 21.06700
C  37.23400 47.61300 21.32000
C  37.04000 47.52700 22.81100
C  35.35400 48.86200 20.11800
C  38.66000 47.57700 20.83800
C  39.11500 46.17100 20.34300
N  36.79000 46.99000 25.74300
C  37.14600 45.98300 24.81100
C  37.46900 44.72800 25.56500
C  37.10200 45.01400 26.90700
C  36.75500 46.39500 26.96800
C  38.03900 43.44100 24.89700
C  37.07700 44.53100 28.24600
O  37.48500 43.45000 28.70500
C  36.65100 45.80200 29.20200
C  35.45700 45.45200 30.02300
O  34.29400 45.46400 29.63100
O  35.91600 45.26600 31.32100
C  34.99600 44.79500 32.32900
H  34.44000 52.21900 28.14000
H  35.70500 51.53400 21.78300
H  37.52200 45.44700 22.82700
H  34.81900 48.03700 30.32800
H  35.57900 50.95400 30.06000
H  32.87100 49.65700 30.66500
H  32.88400 50.78200 29.31700
H  33.41000 51.42700 30.73600
H  37.31700 49.81100 31.01500
H  37.55100 48.12700 30.54200
H  37.31200 47.69800 32.63200
H  35.60900 47.95000 32.49600
H  33.00600 54.57500 25.82500
H  34.67100 54.99900 26.27200
H  33.68700 53.90100 27.22400
H  34.69300 56.06200 22.56700
H  34.88000 55.60300 24.26700
H  33.28300 55.33300 23.51300
H  37.24800 49.68900 20.60800
H  36.72100 46.78400 20.83100
H  34.64700 49.58800 20.52100
H  34.97800 47.85900 19.92000
H  35.71400 49.35200 19.21300
H  39.32100 47.93100 21.63000
H  38.82700 48.28700 20.02700
H  39.88000 45.80000 21.02400
H  39.61700 46.38400 19.39900
H  38.29900 45.46300 20.20100
H  38.79000 43.60200 24.12400
H  37.28900 42.75500 24.50400
H  38.47100 42.88300 25.72700
H  37.51400 46.01200 29.83500
H  34.33500 44.06900 31.85600
H  34.39200 45.60700 32.73600
H  35.59200 44.36400 33.13400

