158

Mg 2.27300 -1.52500 44.70500
C  5.55200 -0.67100 44.34700
C  1.52200 0.89800 42.20100
C  -0.86300 -2.58600 44.66700
C  3.34500 -4.55100 46.26200
N  3.42500 -0.24300 43.29700
C  4.79800 -0.01200 43.36600
C  5.32000 1.02100 42.38500
C  3.97000 1.50400 41.72600
C  2.89900 0.72300 42.48400
C  3.86600 3.03900 41.76900
C  6.48100 0.43200 41.43000
C  7.78100 1.22100 41.36200
H  8.28100 1.55200 39.95300
N  0.52600 -0.75000 43.79200
C  0.43500 0.19300 42.80000
C  -0.93400 0.49700 42.52400
C  -1.67100 -0.56700 43.18100
C  -0.70100 -1.35600 43.97000
C  -1.45900 1.56500 41.64000
C  -3.32500 -0.65600 43.02000
O  -3.99600 0.18500 42.41300
C  -4.05800 -1.84800 43.72500
N  1.38200 -3.37000 45.28700
C  0.03400 -3.41900 45.31400
C  -0.43500 -4.78900 45.87500
C  0.90500 -5.34400 46.45700
C  1.97200 -4.38000 45.99700
C  -1.73100 -4.98200 46.67300
C  1.30200 -6.80900 46.25600
C  1.65200 -7.80400 47.40400
N  4.05700 -2.48000 45.33200
C  4.30300 -3.60700 46.03900
C  5.66000 -3.57600 46.40600
C  6.20100 -2.40900 45.85000
C  5.15900 -1.82700 45.16700
C  6.51200 -4.57500 47.24300
C  7.35700 -1.57800 45.74000
O  8.50000 -1.74200 46.18000
C  6.94600 -0.36000 44.71400
C  7.10500 0.90500 45.38500
O  6.43800 1.31700 46.33700
O  8.21800 1.57300 44.88500
C  8.61600 2.86400 45.42100
H  1.24700 1.68500 41.49500
H  -1.89600 -2.92200 44.77800
H  3.68400 -5.40500 46.85100
H  5.56300 1.85300 43.04700
H  4.13600 1.24800 40.67900
H  4.77200 3.58200 42.03900
H  3.12300 3.14800 42.55900
H  3.53400 3.43700 40.81100
H  6.06100 0.14700 40.46500
H  6.72100 -0.54600 41.84700
H  8.56300 0.74600 41.95400
H  7.75900 2.16400 41.90800
H  -1.82200 2.41400 42.21900
H  -2.23700 1.19400 40.97300
H  -0.77200 1.89600 40.86000
H  -5.09400 -1.88400 43.38800
H  -4.03300 -1.82500 44.81500
H  -3.57400 -2.76400 43.38800
H  -0.50300 -5.32800 44.93000
H  0.91300 -5.19700 47.53700
H  -2.29500 -4.10400 46.98800
H  -1.65600 -5.70000 47.49000
H  -2.51400 -5.34700 46.00800
H  2.08600 -6.90900 45.50400
H  0.38000 -7.23100 45.85600
H  2.62600 -8.26000 47.22000
H  0.91900 -8.60800 47.46900
H  1.56600 -7.35300 48.39200
H  5.88300 -5.27200 47.79700
H  7.19500 -3.94300 47.80900
H  7.14200 -5.09300 46.51900
H  7.57900 -0.47100 43.83400
H  9.30300 3.23000 44.65800
H  8.98200 2.76600 46.44200
H  7.80100 3.58000 45.53200
Mg 35.21200 48.51900 25.40100
C  35.80600 46.46100 28.12200
C  34.19000 51.03200 27.44100
C  34.69700 50.47800 22.69900
C  36.19400 45.93000 23.34200
N  34.78400 48.64500 27.50600
C  35.32500 47.71300 28.46700
C  35.25100 48.33800 29.88500
C  34.43100 49.64500 29.57800
C  34.49900 49.81200 28.04900
C  33.04900 49.83600 30.32300
C  36.62800 48.60300 30.44400
C  36.77800 48.46000 31.96800
H  35.49500 48.38000 32.85400
N  34.46300 50.49200 25.12100
C  34.28200 51.39100 26.09400
C  34.03000 52.70600 25.52100
C  34.08000 52.57300 24.12100
C  34.44300 51.15300 23.91900
C  33.70800 53.82600 26.49200
C  33.83700 53.55900 22.99400
O  34.04800 53.27700 21.82000
C  33.52800 54.99000 23.35600
N  35.26900 48.23800 23.28700
C  35.11800 49.17000 22.39900
C  35.39800 48.65000 20.98700
C  35.98700 47.29400 21.22100
C  35.80900 47.15400 22.74300
C  34.22900 48.74800 19.87800
C  37.47200 47.12700 20.71100
C  38.65800 46.94300 21.68200
N  35.77600 46.57300 25.62800
C  36.13300 45.63300 24.68300
C  36.50800 44.38600 25.34200
C  36.44600 44.72000 26.69700
C  35.87000 46.00000 26.81600
C  36.81000 43.03500 24.74400
C  36.64700 44.24800 28.00900
O  37.03100 43.13900 28.36200
C  36.31400 45.41000 29.04000
C  35.23500 44.96400 29.97200
O  34.08200 44.86400 29.63800
O  35.59500 44.84600 31.32700
C  34.50800 44.38400 32.20500
H  34.10000 51.78100 28.23100
H  34.60400 51.09800 21.80500
H  36.53700 45.03900 22.81300
H  34.72200 47.66800 30.56300
H  35.03000 50.43500 30.03100
H  32.33900 50.13700 29.55200
H  33.20400 50.69800 30.97100
H  32.73000 48.88600 30.75300
H  36.99800 49.58700 30.15700
H  37.35800 47.92800 29.99600
H  37.27500 49.35900 32.33300
H  37.44900 47.62900 32.18700
H  33.08900 53.43000 27.29700
H  33.13100 54.52900 25.89100
H  34.58000 54.34400 26.89200
H  32.60600 55.16000 23.91200
H  33.48000 55.65600 22.49400
H  34.36100 55.36800 23.94900
H  36.18500 49.32600 20.65400
H  35.43200 46.50500 20.71400
H  34.07800 47.75400 19.45700
H  34.54300 49.44100 19.09700
H  33.23600 49.07800 20.18000
H  37.73000 47.90200 19.99000
H  37.37700 46.20000 20.14500
H  39.49500 47.49400 21.25100
H  38.97900 45.91200 21.82600
H  38.44500 47.38100 22.65700
H  37.41300 43.19500 23.85000
H  35.97000 42.42100 24.41800
H  37.45000 42.57400 25.49700
H  37.15200 45.73000 29.65800
H  34.01800 43.50600 31.78400
H  33.79900 45.16900 32.46700
H  34.84100 43.95900 33.15200

