158

Mg 40.27000 8.96000 29.22500
C  41.97400 10.10900 31.98600
C  38.38900 6.96800 31.20900
C  38.71700 7.91400 26.47500
C  42.82700 10.51400 27.26900
N  40.08600 8.70000 31.39400
C  40.82300 9.37800 32.34600
C  40.24300 9.14800 33.72100
C  39.37900 7.80300 33.52000
C  39.28300 7.78300 31.93400
C  39.94300 6.55500 34.22200
C  39.46600 10.36000 34.23100
C  39.29400 10.40100 35.81800
H  40.33400 11.12400 36.65000
N  38.63500 7.74100 28.93000
C  38.02800 6.96700 29.83400
C  36.91900 6.23500 29.20100
C  36.88500 6.61600 27.81300
C  38.14500 7.45500 27.64700
C  36.08100 5.20300 29.86500
C  36.06600 6.03600 26.71600
O  36.30600 6.24600 25.53200
C  34.90400 5.23300 27.00700
N  40.79500 9.16900 27.13400
C  39.88700 8.71800 26.23500
C  40.31700 9.09400 24.78600
C  41.66400 9.86400 24.95200
C  41.78900 9.94400 26.54200
C  40.35600 7.93500 23.83100
C  41.68100 11.24500 24.37400
C  40.66900 12.21800 24.92700
N  42.07600 9.96000 29.48000
C  43.04900 10.43900 28.63600
C  44.18300 11.04100 29.29400
C  43.78500 10.95700 30.62200
C  42.47900 10.32200 30.73700
C  45.46200 11.61800 28.71200
C  44.21600 11.21400 31.97400
O  45.14500 11.83900 32.38200
C  43.04700 10.63800 32.92100
C  43.65900 9.67300 33.80700
O  43.73000 8.49000 33.58600
O  44.12500 10.29200 34.90800
C  44.56200 9.44000 36.01800
H  37.80000 6.27400 31.81300
H  38.06300 7.75900 25.61500
H  43.68300 10.93300 26.73700
H  41.06400 9.08600 34.43500
H  38.36800 7.92300 33.90700
H  39.71400 5.73500 33.54200
H  39.33000 6.48400 35.12100
H  41.01700 6.64300 34.38500
H  38.44400 10.06600 33.99100
H  39.78300 11.29200 33.76300
H  39.13600 9.40400 36.22900
H  38.35100 10.93400 35.94200
H  36.36000 4.95600 30.88900
H  36.16200 4.23800 29.36500
H  35.07300 5.60900 29.94800
H  34.25900 5.78100 27.69300
H  35.23600 4.26600 27.38600
H  34.40700 5.10200 26.04500
H  39.53500 9.72900 24.36800
H  42.53600 9.40000 24.49100
H  40.46100 6.98000 24.34600
H  41.20000 7.98700 23.14400
H  39.44300 7.89900 23.23700
H  41.57100 11.21600 23.29000
H  42.69500 11.60700 24.54700
H  41.11400 12.64300 25.82700
H  39.74900 11.70600 25.20600
H  40.46400 13.09300 24.31000
H  45.89800 12.19100 29.53000
H  45.29200 12.35100 27.92300
H  46.11600 10.84600 28.30700
H  42.61600 11.50900 33.41600
H  44.88100 8.43700 35.73600
H  43.93200 9.48800 36.90600
H  45.55300 9.84500 36.22500
Mg 9.44400 48.22000 25.80300
C  7.02500 48.49400 28.50100
C  11.76800 49.54600 27.97700
C  11.70200 47.76800 23.33400
C  6.80000 47.60300 23.61100
N  9.36700 48.87300 27.96600
C  8.36800 48.72000 28.89400
C  8.87700 48.96700 30.32400
C  10.29400 49.71200 30.00600
C  10.51500 49.34100 28.56900
C  10.36400 51.21400 30.25300
C  9.04900 47.68500 31.19200
C  8.70300 47.89600 32.66000
H  8.66300 46.65900 33.48200
N  11.44800 48.53800 25.67700
C  12.25800 49.08700 26.68600
C  13.58600 49.11300 26.21000
C  13.56000 48.65100 24.84900
C  12.21200 48.22700 24.54000
C  14.82200 49.53100 27.12900
C  14.75000 48.56500 23.94800
O  14.65400 48.23100 22.80200
C  16.17000 49.07600 24.31200
N  9.22500 47.85000 23.77300
C  10.38500 47.63300 22.98900
C  9.91000 47.23800 21.61900
C  8.33200 47.23000 21.59400
C  8.07900 47.55600 23.08500
C  10.42900 48.18400 20.50400
C  7.67600 45.92100 21.17800
C  7.49000 45.95200 19.64600
N  7.34300 48.06900 25.89700
C  6.44200 47.84600 24.91800
C  5.08400 47.83900 25.49100
C  5.26800 48.07300 26.86600
C  6.68400 48.23700 27.10200
C  3.72500 47.68200 24.75100
C  4.60300 48.06200 28.17300
O  3.40100 47.86300 28.44200
C  5.68700 48.49100 29.18400
C  5.52400 47.63800 30.36200
O  5.73200 46.39900 30.47600
O  4.83600 48.41000 31.33300
C  4.45400 47.57600 32.48500
H  12.55800 49.80800 28.68400
H  12.47300 47.41800 22.64400
H  5.96900 47.33800 22.95500
H  8.11500 49.61800 30.75200
H  11.14500 49.29300 30.54300
H  10.54800 51.74000 29.31700
H  11.11500 51.39300 31.02300
H  9.36300 51.51400 30.56200
H  10.09800 47.41600 31.07100
H  8.42800 46.93200 30.70800
H  7.65100 48.17800 32.63700
H  9.35600 48.64800 33.10600
H  15.55000 48.71900 27.12300
H  14.50300 49.51000 28.17100
H  15.42800 50.38900 26.84000
H  16.18800 50.08400 24.72700
H  16.68600 49.08100 23.35300
H  16.65000 48.37600 24.99600
H  10.39700 46.27400 21.47100
H  7.90800 48.09500 21.08300
H  10.91300 47.44000 19.87100
H  11.21400 48.85700 20.84900
H  9.72900 48.82600 19.96800
H  6.77400 45.80400 21.77900
H  8.42500 45.15500 21.37900
H  6.44300 45.80200 19.38500
H  7.98000 45.11700 19.14400
H  7.71200 46.90900 19.17400
H  3.05100 48.33300 25.30800
H  3.40300 46.65900 24.55800
H  3.81200 48.10300 23.75000
H  5.41600 49.51000 29.46200
H  5.21800 47.63800 33.26000
H  4.25600 46.56700 32.12300
H  3.57200 48.01100 32.95300

