158

Mg 0.99800 7.30000 25.59100
C  1.78500 9.13200 28.45600
C  1.20400 4.40700 27.40900
C  0.92000 5.72800 22.71500
C  1.35600 10.34700 23.79200
N  1.32800 6.86900 27.76500
C  1.57200 7.78900 28.80100
C  1.56400 6.97900 30.19500
C  1.58000 5.48400 29.71900
C  1.38100 5.58300 28.20100
C  2.97400 4.74700 30.11900
C  0.43300 7.39600 31.03300
C  0.81500 7.87300 32.42900
H  2.11000 7.47100 33.17900
N  0.88000 5.31700 25.11300
C  0.93500 4.26200 25.97500
C  0.78500 3.06800 25.22300
C  0.78400 3.38500 23.84500
C  0.88100 4.84600 23.85800
C  0.59300 1.70200 25.89500
C  0.64800 2.46600 22.68000
O  0.49900 2.91200 21.54200
C  0.52900 0.91200 22.79300
N  1.06200 7.94200 23.46900
C  1.01600 7.14000 22.45900
C  0.92000 7.78900 21.12800
C  0.66400 9.32400 21.52600
C  1.05300 9.24400 23.02200
C  2.22300 7.54200 20.17900
C  -0.77800 9.95300 21.27700
C  -0.86300 11.39300 20.73600
N  1.45500 9.31600 25.94700
C  1.53300 10.45800 25.14000
C  1.89800 11.66900 25.91600
C  2.00000 11.10300 27.19600
C  1.73300 9.71700 27.19100
C  1.87700 13.21300 25.51900
C  2.19000 11.53200 28.58800
O  2.40100 12.63300 29.10100
C  1.99300 10.22800 29.45000
C  3.08600 10.08600 30.37900
O  4.16400 9.58100 30.14600
O  2.78500 10.55400 31.63900
C  4.05000 10.80200 32.45900
H  1.23900 3.51300 28.03500
H  0.78000 5.19400 21.77300
H  1.55600 11.28100 23.26100
H  2.50700 7.17000 30.70700
H  0.83300 4.84600 30.19000
H  3.64000 5.36300 30.72200
H  3.48700 4.53900 29.18000
H  2.85400 3.88400 30.77400
H  -0.30300 6.59300 30.99900
H  0.07200 8.35000 30.64700
H  -0.01300 7.93900 33.13500
H  1.00200 8.94600 32.41600
H  -0.29500 1.30800 25.40000
H  0.41400 1.78100 26.96700
H  1.41900 1.03300 25.65200
H  1.44300 0.59500 23.29500
H  0.57300 0.44000 21.81100
H  -0.39600 0.63400 23.29900
H  0.08200 7.38700 20.55800
H  1.40400 9.89600 20.96700
H  2.23600 7.93300 19.16200
H  2.49300 6.48600 20.14900
H  2.98100 8.14200 20.68300
H  -1.46100 9.71400 22.09300
H  -1.30100 9.32700 20.55500
H  -1.22300 11.48800 19.71100
H  0.14200 11.81400 20.70800
H  -1.61200 11.85800 21.37700
H  2.88300 13.60400 25.36900
H  1.35900 13.73200 26.32500
H  1.32400 13.43100 24.60500
H  1.07000 10.33900 30.01900
H  4.77200 11.28600 31.80200
H  4.54600 9.88100 32.76400
H  3.91500 11.45500 33.32200
Mg 26.41900 49.75000 25.99200
C  24.22300 51.03500 28.43400
C  28.40500 48.66400 28.66300
C  28.69700 48.78100 23.67200
C  24.48000 51.14800 23.58100
N  26.23800 49.76900 28.29700
C  25.28800 50.38300 29.07800
C  25.44900 49.96200 30.57800
C  26.90100 49.41900 30.65500
C  27.20000 49.22900 29.08800
C  27.96700 50.36800 31.32600
C  24.26300 49.11200 31.11100
C  23.75100 49.46900 32.53000
H  23.85900 48.28300 33.56500
N  28.32400 48.88900 26.17100
C  29.00000 48.54400 27.32800
C  30.31600 48.00000 27.03500
C  30.47500 48.12100 25.58500
C  29.14800 48.64900 25.08600
C  31.21100 47.46900 28.05900
C  31.68400 47.84100 24.76300
O  31.82600 48.14600 23.57700
C  32.85200 47.17200 25.35900
N  26.57100 49.89000 23.91500
C  27.42900 49.23500 23.16600
C  27.06800 49.31400 21.63600
C  25.86300 50.31100 21.60800
C  25.58400 50.46000 23.09300
C  28.29800 49.77200 20.76300
C  24.62700 49.72500 20.93500
C  23.86100 48.62800 21.73300
N  24.67600 50.85900 25.96600
C  23.96300 51.34400 24.90600
C  22.76800 52.04300 25.35200
C  22.85100 51.98300 26.71700
C  24.08000 51.27800 27.03700
C  21.63100 52.54100 24.44700
C  22.14400 52.31100 27.98000
O  21.12900 52.97100 28.14000
C  22.98100 51.63700 29.10200
C  23.43900 52.70900 30.03800
O  24.28800 53.56400 29.93200
O  22.69200 52.48200 31.22300
C  22.89700 53.29800 32.36500
H  28.90200 48.32400 29.57400
H  29.44100 48.29900 23.03300
H  23.92400 51.60300 22.75800
H  25.45900 50.87400 31.17600
H  26.87500 48.45600 31.16400
H  28.53800 49.92000 32.13900
H  27.46400 51.15100 31.89200
H  28.66100 50.83800 30.62800
H  24.58000 48.07000 31.07400
H  23.43900 49.09300 30.39700
H  22.75600 49.91400 32.51600
H  24.44700 50.21500 32.91400
H  30.75700 47.57400 29.04400
H  32.20100 47.91600 28.15400
H  31.30700 46.42600 27.75800
H  32.53800 46.26700 25.87800
H  33.23200 47.90700 26.06900
H  33.60300 46.97600 24.59400
H  26.76700 48.32400 21.29300
H  26.05800 51.27800 21.14400
H  28.42000 49.02200 19.98100
H  29.24100 49.82700 21.30600
H  28.16600 50.76500 20.33500
H  24.91900 49.25300 19.99700
H  23.95000 50.50300 20.58200
H  22.86800 49.00300 21.97900
H  24.29500 48.38300 22.70300
H  23.77500 47.69000 21.18400
H  21.07400 51.65300 24.15000
H  21.91800 53.10800 23.56100
H  21.02000 53.16000 25.10400
H  22.33200 50.90100 29.57500
H  23.28000 52.61600 33.12400
H  21.93100 53.64200 32.73500
H  23.53700 54.18100 32.34400

