158

Mg 45.05200 4.48900 48.04200
C  43.02000 7.11700 47.05200
C  42.44900 2.16100 47.09200
C  47.18200 1.90500 48.15200
C  47.72200 6.75000 47.73000
N  42.91800 4.62700 47.30600
C  42.31200 5.82200 46.98700
C  40.93400 5.57200 46.35600
C  40.72900 4.00800 46.64600
C  42.17300 3.58000 47.03200
C  39.50600 3.64900 47.60800
C  40.87500 5.94400 44.77900
C  39.63900 6.79300 44.35500
H  39.94900 7.66800 43.12100
N  44.80600 2.33200 47.93600
C  43.64900 1.60500 47.56300
C  43.97300 0.17100 47.74200
C  45.32000 0.10300 48.14900
C  45.84700 1.47700 48.10600
C  42.94900 -0.93000 47.55700
C  46.09500 -1.16400 48.52600
O  45.56600 -2.25900 48.36200
C  47.48300 -1.07600 49.10900
N  47.12300 4.29200 47.87900
C  47.78900 3.16100 48.11900
C  49.31600 3.33100 48.22600
C  49.46300 4.89900 48.03500
C  48.03200 5.36500 47.86700
C  50.08600 2.73100 49.34900
C  50.33900 5.30100 46.82500
C  51.68800 5.94400 46.99700
N  45.36500 6.56100 47.71500
C  46.47700 7.33600 47.67800
C  46.07300 8.74700 47.73300
C  44.71100 8.75200 47.51200
C  44.32400 7.37700 47.43100
C  46.97200 9.90100 47.76800
C  43.53100 9.55800 47.33700
O  43.41300 10.76100 47.26900
C  42.42100 8.53900 46.97700
C  41.32500 8.72000 47.92500
O  41.37300 8.54400 49.13200
O  40.22600 9.17200 47.21100
C  38.95500 9.44200 47.95300
H  41.59600 1.50500 46.90900
H  47.99900 1.18200 48.09200
H  48.58400 7.42100 47.74900
H  40.24100 6.24600 46.86000
H  40.28100 3.62600 45.72900
H  39.96500 3.13900 48.45500
H  38.78800 2.96600 47.15300
H  38.90900 4.52200 47.87100
H  40.79000 5.02900 44.19200
H  41.76300 6.51800 44.51500
H  39.32100 7.46100 45.15500
H  38.68900 6.26400 44.28800
H  43.25200 -1.68800 46.83500
H  41.98100 -0.60900 47.17300
H  42.74700 -1.36100 48.53800
H  47.86600 -1.96300 49.61300
H  47.57300 -0.25000 49.81300
H  48.08200 -0.97800 48.20300
H  49.74200 2.83100 47.35600
H  49.87000 5.36600 48.93200
H  49.48400 2.37700 50.18600
H  50.67900 3.53500 49.78500
H  50.71200 1.90300 49.01900
H  49.66500 5.83500 46.15500
H  50.67600 4.40300 46.30700
H  52.57900 5.32700 46.88100
H  51.66700 6.29400 48.02900
H  51.77900 6.83000 46.36900
H  47.75200 9.80100 48.52300
H  46.35200 10.77100 47.98100
H  47.45500 10.00500 46.79600
H  42.20200 8.75200 45.93100
H  39.07500 9.87800 48.94500
H  38.40900 8.50600 48.06700
H  38.44900 10.21400 47.37400
Mg 50.63700 46.65500 42.80900
C  47.47100 47.87800 41.71000
C  49.91500 43.73100 41.06600
C  53.80300 45.75100 43.06900
C  51.21600 49.76100 44.22500
N  48.92900 45.95400 41.36800
C  47.72500 46.54300 41.21500
C  46.68900 45.58000 40.53900
C  47.42900 44.19400 40.60600
C  48.83300 44.64200 41.02800
C  46.82500 43.15400 41.56100
C  46.41500 46.00000 39.06200
C  45.03600 45.53800 38.68300
H  44.78900 44.36900 37.73000
N  51.65400 44.82900 42.33900
C  51.22300 43.79400 41.61600
C  52.29400 42.80700 41.47000
C  53.46100 43.44500 41.93400
C  53.00200 44.71500 42.53500
C  52.18900 41.47400 40.65300
C  54.87500 42.83600 41.87400
O  54.99600 41.75400 41.30000
C  56.07400 43.41300 42.42800
N  52.33400 47.61600 43.62000
C  53.56700 47.02500 43.55300
C  54.58100 47.92600 44.16000
C  53.76700 49.17100 44.58300
C  52.37600 48.93800 44.03700
C  55.26500 47.24900 45.30900
C  54.52600 50.52700 44.18600
C  55.01400 51.53800 45.27800
N  49.59900 48.49100 42.96900
C  49.98900 49.62700 43.66200
C  48.82200 50.58300 43.68900
C  47.87100 49.86400 42.93700
C  48.39400 48.70000 42.47900
C  48.81900 51.93000 44.24900
C  46.52100 49.95900 42.46400
O  45.65100 50.85200 42.61200
C  46.20700 48.69200 41.64300
C  44.91100 48.10400 42.00600
O  44.67100 47.38500 42.96800
O  43.97700 48.43400 41.07400
C  42.58000 47.87900 41.20900
H  49.63800 42.78900 40.58800
H  54.83900 45.46100 43.25900
H  51.52700 50.71200 44.66100
H  45.89600 45.54100 41.28600
H  47.49700 43.73300 39.62000
H  47.05100 42.15000 41.20200
H  45.75500 43.31800 41.43500
H  47.13600 43.20800 42.60500
H  47.05700 45.53800 38.31200
H  46.40400 47.09000 39.05500
H  44.46400 46.31300 38.17300
H  44.37000 45.35500 39.52700
H  52.84800 41.71700 39.81900
H  51.18900 41.18400 40.33200
H  52.72000 40.60500 41.04200
H  56.15700 44.47700 42.20400
H  56.98300 42.94200 42.05400
H  55.81900 43.29600 43.48100
H  55.26800 48.11600 43.33600
H  53.63800 49.16100 45.66500
H  54.91800 46.21600 45.32900
H  55.18700 47.74200 46.27800
H  56.32600 47.20900 45.06200
H  53.83400 51.11500 43.58300
H  55.48400 50.35000 43.69700
H  55.98400 51.96000 45.01100
H  55.04800 51.10200 46.27600
H  54.26400 52.32400 45.36400
H  49.55600 52.03800 45.04500
H  47.83700 52.05900 44.70200
H  48.88000 52.65700 43.43800
H  46.07200 48.92300 40.58700
H  42.76500 46.82400 41.00300
H  41.88100 48.33000 40.50500
H  42.15600 48.04000 42.20000

