158

Mg 36.43200 49.03900 24.91200
C  36.72400 47.52900 28.01200
C  34.54900 51.62000 26.52600
C  35.64400 50.34000 21.97500
C  37.94200 46.42100 23.38700
N  35.59800 49.47300 26.99300
C  36.04000 48.74200 28.12000
C  35.74200 49.53200 29.38100
C  34.91700 50.80100 28.86600
C  35.01700 50.61600 27.39400
C  33.52200 50.97300 29.49000
C  36.95500 50.02300 30.25400
C  36.89500 49.82500 31.73900
H  35.51400 49.58800 32.39400
N  35.23100 50.72100 24.32500
C  34.65000 51.71900 25.10300
C  34.04100 52.68900 24.26300
C  34.54100 52.35400 22.95700
C  35.16000 51.12400 23.02300
C  33.33300 53.97100 24.78700
C  34.44800 53.14700 21.69600
O  34.85800 52.76200 20.55500
C  33.86700 54.56200 21.68300
N  36.45000 48.27100 22.93900
C  36.18500 49.04900 21.89200
C  36.55200 48.39800 20.58100
C  37.47000 47.23800 21.06200
C  37.31200 47.32900 22.57200
C  35.34700 47.84400 19.74200
C  38.98700 47.46800 20.61300
C  39.33400 46.52900 19.46200
N  37.36600 47.36400 25.54700
C  37.93200 46.34800 24.81500
C  38.58100 45.34900 25.69200
C  38.06800 45.76200 26.99300
C  37.36500 46.97200 26.84800
C  39.32600 44.06700 25.38000
C  37.97800 45.42200 28.38300
O  38.50200 44.46700 29.05500
C  37.09600 46.58200 29.06100
C  35.95600 46.07700 29.84200
O  34.89700 45.79000 29.44500
O  36.44000 45.70800 31.06500
C  35.59500 44.94700 32.01900
H  33.96600 52.42000 26.98700
H  35.60900 50.75400 20.96500
H  38.54600 45.63200 22.93500
H  35.16800 48.78700 29.93400
H  35.49100 51.70900 29.04900
H  33.22300 50.11900 30.09700
H  32.71400 50.99700 28.75900
H  33.35200 51.86000 30.10100
H  37.18100 51.08900 30.22600
H  37.82900 49.45300 29.94100
H  37.35000 50.69400 32.21500
H  37.47500 48.93400 31.97800
H  34.03800 54.80200 24.79200
H  32.89000 53.69600 25.74500
H  32.56100 54.15700 24.04100
H  33.88900 54.91600 20.65200
H  34.25300 55.36200 22.31400
H  32.78500 54.48700 21.79100
H  36.99600 49.17700 19.96100
H  37.03700 46.27200 20.80200
H  34.43800 47.99200 20.32500
H  35.47300 46.79400 19.47600
H  35.31500 48.43100 18.82500
H  39.75200 47.20300 21.34300
H  39.08500 48.53300 20.40500
H  40.20100 45.96700 19.81100
H  39.54100 46.97700 18.49000
H  38.49500 45.84700 19.32600
H  38.78600 43.39700 24.71100
H  39.52900 43.65400 26.36800
H  40.20700 44.37800 24.81900
H  37.80700 47.09500 29.70800
H  36.15800 44.08400 32.37200
H  34.59100 44.65500 31.71000
H  35.52900 45.65200 32.84800
Mg 26.96200 50.11300 26.97100
C  24.91100 51.21100 29.73600
C  29.22300 48.98500 29.10700
C  29.11800 49.96700 24.39000
C  24.56700 51.63600 24.84500
N  27.07400 50.33500 29.15900
C  26.07900 50.60700 30.13700
C  26.64800 50.33700 31.57700
C  28.08700 49.61000 31.27500
C  28.12500 49.61800 29.73300
C  29.31200 50.33600 31.99100
C  25.69300 49.46600 32.48700
C  25.21300 50.11100 33.79600
H  25.30200 49.16400 34.99800
N  28.86400 49.51900 26.76900
C  29.62200 48.98800 27.74500
C  30.86700 48.37800 27.13900
C  30.78400 48.63500 25.77000
C  29.57000 49.45600 25.54900
C  31.97900 47.77000 27.99500
C  31.75300 48.30800 24.65500
O  31.63600 48.62500 23.44200
C  33.05000 47.57400 24.97000
N  26.89200 50.85400 24.96100
C  27.91300 50.55600 24.07600
C  27.45900 50.78100 22.61900
C  25.94100 51.01100 22.75300
C  25.76200 51.23100 24.27800
C  28.20000 51.95800 21.98800
C  25.04900 49.80100 22.23400
C  24.25200 49.95600 20.95100
N  25.00000 51.18400 27.15700
C  24.19300 51.69000 26.19200
C  22.96100 52.07200 26.82900
C  23.27400 51.97500 28.20900
C  24.47900 51.37100 28.30200
C  21.69700 52.43700 26.18500
C  22.65700 52.09500 29.51000
O  21.52700 52.50500 29.78900
C  23.63900 51.64100 30.55700
C  23.88100 52.66700 31.56300
O  24.84400 53.48300 31.57300
O  22.96900 52.52700 32.56500
C  23.09500 53.49500 33.71300
H  29.85400 48.44500 29.81600
H  29.80600 49.85700 23.54800
H  23.76600 51.97400 24.18400
H  26.82300 51.31900 32.01700
H  28.03800 48.58400 31.63800
H  29.00700 50.77800 32.93900
H  29.89600 51.00600 31.36000
H  30.03200 49.53900 32.18000
H  26.14900 48.49300 32.67200
H  24.81600 49.21500 31.88900
H  24.15600 50.31500 33.62700
H  25.63700 51.08700 34.03000
H  31.75200 48.06800 29.01800
H  32.95300 48.17300 27.71900
H  32.03700 46.69000 27.86400
H  32.97200 46.56700 25.37800
H  33.55300 48.22800 25.68200
H  33.61500 47.62600 24.03900
H  27.53700 49.85300 22.05300
H  25.51400 51.91900 22.32600
H  28.52900 51.59100 21.01500
H  29.07700 52.39400 22.46500
H  27.52600 52.79400 21.80400
H  24.41000 49.34800 22.99100
H  25.72600 48.99100 21.96400
H  24.52600 49.20700 20.20800
H  24.37600 51.00400 20.67600
H  23.20100 49.77700 21.17900
H  20.84200 52.34000 26.85500
H  21.58300 51.98500 25.19900
H  21.78400 53.50300 25.97800
H  23.21500 50.79500 31.09800
H  23.32700 52.92000 34.60900
H  22.12900 53.88400 34.03500
H  23.78500 54.33000 33.59300

