158

Mg 44.33200 4.93900 47.45300
C  42.30300 7.65300 46.50400
C  41.74300 2.84100 46.50400
C  46.57600 2.48400 47.32200
C  47.03200 7.25400 47.14900
N  42.19300 5.26900 46.80000
C  41.63500 6.43100 46.42400
C  40.30700 6.26200 45.75400
C  39.98400 4.73500 46.12100
C  41.39500 4.18800 46.52400
C  38.95800 4.60700 47.31200
C  40.31000 6.52700 44.23700
C  39.47000 7.71000 43.71600
H  40.11900 8.55900 42.60600
N  44.08300 2.86400 47.22800
C  43.01000 2.27100 46.73900
C  43.35900 0.84800 46.51600
C  44.70000 0.68500 46.93500
C  45.23900 2.01500 47.22500
C  42.42200 -0.18800 46.07300
C  45.42600 -0.65700 47.01600
O  44.92700 -1.70900 46.63500
C  46.74800 -0.79400 47.57800
N  46.53000 4.86600 47.16100
C  47.19100 3.73800 47.25300
C  48.66800 3.88100 47.16200
C  48.87500 5.44200 47.18300
C  47.42100 5.92200 47.16300
C  49.48700 3.13900 48.18500
C  49.59000 6.10400 45.92400
C  50.71500 5.31900 45.19300
N  44.60700 7.06800 47.07800
C  45.77700 7.80200 47.11500
C  45.41500 9.17500 47.08300
C  44.03900 9.20800 46.81000
C  43.61000 7.88800 46.83800
C  46.28300 10.40900 47.13700
C  42.91200 9.97900 46.50100
O  42.86200 11.15400 46.13500
C  41.69600 9.00200 46.36700
C  40.82600 9.13500 47.54400
O  40.93900 8.68800 48.67900
O  39.73800 9.89800 47.28200
C  38.71000 10.28100 48.34000
H  40.98100 2.20700 46.04400
H  47.39400 1.80300 47.07600
H  47.86900 7.95300 47.09200
H  39.55000 6.91000 46.19600
H  39.52200 4.08200 45.38000
H  39.36200 4.33700 48.28700
H  38.23700 3.81700 47.10300
H  38.39200 5.53900 47.30200
H  39.98000 5.62700 43.71900
H  41.29900 6.74600 43.83300
H  39.23100 8.36600 44.55200
H  38.53600 7.31000 43.32100
H  41.59000 0.27200 45.54100
H  42.02100 -0.73200 46.92800
H  42.96800 -0.83800 45.38900
H  47.44600 -0.45400 46.81200
H  46.84800 -1.84300 47.85900
H  46.81000 -0.21900 48.50200
H  49.00000 3.48700 46.20200
H  49.43300 5.89300 48.00400
H  50.17700 3.83400 48.66300
H  50.11000 2.35500 47.75400
H  48.87600 2.85100 49.04200
H  50.17000 6.95900 46.27200
H  48.81700 6.46300 45.24400
H  51.60300 5.92000 45.00100
H  50.17900 4.90100 44.34100
H  50.92000 4.51500 45.90000
H  46.29300 10.79900 48.15500
H  45.89600 11.24700 46.55900
H  47.25200 9.99700 46.85500
H  41.13500 9.25600 45.46800
H  37.75900 10.41800 47.82600
H  38.89800 11.23100 48.84000
H  38.65600 9.52700 49.12500
Mg -1.30300 34.26600 27.24200
C  -3.02200 32.56400 29.89600
C  -0.02100 36.38700 29.75900
C  0.16400 35.95800 24.90700
C  -3.03700 32.28100 24.92200
N  -1.58500 34.41200 29.69300
C  -2.31500 33.65100 30.50100
C  -2.00600 34.05500 31.89900
C  -1.12900 35.41300 31.82600
C  -0.89600 35.42600 30.30400
C  -1.83700 36.65100 32.38500
C  -1.31800 32.92700 32.74300
C  -1.97100 32.60000 34.08200
H  -0.93400 32.49300 35.22800
N  -0.17000 35.96500 27.28700
C  0.39500 36.59400 28.40900
C  1.36800 37.59300 27.95800
C  1.42800 37.52000 26.56400
C  0.37100 36.51500 26.17500
C  2.17200 38.53900 28.89600
C  2.28900 38.32200 25.57300
O  2.33300 38.13600 24.33300
C  3.13100 39.42500 26.05500
N  -1.46700 34.24900 25.22600
C  -0.75000 35.08700 24.41100
C  -0.93900 34.65700 22.92200
C  -1.95700 33.46000 22.93600
C  -2.11400 33.30800 24.49600
C  -1.27200 35.85400 21.91200
C  -1.56600 32.26700 22.14900
C  -0.86100 31.08600 22.88600
N  -2.64900 32.68600 27.32100
C  -3.33100 32.08300 26.27700
C  -4.15700 31.03000 26.86000
C  -3.98500 31.13800 28.25100
C  -3.09300 32.17200 28.49000
C  -5.09900 30.10800 26.07500
C  -4.41200 30.54800 29.50200
O  -5.12300 29.58300 29.71400
C  -3.92000 31.50300 30.62900
C  -5.09800 32.21100 31.30400
O  -5.84600 33.07300 30.82300
O  -5.28200 31.64600 32.52500
C  -6.38300 32.22200 33.29600
H  0.36200 37.05300 30.53500
H  0.70100 36.46400 24.10300
H  -3.50600 31.55500 24.25500
H  -2.94200 34.43900 32.30600
H  -0.21800 35.26100 32.40500
H  -2.71300 36.48400 33.01200
H  -1.96500 37.40200 31.60500
H  -1.04900 37.07900 33.00600
H  -0.24000 33.03200 32.86600
H  -1.53200 31.99400 32.22200
H  -2.26600 31.55100 34.10100
H  -2.78100 33.22900 34.45300
H  2.08500 39.57500 28.56900
H  3.21900 38.23900 28.94700
H  1.90100 38.43500 29.94600
H  3.69800 39.80000 25.20300
H  3.73200 38.97000 26.84300
H  2.52000 40.22300 26.47800
H  0.10200 34.38500 22.74800
H  -2.97800 33.75700 22.69800
H  -0.49200 36.11900 21.19800
H  -1.33000 36.76900 22.50100
H  -2.21800 35.76700 21.37700
H  -0.88300 32.40600 21.31100
H  -2.54500 31.91500 21.82600
H  -1.68100 30.36900 22.93300
H  -0.63400 31.47400 23.87800
H  -0.11200 30.55100 22.30200
H  -5.26700 30.59800 25.11600
H  -6.11500 30.10700 26.47000
H  -4.81300 29.06300 25.95500
H  -3.36100 30.95400 31.38700
H  -7.11100 32.79200 32.72000
H  -5.92100 32.91100 34.00300
H  -6.89800 31.47100 33.89600

