158

Mg 17.69000 51.39900 26.38300
C  19.63200 49.92500 28.83600
C  15.44200 52.10400 28.76700
C  15.58700 52.45400 23.87000
C  19.79300 50.01200 23.94500
N  17.56500 51.10100 28.55500
C  18.52500 50.52600 29.39600
C  18.08300 50.56100 30.83000
C  16.47600 50.74500 30.66700
C  16.45900 51.34100 29.27600
C  15.57400 49.43600 30.72100
C  18.73500 51.75000 31.53900
C  19.02400 51.46800 33.01800
H  17.81800 50.82400 33.87700
N  15.81900 52.32600 26.34600
C  15.11700 52.60800 27.46800
C  13.92600 53.34800 27.05300
C  13.84900 53.31200 25.60200
C  15.09400 52.67500 25.21100
C  13.02600 54.01000 28.11700
C  12.70600 53.86900 24.74000
O  12.90800 53.85600 23.52300
C  11.49800 54.54000 25.28800
N  17.61000 51.17000 24.21400
C  16.71800 51.80300 23.42600
C  17.32800 52.02900 22.02200
C  18.72700 51.36000 22.07700
C  18.72900 50.80200 23.52100
C  16.46100 51.57400 20.83300
C  19.96900 52.41000 21.93200
C  21.29900 51.77100 21.39000
N  19.35000 50.17400 26.31300
C  20.11300 49.69900 25.23000
C  21.18300 48.83400 25.74100
C  21.08400 48.94400 27.15500
C  19.98200 49.75300 27.47800
C  22.25100 48.22900 24.93500
C  21.63200 48.48100 28.45500
O  22.55400 47.68700 28.72300
C  20.75400 49.18500 29.55700
C  20.21800 48.16500 30.47600
O  19.39000 47.33300 30.27600
O  20.85400 48.24200 31.71100
C  20.65600 47.16900 32.67700
H  14.63500 52.30300 29.47600
H  15.05600 52.96900 23.06700
H  20.48800 49.76500 23.14000
H  18.22100 49.63000 31.37900
H  16.12700 51.56200 31.29800
H  14.85100 49.31700 29.91400
H  14.89300 49.56000 31.56300
H  16.21600 48.57000 30.88000
H  18.11500 52.63400 31.39200
H  19.69300 51.94200 31.05700
H  19.18400 52.49000 33.36400
H  19.92100 50.85000 33.06200
H  13.48900 54.08200 29.10100
H  12.23100 53.28200 28.27600
H  12.67400 54.97200 27.74600
H  10.80600 54.53700 24.44600
H  11.69500 55.51800 25.72500
H  10.96400 53.96800 26.04700
H  17.37700 53.10900 21.88100
H  18.77400 50.61500 21.28200
H  16.59400 50.50000 20.70400
H  16.75000 52.14000 19.94800
H  15.40600 51.69600 21.07900
H  20.08800 53.00700 22.83700
H  19.84200 53.17400 21.16500
H  21.32000 50.69000 21.52800
H  22.17200 52.13900 21.92900
H  21.57200 51.95000 20.35000
H  22.00800 47.27000 24.47700
H  23.13000 48.18500 25.57900
H  22.34700 48.93000 24.10600
H  21.37000 49.90300 30.09800
H  20.44500 46.23000 32.16400
H  19.80600 47.46900 33.28900
H  21.52200 47.14500 33.33900
Mg 10.10500 47.61400 25.67000
C  8.17600 47.65000 28.64100
C  12.77800 48.51600 27.56400
C  11.93700 46.94000 23.09200
C  7.08700 47.05300 23.89400
N  10.41300 48.12200 27.89600
C  9.49100 48.15800 28.95600
C  10.16200 48.52400 30.29900
C  11.64500 48.87600 29.88200
C  11.65000 48.42200 28.41700
C  11.94400 50.43200 30.01800
C  10.04600 47.35700 31.36700
C  11.06900 47.23700 32.57900
H  10.65600 46.35700 33.69300
N  12.09900 47.73100 25.36900
C  13.04600 48.18500 26.21300
C  14.38000 48.07100 25.53400
C  14.18100 47.57700 24.24200
C  12.70400 47.44000 24.17700
C  15.68700 48.35900 26.23700
C  15.21200 47.37300 23.04500
O  14.81300 47.05500 21.92400
C  16.67200 47.56900 23.32500
N  9.54000 47.09600 23.79000
C  10.55300 46.75700 22.90100
C  9.91800 46.14700 21.59100
C  8.45900 46.59200 21.69900
C  8.31700 46.89800 23.24800
C  10.59500 46.61800 20.27900
C  7.28000 45.73200 21.20500
C  7.31000 45.27500 19.80000
N  8.05600 47.46400 26.15000
C  6.95300 47.25100 25.33000
C  5.76600 47.09500 26.08200
C  6.21800 47.21200 27.44800
C  7.60000 47.45700 27.40500
C  4.33000 46.73400 25.52500
C  5.73200 47.16400 28.82400
O  4.54600 47.03400 29.24400
C  7.01400 47.45600 29.62900
C  7.10100 46.27900 30.49200
O  7.48900 45.18700 30.06300
O  6.84300 46.50700 31.82400
C  7.14600 45.41600 32.72300
H  13.74300 48.84800 27.95300
H  12.58500 46.58300 22.28900
H  6.28100 46.60500 23.30900
H  9.61200 49.34000 30.77000
H  12.38900 48.23200 30.35100
H  11.15500 50.83900 30.64900
H  11.91300 50.89200 29.03000
H  12.85800 50.59400 30.59000
H  10.01100 46.45900 30.75000
H  9.06900 47.47400 31.83600
H  11.11200 48.23100 33.02300
H  12.09000 47.06900 32.23700
H  16.30300 47.48400 26.44500
H  15.56600 48.97600 27.12700
H  16.34900 48.95300 25.60600
H  17.02400 47.08400 24.23500
H  16.97100 48.61700 23.33000
H  17.24000 47.15900 22.48900
H  10.00400 45.06400 21.50400
H  8.51800 47.58300 21.24800
H  11.27900 47.44900 20.45100
H  9.97000 46.95300 19.45100
H  11.20300 45.78100 19.93700
H  6.45600 46.44200 21.28200
H  7.17900 44.81400 21.78300
H  8.29400 45.49200 19.38300
H  6.50800 45.74800 19.23400
H  7.27300 44.18600 19.79100
H  4.20200 45.65500 25.44500
H  4.26500 47.37000 24.64200
H  3.71300 47.23100 26.27400
H  6.87600 48.39500 30.16300
H  6.78500 45.40700 33.75100
H  8.23500 45.36000 32.74700
H  6.66200 44.50600 32.36900

