158

Mg 2.38500 -1.41200 43.81700
C  5.85900 -0.82800 43.27000
C  1.75500 1.06900 41.64000
C  -0.79200 -2.50500 43.74000
C  3.35300 -4.44300 45.52600
N  3.73700 -0.14000 42.52000
C  5.09800 0.02400 42.53500
C  5.53900 1.04300 41.52300
C  4.13500 1.63500 41.08000
C  3.07500 0.86900 41.87400
C  4.01200 3.12600 41.26600
C  6.34200 0.43400 40.36400
C  7.71700 1.17300 40.22900
H  8.16200 1.64000 38.80900
N  0.67700 -0.73800 42.89800
C  0.61000 0.40500 42.07500
C  -0.78600 0.67800 41.80300
C  -1.58400 -0.37500 42.39200
C  -0.57800 -1.29400 43.05000
C  -1.24100 1.82900 41.06400
C  -3.08300 -0.48200 42.35100
O  -3.81800 0.30300 41.78700
C  -3.86300 -1.64500 43.07700
N  1.48600 -3.28100 44.39900
C  0.12700 -3.35200 44.35500
C  -0.34800 -4.59600 45.15300
C  0.90300 -5.40100 45.48800
C  2.00500 -4.31100 45.17000
C  -1.26900 -4.09300 46.38000
C  1.06100 -6.69800 44.70800
C  0.95000 -8.01200 45.46300
N  4.21100 -2.42400 44.35500
C  4.39200 -3.56300 45.06900
C  5.81500 -3.77600 45.36000
C  6.41900 -2.63800 44.66200
C  5.40500 -1.90000 44.05200
C  6.46500 -4.93600 46.09300
C  7.63500 -1.97200 44.49500
O  8.72000 -2.20400 44.98000
C  7.41200 -0.77200 43.52200
C  7.97900 0.40200 44.15100
O  7.63400 0.86700 45.24800
O  8.90100 0.91900 43.33500
C  9.37600 2.27300 43.62700
H  1.47400 1.87700 40.96200
H  -1.84500 -2.78200 43.82000
H  3.62600 -5.37100 46.03100
H  6.14100 1.65000 42.20000
H  4.08300 1.50100 39.99900
H  4.98500 3.61000 41.34900
H  3.56400 3.35600 42.23200
H  3.47300 3.61100 40.45200
H  5.73900 0.42600 39.45600
H  6.69600 -0.57400 40.57800
H  8.54600 0.53000 40.52400
H  7.81400 2.06500 40.84800
H  -2.03800 2.34600 41.59900
H  -1.70300 1.48400 40.13900
H  -0.49500 2.60200 40.88100
H  -4.87000 -1.23300 43.13400
H  -3.51200 -1.63700 44.10900
H  -3.77900 -2.63900 42.63800
H  -1.01000 -5.17100 44.50600
H  1.00900 -5.50100 46.56800
H  -1.73400 -3.14500 46.10800
H  -0.65500 -3.92900 47.26600
H  -2.06300 -4.81700 46.55800
H  1.95600 -6.68200 44.08600
H  0.24000 -6.69500 43.99200
H  1.74900 -8.67700 45.13500
H  -0.02800 -8.43400 45.23200
H  0.92000 -7.79400 46.53000
H  6.36400 -4.68800 47.15000
H  7.46800 -5.04800 45.67900
H  5.93400 -5.88100 45.97900
H  7.93800 -1.05600 42.61100
H  10.19500 2.19400 44.34100
H  8.58400 2.88100 44.06400
H  9.65700 2.77400 42.70100
Mg 27.12500 49.92800 26.86100
C  25.09900 51.07000 29.49200
C  29.50400 49.12700 29.19000
C  29.03800 49.25500 24.27100
C  24.72900 51.45000 24.67400
N  27.13800 49.98500 29.12100
C  26.27900 50.54100 29.98700
C  26.77400 50.31200 31.51000
C  28.19900 49.75300 31.35000
C  28.31000 49.66300 29.75800
C  29.40500 50.54000 32.03500
C  25.80100 49.43200 32.32900
C  25.59200 49.86100 33.78900
H  24.94300 48.75000 34.70400
N  28.99700 49.27400 26.77100
C  29.87200 48.98600 27.79800
C  31.08600 48.49200 27.22600
C  31.03200 48.76100 25.87200
C  29.62500 49.10000 25.56200
C  32.18200 48.12500 28.12000
C  32.14500 48.61900 24.83500
O  31.99900 48.87600 23.66600
C  33.46900 48.10700 25.28300
N  26.98800 50.42800 24.76300
C  27.83300 49.87100 23.90400
C  27.42000 50.09300 22.48300
C  26.01100 50.60500 22.60200
C  25.91300 50.87800 24.09900
C  28.39000 51.03900 21.66800
C  24.82600 49.61600 22.02900
C  24.59600 48.27000 22.85100
N  25.29900 51.04200 27.00500
C  24.43300 51.53100 26.02300
C  23.32200 52.27400 26.67000
C  23.56000 52.08300 28.00900
C  24.75900 51.30200 28.15700
C  22.24000 53.12400 26.12200
C  23.01000 52.38600 29.28300
O  21.92900 53.01500 29.52600
C  23.93300 51.79800 30.31400
C  24.47000 52.96300 31.08800
O  25.56500 53.47600 30.96900
O  23.57300 53.31200 32.08400
C  24.03200 53.90400 33.31300
H  30.14100 48.69500 29.96500
H  29.71400 48.96400 23.46400
H  24.03200 51.97200 24.01500
H  26.91800 51.29700 31.95400
H  28.33900 48.77100 31.80200
H  29.00700 51.47500 32.43100
H  30.14300 50.67000 31.24400
H  29.89600 49.94500 32.80500
H  26.04600 48.37400 32.23600
H  24.85800 49.49000 31.78600
H  24.92000 50.71900 33.80500
H  26.57600 50.12000 34.18100
H  31.85700 47.85800 29.12500
H  32.76600 49.02900 28.29100
H  32.83300 47.32200 27.77400
H  34.20300 48.49400 24.57600
H  33.58800 47.02700 25.37200
H  33.73600 48.50000 26.26400
H  27.40900 49.11800 21.99600
H  25.84800 51.62700 22.26300
H  27.95600 52.03800 21.62300
H  28.59500 50.57200 20.70500
H  29.30200 50.97700 22.26100
H  24.99500 49.42600 20.96900
H  23.89500 50.18200 22.05400
H  24.96300 48.40700 23.86800
H  25.04900 47.34500 22.49500
H  23.52800 48.06600 22.91900
H  22.48000 53.31400 25.07500
H  22.15000 54.03700 26.71100
H  21.35800 52.50000 26.26400
H  23.32800 51.15700 30.95500
H  25.08700 53.68200 33.47500
H  23.42700 53.56600 34.15400
H  23.82600 54.97200 33.36500

