158

Mg 30.01200 57.89800 40.18900
C  27.60000 55.79500 38.94900
C  32.51700 56.02200 39.08500
C  32.11200 60.64500 40.86700
C  27.28400 60.31300 40.90500
N  29.98600 56.06100 39.21200
C  28.93700 55.36500 38.75400
C  29.35200 53.92800 38.30300
C  30.88200 53.97500 38.51200
C  31.20500 55.45500 38.87600
C  31.61000 52.93300 39.45100
C  28.98100 53.53700 36.79600
C  28.86100 54.68400 35.80500
H  27.86600 54.55600 34.65400
N  32.04500 58.20600 40.14000
C  32.91100 57.28000 39.60500
C  34.23400 57.74000 39.85900
C  34.16900 59.08100 40.29000
C  32.70100 59.38400 40.42500
C  35.47000 56.95300 39.59200
C  35.43000 60.07700 40.44800
O  36.57500 59.79500 40.12500
C  35.24100 61.47600 41.07900
N  29.73000 60.22000 40.73400
C  30.80200 61.01000 41.06500
C  30.29800 62.43400 41.61100
C  28.79200 62.12600 41.72900
C  28.53000 60.78800 41.07200
C  30.96700 63.03900 42.88000
C  27.90200 63.30000 41.40100
C  27.19200 63.89300 42.61800
N  27.88400 58.04400 40.02100
C  26.94100 59.03400 40.38400
C  25.64000 58.58900 40.00900
C  25.84200 57.33600 39.41000
C  27.22300 57.06200 39.49000
C  24.37100 59.40300 40.08100
C  25.16600 56.24400 38.75200
O  24.02500 56.15200 38.41800
C  26.29800 55.15800 38.50800
C  25.88400 53.99900 39.26600
O  26.25300 53.61600 40.42100
O  24.85400 53.38600 38.59500
C  23.96000 52.45400 39.31300
H  33.37200 55.38800 38.84300
H  32.71500 61.44900 41.29400
H  26.44000 60.95900 41.15700
H  28.87000 53.29900 39.05200
H  31.37200 53.94200 37.53900
H  30.88800 52.18900 39.78700
H  32.12000 53.47700 40.24600
H  32.41400 52.45800 38.88800
H  28.06300 52.95200 36.86400
H  29.77700 52.86300 36.48100
H  29.80800 54.95800 35.33800
H  28.57400 55.59100 36.33600
H  35.27800 55.88400 39.49100
H  36.36800 57.12500 40.18400
H  35.63400 57.18000 38.53800
H  36.20600 61.90300 41.35100
H  34.76800 61.34100 42.05100
H  34.81100 62.13900 40.32800
H  30.40000 63.13900 40.78600
H  28.75100 61.88900 42.79200
H  31.74500 62.39800 43.29500
H  30.24000 63.24100 43.66600
H  31.49900 63.97000 42.68300
H  27.15800 63.09000 40.63300
H  28.49200 64.13400 41.02200
H  27.82300 64.55400 43.21100
H  26.83300 63.18500 43.36500
H  26.35000 64.49100 42.26900
H  24.48200 60.11800 40.89600
H  23.54600 58.71700 40.27200
H  24.19700 59.97600 39.17000
H  26.24500 55.04200 37.42500
H  23.56800 51.82000 38.51900
H  23.20000 53.10100 39.75100
H  24.50900 51.84800 40.03400
Mg -12.12000 38.56600 41.82600
C  -9.75400 36.05800 40.97900
C  -10.14300 40.79700 40.09400
C  -14.71200 40.70800 41.89700
C  -14.13400 36.02800 43.15400
N  -10.27100 38.41300 40.43700
C  -9.52900 37.24200 40.30500
C  -8.24200 37.47300 39.57200
C  -8.27700 39.07500 39.45500
C  -9.60100 39.49600 40.02800
C  -7.12600 39.76300 40.17800
C  -8.02100 36.68200 38.24000
C  -6.70600 35.89900 38.09500
H  -6.05300 36.14100 36.73300
N  -12.42500 40.44800 41.12000
C  -11.46600 41.15800 40.48200
C  -12.01700 42.48800 40.14500
C  -13.35700 42.50600 40.61600
C  -13.55900 41.18600 41.25700
C  -11.20700 43.57700 39.36600
C  -14.34300 43.74500 40.45400
O  -14.00100 44.74900 39.89500
C  -15.81100 43.70200 40.95600
N  -14.08500 38.42200 42.54000
C  -14.91200 39.44600 42.54100
C  -16.32100 38.96600 43.10500
C  -16.10400 37.52800 43.52700
C  -14.69000 37.26000 43.02700
C  -16.95800 39.94600 44.13600
C  -17.08000 36.43200 42.98600
C  -17.74800 35.53700 44.04700
N  -11.99000 36.43300 42.05200
C  -12.87000 35.53400 42.66100
C  -12.22100 34.21200 42.75800
C  -10.99000 34.37300 42.17200
C  -10.87100 35.71800 41.74200
C  -12.82000 33.06600 43.48300
C  -9.72700 33.70300 41.76700
O  -9.35900 32.56000 41.95800
C  -8.89900 34.80800 41.02300
C  -7.66300 34.90900 41.79200
O  -6.60700 34.32800 41.53900
O  -7.74200 35.84600 42.77900
C  -6.51700 36.21300 43.52100
H  -9.52000 41.61900 39.73600
H  -15.66700 41.23700 41.90700
H  -14.74000 35.29700 43.69500
H  -7.53700 37.12800 40.32800
H  -8.06500 39.34100 38.41900
H  -7.46400 40.58200 40.81200
H  -6.37500 40.06200 39.44700
H  -6.58400 39.07000 40.82100
H  -8.09100 37.38200 37.40800
H  -8.85400 36.00100 38.06300
H  -6.88800 34.85900 38.36500
H  -6.11100 36.23800 38.94400
H  -10.60200 43.06000 38.62100
H  -10.68200 44.26700 40.02700
H  -11.89700 44.17700 38.77300
H  -15.94300 43.54800 42.02700
H  -16.34400 42.89100 40.45800
H  -16.30500 44.63000 40.66800
H  -16.93000 39.04100 42.20400
H  -16.23100 37.51000 44.60900
H  -16.90400 39.56700 45.15600
H  -18.01000 40.17200 43.96200
H  -16.26500 40.78700 44.14200
H  -16.59300 35.83400 42.21500
H  -17.90400 36.85500 42.41100
H  -17.52800 35.82600 45.07500
H  -17.51600 34.48400 43.88500
H  -18.82700 35.54100 43.89200
H  -12.69500 32.18400 42.85600
H  -13.88200 33.27300 43.61300
H  -12.28900 32.73400 44.37500
H  -8.68100 34.45000 40.01700
H  -6.89600 36.70500 44.41600
H  -5.88500 36.89000 42.94500
H  -5.91900 35.35400 43.82700

