158

Mg 54.38500 25.20100 43.21800
C  51.60600 27.32000 42.81100
C  52.47700 22.58800 42.14400
C  57.25700 23.40800 42.84200
C  56.22200 28.07200 44.09700
N  52.28100 25.05500 42.50200
C  51.30900 26.01400 42.48500
C  49.95600 25.34300 42.21600
C  50.21800 23.87100 42.45800
C  51.74200 23.79700 42.36100
C  49.90800 23.26600 43.81900
C  49.33500 25.57900 40.77700
C  50.39700 26.05100 39.65600
H  50.99100 24.96200 38.79500
N  54.80200 23.21200 42.64600
C  53.84800 22.28000 42.25300
C  54.49600 20.99500 42.01900
C  55.93000 21.18400 42.24700
C  56.08600 22.64000 42.55800
C  53.66700 19.80600 41.63900
C  56.95800 20.12400 42.16400
O  56.68900 19.02700 41.82300
C  58.35900 20.33200 42.64600
N  56.43700 25.69900 43.38900
C  57.42900 24.76900 43.29700
C  58.88100 25.39900 43.50800
C  58.47400 26.85800 43.88500
C  56.88700 26.86300 43.86300
C  59.76800 24.63200 44.52100
C  59.12500 27.91800 43.03700
C  60.30600 28.70200 43.56800
N  54.02500 27.29200 43.38000
C  54.84800 28.31900 43.86200
C  54.04700 29.52200 44.06200
C  52.75100 29.16100 43.65200
C  52.82700 27.79300 43.21400
C  54.54600 30.85000 44.66100
C  51.37300 29.60500 43.63600
O  50.97600 30.71900 43.96600
C  50.55600 28.48400 43.03100
C  49.95300 28.99400 41.78000
O  50.47500 29.17200 40.63400
O  48.62200 29.16000 41.96800
C  47.83700 29.49300 40.76800
H  51.89200 21.69500 41.91600
H  58.16700 22.84900 42.61400
H  56.79700 28.93100 44.45000
H  49.20900 25.78100 42.87800
H  49.75700 23.33900 41.62600
H  50.67700 22.69900 44.34300
H  49.10800 22.57400 43.55500
H  49.61900 23.96200 44.60600
H  48.48100 26.25600 40.78000
H  48.80400 24.69400 40.42800
H  51.23800 26.59700 40.08400
H  49.89300 26.64500 38.89300
H  53.37300 19.87700 40.59200
H  52.77100 19.68600 42.24900
H  54.25000 18.88500 41.63200
H  58.79100 19.44300 43.10500
H  58.28000 21.02800 43.48100
H  58.98900 20.73300 41.85100
H  59.41100 25.26700 42.56400
H  58.71900 27.11800 44.91400
H  59.54200 23.57000 44.43100
H  59.39800 24.90800 45.50800
H  60.81100 24.90900 44.36900
H  58.34700 28.61400 42.72000
H  59.52000 27.53900 42.09400
H  60.18500 29.78300 43.49200
H  61.23500 28.44200 43.06100
H  60.48500 28.56100 44.63400
H  55.10100 30.76500 45.59500
H  53.57200 31.28900 44.87700
H  55.09300 31.33300 43.85200
H  49.81600 28.20000 43.78000
H  47.67800 28.62600 40.12600
H  48.34900 30.28100 40.21600
H  46.84600 29.83400 41.06600
Mg 47.76000 25.33600 29.55700
C  48.76900 27.40200 31.97500
C  46.41600 23.25500 31.98300
C  46.93600 22.95000 27.19100
C  49.38600 27.21600 27.15600
N  47.56400 25.39800 31.69700
C  47.98600 26.39100 32.48700
C  47.78800 26.11600 33.92700
C  47.06000 24.74200 33.90100
C  46.97900 24.42700 32.43500
C  47.84500 23.61300 34.75400
C  46.93500 27.20500 34.79500
C  47.30700 27.25600 36.33300
H  46.16700 26.97700 37.30300
N  46.56200 23.40400 29.52900
C  46.11500 22.75500 30.64600
C  45.49300 21.48600 30.26600
C  45.60600 21.38700 28.83200
C  46.44100 22.56800 28.44500
C  44.79900 20.60600 31.23200
C  45.06400 20.28100 27.90600
O  45.36700 20.18200 26.74500
C  44.24200 19.18600 28.44000
N  48.20400 25.02100 27.46300
C  47.61600 24.11700 26.71800
C  47.61500 24.49200 25.20100
C  48.36400 25.85800 25.20100
C  48.70400 26.04700 26.69500
C  48.12100 23.51000 24.10100
C  47.50200 27.09800 24.73200
C  48.26100 28.03300 23.65100
N  48.84000 26.91500 29.50300
C  49.51700 27.60900 28.49100
C  50.10100 28.79500 28.99800
C  49.88700 28.72300 30.34200
C  49.15400 27.62200 30.60800
C  50.83700 29.79200 28.12300
C  50.14000 29.38500 31.61700
O  50.62000 30.47200 31.90400
C  49.43300 28.48800 32.75700
C  50.53700 27.97300 33.59000
O  51.61500 27.52100 33.21900
O  50.19700 28.24000 34.87500
C  51.24600 27.84300 35.83200
H  46.10800 22.59100 32.79300
H  46.59300 22.38500 26.32200
H  49.72800 27.88200 26.36100
H  48.74500 25.97800 34.43100
H  46.08100 24.58500 34.35300
H  48.13100 22.73800 34.17000
H  47.13500 23.28800 35.51500
H  48.77700 23.98800 35.17800
H  45.87700 27.16800 34.53400
H  47.23800 28.19600 34.45600
H  47.68900 28.25700 36.53400
H  48.03000 26.45200 36.47500
H  43.76200 20.64600 30.90000
H  44.84000 20.87100 32.28900
H  45.14400 19.59400 31.02000
H  43.74400 18.57900 27.68300
H  43.57700 19.60300 29.19600
H  44.98200 18.59200 28.97600
H  46.55900 24.67000 24.99600
H  49.35800 25.81500 24.75600
H  48.67600 22.67600 24.52900
H  48.68900 24.08200 23.36600
H  47.26600 23.13400 23.53900
H  47.28500 27.69300 25.61900
H  46.62300 26.73800 24.19800
H  49.29100 27.67700 23.63000
H  48.06300 29.03300 24.03600
H  47.95100 27.84500 22.62300
H  50.99900 29.58100 27.06600
H  51.81900 29.94500 28.57100
H  50.26500 30.71300 28.23800
H  48.74500 29.10400 33.33500
H  51.34200 26.76000 35.75600
H  50.76700 27.99500 36.79900
H  52.23600 28.25500 35.63600

