158

Mg -2.17100 17.12800 26.63200
C  -2.90100 14.96100 29.29000
C  -2.97500 19.81500 28.81100
C  -2.00100 19.16800 24.06000
C  -2.11000 14.38600 24.49700
N  -2.78800 17.37800 28.82000
C  -3.04800 16.27200 29.70900
C  -3.50900 16.83100 31.01900
C  -3.44600 18.35300 30.87900
C  -3.04900 18.56200 29.43000
C  -4.69900 19.14800 31.21500
C  -2.83300 15.99500 32.20300
C  -2.63800 16.78300 33.54000
H  -2.50800 15.93400 34.84200
N  -2.36800 19.25200 26.51400
C  -2.61000 20.15200 27.52800
C  -2.37900 21.46300 26.94700
C  -2.16000 21.34400 25.56200
C  -2.22000 19.89400 25.27700
C  -2.62400 22.70000 27.80000
C  -1.86600 22.32700 24.59300
O  -1.59900 22.06400 23.40500
C  -1.82000 23.82500 24.86800
N  -2.23200 16.82900 24.57700
C  -2.07300 17.82400 23.70700
C  -1.81300 17.37100 22.28400
C  -1.55600 15.86600 22.52500
C  -1.94600 15.66400 23.96500
C  -2.95800 17.64600 21.29700
C  -0.16300 15.33600 22.15200
C  0.97700 15.77400 23.12800
N  -2.37400 15.09600 26.83000
C  -2.31000 14.11300 25.84900
C  -2.67100 12.83900 26.51600
C  -2.79800 13.12100 27.86100
C  -2.63500 14.50700 27.99300
C  -2.86100 11.53000 25.92900
C  -3.09300 12.57400 29.11200
O  -3.30600 11.41000 29.41100
C  -3.00900 13.67100 30.10200
C  -1.78300 13.43400 30.90700
O  -0.62300 13.79900 30.68600
O  -2.17700 12.60400 32.03800
C  -1.14400 12.32100 33.03600
H  -3.08700 20.68100 29.46700
H  -1.93600 19.76400 23.14800
H  -1.90800 13.49400 23.90000
H  -4.56900 16.57900 31.05300
H  -2.55400 18.71300 31.39300
H  -4.61500 20.07800 31.77800
H  -5.15000 18.55400 32.00900
H  -5.38500 19.35600 30.39400
H  -1.77600 15.81900 32.00500
H  -3.37100 15.08500 32.46700
H  -3.38100 17.55700 33.73600
H  -1.63800 17.21500 33.50300
H  -1.69000 23.13200 28.16000
H  -3.24300 22.57800 28.68900
H  -3.08300 23.40500 27.10700
H  -1.75100 24.48100 24.00000
H  -1.07800 23.96900 25.65300
H  -2.80200 24.18000 25.18100
H  -0.86200 17.81100 21.98300
H  -2.19700 15.18500 21.96400
H  -2.81400 17.05500 20.39300
H  -2.78500 18.66000 20.93700
H  -3.90300 17.50100 21.82100
H  0.08100 15.54300 21.11000
H  -0.26400 14.25300 22.08900
H  0.70900 16.05200 24.14700
H  1.39200 16.65200 22.63500
H  1.62500 14.90200 23.22000
H  -2.44700 10.84200 26.66600
H  -2.43700 11.51200 24.92500
H  -3.92700 11.32700 25.82300
H  -3.85500 13.54700 30.77900
H  -1.66400 12.03100 33.94900
H  -0.43100 13.11800 33.24700
H  -0.59600 11.46500 32.64400
Mg 1.84900 -1.32500 44.32600
C  5.19300 -0.19600 44.16900
C  0.89800 1.79000 43.25500
C  -1.28700 -2.40500 44.22500
C  2.92000 -4.51600 45.21500
N  2.94900 0.51400 43.70000
C  4.31700 0.82500 43.78700
C  4.59400 2.22100 43.16300
C  3.20900 2.94200 43.08600
C  2.32000 1.69100 43.33300
C  2.93900 4.07400 44.20000
C  5.24100 2.02700 41.79200
C  6.48500 2.93200 41.55900
H  7.55700 2.21100 40.79500
N  0.06500 -0.48000 43.64900
C  -0.14800 0.83200 43.33700
C  -1.52600 1.05100 43.10100
C  -2.20800 -0.17600 43.29100
C  -1.11800 -1.10000 43.76300
C  -2.03500 2.35700 42.68600
C  -3.66900 -0.51400 43.05000
O  -4.41100 0.35300 42.65900
C  -4.21100 -1.84700 43.29200
N  0.96600 -3.20300 44.50500
C  -0.40400 -3.32300 44.67500
C  -0.76600 -4.72400 44.96000
C  0.54300 -5.23800 45.58500
C  1.59900 -4.29500 45.02000
C  -2.11000 -4.98300 45.72900
C  0.76400 -6.73600 45.30900
C  1.16300 -7.70300 46.45000
N  3.63400 -2.19500 44.75300
C  3.89700 -3.54900 44.95200
C  5.30700 -3.59900 45.21600
C  5.86900 -2.38000 44.87400
C  4.81600 -1.55400 44.52800
C  5.99100 -4.77700 45.80300
C  7.18800 -1.58000 44.87100
O  8.34500 -1.94300 45.08300
C  6.68000 -0.09000 44.32900
C  7.17900 0.85000 45.37600
O  6.63500 1.05000 46.43800
O  8.24100 1.49000 44.84600
C  8.45700 2.77900 45.37300
H  0.52500 2.79500 43.04900
H  -2.25200 -2.91500 44.19100
H  3.18100 -5.50800 45.58800
H  5.18600 2.83100 43.84500
H  2.94900 3.41300 42.13800
H  3.79200 4.34300 44.82300
H  2.06600 3.75900 44.77200
H  2.54400 4.93200 43.65500
H  4.54400 2.17500 40.96700
H  5.52500 0.97700 41.72500
H  6.79900 3.36100 42.51100
H  6.21000 3.80700 40.97000
H  -3.06300 2.54500 42.99400
H  -1.86000 2.62700 41.64500
H  -1.61400 3.18500 43.25800
H  -3.78600 -2.68300 42.73700
H  -5.28200 -1.96300 43.12400
H  -4.12200 -2.11500 44.34500
H  -0.84000 -5.09900 43.93900
H  0.29700 -5.09200 46.63700
H  -2.70500 -4.11800 46.02000
H  -1.96700 -5.56600 46.63900
H  -2.81800 -5.37600 45.00000
H  1.60300 -6.89000 44.63000
H  -0.21400 -7.08100 44.97300
H  1.00200 -7.15800 47.38000
H  2.23500 -7.89900 46.43700
H  0.76500 -8.71700 46.39900
H  6.49300 -5.30300 44.99100
H  5.32800 -5.47600 46.31200
H  6.81400 -4.58600 46.49100
H  7.15900 0.16400 43.38300
H  7.49100 3.22800 45.60500
H  8.93600 3.43000 44.64200
H  8.93000 2.79000 46.35500

