158

Mg 54.04100 23.58700 44.18700
C  51.71500 26.18900 43.44500
C  51.82600 21.27900 43.11200
C  56.50000 21.50000 44.07500
C  56.34000 26.20000 44.70400
N  52.09100 23.70200 43.33000
C  51.34800 24.86600 43.01500
C  49.97100 24.51400 42.28300
C  49.91000 22.99800 42.57200
C  51.36600 22.62300 43.10600
C  48.76300 22.51400 43.55400
C  49.86300 24.84800 40.75100
C  51.05300 24.58400 39.75800
H  51.30500 25.48000 38.49000
N  54.09900 21.59500 43.67400
C  53.06700 20.77300 43.26600
C  53.58600 19.45200 43.34200
C  54.92600 19.44900 43.82700
C  55.26400 20.87000 43.84800
C  52.82100 18.26000 42.92800
C  55.79600 18.15500 44.01100
O  55.42100 17.12400 43.50100
C  57.18200 18.16200 44.61000
N  56.19800 23.86600 44.38500
C  57.00700 22.75400 44.27600
C  58.50500 23.04200 44.26200
C  58.47900 24.54900 44.66300
C  56.95600 24.91800 44.62600
C  59.56400 22.17300 45.04700
C  59.36200 25.38500 43.66900
C  60.24600 26.48700 44.25100
N  54.02000 25.72900 44.38700
C  54.99700 26.61600 44.58500
C  54.49400 27.99500 44.68700
C  53.16600 27.83100 44.24900
C  52.94400 26.43600 44.03300
C  55.20900 29.32200 45.22600
C  51.85800 28.52300 44.01100
O  51.51700 29.72800 44.13500
C  50.92000 27.56900 43.38100
C  50.77800 28.05100 41.95900
O  51.65600 28.27700 41.13800
O  49.43200 28.22700 41.73700
C  49.15800 29.19200 40.66900
H  51.01400 20.59200 42.86300
H  57.26000 20.74300 43.87100
H  56.97100 27.06900 44.90500
H  49.16400 24.97000 42.85500
H  49.61000 22.48400 41.65900
H  48.58300 23.30400 44.28300
H  49.15400 21.57500 43.94700
H  47.84800 22.27900 43.01000
H  49.58400 25.89100 40.59700
H  49.15200 24.15000 40.30900
H  50.95600 23.58400 39.33500
H  51.99400 24.48400 40.29800
H  53.18000 17.96100 41.94300
H  51.78000 18.58400 42.89600
H  52.92600 17.64600 43.82200
H  57.33700 18.82800 45.45800
H  57.92600 18.54000 43.90900
H  57.37100 17.14900 44.96600
H  58.73500 23.00200 43.19700
H  58.82900 24.72000 45.68100
H  60.37900 21.75300 44.45700
H  58.94300 21.43200 45.55200
H  59.92300 22.76700 45.88700
H  58.64700 25.74800 42.93100
H  60.08500 24.77000 43.13300
H  61.28300 26.60600 43.93600
H  60.33600 26.33800 45.32700
H  59.82300 27.47700 44.08300
H  55.65900 29.97800 44.48000
H  56.00500 28.91400 45.84900
H  54.44200 29.74000 45.87700
H  49.96900 27.44600 43.89900
H  49.29700 28.84600 39.64400
H  49.80300 30.06600 40.74400
H  48.09500 29.43200 40.69100
Mg 6.69400 54.32700 41.97800
C  5.89200 50.97600 41.67300
C  9.85600 53.66400 40.71500
C  7.33100 57.65300 41.45500
C  3.40300 55.02300 42.88900
N  7.70000 52.57300 41.12600
C  7.23000 51.27000 41.25800
C  8.32900 50.22900 40.85600
C  9.65500 51.06700 41.01900
C  9.06800 52.52700 40.93700
C  10.55900 50.80000 42.32400
C  8.11400 49.62300 39.40900
C  7.78800 50.56000 38.21900
H  6.60200 50.21500 37.32500
N  8.36000 55.54400 41.12400
C  9.56000 55.03700 40.69700
C  10.44900 56.13000 40.36100
C  9.72700 57.33400 40.49500
C  8.41100 56.85000 41.01900
C  11.80700 55.97300 39.84700
C  10.31100 58.65800 40.09600
O  11.29500 58.76000 39.37700
C  9.57800 59.99800 40.48500
N  5.47000 56.01800 41.94600
C  6.00600 57.30700 41.93900
C  5.11400 58.34100 42.52900
C  3.77300 57.51900 42.71000
C  4.23000 56.06600 42.57100
C  5.62300 58.91600 43.89700
C  2.62100 57.98500 41.76800
C  1.42900 58.69900 42.43900
N  4.92100 53.31000 42.24200
C  3.72500 53.69400 42.61600
C  2.90300 52.49000 42.82500
C  3.69400 51.44100 42.48400
C  4.93900 51.96100 42.10600
C  1.41500 52.58500 43.27000
C  3.73400 50.00900 42.36200
O  2.80600 49.23300 42.42400
C  5.10200 49.64800 41.86900
C  4.89800 48.92300 40.63700
O  4.29700 49.32000 39.68100
O  5.46600 47.69500 40.75100
C  5.24900 46.68700 39.64500
H  10.88200 53.36400 40.49000
H  7.51200 58.71800 41.30000
H  2.38600 55.20400 43.24500
H  8.44500 49.41500 41.57200
H  10.32300 50.88400 40.17800
H  10.53200 51.63300 43.02800
H  11.60700 50.64600 42.06600
H  10.19700 49.92100 42.85700
H  7.38000 48.81800 39.45300
H  9.10600 49.24500 39.16000
H  8.72600 50.56200 37.66500
H  7.73800 51.62300 38.45800
H  11.76700 55.06500 39.24500
H  12.45200 55.77600 40.70300
H  12.42400 56.60300 39.20600
H  8.69900 60.05200 39.84200
H  10.27200 60.80600 40.25800
H  9.36600 59.90800 41.55000
H  5.02500 59.02000 41.68100
H  3.27300 57.62500 43.67300
H  6.51500 58.32900 44.11500
H  4.87200 58.81300 44.67900
H  5.94600 59.95700 43.92800
H  2.13900 57.08000 41.39800
H  3.03600 58.49800 40.90000
H  1.69800 59.02700 43.44300
H  0.53000 58.10600 42.26400
H  1.33000 59.61700 41.86000
H  0.76400 53.01700 42.51100
H  1.22800 52.97600 44.27100
H  1.06400 51.55500 43.34300
H  5.60000 49.05500 42.63600
H  4.21100 46.38600 39.50600
H  5.70400 45.71900 39.85500
H  5.74300 47.18200 38.80900

