158

Mg 10.02000 47.99600 25.64500
C  8.02500 48.23900 28.53000
C  12.49000 49.39700 27.29300
C  11.64400 48.23000 22.69100
C  7.14400 46.86800 23.86000
N  10.17100 48.70000 27.70400
C  9.33600 48.61500 28.74500
C  10.04100 49.15100 30.04700
C  11.32100 49.89400 29.45400
C  11.31600 49.33100 28.06000
C  10.99800 51.40200 29.22800
C  10.37600 48.13100 31.08100
C  10.00700 48.50900 32.54300
H  10.19600 47.40600 33.49600
N  11.82800 48.63400 25.07400
C  12.77300 49.11000 25.93300
C  14.04600 49.22000 25.24500
C  13.82200 48.92500 23.89700
C  12.33600 48.61800 23.82500
C  15.34100 49.59900 25.97300
C  14.77100 48.83300 22.65200
O  14.43300 48.83400 21.45100
C  16.19700 48.91400 22.95000
N  9.41100 47.75800 23.49100
C  10.31500 47.87700 22.51400
C  9.72100 47.37100 21.17900
C  8.38100 46.65000 21.66300
C  8.30700 47.06900 23.11800
C  9.56100 48.52900 20.18700
C  8.21600 45.13100 21.36400
C  8.90300 44.02300 22.27000
N  7.92600 47.76300 25.98000
C  6.87300 47.31000 25.14800
C  5.68900 47.19200 25.97500
C  6.10200 47.58800 27.29100
C  7.48400 47.85600 27.21100
C  4.39400 46.58200 25.47900
C  5.61200 47.77700 28.71100
O  4.46400 47.75600 29.20200
C  6.90700 47.96500 29.60000
C  7.14500 46.65100 30.35400
O  7.80700 45.71200 29.93300
O  6.48500 46.74800 31.54600
C  6.65300 45.60600 32.45900
H  13.32100 49.91200 27.78000
H  12.23400 48.12700 21.77800
H  6.28200 46.41100 23.37000
H  9.40400 49.83600 30.60600
H  12.29100 49.67600 29.90000
H  10.01000 51.68100 29.59400
H  10.95100 51.74500 28.19400
H  11.75500 51.98000 29.75800
H  11.45400 47.97100 31.05900
H  9.96500 47.12200 31.03700
H  8.91900 48.56700 32.51400
H  10.57000 49.40100 32.81700
H  15.22200 49.71100 27.05100
H  15.74400 50.57300 25.69400
H  16.11100 48.84200 25.82500
H  16.67000 49.04600 21.97700
H  16.52300 47.98000 23.40600
H  16.33500 49.84100 23.50700
H  10.36800 46.61100 20.74300
H  7.49500 47.13900 21.25900
H  10.20200 49.36200 20.47600
H  8.50000 48.78000 20.22200
H  9.72200 48.32000 19.12900
H  8.47500 45.03700 20.30900
H  7.15000 44.96100 21.51600
H  8.21400 43.19700 22.44400
H  9.32300 44.43100 23.18900
H  9.70300 43.65700 21.62700
H  3.82900 47.32100 24.91100
H  3.71600 46.40300 26.31400
H  4.43000 45.66600 24.89000
H  6.98900 48.85500 30.22500
H  7.59800 45.78000 32.97300
H  6.70100 44.64000 31.95800
H  5.92400 45.52700 33.26500
Mg -11.30300 38.28700 41.71100
C  -9.24400 35.43200 41.31700
C  -8.94900 40.11700 39.92200
C  -13.50400 40.59700 41.34600
C  -13.63700 36.15500 43.23700
N  -9.42100 37.74500 40.61100
C  -8.76400 36.56500 40.59300
C  -7.53100 36.66400 39.68000
C  -7.31100 38.19600 39.53300
C  -8.62900 38.71100 40.12200
C  -6.10500 38.83700 40.31200
C  -7.84100 35.95300 38.24100
C  -6.76200 35.06700 37.68100
H  -5.80300 35.73600 36.67500
N  -11.20700 40.14400 40.86900
C  -10.14900 40.80900 40.26100
C  -10.47100 42.11100 39.92300
C  -11.86500 42.21800 40.26400
C  -12.23700 40.96300 40.86500
C  -9.41600 43.04900 39.30200
C  -12.70900 43.49900 40.02700
O  -12.21500 44.58400 39.76800
C  -14.18700 43.58600 40.24800
N  -13.41200 38.35700 42.12700
C  -14.07700 39.49900 41.93100
C  -15.57100 39.41900 42.38800
C  -15.58700 37.88700 42.76000
C  -14.14200 37.40200 42.79100
C  -15.99400 40.53200 43.42700
C  -16.67500 37.06300 41.95200
C  -16.13300 36.33800 40.69800
N  -11.42200 36.21700 42.25000
C  -12.37800 35.52100 42.92300
C  -11.91700 34.23700 43.21800
C  -10.63200 34.13100 42.61500
C  -10.44200 35.32900 42.02300
C  -12.60400 33.17200 43.97300
C  -9.45500 33.27000 42.45500
O  -9.29500 32.05200 42.64900
C  -8.47400 34.16500 41.64300
C  -7.19400 34.24400 42.35800
O  -6.61700 33.22800 42.71400
O  -6.73200 35.52300 42.64400
C  -5.34500 35.70700 43.08000
H  -8.17500 40.70500 39.42500
H  -14.36500 41.26700 41.30700
H  -14.44200 35.53100 43.63100
H  -6.59400 36.23500 40.03700
H  -7.17100 38.51400 38.50000
H  -6.35000 39.83300 40.67900
H  -5.28700 38.94000 39.59900
H  -5.93900 38.12900 41.12500
H  -7.94700 36.79400 37.55600
H  -8.81600 35.46800 38.19600
H  -7.22100 34.13500 37.34900
H  -6.00000 34.78600 38.40700
H  -9.45100 42.77000 38.24900
H  -8.45400 42.94000 39.80200
H  -9.79200 44.06500 39.42300
H  -14.38800 43.54600 41.31800
H  -14.48400 42.66500 39.74700
H  -14.59800 44.47100 39.76000
H  -16.10900 39.64900 41.46800
H  -15.99300 37.72600 43.75800
H  -16.61500 41.14700 42.77500
H  -15.08700 41.05200 43.73500
H  -16.64500 40.17800 44.22600
H  -17.41300 37.72200 41.49500
H  -17.21300 36.37000 42.59800
H  -16.30700 35.28100 40.89900
H  -15.09600 36.57800 40.46500
H  -16.61600 36.58700 39.75300
H  -13.68900 33.25200 43.90900
H  -12.16000 33.35300 44.95200
H  -12.29200 32.17700 43.65800
H  -8.24600 33.64900 40.71000
H  -5.25700 36.72500 43.46100
H  -4.57900 35.55700 42.31900
H  -5.14700 34.98200 43.86900

