158

Mg -2.31900 34.29900 25.94900
C  -4.04200 32.76000 28.53000
C  -0.73500 36.23900 28.40300
C  -0.70200 35.95900 23.61100
C  -4.05400 32.37500 23.64200
N  -2.57400 34.57600 28.13000
C  -3.21300 33.80200 29.00600
C  -2.82700 33.97900 30.41700
C  -2.23900 35.43300 30.26100
C  -1.84500 35.44100 28.77700
C  -3.28000 36.51700 30.65600
C  -1.82400 32.88100 30.97200
C  -1.10900 33.15000 32.27000
H  -1.80300 32.56000 33.49800
N  -0.88300 35.92200 26.00200
C  -0.25900 36.52000 27.09000
C  0.82200 37.40000 26.63800
C  0.91700 37.17700 25.25700
C  -0.22600 36.36400 24.86900
C  1.72800 38.13700 27.57800
C  1.87500 37.68700 24.19800
O  1.71500 37.41100 23.02000
C  2.98600 38.53400 24.76100
N  -2.55200 34.28600 23.98500
C  -1.75300 35.10100 23.25900
C  -2.04200 34.98700 21.79400
C  -2.95000 33.69500 21.76300
C  -3.18800 33.38400 23.22100
C  -2.66100 36.26700 21.10800
C  -2.37000 32.45600 21.04600
C  -1.36200 31.56400 21.76400
N  -3.78200 32.85100 25.96600
C  -4.32700 32.09000 24.96600
C  -5.23300 31.08800 25.57800
C  -5.13500 31.29800 26.94100
C  -4.21500 32.37600 27.16000
C  -6.11800 30.12400 24.85500
C  -5.52700 30.78900 28.20500
O  -6.20800 29.80100 28.57700
C  -4.81700 31.73000 29.28900
C  -5.89900 32.31500 30.17700
O  -6.65500 33.23700 29.85300
O  -5.92300 31.71300 31.38100
C  -6.92800 32.23400 32.39500
H  -0.25200 36.73100 29.25000
H  -0.21300 36.34600 22.71500
H  -4.74800 31.95000 22.91300
H  -3.77700 33.97700 30.95100
H  -1.32500 35.66900 30.80600
H  -2.99500 37.10600 31.52800
H  -4.27400 36.13400 30.88700
H  -3.11800 37.16600 29.79600
H  -1.15500 32.45900 30.22200
H  -2.44600 32.00200 31.14100
H  -1.01700 34.22200 32.44400
H  -0.08300 32.78300 32.22800
H  1.31200 38.23100 28.58000
H  1.83400 39.17100 27.25000
H  2.68700 37.62100 27.63800
H  3.53200 38.71300 23.83400
H  3.57400 37.86200 25.38700
H  2.54700 39.37500 25.29700
H  -1.15100 34.67900 21.24700
H  -3.93100 33.82900 21.30700
H  -2.03400 36.74000 20.35300
H  -2.91000 37.04900 21.82500
H  -3.59600 35.90200 20.68100
H  -1.82700 32.68000 20.12700
H  -3.18100 31.87400 20.60900
H  -0.47400 31.48500 21.13700
H  -1.56900 30.52400 22.01500
H  -1.01600 32.09100 22.65300
H  -6.95400 29.64600 25.36500
H  -5.46200 29.29200 24.59500
H  -6.64900 30.57000 24.01400
H  -4.10200 31.10600 29.82700
H  -6.47200 32.93000 33.10000
H  -7.38000 31.36000 32.86400
H  -7.75300 32.78900 31.94700
Mg -5.95500 25.05700 25.77100
C  -4.61900 26.82500 28.57700
C  -7.60100 22.99100 28.00800
C  -6.73400 23.23100 23.28100
C  -3.80200 26.95600 23.71700
N  -5.98100 24.89000 28.00000
C  -5.43300 25.77400 28.92300
C  -5.83300 25.40300 30.38000
C  -6.66200 24.00700 30.17100
C  -6.78400 23.99800 28.59000
C  -5.83400 22.74100 30.65300
C  -6.64900 26.55400 31.09600
C  -6.37900 26.70300 32.65000
H  -6.10500 25.55300 33.57400
N  -7.13400 23.37700 25.61600
C  -7.77900 22.68200 26.59700
C  -8.58300 21.63300 25.95700
C  -8.29600 21.68600 24.59900
C  -7.33700 22.76700 24.43000
C  -9.46500 20.77700 26.82700
C  -8.90800 20.84000 23.43000
O  -8.55000 21.01100 22.32100
C  -10.00700 19.81300 23.70600
N  -5.21400 25.04800 23.78900
C  -5.87600 24.24700 22.93300
C  -5.53200 24.56700 21.47700
C  -4.56200 25.72400 21.56900
C  -4.56100 26.02600 23.09600
C  -4.96900 23.34100 20.68900
C  -4.84400 26.91900 20.58200
C  -3.61800 27.64700 20.03700
N  -4.58900 26.64400 26.08300
C  -3.82800 27.30100 25.12900
C  -3.03500 28.30900 25.73300
C  -3.31500 28.25800 27.07600
C  -4.23800 27.16700 27.22700
C  -1.96800 29.17400 25.01400
C  -3.00600 28.70500 28.43700
O  -2.34800 29.66700 28.79200
C  -3.74900 27.75900 29.49300
C  -2.67900 26.92200 30.16700
O  -1.72400 26.47400 29.54200
O  -2.86400 26.97200 31.54300
C  -1.81800 26.22400 32.28100
H  -8.12200 22.47300 28.81600
H  -7.06100 22.70400 22.38200
H  -3.17800 27.45700 22.97500
H  -4.90700 25.27700 30.94000
H  -7.61600 24.21900 30.65400
H  -6.44900 22.10100 31.28600
H  -4.94900 22.92900 31.26000
H  -5.69100 22.07700 29.80000
H  -7.73600 26.47800 31.12400
H  -6.38600 27.43100 30.50500
H  -7.08100 27.33300 33.19500
H  -5.42400 27.22700 32.65600
H  -9.36600 19.71300 26.61000
H  -10.52200 21.02800 26.73800
H  -9.22400 20.82700 27.88900
H  -9.81100 19.16800 24.56300
H  -9.97700 19.11200 22.87100
H  -10.96700 20.32800 23.71400
H  -6.50100 24.83100 21.05400
H  -3.55700 25.31700 21.45700
H  -4.89000 22.46200 21.32800
H  -3.91700 23.50200 20.45300
H  -5.50200 23.18700 19.75000
H  -5.49400 27.62900 21.09200
H  -5.51500 26.57100 19.79700
H  -3.55700 28.68700 20.35800
H  -3.52500 27.59700 18.95300
H  -2.71200 27.24600 20.49000
H  -1.12100 29.49000 25.62300
H  -2.44500 29.97600 24.45100
H  -1.58300 28.54400 24.21200
H  -4.33900 28.30000 30.23300
H  -1.40600 26.84500 33.07700
H  -0.92800 25.96300 31.70800
H  -2.27000 25.38900 32.81600

