158

Mg -2.35900 17.68200 27.12800
C  -2.56300 15.44900 29.76600
C  -2.41500 20.25500 29.39700
C  -2.47800 19.82400 24.47400
C  -2.83200 14.98200 24.91900
N  -2.36900 17.80200 29.41100
C  -2.37400 16.77700 30.26500
C  -2.23700 17.32300 31.71900
C  -2.46400 18.82800 31.53500
C  -2.40400 18.99500 30.01900
C  -3.86300 19.34200 32.13200
C  -0.90800 16.94000 32.39800
C  -0.58200 17.70200 33.67300
H  -0.25000 16.93200 34.96000
N  -2.46500 19.73400 26.94000
C  -2.44800 20.66400 28.02800
C  -2.36700 22.02600 27.46600
C  -2.17700 21.84900 26.06200
C  -2.32500 20.43800 25.74800
C  -2.51900 23.23800 28.38600
C  -1.90500 22.87700 24.99300
O  -1.96300 22.67900 23.76700
C  -1.65700 24.25300 25.36100
N  -2.68500 17.40200 25.00300
C  -2.61600 18.43400 24.15600
C  -2.82600 17.92200 22.70900
C  -2.64500 16.36100 22.85000
C  -2.63100 16.22800 24.34700
C  -4.18300 18.23400 21.98700
C  -1.40900 15.70800 22.11600
C  -0.06500 15.69000 22.91100
N  -2.56000 15.57900 27.25700
C  -2.80200 14.63900 26.30400
C  -3.01400 13.35700 26.90800
C  -2.87300 13.61600 28.28500
C  -2.65300 14.95400 28.45500
C  -3.29700 12.06900 26.24100
C  -2.94300 13.03400 29.64700
O  -3.22500 11.86400 30.05100
C  -2.75500 14.25500 30.62600
C  -1.72200 13.96800 31.63000
O  -0.50200 13.95100 31.43900
O  -2.28500 13.59700 32.84400
C  -1.44300 13.12100 33.90800
H  -2.33500 21.09200 30.09300
H  -2.43200 20.50600 23.62300
H  -3.17400 14.18200 24.25800
H  -3.05300 16.83400 32.25100
H  -1.66200 19.38700 32.01500
H  -4.48000 19.89700 31.42400
H  -3.69400 20.07600 32.92000
H  -4.40700 18.47800 32.51400
H  -0.05200 16.91200 31.72400
H  -1.20400 15.96500 32.78300
H  -1.32000 18.47200 33.89900
H  0.36100 18.19700 33.44000
H  -3.20100 22.95900 29.18900
H  -2.81000 24.18300 27.92700
H  -1.55400 23.30800 28.88700
H  -0.63500 24.23100 25.73900
H  -2.44100 24.58400 26.04300
H  -1.69800 24.83000 24.43600
H  -2.07100 18.18100 21.96700
H  -3.59600 15.90300 22.57900
H  -4.08900 19.07300 21.29800
H  -4.91600 18.54900 22.72900
H  -4.69800 17.42700 21.46600
H  -1.22800 16.09900 21.11500
H  -1.78900 14.69000 22.03600
H  0.69800 15.19800 22.30900
H  -0.28500 15.07200 23.78200
H  0.23200 16.70000 23.19300
H  -2.75700 11.23200 26.68300
H  -2.83000 12.10100 25.25700
H  -4.38600 12.02700 26.21600
H  -3.71600 14.24900 31.14000
H  -0.99700 13.94200 34.46900
H  -0.61800 12.49100 33.57700
H  -2.07900 12.54900 34.58300
Mg -12.41500 38.89400 42.97500
C  -10.62200 36.13600 41.62700
C  -10.37100 40.96600 41.26500
C  -14.59100 41.35900 43.73700
C  -14.89700 36.48600 44.07900
N  -10.73800 38.55400 41.47300
C  -10.14000 37.39500 41.18500
C  -8.88000 37.63600 40.41900
C  -8.74200 39.18100 40.43300
C  -10.02500 39.64400 41.14000
C  -7.46500 39.78000 41.14400
C  -8.81200 36.94700 39.04700
C  -7.54200 36.02800 38.68400
H  -6.50700 36.59000 37.76000
N  -12.40600 40.90700 42.61700
C  -11.45900 41.57800 41.95400
C  -11.87400 42.96000 41.87000
C  -13.08000 43.11200 42.57100
C  -13.42200 41.78900 43.06800
C  -11.13700 43.97800 40.99300
C  -13.73000 44.45500 42.79400
O  -13.26200 45.49000 42.33300
C  -14.98100 44.62200 43.63100
N  -14.45200 38.92100 43.75700
C  -15.01500 40.09800 44.09200
C  -16.35200 39.84800 44.75100
C  -16.50300 38.28500 44.75500
C  -15.23200 37.79200 44.11900
C  -16.42200 40.53100 46.07400
C  -17.73000 37.76900 44.03800
C  -18.94700 37.43600 44.95600
N  -12.76100 36.76000 42.89000
C  -13.72000 35.94100 43.49300
C  -13.32900 34.51700 43.33600
C  -12.10600 34.58600 42.60500
C  -11.83700 35.92700 42.35400
C  -13.99200 33.28400 43.76000
C  -11.04600 33.81200 42.05800
O  -10.99300 32.58900 41.95200
C  -9.98100 34.75100 41.35400
C  -8.74000 34.57500 41.99300
O  -7.89600 33.90600 41.50000
O  -8.65500 35.34600 43.15800
C  -7.37000 35.25700 43.84700
H  -9.68200 41.69500 40.83400
H  -15.42100 42.03500 43.95200
H  -15.56600 35.81100 44.61800
H  -8.12600 37.25700 41.11000
H  -8.69600 39.68300 39.46600
H  -6.64100 39.08400 41.29900
H  -7.66700 40.25100 42.10600
H  -7.06700 40.46600 40.39600
H  -8.82900 37.65600 38.22000
H  -9.72600 36.39700 38.82600
H  -7.81800 35.09100 38.19900
H  -7.03200 35.86500 39.63300
H  -11.53100 43.87800 39.98200
H  -10.07400 43.73600 41.00300
H  -11.14400 45.00200 41.36700
H  -15.88500 44.29200 43.11800
H  -15.16600 45.60100 44.07400
H  -14.81900 43.91100 44.44100
H  -17.01800 40.29000 44.01100
H  -16.43300 37.84100 45.74800
H  -15.48100 40.94600 46.43500
H  -16.79500 39.85900 46.84700
H  -17.15800 41.32700 45.96200
H  -17.55700 36.80400 43.56000
H  -17.95600 38.47700 43.24100
H  -19.08200 36.36000 44.85100
H  -19.72800 38.11800 44.62000
H  -18.73400 37.59600 46.01300
H  -13.71400 32.40100 43.18400
H  -15.05900 33.46100 43.62300
H  -13.64000 33.05100 44.76500
H  -10.09600 34.64300 40.27500
H  -7.55100 35.38600 44.91400
H  -6.67300 36.02700 43.51600
H  -6.93300 34.25800 43.82900

