158

Mg 3.06200 -2.23000 44.04100
C  6.24000 -0.71300 43.72300
C  1.82800 0.21100 41.86500
C  0.30700 -3.92700 43.76400
C  4.78900 -5.02300 45.38000
N  4.01700 -0.54000 42.84300
C  5.24300 -0.02100 43.03100
C  5.41900 1.36100 42.40800
C  3.93300 1.67600 42.07300
C  3.19000 0.33900 42.32300
C  3.29500 2.81600 42.97200
C  6.42600 1.40300 41.18500
C  6.49500 0.16400 40.16000
H  5.88700 0.51700 38.77900
N  1.20100 -1.87800 43.12800
C  0.89600 -0.80400 42.32200
C  -0.45700 -0.99300 41.81000
C  -0.92600 -2.23000 42.26400
C  0.14400 -2.71200 43.18300
C  -1.07900 0.00900 40.86700
C  -2.31100 -2.81000 41.95000
O  -3.07400 -2.26300 41.22700
C  -2.77500 -4.24200 42.48300
N  2.56700 -4.12500 44.66900
C  1.32200 -4.62900 44.48900
C  1.12500 -6.04100 45.19400
C  2.60300 -6.41300 45.52000
C  3.36200 -5.11200 45.16400
C  0.15000 -5.99300 46.40900
C  3.23800 -7.66500 44.89700
C  3.83100 -8.66100 45.89200
N  5.13100 -2.72300 44.61900
C  5.65900 -3.96300 45.05100
C  7.02100 -3.85700 45.27300
C  7.31300 -2.57000 44.86100
C  6.15100 -1.91400 44.35800
C  7.92200 -4.95100 45.83000
C  8.37000 -1.64100 44.61200
O  9.55200 -1.61900 44.90500
C  7.77400 -0.37000 43.86500
C  8.09600 0.96600 44.54100
O  8.81500 1.88000 44.04100
O  7.70300 0.95000 45.84000
C  8.03800 2.09300 46.65300
H  1.45000 0.98900 41.19900
H  -0.55800 -4.59300 43.80100
H  5.28300 -5.89600 45.81300
H  5.73600 2.21200 43.01100
H  3.79700 1.93300 41.02300
H  2.65600 2.24600 43.64700
H  2.81300 3.60400 42.39400
H  3.97000 3.33200 43.65500
H  7.38200 1.80300 41.52300
H  6.06400 2.24700 40.59600
H  5.82100 -0.56900 40.60400
H  7.47200 -0.30200 40.03600
H  -1.75500 0.68300 41.39400
H  -1.50700 -0.48200 39.99300
H  -0.28100 0.57800 40.39000
H  -2.02000 -4.89800 42.04900
H  -3.74100 -4.54700 42.08100
H  -2.87700 -4.31800 43.56500
H  0.78900 -6.78900 44.47500
H  2.71000 -6.39300 46.60400
H  -0.63600 -6.74200 46.31000
H  -0.30300 -5.01700 46.58300
H  0.63900 -6.13700 47.37200
H  4.11200 -7.41700 44.29600
H  2.59300 -8.19800 44.19800
H  3.17700 -9.52100 46.03200
H  4.03500 -8.28300 46.89400
H  4.82100 -9.04700 45.64900
H  7.71600 -5.82600 45.21400
H  7.64100 -5.26400 46.83600
H  8.95900 -4.65500 45.99000
H  8.26400 -0.20500 42.90600
H  7.62100 1.84900 47.63000
H  7.51200 2.97100 46.27900
H  9.10700 2.29600 46.70700
Mg 46.43100 44.52900 43.32900
C  42.99100 43.66900 42.98200
C  47.26900 41.40900 42.23800
C  49.54100 45.55500 42.88400
C  45.38300 47.94500 43.87200
N  45.20600 42.76400 43.00600
C  43.88000 42.68100 42.80700
C  43.52600 41.27700 42.26600
C  44.87700 40.50400 42.36400
C  45.89200 41.56700 42.56400
C  44.95900 39.34800 43.34100
C  42.79700 41.28000 40.96300
C  43.38800 42.10800 39.77600
H  43.20500 41.39200 38.39000
N  48.13200 43.54900 42.72300
C  48.30600 42.28500 42.30000
C  49.67800 42.03000 42.06900
C  50.38700 43.24900 42.24600
C  49.38600 44.21900 42.63000
C  50.24800 40.65600 41.77500
C  51.95900 43.41800 42.05600
O  52.66800 42.51400 41.70100
C  52.59800 44.75900 42.24600
N  47.28000 46.51800 43.11200
C  48.68100 46.57700 43.12400
C  49.09400 47.98900 43.65700
C  47.72500 48.79300 43.84600
C  46.71300 47.71900 43.65200
C  50.06500 48.18100 44.79400
C  47.49300 49.87400 42.79400
C  47.47300 51.34800 43.34400
N  44.55100 45.58100 43.53200
C  44.34200 46.95200 43.69300
C  42.91100 47.17000 43.86400
C  42.28400 45.93600 43.54400
C  43.36100 44.99600 43.36600
C  42.20600 48.48100 43.98500
C  41.01400 45.29300 43.21900
O  39.89600 45.80500 43.18200
C  41.49800 43.81200 42.88500
C  40.83400 42.95600 43.98200
O  39.99300 42.10800 43.67900
O  41.53100 42.97100 45.21700
C  41.32100 41.91600 46.23400
H  47.52600 40.40900 41.88300
H  50.56900 45.85400 43.10000
H  45.15300 48.98300 44.12000
H  42.95900 40.71800 43.01100
H  45.06300 39.99000 41.42100
H  44.13200 39.38000 44.05100
H  45.85800 39.43000 43.95200
H  44.94900 38.35200 42.89800
H  41.77000 41.57900 41.17500
H  42.77400 40.20900 40.76100
H  44.47000 42.21300 39.85000
H  42.91800 43.09100 39.76500
H  49.44700 39.98200 42.08100
H  51.28600 40.53600 42.08500
H  50.13600 40.57000 40.69400
H  52.08300 45.51400 41.65200
H  53.64300 44.81200 41.94000
H  52.57400 45.05600 43.29500
H  49.60900 48.39300 42.78500
H  47.70800 49.22400 44.84700
H  50.49000 47.22900 45.11200
H  49.58100 48.59900 45.67700
H  50.87700 48.87800 44.58700
H  46.49300 49.71600 42.39000
H  48.31300 49.74800 42.08700
H  48.30200 51.68500 43.96700
H  46.44200 51.49800 43.66400
H  47.62500 51.96500 42.45900
H  41.65900 48.34300 44.91700
H  41.34300 48.50100 43.32000
H  42.86400 49.34800 43.92100
H  41.09700 43.64600 41.88500
H  40.37400 41.95400 46.77300
H  42.18500 41.96600 46.89700
H  41.37800 41.06100 45.56100

