158

Mg 53.96100 24.37100 45.18200
C  51.28400 26.50200 44.30500
C  52.08900 21.77200 44.09700
C  56.67600 22.53100 45.46600
C  55.90400 27.22800 45.79400
N  52.01900 24.25900 44.12700
C  51.02900 25.17600 43.93900
C  49.73500 24.51800 43.54300
C  49.95500 23.01900 43.85400
C  51.43000 22.99700 44.11500
C  49.08300 22.38700 45.05900
C  49.41500 24.79700 42.05100
C  47.93500 24.72300 41.56900
H  47.79800 24.76600 40.05000
N  54.24300 22.41700 44.97700
C  53.39500 21.49800 44.50400
C  53.95100 20.13400 44.54200
C  55.29100 20.26300 45.01500
C  55.47900 21.79000 45.14200
C  53.19200 18.86300 44.24200
C  56.34600 19.16700 45.27100
O  56.11000 17.98800 44.99500
C  57.65200 19.47300 45.79400
N  56.03000 24.85600 45.43800
C  56.94600 23.86500 45.70800
C  58.35700 24.37100 45.80800
C  58.08200 25.91800 45.74300
C  56.53000 26.02200 45.71000
C  59.17300 23.94700 47.08100
C  58.85600 26.66500 44.61200
C  58.22600 26.69800 43.24700
N  53.72500 26.41300 45.08900
C  54.54500 27.45000 45.44300
C  53.79600 28.67100 45.34000
C  52.50200 28.29900 45.00200
C  52.55400 26.95200 44.72500
C  54.35800 30.05100 45.68900
C  51.17400 28.89600 44.78500
O  50.70700 30.06000 44.88500
C  50.37000 27.79000 44.16900
C  49.98200 28.20500 42.85500
O  50.77200 28.39400 41.93000
O  48.62800 28.38700 42.83500
C  48.06200 28.66900 41.55000
H  51.48500 20.92300 43.77000
H  57.58100 21.92300 45.53200
H  56.45900 28.16200 45.90600
H  48.97400 24.92100 44.21100
H  49.81100 22.33500 43.01700
H  49.67600 22.15200 45.94300
H  48.68700 21.41000 44.78300
H  48.24000 23.05000 45.25100
H  50.18600 24.17100 41.60200
H  49.75500 25.81700 41.86700
H  47.41200 25.59500 41.96000
H  47.34300 23.87300 41.90800
H  53.74100 17.92700 44.13800
H  52.58800 19.00200 43.34600
H  52.41000 18.78200 44.99800
H  57.99200 18.53100 46.22300
H  57.34100 20.09600 46.63300
H  58.22300 19.96300 45.00600
H  58.78300 24.02400 44.86700
H  58.45200 26.35800 46.66900
H  58.81800 22.96000 47.37700
H  59.06800 24.63200 47.92200
H  60.21800 23.73200 46.86100
H  59.73500 26.05000 44.41800
H  59.26500 27.61000 44.96800
H  58.82500 26.08100 42.57800
H  58.06200 27.69000 42.82500
H  57.21500 26.29900 43.33700
H  54.95000 30.37700 44.83400
H  54.93600 30.01900 46.61300
H  53.49000 30.70100 45.80100
H  49.52500 27.68400 44.85000
H  48.06800 29.71100 41.22900
H  47.00000 28.42600 41.53700
H  48.54800 28.05100 40.79500
Mg 4.89400 54.71200 39.69600
C  5.32700 51.27900 39.00200
C  7.92100 55.27600 38.26000
C  4.06700 57.92600 39.69400
C  1.76700 53.86600 41.02700
N  6.28400 53.45900 38.62800
C  6.26600 52.06800 38.42200
C  7.47000 51.71300 37.54800
C  8.53000 52.71900 38.07100
C  7.56900 53.90800 38.31000
C  9.21300 52.36100 39.43400
C  7.17000 51.93100 36.03700
C  7.40400 50.69200 35.13100
H  6.37200 50.48300 34.01400
N  5.86200 56.45200 39.05100
C  7.09800 56.41400 38.44500
C  7.41800 57.74900 38.08500
C  6.32800 58.58100 38.52300
C  5.32900 57.70400 39.11200
C  8.61000 58.17200 37.26900
C  6.18600 60.14000 38.22000
O  7.10200 60.75500 37.62300
C  4.84600 60.89000 38.37800
N  3.09500 55.67300 40.12600
C  3.03200 57.04700 40.07700
C  1.71600 57.57800 40.74600
C  0.83200 56.27100 40.99000
C  1.94900 55.15300 40.72800
C  1.88500 58.46500 41.95500
C  -0.41500 56.14900 40.11500
C  -1.74900 55.97300 40.80800
N  3.66800 52.90100 40.06100
C  2.49100 52.71900 40.71000
C  2.30900 51.27600 40.95600
C  3.40400 50.63300 40.25800
C  4.15800 51.65300 39.70900
C  1.23000 50.58900 41.82700
C  4.12200 49.40200 39.95800
O  3.79500 48.23200 40.26500
C  5.42400 49.72200 39.15400
C  5.38500 48.98200 37.85800
O  4.51900 49.08700 36.98000
O  6.48000 48.12700 37.84000
C  6.44800 47.16700 36.65300
H  8.95900 55.52600 38.02800
H  3.69500 58.95200 39.64600
H  0.95900 53.62900 41.72200
H  7.79800 50.71700 37.84500
H  9.29700 53.02900 37.36100
H  9.19700 51.29900 39.67800
H  8.72200 53.02000 40.15100
H  10.22900 52.75100 39.37700
H  7.88800 52.64500 35.63400
H  6.11200 52.17500 35.94300
H  7.43200 49.78100 35.72800
H  8.40400 50.83300 34.72100
H  8.19200 58.81900 36.49700
H  9.02200 57.32000 36.72900
H  9.42800 58.50000 37.91100
H  4.93900 61.77600 37.75000
H  4.74700 61.14100 39.43400
H  3.93100 60.36700 38.10000
H  1.20200 58.13600 39.96300
H  0.58600 56.25300 42.05200
H  1.56400 59.44000 41.58900
H  2.92700 58.49500 42.27400
H  1.25200 58.18700 42.79800
H  -0.11600 55.25800 39.56200
H  -0.52800 56.93100 39.36400
H  -2.60600 56.33100 40.23800
H  -1.81500 56.40800 41.80500
H  -1.80300 54.89200 40.93900
H  1.28900 50.48100 42.91000
H  1.09000 49.54900 41.53100
H  0.26500 51.05200 41.61900
H  6.33600 49.41500 39.66600
H  6.79600 46.31100 37.23100
H  7.17300 47.38000 35.86900
H  5.46700 46.89500 36.26300

