158

Mg 26.03800 1.59900 28.63000
C  27.81900 1.22200 31.59300
C  23.20400 1.97500 30.70300
C  24.18100 1.90700 25.85200
C  28.96400 1.14400 26.82500
N  25.68200 1.64600 30.90000
C  26.51500 1.43700 31.90300
C  25.86700 1.48400 33.29800
C  24.40400 1.85500 32.97400
C  24.38400 1.79800 31.44800
C  23.35900 0.87700 33.67000
C  26.51200 2.53900 34.23500
C  25.73200 2.93800 35.52800
H  26.42000 2.83400 36.87900
N  23.92200 1.79400 28.30800
C  22.97300 1.93400 29.27700
C  21.67000 1.99300 28.58400
C  21.93300 2.13200 27.19300
C  23.39900 1.94000 27.04100
C  20.41500 1.94500 29.32500
C  20.92600 2.30700 26.07200
O  21.31700 2.28600 24.91100
C  19.51000 2.51800 26.41100
N  26.42300 1.32000 26.61900
C  25.54900 1.63900 25.66700
C  26.17200 1.60100 24.27200
C  27.63800 1.11000 24.58400
C  27.72900 1.35800 26.14600
C  25.53400 0.70300 23.17100
C  28.65400 1.80700 23.64500
C  29.93000 1.07800 23.40200
N  27.98900 1.25400 29.05100
C  29.11200 1.08700 28.21100
C  30.28500 0.80500 28.98400
C  29.89600 0.99200 30.23200
C  28.45900 1.14800 30.29700
C  31.65300 0.53100 28.50600
C  30.36000 1.01300 31.67500
O  31.48600 0.92700 32.14300
C  29.06300 1.13200 32.51300
C  29.05000 -0.07200 33.39500
O  28.62600 -1.17500 33.13200
O  29.44400 0.29600 34.68100
C  29.16100 -0.57200 35.81700
H  22.32600 2.02400 31.35100
H  23.67300 2.27600 24.95800
H  29.81500 0.95300 26.16900
H  26.03000 0.51300 33.76600
H  24.07800 2.85000 33.27600
H  22.65200 1.34300 34.35700
H  23.88100 0.17100 34.31700
H  22.86200 0.33900 32.86300
H  26.67300 3.44000 33.64300
H  27.45300 2.14900 34.62200
H  24.93800 2.19300 35.58100
H  25.27800 3.91400 35.35800
H  19.78200 1.19300 28.85500
H  19.91900 2.89700 29.13400
H  20.30800 1.68800 30.37800
H  18.91800 2.57600 25.49800
H  19.33500 3.45100 26.94600
H  19.03200 1.71100 26.96700
H  26.10200 2.60300 23.84900
H  27.55500 0.02300 24.55800
H  25.79400 -0.34000 23.35000
H  25.85400 1.13900 22.22500
H  24.47200 0.79000 23.40400
H  28.94400 2.79200 24.01300
H  28.25700 1.95200 22.64100
H  29.89800 0.11800 23.91700
H  30.72600 1.74600 23.73400
H  30.02200 0.98300 22.32000
H  31.77600 1.20000 27.65400
H  31.69600 -0.51500 28.20200
H  32.42800 0.72200 29.24800
H  29.07000 2.05800 33.08800
H  30.00400 -0.45300 36.49700
H  29.18400 -1.62000 35.51600
H  28.14400 -0.40800 36.17300
Mg 6.69300 53.86600 40.22200
C  6.39000 50.45300 39.84800
C  9.94900 53.63100 38.84900
C  6.89700 57.24300 39.91400
C  3.25700 54.02200 40.70600
N  7.93800 52.25600 39.18300
C  7.64400 50.92000 39.34800
C  8.83000 50.00300 39.00800
C  10.03300 51.06300 39.01600
C  9.26100 52.41700 38.94700
C  10.99000 50.93300 40.21600
C  8.74900 49.20300 37.65400
C  8.10400 49.99000 36.42400
H  7.13800 49.47600 35.44500
N  8.26900 55.22400 39.49200
C  9.53200 54.96800 39.04300
C  10.26800 56.13500 38.94200
C  9.40800 57.26700 39.18600
C  8.12400 56.60700 39.60700
C  11.76300 56.17400 38.70900
C  9.70700 58.69900 39.21000
O  10.83500 59.04300 38.89100
C  8.69800 59.73400 39.77000
N  5.24200 55.42100 40.13700
C  5.62000 56.75200 40.20600
C  4.38700 57.64300 40.46000
C  3.22800 56.57200 40.64500
C  3.88400 55.21200 40.41400
C  4.57600 58.59200 41.73700
C  1.96900 56.81600 39.76600
C  1.61000 58.30800 39.30100
N  5.12400 52.55400 40.42200
C  3.80300 52.71800 40.71000
C  3.14700 51.42700 40.95500
C  4.13400 50.54600 40.64600
C  5.26200 51.21900 40.24700
C  1.65900 51.13100 41.21400
C  4.47700 49.10100 40.57300
O  3.72900 48.13500 40.89300
C  5.88000 49.01700 40.15600
C  5.80700 48.21800 38.98400
O  5.23300 48.62800 37.97400
O  6.53400 47.06000 39.06900
C  6.37400 46.09100 37.98600
H  11.01300 53.56100 38.61300
H  6.78200 58.31700 40.07400
H  2.18800 54.16700 40.87600
H  8.93900 49.27900 39.81500
H  10.65500 50.98900 38.12400
H  10.50100 50.34100 40.98900
H  11.24200 51.92000 40.60600
H  11.89400 50.33700 40.09500
H  8.31900 48.20200 37.70600
H  9.73600 49.17700 37.19100
H  8.85900 50.27800 35.69200
H  7.72500 50.91500 36.85700
H  12.02600 56.95900 38.00100
H  12.13200 55.25400 38.25500
H  12.28000 56.33400 39.65500
H  7.86600 59.88100 39.08000
H  9.26900 60.66100 39.81400
H  8.37000 59.51800 40.78700
H  4.20500 58.21000 39.54700
H  2.83000 56.63800 41.65800
H  3.59500 58.76900 42.17800
H  4.93400 59.56600 41.40400
H  5.22700 58.08200 42.44700
H  1.22900 56.54600 40.52000
H  1.97600 56.25700 38.83000
H  2.25700 58.56300 38.46100
H  1.74700 59.01800 40.11600
H  0.55400 58.27300 39.03300
H  1.58100 50.07300 41.46500
H  1.12300 51.29200 40.27900
H  1.21100 51.83300 41.91700
H  6.40300 48.34900 40.84000
H  7.19400 46.02900 37.27100
H  5.47900 46.34600 37.41800
H  6.27800 45.05100 38.29800

