158

Mg -2.21900 17.58000 25.71800
C  -2.83400 15.19400 28.23800
C  -2.91500 20.03800 27.85700
C  -2.02100 19.63100 23.09700
C  -2.08500 14.79500 23.51600
N  -2.81200 17.54300 27.75400
C  -2.98200 16.48900 28.66800
C  -3.53700 16.98400 29.99600
C  -3.43000 18.53600 29.79700
C  -3.09500 18.74100 28.37100
C  -4.68400 19.36500 30.30000
C  -2.68100 16.47700 31.23300
C  -2.50700 17.41100 32.45700
H  -2.51000 16.84200 33.82800
N  -2.36700 19.61700 25.48900
C  -2.54900 20.45000 26.56100
C  -2.38800 21.80400 26.12800
C  -2.23400 21.70900 24.69100
C  -2.16500 20.30900 24.35900
C  -2.53800 22.99100 26.96000
C  -2.03900 22.76200 23.63800
O  -1.77200 22.44400 22.46500
C  -2.13400 24.18100 24.04300
N  -1.97700 17.23400 23.64200
C  -2.03000 18.26600 22.77700
C  -2.00000 17.81800 21.31000
C  -1.95200 16.28000 21.48500
C  -1.98400 16.05800 22.94400
C  -3.21800 18.38100 20.38700
C  -0.67600 15.65000 20.82500
C  0.52500 15.30200 21.69100
N  -2.26900 15.43500 25.80900
C  -2.18000 14.46600 24.88600
C  -2.41000 13.15100 25.45200
C  -2.59600 13.40700 26.80900
C  -2.53900 14.83200 26.93400
C  -2.29300 11.82000 24.82400
C  -2.68100 12.76400 28.10700
O  -2.57000 11.55600 28.42600
C  -2.88600 13.89200 29.08000
C  -1.63300 13.68900 29.99800
O  -0.50200 14.00600 29.77400
O  -2.03100 12.83100 31.03000
C  -0.96600 12.35000 31.93400
H  -3.03900 20.78000 28.64900
H  -1.97200 20.24600 22.19600
H  -2.18800 13.97300 22.80400
H  -4.55400 16.60200 30.09200
H  -2.54700 19.02500 30.20800
H  -5.14900 19.77600 29.40400
H  -4.52200 20.22000 30.95600
H  -5.36900 18.75900 30.89200
H  -1.68500 16.32600 30.81800
H  -3.15300 15.53000 31.49500
H  -3.37100 18.07500 32.47400
H  -1.56500 17.94900 32.34500
H  -3.46000 23.54300 26.77500
H  -1.65600 23.60500 26.77800
H  -2.47600 22.65600 27.99500
H  -2.05300 24.75500 23.12000
H  -1.24100 24.40400 24.62600
H  -3.07500 24.11100 24.58900
H  -0.96800 18.13500 21.16300
H  -2.78000 15.70100 21.07400
H  -3.86200 19.10300 20.88800
H  -3.65600 17.44800 20.03400
H  -2.77800 18.91500 19.54500
H  -0.22800 16.34400 20.11400
H  -0.98000 14.77700 20.24700
H  0.96500 14.38300 21.30200
H  0.37200 15.25200 22.76900
H  1.33700 16.02800 21.64200
H  -1.26400 11.49800 24.98500
H  -2.53500 11.80400 23.76200
H  -2.97900 11.18900 25.38900
H  -3.83500 13.80600 29.60900
H  -0.61400 11.33200 31.76900
H  -1.29900 12.28000 32.97000
H  -0.07900 12.95900 32.10600
Mg 8.79400 3.73100 27.13800
C  10.24100 2.34000 29.96100
C  7.01500 5.77900 29.23200
C  7.27800 4.87400 24.40500
C  9.96300 1.01800 25.30100
N  8.63100 4.02700 29.30500
C  9.46300 3.39100 30.23100
C  9.21600 4.00700 31.61200
C  8.10900 5.02400 31.42300
C  7.88800 4.95800 29.87700
C  6.76200 4.85300 32.25700
C  10.51000 4.47900 32.29300
C  10.39100 5.35800 33.56200
H  11.10600 4.83500 34.82900
N  7.38700 5.20200 26.87200
C  6.79500 5.94600 27.86000
C  5.85800 6.87500 27.17100
C  6.09500 6.80800 25.77500
C  6.87500 5.50300 25.63800
C  5.12400 7.89700 28.00000
C  5.60200 7.69200 24.60000
O  5.75500 7.47800 23.40900
C  5.02600 8.97600 25.00200
N  8.51800 2.96300 25.15500
C  7.95000 3.71400 24.19100
C  8.23700 3.13000 22.82000
C  9.14700 1.94200 23.07600
C  9.24900 1.99600 24.61800
C  6.99000 2.83100 22.02700
C  10.51100 1.99900 22.27800
C  10.95000 0.63100 21.70100
N  9.97500 2.10500 27.49800
C  10.37000 1.07500 26.65200
C  11.26300 0.23600 27.32200
C  11.27900 0.74600 28.65900
C  10.45800 1.87000 28.69600
C  12.00200 -0.87500 26.67300
C  11.94000 0.52000 29.91500
O  12.72900 -0.28300 30.36300
C  11.21500 1.56600 30.81000
C  10.61100 0.73700 31.99200
O  9.45900 0.35100 32.13200
O  11.59500 0.75800 32.95600
C  11.08900 0.49100 34.28700
H  6.39000 6.29300 29.96500
H  7.15200 5.48300 23.50700
H  10.36200 0.24100 24.64500
H  8.82900 3.15500 32.17000
H  8.47000 6.01300 31.70700
H  5.93800 4.55900 31.60700
H  6.54600 5.81200 32.72800
H  6.89500 4.20100 33.12000
H  11.10700 4.92700 31.49900
H  11.05900 3.57500 32.55700
H  9.35200 5.49100 33.86400
H  10.83500 6.33000 33.34900
H  4.23100 8.36100 27.58200
H  5.74500 8.77500 28.17700
H  4.80900 7.53100 28.97700
H  5.52400 9.36600 25.88900
H  3.99800 8.69800 25.23700
H  5.25600 9.67700 24.20000
H  8.85600 3.85500 22.29200
H  8.62900 0.99900 22.90100
H  6.19000 3.35400 22.55200
H  6.81700 1.81000 21.68700
H  6.92500 3.33700 21.06300
H  11.26800 2.42000 22.93900
H  10.51000 2.68600 21.43100
H  10.06800 -0.00900 21.71700
H  11.73500 0.25500 22.35600
H  11.12400 0.68800 20.62700
H  12.16900 -0.62900 25.62500
H  11.34000 -1.74000 26.65300
H  13.00200 -1.11600 27.03500
H  12.07600 2.14300 31.14600
H  11.91300 0.19900 34.93700
H  10.40600 -0.35800 34.25300
H  10.56700 1.34400 34.72100

