158

Mg 48.80900 35.46900 27.57900
C  46.57500 33.79400 29.69100
C  49.13600 37.91900 29.88900
C  50.74500 37.09300 25.36300
C  47.89600 33.09200 24.97600
N  47.92500 35.77700 29.57900
C  47.09700 34.93400 30.26900
C  47.25500 35.24700 31.72100
C  47.61500 36.80700 31.61900
C  48.29500 36.89400 30.27700
C  46.41700 37.86100 31.72900
C  48.32300 34.37500 32.49800
C  48.24200 34.24600 33.99800
H  47.20700 35.08100 34.72400
N  49.92600 37.20700 27.65200
C  49.89200 38.12200 28.67500
C  50.77500 39.25400 28.26800
C  51.28800 38.98700 27.01100
C  50.59100 37.74800 26.56300
C  51.04100 40.34800 29.20200
C  52.20000 39.77900 26.08500
O  52.37600 39.61300 24.91300
C  52.96700 40.93400 26.70600
N  49.13900 35.18500 25.40900
C  50.17100 35.92000 24.79500
C  50.68000 35.21300 23.55800
C  49.66400 34.03500 23.29600
C  48.83600 34.07200 24.59200
C  50.69300 36.06900 22.25400
C  50.22900 32.65300 23.04300
C  49.67300 31.68200 21.91200
N  47.49600 33.80700 27.31700
C  47.27500 32.90200 26.23500
C  46.40600 31.81500 26.65800
C  46.11800 32.18300 28.03800
C  46.80800 33.36400 28.36800
C  45.96200 30.65200 25.81600
C  45.28200 31.73200 29.09500
O  44.54400 30.75600 29.18700
C  45.50900 32.79300 30.27600
C  45.89200 32.05100 31.57500
O  46.74600 31.16700 31.57400
O  45.08700 32.33200 32.62900
C  45.25600 31.40500 33.75000
H  49.33600 38.70300 30.62300
H  51.65200 37.39800 24.83500
H  47.63700 32.40700 24.16600
H  46.29000 35.29500 32.22500
H  48.41400 36.93600 32.35000
H  46.72400 38.62000 32.44900
H  45.46100 37.42000 32.01300
H  46.39300 38.34700 30.75400
H  49.28000 34.73800 32.12300
H  48.18200 33.36600 32.10900
H  49.28700 34.32500 34.29800
H  47.88000 33.22400 34.10900
H  51.91500 40.17300 29.82900
H  50.10900 40.46800 29.75400
H  51.18700 41.30600 28.70400
H  53.31000 40.54500 27.66500
H  52.24600 41.74400 26.80900
H  53.80700 41.22400 26.07500
H  51.60800 34.68500 23.77700
H  48.96700 34.15200 22.46700
H  50.20600 36.99200 22.57200
H  50.20100 35.62800 21.38700
H  51.74200 36.19200 21.98700
H  50.07800 32.11100 23.97600
H  51.31700 32.67500 22.97700
H  50.34100 31.63500 21.05300
H  48.63600 31.78400 21.59100
H  49.68200 30.65800 22.28400
H  46.81500 29.98100 25.71400
H  45.80800 31.05200 24.81400
H  45.06000 30.12400 26.12300
H  44.60200 33.38400 30.40000
H  45.70000 30.42900 33.55700
H  44.30700 31.24200 34.26000
H  45.92000 31.95100 34.42100
Mg -11.68100 38.99300 41.89400
C  -9.55400 36.28800 41.02900
C  -9.76700 41.01900 39.96600
C  -14.07200 41.33400 42.19500
C  -13.91100 36.54600 43.19200
N  -9.93400 38.67100 40.59200
C  -9.20500 37.58100 40.43900
C  -7.90800 37.80100 39.62200
C  -7.93600 39.38900 39.31900
C  -9.30400 39.72400 40.00700
C  -6.65700 40.04500 39.90400
C  -7.92100 36.91400 38.27900
C  -6.82900 35.88400 38.28300
H  -5.68300 36.05700 37.32200
N  -11.81400 40.97300 41.38300
C  -10.91800 41.62300 40.60900
C  -11.28600 43.05000 40.58300
C  -12.47200 43.16500 41.30300
C  -12.84000 41.80200 41.65000
C  -10.39300 44.14700 39.98800
C  -13.28300 44.40300 41.68200
O  -12.93400 45.51100 41.35100
C  -14.59800 44.27000 42.59900
N  -13.61800 39.00000 42.65700
C  -14.44100 40.11400 42.63900
C  -15.91600 39.74800 42.96000
C  -15.79500 38.22700 43.39400
C  -14.37500 37.88000 43.07700
C  -16.53800 40.60000 44.05700
C  -16.85700 37.22700 42.73500
C  -18.06900 36.91800 43.69200
N  -11.65700 36.79400 42.21000
C  -12.66500 36.02200 42.76400
C  -12.16000 34.62500 42.73900
C  -10.91900 34.68900 42.17000
C  -10.72800 36.03000 41.74400
C  -12.83100 33.40200 43.24900
C  -9.79300 33.95100 41.79400
O  -9.47400 32.79400 41.98200
C  -8.95100 34.90200 40.88200
C  -7.56800 34.72600 41.53800
O  -6.79800 33.76200 41.39200
O  -7.21900 35.91200 42.09200
C  -5.95000 35.90700 42.77800
H  -9.15700 41.57800 39.25400
H  -14.94900 41.98500 42.20900
H  -14.66300 35.92600 43.68400
H  -7.07000 37.52900 40.26400
H  -7.99200 39.81800 38.31900
H  -5.87900 39.87900 39.15900
H  -6.45500 39.53800 40.84700
H  -6.86400 41.10000 40.08400
H  -7.70200 37.73100 37.59200
H  -8.83700 36.45100 37.91300
H  -7.32500 34.91900 38.17200
H  -6.39700 35.83900 39.28300
H  -10.86300 44.93300 39.39700
H  -9.75200 43.67100 39.24600
H  -9.73300 44.60000 40.72700
H  -14.86000 45.22200 43.06000
H  -14.44100 43.64100 43.47600
H  -15.46900 43.89200 42.06400
H  -16.54500 39.73500 42.06900
H  -15.88500 38.26600 44.48000
H  -16.95600 39.96900 44.84100
H  -17.29000 41.19300 43.53600
H  -15.92200 41.37300 44.51600
H  -16.33300 36.31500 42.45000
H  -17.37100 37.49300 41.81100
H  -18.19400 37.70700 44.43400
H  -17.85300 35.95800 44.16000
H  -19.02300 36.89600 43.16400
H  -12.59300 32.53300 42.63500
H  -13.91400 33.49900 43.16700
H  -12.41500 33.18500 44.23300
H  -9.02700 34.54200 39.85600
H  -6.12000 36.74000 43.45900
H  -5.10900 36.08000 42.10600
H  -5.78400 34.95600 43.28500

