158

Mg 25.48100 0.60100 28.97000
C  27.29000 0.29600 32.08300
C  22.65800 0.67000 30.79400
C  23.94700 0.70000 26.04600
C  28.62600 -0.18600 27.40400
N  25.04300 0.34800 31.19200
C  25.93200 0.39200 32.24500
C  25.14700 0.43700 33.55400
C  23.66600 0.50200 33.04600
C  23.76300 0.43400 31.55200
C  22.66500 -0.55600 33.63700
C  25.53900 1.60800 34.50700
C  25.41300 1.29900 36.02300
H  26.48000 2.02400 36.92700
N  23.61000 0.79200 28.49100
C  22.56800 0.75900 29.38400
C  21.34000 0.86900 28.59300
C  21.67800 1.06200 27.23600
C  23.13100 0.88500 27.19700
C  20.00900 0.79600 29.19400
C  20.74800 1.35100 26.03600
O  21.13200 1.23700 24.84900
C  19.38700 1.94300 26.30500
N  26.19900 0.28000 27.01900
C  25.34200 0.39700 25.95200
C  26.13400 0.39700 24.61300
C  27.61800 0.16000 25.07100
C  27.48200 -0.02800 26.61300
C  25.53100 -0.45400 23.50500
C  28.70600 1.17700 24.55100
C  28.80100 2.39900 25.44900
N  27.58800 0.15300 29.56400
C  28.70200 -0.17400 28.81300
C  29.79100 -0.35300 29.65000
C  29.30600 -0.10100 30.89800
C  27.92000 0.11800 30.81400
C  31.23200 -0.67400 29.17700
C  29.71300 0.01200 32.26200
O  30.83700 -0.06300 32.81200
C  28.42800 0.25800 33.06000
C  28.26300 -0.88000 33.98800
O  27.83000 -1.97700 33.74100
O  28.80800 -0.51300 35.22100
C  28.59800 -1.28500 36.41100
H  21.69500 0.82500 31.28500
H  23.45600 0.94200 25.10200
H  29.58100 -0.19500 26.87400
H  25.40700 -0.47200 34.09700
H  23.28500 1.47100 33.36700
H  23.01100 -0.73900 34.65500
H  22.58500 -1.48900 33.08000
H  21.70000 -0.07900 33.80400
H  24.81000 2.41100 34.39800
H  26.48500 2.03500 34.17500
H  25.57200 0.22400 36.11700
H  24.40800 1.54300 36.36800
H  19.74300 1.80600 29.50700
H  20.06100 0.11000 30.03900
H  19.30800 0.39100 28.46400
H  18.69500 1.13900 26.55400
H  18.95100 2.38800 25.41000
H  19.40000 2.81900 26.95300
H  25.99900 1.43900 24.32400
H  27.92500 -0.84800 24.79000
H  24.45400 -0.59100 23.60300
H  26.05800 -1.39900 23.37700
H  25.65500 0.05500 22.55000
H  28.33700 1.66700 23.65000
H  29.71900 0.81400 24.38100
H  28.07500 2.37200 26.26100
H  28.62100 3.29100 24.84900
H  29.74900 2.58000 25.95600
H  31.31000 -0.59000 28.09300
H  31.48200 -1.68700 29.49500
H  31.91400 0.07900 29.57000
H  28.46800 1.20000 33.60800
H  29.58500 -1.53000 36.80200
H  28.22000 -2.28200 36.18800
H  27.98800 -0.82200 37.18700
Mg 40.90900 9.01900 29.62600
C  42.74200 10.40100 32.22300
C  38.92100 7.47400 31.97000
C  39.44900 7.38800 27.02300
C  43.61600 9.88200 27.45000
N  40.92900 8.87800 31.94400
C  41.55800 9.68800 32.72800
C  41.04400 9.60000 34.22200
C  40.00000 8.44700 34.11400
C  39.93400 8.25500 32.54200
C  40.45400 7.06700 34.74300
C  40.54800 11.00500 34.64100
C  39.72000 11.10100 35.94300
H  40.13900 12.08200 37.12800
N  39.31100 7.72300 29.53900
C  38.58200 7.22700 30.61200
C  37.39500 6.67200 30.07900
C  37.53100 6.56200 28.67800
C  38.80200 7.20800 28.35200
C  36.27300 6.22200 30.96100
C  36.61100 5.92600 27.63500
O  36.86000 5.83400 26.46100
C  35.28200 5.23200 27.99300
N  41.49500 8.59700 27.45100
C  40.64400 7.98900 26.61200
C  41.32800 7.95700 25.18000
C  42.51300 8.96400 25.30000
C  42.58200 9.12100 26.81300
C  41.68300 6.57400 24.72900
C  42.18500 10.23500 24.47300
C  41.32200 11.36200 25.19200
N  42.73700 10.00100 29.71800
C  43.72100 10.25200 28.78000
C  44.75600 11.00000 29.38600
C  44.44700 11.06100 30.74600
C  43.17700 10.48600 30.87400
C  46.08500 11.35700 28.81900
C  44.91400 11.52300 32.04000
O  45.96700 11.97000 32.46100
C  43.75600 11.15400 33.08100
C  44.40200 10.35100 34.11600
O  44.86700 9.21300 33.97900
O  44.27400 11.05600 35.25700
C  44.37200 10.28100 36.47900
H  38.33200 7.06100 32.79200
H  38.91500 7.00700 26.15000
H  44.40000 10.27700 26.80100
H  41.81900 9.26800 34.91400
H  39.07400 8.74700 34.60500
H  41.47500 7.26600 35.07000
H  40.38600 6.27000 34.00200
H  39.73700 6.85100 35.53500
H  40.15700 11.53300 33.77100
H  41.48700 11.50700 34.87500
H  39.73600 10.15100 36.47700
H  38.68000 11.34300 35.72000
H  36.34600 5.15000 31.14400
H  35.37200 6.46000 30.39700
H  36.23600 6.74500 31.91700
H  34.98800 4.64300 27.12400
H  34.59800 5.93000 28.47500
H  35.59000 4.57300 28.80500
H  40.70900 8.30500 24.35300
H  43.50800 8.62000 25.01900
H  41.16700 5.71500 25.15800
H  42.77000 6.55900 24.81400
H  41.58600 6.53600 23.64400
H  41.78200 9.93800 23.50400
H  43.18800 10.61400 24.27700
H  41.78100 12.34800 25.27000
H  41.02000 11.05400 26.19300
H  40.42000 11.45500 24.58800
H  46.26000 12.42900 28.90800
H  46.25900 11.06400 27.78400
H  46.84300 10.81000 29.37900
H  43.33900 12.07600 33.48600
H  43.60700 10.77200 37.08100
H  45.39100 10.42600 36.83700
H  43.93900 9.29400 36.32000

