158

Mg 45.62700 3.34000 47.30700
C  43.33800 5.98500 46.58400
C  43.10600 1.16000 46.85100
C  48.02100 1.01800 47.19300
C  48.20100 5.85200 47.02000
N  43.54200 3.60700 46.60000
C  42.80600 4.72200 46.61100
C  41.30700 4.39400 46.36800
C  41.23400 2.83200 46.56800
C  42.75000 2.50000 46.66800
C  40.36000 2.40000 47.74900
C  40.84900 4.88900 44.99100
C  39.64200 5.82100 44.91200
H  39.66200 7.02800 43.93600
N  45.59200 1.28700 47.06100
C  44.43900 0.55700 47.08300
C  44.77900 -0.79300 47.41500
C  46.23600 -0.88100 47.42800
C  46.69400 0.48800 47.22000
C  43.85700 -1.90700 47.57000
C  47.12600 -2.19400 47.68300
O  46.64000 -3.30900 47.98000
C  48.62800 -2.15300 47.59500
N  47.82600 3.46600 46.90300
C  48.53600 2.30700 47.09100
C  49.99200 2.60900 47.20600
C  50.08800 4.12700 47.24000
C  48.63200 4.52700 46.95100
C  50.84400 1.99400 48.38900
C  51.16700 4.63800 46.28500
C  52.54000 5.04900 46.77900
N  45.80500 5.47300 46.75800
C  46.87000 6.27900 46.87600
C  46.50100 7.66200 46.85400
C  45.05800 7.59700 46.77900
C  44.74800 6.22300 46.65800
C  47.37100 8.90800 46.85100
C  43.84700 8.38600 46.71800
O  43.67600 9.59500 46.79600
C  42.72400 7.32500 46.56100
C  41.88400 7.56200 47.75600
O  41.94100 6.89500 48.78700
O  40.80000 8.36500 47.43000
C  39.70400 8.39000 48.34300
H  42.29400 0.43800 46.95500
H  48.78400 0.24600 47.31200
H  48.97100 6.62400 46.95600
H  40.55600 4.80100 47.04500
H  40.95500 2.32300 45.64600
H  39.43300 2.97300 47.78200
H  40.80100 2.59100 48.72700
H  40.10500 1.34300 47.67400
H  40.44200 4.04100 44.43900
H  41.61500 5.27400 44.31800
H  39.32400 6.22800 45.87200
H  38.77500 5.22600 44.62500
H  43.56000 -2.06300 48.60800
H  44.24800 -2.82600 47.13400
H  42.94400 -1.74500 46.99700
H  49.09700 -3.13600 47.54900
H  49.17300 -1.55700 48.32700
H  48.99800 -1.69600 46.67700
H  50.48300 2.16700 46.33900
H  50.42600 4.44000 48.22800
H  50.10200 1.69400 49.13000
H  51.48300 2.75600 48.83700
H  51.36400 1.06300 48.16500
H  50.72900 5.44700 45.70100
H  51.26100 3.90300 45.48500
H  52.77100 6.10900 46.66500
H  53.20700 4.44500 46.16400
H  52.67000 4.71700 47.80900
H  48.42100 8.62000 46.78700
H  47.27800 9.58800 47.69800
H  47.03700 9.43200 45.95600
H  42.15100 7.46800 45.64400
H  39.29500 9.33200 48.70900
H  39.97600 7.92600 49.29100
H  38.89800 7.83500 47.86300
Mg 47.30600 24.73400 27.71600
C  48.18000 27.10900 30.24100
C  46.21500 22.65100 30.15900
C  46.81300 22.42100 25.31600
C  48.82200 26.86800 25.38400
N  47.15900 25.00600 29.94700
C  47.51500 26.01200 30.73200
C  47.23100 25.75900 32.26900
C  46.76800 24.25600 32.24500
C  46.69300 23.91800 30.65300
C  47.65100 23.27500 33.08400
C  46.18100 26.67800 32.86800
C  45.50500 26.12600 34.19000
H  45.56200 26.96600 35.47700
N  46.54700 22.72400 27.72500
C  46.15600 22.08900 28.85900
C  45.75200 20.73800 28.45000
C  45.80300 20.64500 27.00900
C  46.38800 21.98400 26.61000
C  45.49800 19.64400 29.46000
C  45.52400 19.55800 26.03000
O  45.66300 19.66200 24.83100
C  45.16100 18.26000 26.67300
N  47.89200 24.62700 25.74900
C  47.49200 23.60400 24.94500
C  47.94000 23.79200 23.52700
C  48.31300 25.26500 23.49900
C  48.44900 25.61000 24.98800
C  49.16200 22.83500 23.09200
C  47.30200 26.13200 22.74400
C  47.81100 26.97400 21.51100
N  48.36500 26.64300 27.70500
C  48.90500 27.29800 26.64000
C  49.38100 28.54100 27.21400
C  49.12200 28.54400 28.61900
C  48.60900 27.23600 28.86400
C  50.06600 29.66200 26.37000
C  49.38200 29.26900 29.82100
O  50.02800 30.26500 30.09800
C  48.73700 28.28300 30.90800
C  49.64300 28.03400 32.08000
O  50.66600 27.40700 32.07900
O  49.26500 28.88600 33.06900
C  49.95400 28.86900 34.36700
H  45.84800 21.89000 30.85200
H  46.60700 21.71700 24.50700
H  49.29500 27.51000 24.63800
H  48.17500 25.85800 32.80500
H  45.72900 24.07600 32.52300
H  48.48200 23.00100 32.43400
H  47.01500 22.45600 33.42200
H  48.08400 23.89900 33.86500
H  45.52600 27.14200 32.13100
H  46.72200 27.54900 33.23900
H  45.96800 25.16400 34.41300
H  44.43900 25.97600 34.01900
H  44.47700 19.35400 29.21100
H  45.31800 20.04000 30.46000
H  46.26100 18.87300 29.35600
H  44.10900 18.18400 26.94600
H  45.84700 17.98700 27.47500
H  45.35800 17.63100 25.80500
H  47.08800 23.61400 22.87100
H  49.32900 25.47900 23.16500
H  49.44000 22.18100 23.91900
H  49.96700 23.26900 22.50000
H  48.72500 22.08000 22.43900
H  46.91000 26.89600 23.41600
H  46.36800 25.59200 22.59200
H  47.69800 28.04700 21.66200
H  47.35900 26.73600 20.54800
H  48.89000 26.93500 21.35800
H  50.09700 30.55000 27.00200
H  49.42000 29.87500 25.51800
H  51.02700 29.30600 26.00100
H  47.93000 28.86900 31.34900
H  49.24700 28.70200 35.18000
H  50.25600 29.90000 34.55000
H  50.81100 28.19500 34.35700

