158

Mg 6.91100 54.49800 40.73100
C  6.49600 50.96000 41.20200
C  10.17700 54.00400 40.02500
C  6.92400 57.61700 39.83000
C  3.36400 54.65100 41.43300
N  8.08400 52.65300 40.42100
C  7.75300 51.34300 40.72100
C  8.87600 50.39200 40.53400
C  10.12400 51.40000 40.43700
C  9.44200 52.76700 40.26000
C  11.20700 51.33200 41.53500
C  8.76100 49.35200 39.33300
C  8.81300 49.83900 37.93900
H  7.41200 49.79100 37.24200
N  8.36600 55.67400 39.89700
C  9.69100 55.30300 39.77800
C  10.41500 56.44200 39.43000
C  9.54200 57.57200 39.32400
C  8.19000 56.98100 39.58000
C  11.91600 56.35200 39.21600
C  9.99400 59.00900 38.99000
O  11.17800 59.31600 38.88300
C  9.06000 60.10300 38.81700
N  5.37500 55.89700 40.47700
C  5.65500 57.14700 40.17200
C  4.49000 58.06700 40.55600
C  3.35200 57.02400 40.81900
C  4.09200 55.72000 40.95900
C  4.77600 58.94500 41.82800
C  2.27000 57.02800 39.65400
C  1.15200 58.00100 39.75000
N  5.18700 53.13100 41.16300
C  3.85900 53.33300 41.52900
C  3.24200 52.20900 42.06900
C  4.28800 51.20400 41.96300
C  5.38100 51.82500 41.39500
C  1.83800 51.98300 42.61300
C  4.58300 49.86700 42.42100
O  3.87500 48.97600 42.94100
C  5.96600 49.57200 41.67900
C  5.68600 48.58100 40.51200
O  5.11600 48.82900 39.46200
O  6.14700 47.36200 40.87400
C  5.90200 46.30600 39.89900
H  11.25700 53.84300 40.04600
H  6.86700 58.70100 39.71300
H  2.33400 54.69500 41.79400
H  8.94200 49.87300 41.49100
H  10.71400 51.24300 39.53500
H  11.19200 52.23400 42.14600
H  12.19900 51.06900 41.16800
H  10.90700 50.49000 42.15900
H  7.93200 48.64700 39.39000
H  9.71300 48.82600 39.40600
H  9.44800 49.27400 37.25700
H  9.11300 50.88700 37.93600
H  12.45000 56.63100 40.12400
H  12.09600 56.89500 38.28800
H  12.22900 55.33800 38.97000
H  8.68000 60.43500 39.78300
H  8.19700 59.75100 38.25100
H  9.47200 60.95600 38.27900
H  4.26300 58.71000 39.70500
H  2.87900 57.22300 41.78100
H  4.27100 58.60300 42.73100
H  4.51400 59.97800 41.60000
H  5.85000 58.89800 42.00700
H  1.84500 56.03500 39.50800
H  2.80100 57.16800 38.71200
H  1.21300 58.71300 38.92700
H  1.08800 58.34300 40.78300
H  0.15500 57.58000 39.61500
H  1.41800 51.06400 42.20500
H  1.25100 52.75000 42.10900
H  1.75500 51.95700 43.70000
H  6.65300 49.04900 42.34300
H  4.91300 46.34300 39.44100
H  6.12700 45.33900 40.34700
H  6.60900 46.46000 39.08400
Mg 0.37100 44.13200 25.69500
C  2.54200 43.52300 28.30700
C  -2.25900 43.01000 27.65000
C  -1.67900 44.57200 23.06300
C  3.14400 44.67000 23.58700
N  0.18300 43.51600 27.73800
C  1.18300 43.38100 28.68100
C  0.61700 43.27300 30.11800
C  -0.85400 42.83300 29.77900
C  -1.00900 43.21300 28.30800
C  -1.23900 41.30600 29.92000
C  0.72100 44.64900 30.76300
C  0.51700 44.64000 32.30600
H  0.56100 43.29600 33.10300
N  -1.63700 43.80000 25.40400
C  -2.56600 43.38800 26.33400
C  -3.89900 43.33400 25.71000
C  -3.80700 43.81100 24.38700
C  -2.33400 44.08500 24.22000
C  -5.20700 43.01600 26.45200
C  -4.90300 44.17800 23.34100
O  -4.69500 44.74100 22.27700
C  -6.38200 43.71400 23.62300
N  0.69700 44.42000 23.54500
C  -0.31100 44.76400 22.78000
C  0.18100 45.19900 21.40800
C  1.58900 45.57000 21.76500
C  1.86700 44.73600 23.07400
C  -0.13700 44.04200 20.36000
C  1.67500 47.05200 22.12100
C  1.98800 48.02500 20.92800
N  2.46100 44.10800 25.81300
C  3.46400 44.27700 24.88000
C  4.78600 44.05700 25.50800
C  4.44300 43.86500 26.86900
C  3.07600 43.81700 27.00700
C  6.15700 44.36300 24.95900
C  4.97600 43.80200 28.25800
O  6.08700 43.84300 28.70700
C  3.79400 43.50900 29.27000
C  3.98100 42.20600 29.98800
O  3.75300 41.09400 29.57200
O  4.44700 42.38400 31.25200
C  4.48000 41.28400 32.16200
H  -3.12600 42.79600 28.28000
H  -2.37300 44.83000 22.26100
H  3.93400 45.03000 22.92500
H  1.02300 42.46800 30.73100
H  -1.62300 43.32600 30.37400
H  -1.63500 40.84600 29.01400
H  -1.97500 41.11300 30.70000
H  -0.42400 40.72400 30.35100
H  -0.12800 45.27500 30.48900
H  1.59900 45.24300 30.50900
H  -0.40500 45.18700 32.50100
H  1.30300 45.25200 32.74800
H  -6.01100 43.75200 26.42600
H  -5.01600 42.85800 27.51400
H  -5.59100 42.07200 26.06700
H  -6.83200 44.08800 24.54200
H  -6.42000 42.62500 23.66200
H  -7.14100 44.04000 22.91200
H  -0.46100 46.05400 21.19700
H  2.26800 45.34500 20.94200
H  -0.67600 44.40900 19.48600
H  -0.81600 43.33900 20.84100
H  0.69500 43.44100 19.99300
H  2.37200 47.31800 22.91600
H  0.72700 47.38000 22.54900
H  2.05200 47.43300 20.01400
H  2.92300 48.56900 21.06000
H  1.23200 48.79500 20.77600
H  6.83500 43.76800 25.57100
H  6.53900 45.37300 25.10700
H  6.27200 44.14400 23.89800
H  3.82500 44.26100 30.05900
H  5.00600 41.74700 32.99600
H  5.00800 40.43000 31.73700
H  3.46500 40.95100 32.37600

