158

Mg 0.94400 8.29100 25.92700
C  1.88500 10.41300 28.66900
C  1.16300 5.66000 28.03100
C  0.57600 6.29700 23.21600
C  1.22000 11.10400 23.90100
N  1.55800 8.07400 28.23400
C  1.81500 9.06600 29.11100
C  2.10800 8.42300 30.47700
C  2.06700 6.80400 30.12400
C  1.50400 6.83600 28.70500
C  3.32500 5.93300 30.28400
C  1.17700 8.99600 31.57300
C  1.38800 8.48700 33.09100
H  2.61000 7.59400 33.25100
N  0.68400 6.26100 25.62500
C  0.74200 5.39300 26.68900
C  0.36100 4.04000 26.24800
C  0.26600 4.15700 24.80500
C  0.58700 5.56500 24.45600
C  0.23600 2.91700 27.27500
C  0.12700 3.04100 23.72400
O  0.14200 3.39300 22.51700
C  0.02600 1.65300 24.10100
N  1.11000 8.60000 23.83700
C  0.82500 7.62700 22.91200
C  0.75400 8.29200 21.54000
C  0.47300 9.76600 21.83900
C  0.91800 9.85900 23.25400
C  2.09400 7.95600 20.77500
C  -0.97800 10.48500 21.74800
C  -0.88500 11.79300 20.92800
N  1.47200 10.33900 26.11800
C  1.47400 11.34100 25.21100
C  1.79900 12.63000 25.81500
C  1.93200 12.28600 27.17800
C  1.74300 10.89700 27.33000
C  2.01500 13.99000 25.17300
C  2.13800 12.85200 28.46500
O  2.43900 14.01500 28.70800
C  2.09700 11.67900 29.48800
C  3.41500 11.57600 30.25800
O  4.54200 11.37300 29.82100
O  3.05700 11.89800 31.59900
C  4.19000 11.73000 32.57600
H  1.17500 4.76700 28.66000
H  0.18000 5.69100 22.39800
H  1.09100 11.95400 23.22700
H  3.12600 8.66400 30.78000
H  1.28200 6.31400 30.70000
H  4.06600 6.62500 30.68200
H  3.59200 5.56100 29.29400
H  3.04200 5.14200 30.97900
H  0.12800 8.94200 31.28500
H  1.46900 10.04600 31.60000
H  0.46300 8.10900 33.52600
H  1.66000 9.32300 33.73500
H  0.00300 2.01600 26.70800
H  -0.45400 3.19200 28.07400
H  1.25300 2.86300 27.66400
H  0.00300 1.09600 23.16400
H  -0.83600 1.35300 24.69600
H  0.84600 1.30200 24.72700
H  -0.03200 7.75100 21.01300
H  1.15800 10.34900 21.22400
H  2.80000 8.76800 20.60100
H  1.77200 7.71200 19.76300
H  2.66600 7.10500 21.14300
H  -1.25300 10.66600 22.78700
H  -1.61200 9.72800 21.28500
H  0.11300 12.18800 20.73900
H  -1.48900 12.58000 21.38100
H  -1.31000 11.52200 19.96100
H  2.96500 14.46900 25.40800
H  1.30200 14.62000 25.70500
H  1.77100 14.00600 24.11000
H  1.33200 11.89000 30.23600
H  5.21200 11.72700 32.19800
H  4.07400 10.82100 33.16700
H  4.02900 12.39500 33.42400
Mg 46.55000 25.39000 28.89500
C  47.49300 27.66300 31.50700
C  45.91900 23.07400 31.31300
C  46.28200 22.99000 26.38000
C  47.92700 27.61000 26.64900
N  46.53800 25.42400 31.15600
C  46.76200 26.52600 31.99000
C  46.39300 26.25300 33.41900
C  45.95600 24.70800 33.36500
C  46.09500 24.36900 31.87900
C  46.93300 23.80100 34.18600
C  45.19900 27.19800 33.90200
C  45.40400 27.87800 35.20900
H  46.23100 27.16400 36.31000
N  46.02700 23.31000 28.81300
C  45.87800 22.52800 30.00900
C  45.48200 21.17900 29.53800
C  45.52600 21.14500 28.09100
C  45.96400 22.51300 27.70100
C  45.07600 20.09200 30.54700
C  45.12200 20.00800 27.20500
O  45.26400 19.98200 25.97800
C  44.56400 18.77600 27.92600
N  46.86000 25.36700 26.83200
C  46.61400 24.29900 25.95600
C  46.97100 24.66800 24.51300
C  47.31200 26.15100 24.64500
C  47.41500 26.41500 26.13000
C  48.19300 23.90800 23.94700
C  46.30300 27.13800 23.96700
C  46.91100 28.41000 23.32000
N  47.50700 27.24500 28.94300
C  47.94900 28.01800 27.97100
C  48.56400 29.20700 28.53700
C  48.35100 29.12900 29.87900
C  47.74400 27.91600 30.11600
C  49.16700 30.22700 27.78800
C  48.59800 29.82900 31.16700
O  49.01300 30.95400 31.47500
C  48.02400 28.82100 32.26900
C  49.00300 28.49500 33.24400
O  49.56800 27.38500 33.26900
O  49.26600 29.46400 34.12300
C  50.17400 29.13500 35.25100
H  45.78100 22.35600 32.12400
H  45.92200 22.40800 25.52900
H  48.29000 28.27300 25.86000
H  47.24000 26.30700 34.10400
H  44.94600 24.39500 33.63000
H  47.41200 24.37700 34.97800
H  47.74400 23.51700 33.51500
H  46.34300 23.00900 34.64700
H  44.20300 26.76000 33.84100
H  45.13000 27.99300 33.15900
H  44.43400 28.04300 35.67700
H  45.78000 28.88700 35.04100
H  43.99400 19.97700 30.47100
H  45.29300 20.45500 31.55100
H  45.66000 19.18100 30.41400
H  43.80300 19.05600 28.65400
H  45.38500 18.13300 28.24200
H  44.13900 18.25400 27.06800
H  46.09000 24.39300 23.93300
H  48.30200 26.45500 24.30500
H  47.92300 23.25800 23.11400
H  48.51000 23.28600 24.78400
H  49.03300 24.57500 23.75300
H  45.68900 27.46100 24.80700
H  45.61600 26.56700 23.34200
H  46.60400 28.55200 22.28400
H  47.99500 28.36600 23.20900
H  46.68000 29.33100 23.85600
H  49.58200 29.98000 26.81100
H  50.05200 30.54900 28.33600
H  48.48100 31.06300 27.65300
H  47.22600 29.38000 32.75800
H  51.01900 28.53200 34.91900
H  49.55300 28.66400 36.01300
H  50.44500 30.08700 35.70700

