158

Mg 47.31800 24.59000 28.66800
C  47.98100 26.76700 31.15900
C  46.46300 22.21800 30.86000
C  46.55700 22.74200 26.00000
C  48.49600 27.04300 26.27900
N  47.37700 24.53400 30.84800
C  47.50400 25.55000 31.69600
C  47.34500 25.05200 33.19400
C  46.93300 23.59000 32.97900
C  46.89300 23.38300 31.46300
C  47.85200 22.62800 33.71700
C  46.31000 25.93500 33.93000
C  46.77500 26.47600 35.38400
H  45.70000 26.50300 36.34700
N  46.69200 22.75900 28.44500
C  46.24900 21.92500 29.47900
C  45.94000 20.67300 28.91600
C  46.00400 20.72200 27.52200
C  46.38200 22.16800 27.29000
C  45.77400 19.42100 29.85900
C  45.87000 19.63500 26.43600
O  46.22200 19.85800 25.30600
C  45.32100 18.32600 26.68100
N  47.45800 24.79900 26.44200
C  47.13200 23.90400 25.58200
C  47.35400 24.26100 24.11300
C  47.73700 25.77900 24.27500
C  47.95800 25.84000 25.78700
C  48.48900 23.35300 23.50100
C  46.66400 26.79800 23.70100
C  45.43700 27.18800 24.53600
N  48.11600 26.46700 28.69000
C  48.45600 27.35600 27.70400
C  48.87200 28.67700 28.20300
C  48.70000 28.50000 29.60300
C  48.25500 27.13900 29.83200
C  49.48500 29.88900 27.40100
C  48.79000 29.10600 30.89300
O  49.11000 30.24500 31.20200
C  48.27400 28.04700 31.87800
C  49.26800 27.89800 32.98800
O  50.20100 27.15800 32.82600
O  49.04900 28.82700 33.97000
C  49.81600 28.75300 35.22300
H  46.17100 21.49100 31.62100
H  46.17500 22.03400 25.26200
H  49.01500 27.72900 25.60700
H  48.28700 25.16300 33.73100
H  45.91900 23.41800 33.33900
H  47.23000 21.92300 34.26900
H  48.44200 23.12700 34.48700
H  48.55500 21.98000 33.19300
H  45.35500 25.47100 34.17800
H  46.09600 26.83900 33.36100
H  47.22400 27.45100 35.19700
H  47.51100 25.73900 35.70700
H  46.46600 18.62600 29.58000
H  44.76400 19.04600 29.69600
H  45.92600 19.59300 30.92500
H  44.47100 18.27700 27.36200
H  46.20900 17.80100 27.03500
H  45.15400 17.75000 25.77100
H  46.43100 24.08000 23.56300
H  48.68600 25.91700 23.75600
H  48.38300 22.35200 23.92000
H  49.44900 23.70200 23.88200
H  48.54000 23.30900 22.41300
H  46.30200 26.25500 22.82800
H  47.30900 27.59600 23.33300
H  45.50500 26.53100 25.40300
H  44.60800 26.93800 23.87300
H  45.55900 28.21000 24.89700
H  48.88800 30.12600 26.52000
H  50.46600 29.50300 27.12600
H  49.51700 30.85300 27.90900
H  47.36900 28.54300 32.22900
H  49.25500 28.26800 36.02300
H  49.95600 29.77100 35.58400
H  50.77800 28.26300 35.07500
Mg 16.34300 51.79300 25.43900
C  18.00100 50.70600 28.21200
C  13.66300 52.87200 27.35200
C  14.55300 52.41000 22.52300
C  18.75800 50.11200 23.44100
N  15.88300 51.68100 27.49100
C  16.80700 51.39400 28.45200
C  16.38900 51.91700 29.84800
C  14.88900 52.31400 29.50500
C  14.83900 52.38200 28.00900
C  13.70800 51.44400 30.02500
C  17.33100 53.09600 30.35600
C  18.01200 52.94100 31.77000
H  17.33700 52.06800 32.80600
N  14.38500 52.61900 25.02000
C  13.42900 52.91900 25.96100
C  12.31100 53.51800 25.23500
C  12.65200 53.50700 23.82900
C  13.94600 52.88100 23.75700
C  11.22500 54.22200 25.86400
C  11.77600 53.88300 22.64800
O  12.19900 53.97700 21.49100
C  10.34400 54.24000 22.85800
N  16.68300 51.27000 23.33700
C  15.70900 51.59900 22.40900
C  16.10900 51.17800 21.00900
C  17.52200 50.59300 21.22700
C  17.70700 50.65000 22.75300
C  15.08500 50.27500 20.29300
C  18.77500 51.32700 20.61700
C  18.75700 52.82100 20.67800
N  17.96000 50.61500 25.68800
C  18.90000 50.08100 24.83300
C  19.93500 49.38800 25.55400
C  19.59800 49.54100 26.88300
C  18.34700 50.25500 26.92800
C  21.16200 48.64600 25.01600
C  20.04000 49.36100 28.26200
O  21.11800 48.83100 28.61900
C  18.97400 50.03100 29.24600
C  18.43200 49.02100 30.10300
O  17.35500 48.41800 30.06300
O  19.37200 48.69800 31.05000
C  18.92500 47.77500 32.12500
H  12.94200 53.28700 28.05900
H  14.01000 52.50100 21.58000
H  19.47700 49.56100 22.83100
H  16.51700 51.10800 30.56700
H  14.79100 53.34900 29.83300
H  13.53700 50.54100 29.43900
H  12.79100 51.94100 30.34400
H  14.02100 51.04700 30.99100
H  16.87000 54.04700 30.09000
H  18.13300 52.98000 29.62700
H  17.98800 53.97200 32.12400
H  19.06400 52.70300 31.61100
H  10.84800 55.07600 25.30200
H  11.49400 54.57000 26.86100
H  10.53600 53.40700 26.08600
H  10.06000 55.24200 23.17800
H  10.01700 53.50300 23.59100
H  9.89900 54.01800 21.88800
H  16.04200 52.02100 20.32200
H  17.53600 49.54000 20.94600
H  14.19100 50.27000 20.91600
H  15.51400 49.27400 20.23500
H  14.70100 50.62700 19.33600
H  18.70100 50.98700 19.58300
H  19.72600 50.99900 21.03600
H  17.90400 53.30600 21.15200
H  18.84000 53.29400 19.69900
H  19.56500 53.05700 21.37100
H  21.06500 48.56500 23.93300
H  21.30900 47.60500 25.30300
H  22.10600 49.15100 25.22100
H  19.48900 50.83800 29.76600
H  19.21000 46.79800 31.73500
H  17.85100 47.76200 32.31100
H  19.40300 48.04100 33.06800

