158

Mg 48.02800 35.09900 27.83900
C  46.30400 33.42700 30.33200
C  48.60500 37.54800 30.08200
C  49.27000 37.01200 25.22200
C  47.59900 32.44700 25.67900
N  47.45400 35.47600 29.90500
C  46.96000 34.55800 30.85200
C  47.11000 35.05000 32.23600
C  47.36200 36.54100 32.03500
C  47.87300 36.54000 30.59200
C  46.09800 37.41100 32.22300
C  48.41200 34.25100 32.78200
C  48.74500 34.44800 34.27600
H  47.67500 35.07900 35.22100
N  48.91100 36.99500 27.67900
C  49.10100 37.82000 28.70900
C  49.75600 39.02200 28.21500
C  49.77000 39.04900 26.79700
C  49.24300 37.64600 26.52000
C  50.37000 40.06500 29.16000
C  50.44400 40.07200 25.81600
O  50.38600 39.93300 24.60800
C  51.18300 41.31100 26.35500
N  48.49100 34.72800 25.77200
C  48.91500 35.65700 24.87400
C  48.97200 35.08400 23.36600
C  48.75800 33.51900 23.64100
C  48.31000 33.53600 25.13300
C  47.97400 35.86100 22.52700
C  49.99300 32.63000 23.41700
C  49.77100 31.18400 23.21100
N  47.16200 33.21300 27.95300
C  46.98500 32.30000 26.99700
C  46.32300 31.20400 27.54300
C  45.84000 31.69800 28.84100
C  46.42300 32.88400 29.02600
C  45.96200 29.92700 26.76600
C  45.11500 31.35500 30.07200
O  44.46000 30.38600 30.38600
C  45.28200 32.50700 31.06400
C  45.61500 31.95700 32.32700
O  46.57500 31.19300 32.55000
O  44.64000 32.29300 33.28200
C  44.93100 31.80700 34.63400
H  48.64400 38.35300 30.81900
H  49.55500 37.57100 24.32800
H  47.27300 31.70900 24.94200
H  46.20600 34.81700 32.80000
H  48.14600 36.84000 32.73000
H  46.28500 37.98000 33.13300
H  45.31300 36.72200 32.53400
H  45.77400 38.09000 31.43400
H  49.29100 34.68100 32.30200
H  48.34400 33.18000 32.58700
H  49.69600 34.97600 34.34100
H  48.90000 33.44400 34.67100
H  50.54900 39.60400 30.13200
H  49.72000 40.92300 29.33100
H  51.39100 40.32200 28.87600
H  50.43500 41.88400 26.90300
H  51.56100 42.04400 25.64300
H  52.04300 40.94700 26.91700
H  49.96300 35.22200 22.93400
H  48.00700 33.03900 23.01300
H  47.30600 35.15000 22.04200
H  48.39000 36.49000 21.74000
H  47.47700 36.44000 23.30600
H  50.64400 32.69600 24.29000
H  50.65100 32.95300 22.61100
H  50.01400 31.16200 22.14800
H  48.77000 30.77900 23.35400
H  50.39900 30.53800 23.82500
H  45.66200 30.27200 25.77600
H  45.19500 29.37500 27.30800
H  46.69000 29.13000 26.61200
H  44.32900 33.03000 31.14900
H  45.98600 31.62800 34.84300
H  44.37100 30.89500 34.84100
H  44.49800 32.52400 35.33100
Mg 36.78000 49.16000 25.28100
C  37.02200 47.09000 28.21800
C  35.47900 51.57600 27.27000
C  36.41200 50.90500 22.51200
C  37.79100 46.34100 23.51800
N  36.40700 49.31300 27.48700
C  36.53700 48.38300 28.49800
C  36.36400 49.03000 29.84800
C  35.73900 50.43600 29.45100
C  35.86900 50.46000 27.94200
C  34.29300 50.69600 29.96800
C  37.69700 49.14100 30.61900
C  37.59700 48.44600 32.05300
H  36.29200 48.60700 32.82000
N  36.04700 51.00800 24.94900
C  35.57200 51.89600 25.90200
C  35.18100 53.15300 25.22500
C  35.38300 52.90700 23.77700
C  35.89600 51.58800 23.68600
C  34.50900 54.27900 26.00700
C  35.06100 53.76700 22.62100
O  35.19400 53.45400 21.42700
C  34.72900 55.22800 22.85900
N  37.08800 48.73300 23.31100
C  36.85100 49.59800 22.31000
C  37.09200 48.88600 20.95400
C  37.70000 47.50400 21.28600
C  37.60200 47.56600 22.83100
C  35.75000 48.76500 20.15600
C  39.18900 47.40800 20.83500
C  40.27900 48.34100 21.32800
N  37.29200 47.10700 25.71500
C  37.68000 46.06900 24.89100
C  37.92900 44.84000 25.59000
C  37.61800 45.25500 26.89200
C  37.28600 46.64800 26.93200
C  38.44100 43.46900 25.18300
C  37.63900 44.74800 28.26200
O  37.94100 43.69300 28.68100
C  37.25400 45.91400 29.19300
C  36.00100 45.59600 29.90800
O  34.89600 45.84000 29.53400
O  36.28200 44.98500 31.13300
C  35.14500 44.56000 31.96300
H  35.02400 52.41400 27.80300
H  36.36500 51.39100 21.53500
H  38.04000 45.39500 23.03300
H  35.63000 48.33300 30.25400
H  36.30500 51.28700 29.83100
H  33.87200 49.83400 30.48500
H  33.56400 50.98200 29.20900
H  34.34400 51.61600 30.55100
H  37.99900 50.17000 30.81300
H  38.37800 48.58000 29.97800
H  38.34500 48.92200 32.68600
H  37.81800 47.38000 31.98400
H  34.59200 55.29900 25.63100
H  34.95600 54.41300 26.99200
H  33.52300 53.88000 26.24600
H  35.42700 55.67500 23.56700
H  33.73900 55.32000 23.30600
H  34.72300 55.68900 21.87200
H  37.76200 49.53400 20.39000
H  37.09300 46.66600 20.94300
H  34.99600 49.42900 20.57900
H  35.39500 47.74000 20.04700
H  35.86900 49.22200 19.17400
H  39.10500 47.41400 19.74800
H  39.63800 46.44800 21.08600
H  39.78600 49.23600 21.70600
H  40.97600 48.43000 20.49500
H  40.91700 47.89200 22.09000
H  38.80700 43.50000 24.15600
H  37.48100 42.95800 25.27000
H  39.17900 43.02600 25.85200
H  38.00000 46.05300 29.97600
H  34.18300 45.05200 31.82300
H  35.44200 44.86500 32.96600
H  35.12100 43.47100 31.92400

