158

Mg 24.42300 -5.08900 46.33600
C  26.26400 -2.41500 44.82400
C  21.81900 -4.24600 44.43800
C  23.10100 -8.11600 47.18100
C  27.46200 -6.06200 47.80900
N  24.15200 -3.54900 44.80900
C  25.02700 -2.62400 44.27500
C  24.33500 -1.70900 43.17100
C  22.83800 -2.21900 43.19800
C  22.88800 -3.44500 44.29700
C  21.91400 -1.09400 43.66200
C  24.91800 -1.77700 41.67900
C  25.44300 -0.44000 41.03900
H  25.26500 -0.37200 39.51200
N  22.66400 -5.98800 45.98400
C  21.67600 -5.42300 45.20100
C  20.43100 -6.30400 45.36800
C  20.77300 -7.40400 46.15900
C  22.18100 -7.22400 46.50500
C  19.03900 -5.99300 44.76500
C  19.83300 -8.49900 46.68200
O  18.62000 -8.50800 46.41100
C  20.31300 -9.61400 47.42500
N  25.16600 -6.81000 47.30800
C  24.44600 -7.93000 47.53400
C  25.31500 -8.99600 48.29000
C  26.63400 -8.32700 48.53000
C  26.38900 -6.97900 47.78500
C  24.54200 -9.39800 49.63400
C  27.85700 -9.07700 48.05700
C  29.03500 -9.07300 49.00400
N  26.48200 -4.38100 46.44100
C  27.57000 -4.84300 47.09500
C  28.64800 -3.95600 47.01800
C  28.17100 -3.03600 46.12700
C  26.85400 -3.28900 45.78400
C  29.96700 -3.96000 47.77100
C  28.50900 -1.84500 45.40700
O  29.52100 -1.16800 45.42200
C  27.32700 -1.37500 44.53000
C  26.96100 0.02600 44.70200
O  26.41700 0.55300 45.66500
O  27.27900 0.81000 43.60700
C  26.84300 2.27900 43.56700
H  20.94000 -4.03600 43.82500
H  22.64100 -9.07700 47.41900
H  28.37600 -6.37800 48.31700
H  24.48400 -0.67600 43.48400
H  22.49200 -2.66100 42.26400
H  21.19900 -0.93800 42.85500
H  22.37100 -0.10800 43.74700
H  21.39400 -1.29900 44.59800
H  24.16200 -2.17600 41.00300
H  25.76400 -2.45600 41.79200
H  26.42600 -0.06600 41.32700
H  24.75600 0.31600 41.41900
H  18.49400 -6.81100 44.29400
H  19.22400 -5.29800 43.94600
H  18.28300 -5.52500 45.39500
H  19.45700 -10.28700 47.44700
H  20.54600 -9.36200 48.46000
H  21.14000 -10.07400 46.88300
H  25.46800 -9.82700 47.60200
H  26.75400 -7.96300 49.55100
H  25.15100 -9.15600 50.50500
H  24.34600 -10.46900 49.58400
H  23.57600 -8.90700 49.75700
H  28.15500 -8.49700 47.18300
H  27.74100 -10.07300 47.63100
H  29.67800 -8.27400 48.63500
H  29.59100 -10.00700 48.92200
H  28.86400 -8.95400 50.07400
H  30.50300 -3.05200 47.49300
H  30.58200 -4.81100 47.48200
H  29.88800 -4.07900 48.85200
H  27.62200 -1.49900 43.48800
H  27.67000 2.89700 43.21700
H  26.47800 2.69500 44.50500
H  26.02100 2.35800 42.85600
Mg 34.32000 3.02400 29.67500
C  31.93900 4.09100 32.05500
C  36.68600 3.43700 32.09400
C  36.36600 1.92400 27.38900
C  31.72800 2.88600 27.24200
N  34.32800 3.70900 31.78300
C  33.27200 3.96600 32.53000
C  33.63000 4.15300 33.98700
C  35.23600 4.11000 34.00000
C  35.45200 3.65500 32.57100
C  36.02700 5.42100 34.32800
C  32.90300 3.16600 34.86700
C  32.35300 3.68900 36.21700
H  33.21600 4.71400 37.00000
N  36.33600 2.81600 29.66000
C  37.14300 2.95200 30.80100
C  38.48600 2.55500 30.32500
C  38.41300 2.13500 28.92600
C  37.04400 2.33700 28.59300
C  39.65100 2.85100 31.31600
C  39.55100 1.71600 27.95500
O  39.37300 1.23300 26.82500
C  40.93400 1.65800 28.55100
N  34.13200 2.49100 27.62500
C  35.17900 2.13600 26.82400
C  34.75300 1.87800 25.34000
C  33.22000 1.78400 25.49000
C  33.03100 2.44600 26.88500
C  35.30700 2.94600 24.36900
C  32.55800 0.37300 25.47200
C  31.98400 -0.07000 24.10600
N  32.29400 3.38500 29.59200
C  31.35700 3.29600 28.55300
C  30.09000 3.71500 29.01300
C  30.25700 4.05900 30.41100
C  31.58100 3.80200 30.72100
C  28.86700 3.77400 28.16500
C  29.58500 4.48600 31.59500
O  28.40100 4.72800 31.80800
C  30.62500 4.50700 32.78400
C  30.67100 5.90200 33.37500
O  31.27400 6.84700 32.85600
O  30.04100 5.91900 34.56700
C  30.02900 7.21700 35.21400
H  37.47000 3.63800 32.82700
H  37.09200 1.37200 26.78800
H  30.98500 3.00200 26.44900
H  33.36400 5.15400 34.32600
H  35.56600 3.22000 34.53600
H  35.38900 6.18300 34.77800
H  36.58200 5.71300 33.43600
H  36.71900 5.29500 35.16100
H  33.50900 2.27400 35.03000
H  32.08400 2.59800 34.42500
H  32.23000 2.86700 36.92200
H  31.36900 4.14900 36.12900
H  40.37800 2.04900 31.18300
H  39.29800 2.74500 32.34200
H  40.19800 3.77800 31.14600
H  41.69700 1.48400 27.79200
H  40.92800 0.85500 29.28800
H  41.22200 2.53100 29.13600
H  35.15700 0.91000 25.04400
H  32.73600 2.46700 24.79300
H  34.50400 3.56400 23.96600
H  35.84500 2.51800 23.52300
H  35.96200 3.53400 25.01100
H  31.80800 0.25200 26.25300
H  33.32800 -0.37600 25.65800
H  32.54500 -0.92900 23.73700
H  31.92600 0.69500 23.33200
H  30.97500 -0.46800 24.22100
H  28.00100 3.61500 28.80700
H  28.81300 3.04000 27.36100
H  28.80800 4.77200 27.73100
H  30.47300 3.88700 33.66800
H  29.01100 7.60600 35.19100
H  30.68400 7.98700 34.80600
H  30.18400 6.95300 36.26000

