158

Mg 30.73100 58.52600 39.37800
C  28.06000 56.46300 38.50600
C  32.87200 55.89900 38.60200
C  33.30300 60.78800 39.43200
C  28.46800 61.30700 39.51200
N  30.50000 56.50200 38.60200
C  29.34600 55.90200 38.31200
C  29.46700 54.45200 37.76100
C  31.02400 54.15600 38.11400
C  31.52400 55.55300 38.51700
C  31.23500 53.19100 39.39200
C  29.18600 54.44600 36.21100
C  29.46000 55.76400 35.37600
H  28.37500 56.27200 34.38900
N  32.82500 58.35400 38.98600
C  33.50600 57.13900 38.67900
C  34.86100 57.44800 38.59100
C  35.04500 58.88900 38.88500
C  33.72800 59.43000 39.09300
C  35.96000 56.39500 38.39100
C  36.38600 59.51600 38.99700
O  37.46400 58.94100 38.79200
C  36.46100 61.02500 39.15300
N  30.81900 60.68800 39.43700
C  32.04200 61.34400 39.53400
C  31.89500 62.80100 39.80900
C  30.33100 62.96600 39.89200
C  29.79200 61.63700 39.53400
C  32.65500 63.29400 41.20400
C  29.71500 64.10900 39.03200
C  28.48500 64.75300 39.61100
N  28.63500 58.86200 39.11600
C  27.90300 60.05100 39.22900
C  26.49100 59.65200 39.03400
C  26.54200 58.26500 38.69200
C  27.84200 57.83600 38.87100
C  25.22900 60.52500 38.99400
C  25.74700 57.06900 38.27500
O  24.51400 56.96300 38.15700
C  26.65000 55.86400 38.24900
C  26.11300 54.89300 39.30500
O  26.26300 55.05200 40.48900
O  25.25000 54.03000 38.78600
C  24.35100 53.28100 39.70100
H  33.49000 55.06400 38.26600
H  34.05000 61.57900 39.51400
H  27.68900 62.07200 39.51500
H  28.72500 53.82400 38.25400
H  31.61300 53.73500 37.30000
H  31.71000 52.32100 38.93900
H  30.29700 52.72600 39.69500
H  31.68400 53.53300 40.32400
H  28.15300 54.10200 36.15100
H  29.86500 53.68400 35.82800
H  30.33100 55.54700 34.75800
H  29.70900 56.61600 36.00900
H  35.64300 55.46700 37.91600
H  36.43100 56.30600 39.37000
H  36.65500 56.78200 37.64500
H  35.85600 61.25300 40.03100
H  36.15700 61.53900 38.24100
H  37.49300 61.35100 39.27600
H  32.31300 63.31600 38.94400
H  29.99700 63.17400 40.90800
H  32.90300 62.45500 41.85400
H  32.08500 63.96200 41.85000
H  33.60800 63.75600 40.94400
H  29.49100 63.79000 38.01400
H  30.40500 64.95100 38.98600
H  27.82200 64.91700 38.76200
H  28.81900 65.67200 40.09300
H  28.04000 64.03900 40.30300
H  25.19700 60.91100 40.01300
H  24.35900 59.93700 38.70400
H  25.38000 61.38300 38.33800
H  26.58100 55.36500 37.28200
H  24.86200 53.13900 40.65300
H  24.12900 52.32500 39.22600
H  23.36100 53.73500 39.73800
Mg -11.04000 38.62900 41.86300
C  -9.15400 35.74800 40.99300
C  -8.85600 40.48100 39.98200
C  -13.29500 41.24800 41.74100
C  -13.61900 36.44800 43.01700
N  -9.43900 38.02800 40.30000
C  -8.75900 36.83500 40.24600
C  -7.46200 37.02300 39.35900
C  -7.37600 38.60500 39.22700
C  -8.64000 39.12600 39.91600
C  -6.08900 39.20900 39.72900
C  -7.70000 36.26600 37.95700
C  -6.62900 35.28400 37.55300
H  -5.68600 35.92100 36.47700
N  -10.96600 40.61200 41.15600
C  -9.97700 41.15500 40.49500
C  -10.20600 42.60200 40.30500
C  -11.46200 42.85500 40.89000
C  -11.99400 41.51600 41.16300
C  -9.28400 43.50100 39.50700
C  -12.17200 44.20500 40.94300
O  -11.59200 45.24000 40.70800
C  -13.55200 44.35700 41.50300
N  -13.12100 38.75200 42.11000
C  -13.81700 39.96800 42.08800
C  -15.28200 39.78500 42.46800
C  -15.40500 38.32100 42.79300
C  -13.92700 37.81200 42.68900
C  -15.67400 40.77700 43.61200
C  -16.17900 37.44500 41.80600
C  -17.19900 36.44200 42.45600
N  -11.36100 36.48300 42.03900
C  -12.33800 35.78500 42.70400
C  -11.87000 34.45600 42.94900
C  -10.66700 34.39900 42.36700
C  -10.37900 35.62300 41.73400
C  -12.64800 33.44200 43.72200
C  -9.59800 33.59800 41.97300
O  -9.41000 32.38900 42.14700
C  -8.55000 34.38100 41.07200
C  -7.16000 34.34000 41.75000
O  -6.37300 33.41800 41.59200
O  -6.86900 35.58000 42.34400
C  -5.52400 35.75700 42.83900
H  -8.24700 41.03600 39.26600
H  -14.07600 42.00800 41.81700
H  -14.40600 35.85600 43.48900
H  -6.62400 36.54200 39.86500
H  -7.45300 38.95000 38.19600
H  -6.25300 39.89700 40.55800
H  -5.59700 39.77900 38.94000
H  -5.30000 38.47700 39.90600
H  -7.89800 37.05800 37.23500
H  -8.56600 35.61900 38.10100
H  -6.96500 34.32900 37.14900
H  -5.98500 34.90800 38.34900
H  -9.90600 44.21400 38.96600
H  -8.77200 42.85100 38.79700
H  -8.62400 44.08200 40.15200
H  -13.82700 45.41100 41.45400
H  -13.68200 44.06700 42.54600
H  -14.11300 43.77700 40.77100
H  -16.01900 40.06100 41.71400
H  -15.84200 38.15900 43.77800
H  -15.94300 41.74600 43.19200
H  -14.85600 40.97700 44.30400
H  -16.52000 40.46300 44.22400
H  -15.49400 36.82000 41.23300
H  -16.73400 38.07300 41.10900
H  -18.23400 36.73400 42.28000
H  -17.06900 36.51000 43.53600
H  -17.05300 35.44300 42.04600
H  -13.64400 33.25100 43.32200
H  -12.76000 34.02400 44.63600
H  -11.99500 32.58000 43.85800
H  -8.39200 33.86700 40.12400
H  -5.55900 36.44400 43.68400
H  -4.79500 36.06500 42.08900
H  -5.22000 34.80600 43.27800

