158

Mg 35.03800 2.14100 29.56300
C  33.06300 3.27900 32.15900
C  37.67800 2.06100 31.75800
C  37.05600 1.32700 26.93100
C  32.38900 2.87100 27.38700
N  35.32000 2.56100 31.73300
C  34.38000 3.05600 32.58200
C  34.91000 3.23900 34.03600
C  36.46900 3.15200 33.83600
C  36.52700 2.57900 32.34700
C  37.06400 4.52700 33.87600
C  34.41200 2.16100 34.95900
C  34.33600 2.40200 36.49500
H  34.95200 3.60500 37.12300
N  37.07500 1.70500 29.35600
C  37.98700 1.73600 30.42700
C  39.24700 1.18500 29.95500
C  39.09900 0.97700 28.56000
C  37.71500 1.39400 28.20100
C  40.44900 0.94600 30.80900
C  40.16300 0.56500 27.56200
O  39.98200 0.56100 26.39900
C  41.52300 0.17600 28.06800
N  34.86600 2.38200 27.44900
C  35.80800 1.88500 26.54700
C  35.33500 2.10800 25.10800
C  33.85200 2.49800 25.31300
C  33.63200 2.59000 26.81500
C  36.27400 3.08200 24.30700
C  32.86900 1.66100 24.42700
C  32.49800 0.29300 25.04100
N  33.10900 2.83200 29.68200
C  32.15400 3.10800 28.73800
C  30.93900 3.65300 29.34400
C  31.24000 3.67200 30.76000
C  32.59700 3.26400 30.81300
C  29.64900 3.87200 28.55900
C  30.65000 3.87200 32.06900
O  29.49600 4.19600 32.41000
C  31.89000 3.81000 33.05500
C  32.06000 5.18400 33.47500
O  32.24200 6.11200 32.74900
O  31.99100 5.23000 34.84500
C  32.03200 6.55100 35.47300
H  38.47700 2.14100 32.49800
H  37.69800 0.94300 26.13500
H  31.56000 3.11800 26.72100
H  34.49300 4.15600 34.45200
H  36.98600 2.45100 34.49200
H  36.37700 5.15700 34.44000
H  37.21100 4.99200 32.90100
H  38.03000 4.48700 34.37900
H  34.93300 1.21400 34.81700
H  33.39400 1.91200 34.65900
H  34.81400 1.63800 37.10900
H  33.25800 2.35100 36.65200
H  40.33800 1.47400 31.75600
H  41.32600 1.43700 30.38700
H  40.53900 -0.12900 30.96600
H  42.06600 -0.26200 27.23100
H  41.39500 -0.68800 28.72000
H  42.07300 1.01500 28.49600
H  35.52600 1.17400 24.58000
H  33.71200 3.51700 24.95100
H  35.62000 3.90000 24.00500
H  36.75900 2.53200 23.50100
H  37.09400 3.50700 24.88700
H  33.42800 1.62400 23.49200
H  31.98600 2.29000 24.31200
H  32.66600 -0.41100 24.22700
H  31.44900 0.11300 25.27900
H  32.99100 -0.17500 25.89300
H  28.77200 3.97700 29.19800
H  29.52400 3.02800 27.88000
H  29.68000 4.73300 27.89100
H  31.58100 3.11400 33.83500
H  30.99700 6.89400 35.44500
H  32.66300 7.27900 34.96500
H  32.32800 6.52900 36.52200
Mg 30.05400 57.99300 39.48300
C  27.43000 56.09400 38.55100
C  32.27500 55.39600 38.64200
C  32.67300 60.10200 39.30800
C  27.95300 60.80300 39.39200
N  29.80000 56.04300 38.67400
C  28.63600 55.41900 38.36100
C  28.92100 54.04100 37.79200
C  30.35200 53.69000 38.28400
C  30.88300 55.12200 38.51300
C  30.34500 52.75900 39.47600
C  28.67700 54.03300 36.21100
C  27.48000 53.22800 35.71200
H  26.77200 54.03000 34.63300
N  32.16800 57.83000 39.25100
C  32.86100 56.65600 38.88900
C  34.28300 57.00700 38.69500
C  34.45800 58.38500 39.02800
C  33.08000 58.80900 39.24200
C  35.24600 55.96400 38.26400
C  35.75600 59.10500 39.10100
O  36.75100 58.47900 38.74100
C  35.92300 60.51300 39.57600
N  30.24300 60.15700 39.05700
C  31.45300 60.75700 39.26100
C  31.40000 62.31200 39.26500
C  29.86900 62.52700 39.17700
C  29.31700 61.08700 39.18000
C  31.99300 62.89400 40.58800
C  29.39600 63.31700 37.91000
C  28.40900 64.48300 38.22100
N  28.04100 58.36100 39.30800
C  27.28800 59.52900 39.37600
C  25.95200 59.15700 39.40700
C  25.90500 57.81000 39.07500
C  27.20900 57.39700 38.96100
C  24.82000 60.04900 39.62700
C  25.07200 56.66700 38.82700
O  23.83300 56.63600 38.86200
C  26.03400 55.48000 38.36500
C  25.84200 54.30200 39.27700
O  26.28200 54.21200 40.43900
O  25.16200 53.30200 38.70100
C  24.80000 52.14400 39.61000
H  32.91000 54.51400 38.53700
H  33.53900 60.76700 39.31300
H  27.32800 61.69700 39.39300
H  28.26300 53.28900 38.22800
H  30.94200 53.22700 37.49200
H  30.57800 53.23700 40.42700
H  31.01900 51.90700 39.39000
H  29.39700 52.24700 39.63800
H  29.55800 53.56100 35.77700
H  28.76400 55.03000 35.77900
H  26.74400 53.04300 36.49500
H  27.87400 52.23900 35.47700
H  36.17400 56.01100 38.83400
H  35.27400 56.03500 37.17700
H  34.82300 54.98600 38.49400
H  35.30400 60.63300 40.46600
H  35.65300 61.17900 38.75600
H  36.97200 60.61000 39.85700
H  31.95700 62.65200 38.39200
H  29.47100 63.04600 40.04800
H  32.82200 63.57600 40.39900
H  32.39200 62.03600 41.12900
H  31.29100 63.39100 41.25700
H  28.90500 62.62900 37.22100
H  30.23200 63.84700 37.45500
H  28.29900 64.68700 39.28600
H  27.45600 64.37900 37.70400
H  28.90900 65.35600 37.80100
H  24.98000 61.12300 39.72000
H  24.37400 59.83000 40.59700
H  23.98800 59.82800 38.95800
H  25.80400 55.22900 37.32900
H  25.66300 51.82500 40.19300
H  24.26400 51.33700 39.11100
H  24.20700 52.38200 40.49300

