158

Mg 46.18500 4.35300 47.02100
C  44.09500 7.09200 46.70000
C  43.49600 2.41400 46.07400
C  48.31700 1.72300 46.79200
C  49.03100 6.45900 47.02200
N  44.06700 4.74200 46.45100
C  43.46300 5.93800 46.33200
C  41.90800 5.75300 46.25600
C  41.74100 4.25200 46.03100
C  43.18100 3.75100 46.27500
C  40.72300 3.47300 46.91100
C  41.19100 6.59700 45.08900
C  42.02600 6.65100 43.74800
H  41.34900 6.11700 42.46300
N  45.95100 2.30600 46.64100
C  44.75900 1.69900 46.16300
C  44.93300 0.27500 45.97900
C  46.33000 0.04600 46.24300
C  46.98700 1.38000 46.64200
C  43.85000 -0.68000 45.54100
C  46.94800 -1.38200 46.14700
O  46.24100 -2.28700 45.80200
C  48.37600 -1.53800 46.44000
N  48.40300 4.12700 47.12000
C  48.97300 2.94200 46.93700
C  50.46400 2.93800 47.01100
C  50.75200 4.50300 46.85500
C  49.32400 5.11100 47.12300
C  50.96500 2.26800 48.31300
C  51.34500 5.01200 45.45200
C  51.67300 4.02700 44.35600
N  46.52400 6.31500 47.10300
C  47.70700 7.04400 47.05900
C  47.31700 8.44700 47.08300
C  45.90100 8.52400 47.04700
C  45.51900 7.23000 46.96400
C  48.26600 9.63000 46.91200
C  44.75800 9.38200 46.96300
O  44.67000 10.62100 46.92600
C  43.48100 8.47400 46.75500
C  42.55800 8.56500 47.85300
O  42.46400 7.80400 48.83600
O  41.75500 9.70300 47.73000
C  40.91300 10.07400 48.83100
H  42.69400 1.80700 45.65000
H  49.01900 0.89600 46.66500
H  49.88500 7.13800 46.99100
H  41.36700 6.05600 47.15300
H  41.67500 4.01400 44.96900
H  39.84900 4.03800 47.23400
H  41.21600 3.12800 47.82000
H  40.28200 2.59900 46.43000
H  40.98600 7.60200 45.45800
H  40.25800 6.04500 44.97500
H  42.89800 6.00800 43.86100
H  42.44500 7.63800 43.55100
H  44.03100 -1.23300 44.61900
H  42.88500 -0.19500 45.39700
H  43.78800 -1.43600 46.32400
H  48.53500 -1.19200 47.46100
H  48.95500 -0.99900 45.69000
H  48.60800 -2.59300 46.29100
H  50.95500 2.30600 46.27200
H  51.40200 4.82200 47.66900
H  51.69000 2.85900 48.87100
H  51.46000 1.33500 48.04300
H  50.12000 2.10500 48.98200
H  52.24400 5.51700 45.80700
H  50.71800 5.81300 45.06100
H  52.66400 3.66700 44.63200
H  51.63800 4.41800 43.33900
H  50.91500 3.24900 44.45100
H  49.24100 9.53500 47.38900
H  47.85500 10.59400 47.21100
H  48.47500 9.62900 45.84200
H  42.84100 8.82100 45.94400
H  41.07200 9.58300 49.79100
H  39.86100 9.95000 48.57200
H  40.99700 11.15100 48.97500
Mg -5.45700 25.60100 26.01800
C  -4.37800 27.32700 28.96700
C  -7.46400 23.78400 27.98100
C  -6.34300 23.95200 23.26400
C  -3.20000 27.55500 24.17400
N  -5.64100 25.44700 28.25500
C  -5.28600 26.32200 29.26500
C  -5.87900 25.98700 30.59000
C  -6.74200 24.70500 30.25100
C  -6.63900 24.60200 28.71600
C  -6.29600 23.37000 30.96300
C  -6.77500 27.10500 31.16600
C  -6.93600 27.18900 32.74100
H  -6.37300 26.00400 33.64700
N  -6.77900 24.11200 25.59600
C  -7.57200 23.55900 26.60400
C  -8.36800 22.44800 25.92600
C  -8.08000 22.48200 24.48700
C  -7.03700 23.57800 24.40600
C  -9.42400 21.73000 26.65900
C  -8.66600 21.72300 23.33800
O  -8.38600 21.89500 22.14500
C  -9.78200 20.75800 23.65900
N  -4.77500 25.59900 24.00000
C  -5.29100 24.78500 23.05300
C  -4.55800 24.93900 21.70300
C  -3.70300 26.27100 21.94500
C  -3.96500 26.52600 23.43800
C  -3.83600 23.64600 21.31200
C  -3.88100 27.38900 20.92700
C  -5.21500 28.24100 21.04500
N  -4.00700 27.04200 26.39000
C  -3.26300 27.83000 25.55400
C  -2.51700 28.80600 26.33000
C  -2.90100 28.58600 27.69900
C  -3.82200 27.58800 27.65100
C  -1.68800 29.82100 25.68000
C  -2.71500 29.06300 29.08100
O  -1.98400 29.96800 29.44900
C  -3.68400 28.25300 30.00400
C  -2.81800 27.59900 31.02600
O  -1.92400 26.76500 30.86700
O  -3.10800 28.13200 32.24900
C  -2.39000 27.61300 33.42100
H  -8.16100 23.20900 28.59400
H  -6.64400 23.29100 22.44800
H  -2.50800 28.10500 23.53200
H  -5.01600 25.85600 31.24200
H  -7.82200 24.81800 30.34700
H  -6.00700 23.59100 31.99100
H  -5.41300 22.98400 30.45400
H  -7.12800 22.66700 30.91100
H  -7.80300 26.94900 30.84100
H  -6.45900 28.10100 30.85500
H  -7.93800 27.52100 33.01200
H  -6.25900 27.93500 33.15700
H  -10.37200 22.13300 26.30300
H  -9.37100 21.88400 27.73600
H  -9.17400 20.68900 26.45500
H  -9.52800 19.94900 24.34400
H  -9.99900 20.31900 22.68500
H  -10.62400 21.40100 23.91300
H  -5.28200 25.24500 20.94700
H  -2.64700 26.01200 21.87500
H  -4.07200 22.98700 22.14800
H  -2.77900 23.91100 21.27100
H  -4.19400 23.36600 20.32100
H  -3.59500 27.15700 19.90100
H  -3.16300 28.12100 21.29700
H  -5.83500 27.89100 21.87100
H  -5.75900 28.19400 20.10100
H  -4.99300 29.26900 21.33000
H  -2.28900 30.64800 25.30300
H  -1.13400 29.40200 24.84000
H  -1.05100 30.34100 26.39500
H  -4.33400 28.97000 30.50600
H  -1.95200 26.62900 33.25600
H  -3.15700 27.61200 34.19600
H  -1.59300 28.29200 33.72500

