158

Mg 49.69100 47.42900 42.60400
C  46.27000 47.76700 41.63000
C  49.68600 44.42100 40.91000
C  52.95200 47.35200 43.01900
C  49.59400 50.67600 43.86000
N  48.09900 46.28300 41.36900
C  46.80800 46.61100 41.13800
C  46.08200 45.48200 40.38900
C  47.17100 44.30900 40.31300
C  48.39400 45.05700 40.84900
C  46.84100 42.98800 41.07800
C  45.43600 45.94100 39.03800
C  43.99400 45.66400 38.90500
H  43.34500 45.27100 37.59500
N  51.03100 45.98600 42.18100
C  50.88500 44.81300 41.47100
C  52.09300 44.08000 41.48800
C  53.07600 44.86800 42.13800
C  52.39400 46.19000 42.44400
C  52.23700 42.63900 40.88500
C  54.54900 44.50600 42.29600
O  55.05900 43.48300 41.85900
C  55.49600 45.50800 43.02500
N  51.13900 48.89300 43.15700
C  52.39500 48.59600 43.38200
C  53.16900 49.75600 44.06500
C  52.09300 50.80800 44.39500
C  50.85100 50.06700 43.75700
C  54.13000 49.39700 45.20600
C  52.23400 52.20100 43.93700
C  52.19700 53.32500 45.01900
N  48.30200 49.01800 42.61500
C  48.41700 50.24300 43.20400
C  47.15500 50.93200 43.15300
C  46.30100 49.97000 42.60200
C  47.01000 48.83400 42.28800
C  46.88900 52.35500 43.62400
C  44.89800 49.76200 42.18500
O  43.89400 50.48000 42.37700
C  44.84800 48.24900 41.49800
C  43.91400 47.56400 42.31700
O  44.14600 47.36800 43.53600
O  42.86500 47.02800 41.57500
C  42.10500 46.01000 42.27500
H  49.75600 43.48200 40.35700
H  54.01700 47.32500 43.26000
H  49.66700 51.62400 44.39700
H  45.27400 45.11000 41.01900
H  47.34400 44.06600 39.26500
H  45.76200 42.84900 41.13600
H  47.22700 42.98200 42.09800
H  47.34800 42.11000 40.67800
H  46.01600 45.56400 38.19600
H  45.59200 47.01600 39.12700
H  43.57900 46.65000 39.11100
H  43.55600 45.03000 39.67600
H  51.36400 42.00700 40.72400
H  52.88000 42.09500 41.57700
H  52.84900 42.68600 39.98400
H  55.57800 46.40800 42.41700
H  56.49100 45.08600 43.16100
H  55.03000 45.63700 44.00200
H  53.75800 50.13500 43.22900
H  51.90700 50.78200 45.46800
H  55.16300 49.50800 44.87500
H  53.97800 48.34800 45.46100
H  53.92800 49.99800 46.09200
H  51.46700 52.43800 43.20000
H  53.20900 52.41500 43.49900
H  53.20500 53.66000 45.26200
H  51.83300 52.94600 45.97400
H  51.55200 54.15500 44.73000
H  45.86000 52.67400 43.45900
H  47.53200 53.15800 43.26300
H  46.90900 52.38100 44.71300
H  44.46100 48.16100 40.48300
H  42.68400 45.08800 42.23000
H  41.20600 45.88700 41.67200
H  41.80800 46.22100 43.30200
Mg 10.38300 48.00400 26.91300
C  8.63200 47.95900 29.96000
C  12.96100 49.48100 28.42800
C  11.92500 47.83300 23.99000
C  7.38400 46.85400 25.35400
N  10.61600 48.81100 28.80600
C  9.90100 48.40500 29.93100
C  10.70000 48.78100 31.26100
C  11.85700 49.61900 30.68300
C  11.76500 49.37300 29.20700
C  11.86500 51.06200 31.00400
C  11.13800 47.44800 32.10600
C  10.81300 47.34400 33.63900
H  10.67600 46.00400 34.34000
N  12.17800 48.54200 26.27900
C  13.18500 49.03700 27.07300
C  14.41100 49.08400 26.35800
C  14.15400 48.63800 25.05300
C  12.65300 48.37700 25.03400
C  15.75200 49.49700 26.95600
C  15.03100 48.54700 23.82900
O  14.57100 48.22200 22.72800
C  16.45100 48.87200 23.91800
N  9.67200 47.75500 24.89900
C  10.49600 47.66900 23.88400
C  9.89100 46.96100 22.63800
C  8.54700 46.49400 23.10800
C  8.45600 47.14300 24.48900
C  9.89000 47.93700 21.41000
C  8.30000 45.02800 23.19300
C  8.97200 44.11000 22.20800
N  8.41700 47.60800 27.39900
C  7.31200 47.16100 26.65900
C  6.13800 47.07500 27.50800
C  6.62200 47.39900 28.86600
C  8.00700 47.65800 28.72800
C  4.70700 46.78800 27.11000
C  6.28200 47.50000 30.26800
O  5.17800 47.43700 30.79700
C  7.55000 47.77900 31.10300
C  7.77800 46.55500 31.93300
O  8.38800 45.59100 31.57400
O  7.05200 46.55900 33.09800
C  7.15300 45.37000 34.01800
H  13.81100 49.93000 28.94600
H  12.50300 47.49600 23.12700
H  6.49500 46.41600 24.89600
H  9.98000 49.31000 31.88500
H  12.80400 49.17700 30.99300
H  10.92300 51.34900 31.47000
H  12.04700 51.67000 30.11800
H  12.59000 51.23700 31.79900
H  12.22100 47.36000 32.02700
H  10.67700 46.66900 31.49800
H  9.90900 47.93200 33.80000
H  11.64800 47.89900 34.06700
H  15.56300 49.86700 27.96300
H  16.16700 50.28000 26.32100
H  16.31200 48.56400 26.89500
H  16.82300 48.22200 24.71000
H  16.54800 49.90600 24.25000
H  16.91000 48.67100 22.95000
H  10.54600 46.09300 22.56700
H  7.83300 46.95800 22.42700
H  10.40700 48.87300 21.62200
H  8.90700 48.28400 21.09000
H  10.35200 47.52300 20.51400
H  7.21900 44.89000 23.20600
H  8.59100 44.67200 24.18200
H  9.78900 43.56100 22.67600
H  9.37100 44.58400 21.31100
H  8.22200 43.39300 21.87300
H  4.38000 46.94600 26.08200
H  4.11300 47.47900 27.70900
H  4.47300 45.75000 27.34800
H  7.33400 48.62000 31.76200
H  6.93900 44.50000 33.39700
H  6.40400 45.50200 34.79900
H  8.10800 45.31200 34.54200

