158

Mg 48.53800 35.47000 28.27900
C  46.58600 33.55200 30.65000
C  48.75700 37.88400 30.40400
C  49.42400 37.29700 25.62700
C  47.66300 32.82000 25.94600
N  47.81100 35.58500 30.33200
C  47.02900 34.74300 31.17500
C  46.92000 35.38400 32.54400
C  47.21000 36.95300 32.24200
C  48.02200 36.75000 30.92600
C  45.93600 37.92400 32.11900
C  47.60400 34.72500 33.71900
C  48.76400 35.34600 34.57400
H  48.41200 35.99400 35.94900
N  49.22300 37.29600 28.12000
C  49.28600 38.12500 29.15600
C  49.85000 39.39600 28.76500
C  50.02600 39.28000 27.28800
C  49.51900 37.93400 26.88800
C  49.99600 40.52600 29.74800
C  50.54700 40.36400 26.32100
O  50.40500 40.21600 25.11300
C  51.12800 41.67300 26.84100
N  48.56100 35.12900 26.10300
C  48.96400 36.08100 25.19300
C  48.89700 35.67700 23.69900
C  48.46400 34.16600 23.90900
C  48.12700 34.04100 25.41100
C  47.92900 36.56200 22.85200
C  49.49200 33.22600 23.38400
C  50.58400 32.62700 24.34300
N  47.56200 33.55900 28.33000
C  47.34200 32.62700 27.28900
C  46.75800 31.42100 27.83200
C  46.30200 31.80700 29.06500
C  46.81400 33.09900 29.36400
C  46.52800 30.10500 27.09600
C  45.43700 31.48800 30.13000
O  44.69300 30.53000 30.28500
C  45.47000 32.62500 31.17100
C  45.71100 32.00400 32.50200
O  46.53600 31.20500 32.69300
O  44.79900 32.38400 33.41500
C  44.86100 31.67600 34.76200
H  48.70300 38.62000 31.21000
H  49.74300 37.96200 24.82200
H  47.40800 32.12200 25.14700
H  45.86300 35.32900 32.80400
H  47.73800 37.49600 33.02500
H  46.21900 38.70800 31.41700
H  45.45600 38.32700 33.01100
H  45.17300 37.36100 31.58300
H  47.97100 33.79600 33.28200
H  46.81100 34.39800 34.39100
H  49.33900 36.05700 33.98100
H  49.36800 34.47400 34.82300
H  48.99500 40.88900 29.98100
H  50.67100 41.29500 29.37100
H  50.50500 40.07600 30.60000
H  51.89000 41.40900 27.57400
H  50.34300 42.24100 27.34100
H  51.47600 42.26600 25.99500
H  49.94000 35.80400 23.40800
H  47.60500 33.95000 23.27400
H  47.13700 35.93400 22.44300
H  48.49600 37.15500 22.13400
H  47.43900 37.22800 23.56200
H  50.01800 33.70400 22.55800
H  48.86500 32.40800 23.03000
H  50.75200 33.43000 25.06200
H  51.54800 32.55800 23.83900
H  50.25200 31.67000 24.74500
H  47.36100 29.82500 26.45100
H  45.64300 30.18200 26.46500
H  46.33100 29.29700 27.80000
H  44.52700 33.14200 31.34600
H  45.54000 30.82400 34.73500
H  43.87300 31.36100 35.09800
H  45.18900 32.35700 35.54700
Mg 26.80500 49.94900 26.53700
C  24.51000 51.06400 29.02500
C  28.95300 48.93700 29.08100
C  29.10000 49.25700 24.27600
C  24.60800 51.26700 24.13700
N  26.73200 49.97500 28.81400
C  25.61700 50.34800 29.53500
C  26.00300 50.24100 31.01600
C  27.56300 49.82500 31.00300
C  27.74200 49.47400 29.52200
C  28.50000 50.94800 31.55900
C  25.04200 49.41300 31.84000
C  24.47100 49.99000 33.12000
H  24.52000 49.12900 34.43000
N  28.67800 49.14500 26.68500
C  29.38900 48.76900 27.79600
C  30.63000 48.12900 27.39200
C  30.69200 48.19300 25.95000
C  29.41100 48.80600 25.56000
C  31.60200 47.57100 28.33800
C  31.81000 47.80000 25.06800
O  31.82000 48.00400 23.85100
C  33.03000 47.21100 25.53800
N  26.84100 50.11300 24.60700
C  27.92800 49.80200 23.83800
C  27.62600 49.83100 22.35700
C  26.15700 50.28900 22.37800
C  25.83200 50.62100 23.80300
C  28.50400 50.78600 21.57200
C  25.26500 49.16900 21.75600
C  24.70100 49.66000 20.40700
N  24.92400 50.99200 26.56800
C  24.21200 51.44200 25.48100
C  23.04500 52.07100 25.98000
C  23.14800 52.02500 27.38300
C  24.31900 51.29500 27.63200
C  21.93800 52.76900 25.17100
C  22.50800 52.36000 28.49500
O  21.39600 52.82700 28.57400
C  23.35500 51.71900 29.64300
C  23.78600 52.86500 30.44400
O  24.69800 53.70600 30.17100
O  22.88100 52.86600 31.50200
C  22.99800 53.96700 32.42100
H  29.50500 48.57900 29.95200
H  29.74400 48.96900 23.44200
H  23.90200 51.62200 23.38400
H  25.87500 51.21400 31.49100
H  27.69200 48.98400 31.68500
H  28.89000 51.43100 30.66300
H  29.23400 50.40000 32.15000
H  27.95100 51.72900 32.08500
H  25.54600 48.46600 32.03400
H  24.28100 49.11400 31.11900
H  23.38500 50.05500 33.04900
H  24.92200 50.95900 33.33300
H  32.53500 47.99500 27.96600
H  31.59000 46.48600 28.23100
H  31.42100 47.80300 29.38800
H  32.80700 46.35800 26.17900
H  33.50700 48.03400 26.06900
H  33.75500 46.98700 24.75600
H  27.76100 48.82000 21.97200
H  25.99500 51.21400 21.82400
H  29.32000 51.15200 22.19500
H  27.86700 51.53700 21.10400
H  29.09000 50.30600 20.78800
H  24.37900 48.90000 22.33200
H  25.74900 48.19900 21.64000
H  23.64700 49.88200 20.57400
H  24.83300 48.84400 19.69600
H  25.27900 50.48000 19.97900
H  22.38900 52.95300 24.19500
H  21.70900 53.76300 25.55700
H  21.07800 52.10100 25.14600
H  22.79300 51.04600 30.29100
H  23.35400 54.89200 31.96600
H  23.74200 53.72400 33.18000
H  22.07400 54.08300 32.98700

