158

Mg -10.61300 16.71000 41.09500
C  -7.14900 16.33500 41.35700
C  -10.12300 20.04800 40.49600
C  -13.77500 16.93100 40.11900
C  -10.86400 13.15200 40.89900
N  -8.81800 18.04700 40.91000
C  -7.49700 17.64100 41.01100
C  -6.58200 18.87600 40.83000
C  -7.57800 20.07900 40.92500
C  -8.94400 19.36000 40.76100
C  -7.51200 20.94400 42.17600
C  -5.75700 18.79300 39.51700
C  -4.28600 18.34500 39.57700
H  -3.84100 17.01400 38.78800
N  -11.83800 18.36200 40.55400
C  -11.46200 19.63700 40.35700
C  -12.65000 20.40400 40.07300
C  -13.80400 19.57200 40.17400
C  -13.24400 18.21900 40.31100
C  -12.66100 21.80100 39.89300
C  -15.31900 20.00700 40.05900
O  -15.65900 21.18100 39.85400
C  -16.38100 18.93800 40.34300
N  -12.05800 15.18800 40.39200
C  -13.31100 15.57200 40.13200
C  -14.26300 14.38600 39.92500
C  -13.40100 13.21400 40.35500
C  -11.99600 13.86400 40.52100
C  -15.65800 14.42800 40.69600
C  -13.47900 11.94600 39.44700
C  -13.56100 10.48100 40.07000
N  -9.33500 14.99700 41.29400
C  -9.55400 13.67000 41.17100
C  -8.29800 12.95000 41.46400
C  -7.37800 14.03000 41.54400
C  -8.01700 15.22100 41.33000
C  -8.14100 11.44900 41.54900
C  -5.96800 14.22600 41.74600
O  -5.01400 13.41200 41.92600
C  -5.77600 15.70500 41.63000
C  -5.03600 16.11400 42.88100
O  -3.81900 16.12900 42.89500
O  -5.92200 16.55700 43.83100
C  -5.29200 17.24400 44.92800
H  -10.00600 21.13400 40.51800
H  -14.84000 17.01700 39.89500
H  -10.86600 12.06000 40.89000
H  -5.91300 19.02800 41.67600
H  -7.43000 20.68200 40.02900
H  -6.69200 21.66000 42.21000
H  -7.46000 20.40700 43.12400
H  -8.45800 21.48600 42.16200
H  -5.72600 19.77700 39.04900
H  -6.22000 18.09900 38.81600
H  -3.99700 18.22000 40.62100
H  -3.62000 19.08200 39.12900
H  -13.21600 21.99000 38.97400
H  -11.65200 22.21200 39.89100
H  -13.10600 22.36300 40.71400
H  -17.35800 19.34300 40.60500
H  -16.05800 18.24300 41.11800
H  -16.45800 18.38000 39.40900
H  -14.41100 14.44300 38.84700
H  -13.71200 12.87700 41.34400
H  -15.70400 13.65600 41.46400
H  -16.46800 14.25900 39.98600
H  -15.84000 15.43300 41.07600
H  -12.48400 11.86900 39.00900
H  -14.13000 12.05300 38.57800
H  -13.53700 10.62700 41.15000
H  -12.72500 9.89500 39.69000
H  -14.53600 10.03300 39.87600
H  -7.15200 11.27600 41.12500
H  -8.94000 11.08600 40.90200
H  -8.24700 11.18000 42.60000
H  -5.11300 15.97500 40.80800
H  -4.94100 16.44900 45.58600
H  -5.96700 17.95900 45.39900
H  -4.43500 17.82100 44.58200
Mg -4.90700 25.67600 26.06800
C  -3.86200 27.08300 29.16500
C  -6.52800 23.20600 27.97100
C  -5.52800 24.09200 23.15300
C  -2.90900 27.92200 24.43400
N  -5.11900 25.12100 28.29900
C  -4.62100 25.87300 29.40900
C  -5.10800 25.26900 30.70100
C  -5.75700 23.93000 30.29700
C  -5.74400 24.03100 28.75800
C  -5.09500 22.60500 30.92400
C  -5.91700 26.27800 31.45700
C  -5.66800 26.49000 32.93100
H  -5.29000 25.34900 33.92800
N  -6.03400 24.02800 25.61000
C  -6.73900 23.19900 26.52000
C  -7.47600 22.19300 25.73500
C  -7.23800 22.47400 24.32500
C  -6.25800 23.56000 24.27100
C  -8.35100 21.14900 26.48500
C  -7.81400 21.80600 23.10300
O  -7.63400 22.24100 21.94700
C  -8.81500 20.84600 23.42000
N  -4.23000 25.90200 24.14800
C  -4.66000 25.16900 23.09800
C  -4.04000 25.59500 21.74500
C  -3.33400 26.92400 22.15900
C  -3.53000 26.94400 23.66300
C  -3.12400 24.58100 21.07600
C  -4.00300 28.20500 21.56100
C  -3.30100 28.72500 20.37200
N  -3.61300 27.17400 26.70000
C  -2.89800 27.99500 25.85000
C  -2.29900 29.03500 26.63000
C  -2.68600 28.72500 27.99900
C  -3.47000 27.58800 27.95800
C  -1.48500 30.20300 26.19300
C  -2.40600 29.04100 29.38900
O  -1.69100 29.88500 29.89900
C  -3.18500 27.96800 30.22000
C  -2.27300 27.23500 31.10000
O  -1.64900 26.26600 30.75300
O  -2.05400 27.92600 32.30500
C  -1.35900 27.15700 33.36100
H  -7.04800 22.48600 28.60700
H  -5.71200 23.55100 22.22300
H  -2.52600 28.76500 23.85500
H  -4.22200 25.13300 31.32100
H  -6.80900 23.93200 30.58400
H  -4.59500 22.83800 31.86500
H  -4.28400 22.24100 30.29300
H  -5.85800 21.82900 30.97200
H  -6.96300 25.99000 31.35500
H  -5.87800 27.26500 30.99700
H  -6.61600 26.88200 33.29700
H  -4.89000 27.25400 32.91000
H  -9.39900 21.34300 26.71300
H  -7.96800 20.93800 27.48400
H  -8.34100 20.24000 25.88400
H  -9.34400 21.33400 24.23800
H  -8.31100 19.92400 23.71100
H  -9.46000 20.68100 22.55600
H  -4.87700 25.88600 21.11000
H  -2.27900 26.89000 21.89000
H  -2.07400 24.78300 21.28800
H  -3.31200 24.51500 20.00400
H  -3.38400 23.58500 21.43400
H  -3.93800 29.03400 22.26500
H  -5.06900 28.12300 21.35100
H  -2.70900 27.93800 19.90500
H  -2.59400 29.46300 20.75100
H  -3.96500 29.07400 19.58100
H  -0.40500 30.05500 26.19300
H  -1.69100 30.94200 26.96800
H  -1.83300 30.63200 25.25300
H  -4.01800 28.48600 30.69500
H  -0.27900 27.22000 33.23200
H  -1.69500 26.12000 33.33900
H  -1.62700 27.54600 34.34300

