158

Mg 46.22300 16.11000 27.76300
C  44.50100 15.61200 30.82900
C  48.42000 17.98400 29.39400
C  47.82400 16.53100 24.89600
C  43.78400 14.29900 26.17000
N  46.40900 16.66900 29.86100
C  45.63600 16.39500 30.92500
C  46.13400 17.02200 32.22800
C  47.10500 18.10600 31.74200
C  47.31600 17.65400 30.25100
C  46.63100 19.60600 31.84900
C  46.87400 15.81800 33.02100
C  46.85500 16.04700 34.55400
H  48.28800 16.13400 35.18400
N  47.94400 17.09800 27.26600
C  48.78100 17.80500 28.06700
C  49.97300 18.11800 27.46400
C  49.78600 17.80700 26.09600
C  48.47200 17.11000 26.02000
C  51.08500 18.76100 28.17700
C  50.69000 18.00300 24.97300
O  50.40200 17.69800 23.78900
C  52.05300 18.50200 25.15700
N  45.89500 15.45500 25.84800
C  46.62600 15.79600 24.79800
C  46.15100 15.26900 23.52900
C  44.97900 14.32000 23.89300
C  44.86100 14.66600 25.40300
C  45.92800 16.27000 22.33400
C  45.16300 12.76400 23.58400
C  46.05700 11.99400 24.52700
N  44.43500 15.12700 28.32000
C  43.47400 14.47700 27.56800
C  42.38000 13.98400 28.38500
C  42.73500 14.45800 29.67200
C  44.00900 15.08300 29.61300
C  41.15800 13.26400 27.88000
C  42.28900 14.50100 31.00100
O  41.24800 14.03400 31.39700
C  43.44500 15.29100 31.86400
C  42.67900 16.43500 32.49300
O  42.45400 17.51100 31.97700
O  42.29700 16.03200 33.74000
C  41.50000 16.92100 34.58200
H  49.16900 18.55300 29.94900
H  48.23500 16.61100 23.88700
H  43.07000 13.74300 25.55900
H  45.30800 17.51000 32.74500
H  48.04900 18.09200 32.28700
H  46.29600 19.96700 30.87700
H  47.52400 20.17500 32.10900
H  45.76900 19.82000 32.48200
H  47.88600 15.76500 32.62100
H  46.49000 14.82400 32.79100
H  46.34000 15.22300 35.04700
H  46.33900 16.99200 34.72600
H  51.05000 19.83900 28.02100
H  52.08600 18.51200 27.82500
H  51.05800 18.60200 29.25500
H  52.00200 19.47700 25.64100
H  52.50800 18.62600 24.17400
H  52.58100 17.73800 25.72800
H  46.97400 14.59900 23.28200
H  44.03400 14.67600 23.48100
H  45.04300 16.00300 21.75600
H  46.83900 16.07000 21.77000
H  45.92200 17.31200 22.65300
H  45.62700 12.65500 22.60300
H  44.14200 12.38900 23.64200
H  45.53500 11.24700 25.12400
H  46.57400 12.57000 25.29500
H  46.79000 11.36900 24.01700
H  41.45700 12.23800 27.66400
H  40.71700 13.69800 26.98300
H  40.51300 13.20600 28.75600
H  43.95900 14.72900 32.64400
H  41.34700 16.39900 35.52600
H  40.54000 16.93600 34.06700
H  42.03200 17.85500 34.76600
Mg 41.38800 41.53500 27.25000
C  40.62700 43.92900 29.63400
C  42.00500 39.13400 29.68100
C  42.30900 39.37900 24.76700
C  41.10100 44.00700 24.72200
N  41.36800 41.56100 29.51700
C  40.90400 42.63100 30.19400
C  40.82900 42.22600 31.67800
C  41.57100 40.78300 31.74100
C  41.68000 40.44300 30.20800
C  43.04100 40.65100 32.39300
C  39.43000 42.27000 32.36900
C  39.35900 41.74400 33.81600
H  38.76400 42.66500 34.85800
N  41.99600 39.59600 27.22800
C  42.17300 38.72000 28.33200
C  42.63100 37.45400 27.87500
C  42.59600 37.41200 26.47000
C  42.26200 38.82400 26.04600
C  43.19300 36.42900 28.86200
C  42.91700 36.26200 25.58900
O  42.88700 36.36900 24.37800
C  43.23500 34.86400 26.09600
N  41.61500 41.64800 25.05700
C  41.97800 40.64300 24.27800
C  41.99000 41.00600 22.77300
C  41.24300 42.39800 22.71300
C  41.36600 42.75700 24.21600
C  43.45500 40.99800 22.17100
C  39.79100 42.29400 22.24900
C  38.86000 41.33700 22.93100
N  41.16000 43.59600 27.17900
C  41.00300 44.45900 26.08800
C  40.69100 45.74800 26.64300
C  40.54600 45.57700 28.02100
C  40.78100 44.24000 28.27100
C  40.51100 46.99300 25.86300
C  40.27700 46.34600 29.24700
O  40.01200 47.53300 29.51700
C  40.33900 45.23800 30.36300
C  41.37700 45.61900 31.42800
O  42.58500 45.85000 31.29200
O  40.73000 45.50600 32.65900
C  41.57300 45.59300 33.77000
H  42.21300 38.41200 30.47300
H  42.53400 38.78000 23.88200
H  40.98000 44.82300 24.00700
H  41.48300 42.89500 32.23900
H  40.88900 40.03900 32.15400
H  43.90400 40.72300 31.73100
H  43.19400 39.70800 32.91800
H  43.16500 41.47600 33.09500
H  38.78100 41.60700 31.79500
H  38.97900 43.25800 32.27300
H  40.30200 41.31100 34.15100
H  38.76200 40.83600 33.90900
H  43.33600 36.76800 29.88800
H  44.16000 36.09300 28.48700
H  42.46600 35.63200 29.01300
H  44.12300 34.77400 26.72200
H  43.38700 34.29300 25.17900
H  42.51100 34.46500 26.80700
H  41.46500 40.20300 22.25700
H  41.79200 43.04700 22.03000
H  43.98500 41.89600 22.48900
H  43.38400 40.89600 21.08800
H  43.96400 40.18400 22.68600
H  39.85700 41.92200 21.22700
H  39.30900 43.26400 22.12400
H  39.31600 40.35300 23.04300
H  37.98000 41.18300 22.30600
H  38.63400 41.65600 23.94800
H  39.66900 46.89900 25.17600
H  41.43300 47.16300 25.30700
H  40.33200 47.85800 26.50200
H  39.36800 45.31700 30.85400
H  42.30100 44.78400 33.70700
H  40.96300 45.55200 34.67200
H  42.13000 46.53000 33.81000

