158

Mg -1.65300 18.22800 27.67300
C  -2.37700 16.12600 30.43500
C  -2.59400 20.82000 29.63400
C  -1.42200 20.14300 24.93700
C  -1.62800 15.31400 25.70800
N  -2.42800 18.39900 29.79500
C  -2.38600 17.45000 30.79000
C  -2.54800 17.97200 32.20800
C  -2.90900 19.48600 31.85400
C  -2.64700 19.59800 30.36700
C  -4.44100 19.89100 32.20000
C  -1.32900 17.78700 33.12400
C  -1.81200 17.29600 34.48700
H  -0.82200 17.28400 35.66400
N  -1.82700 20.21900 27.38400
C  -2.23200 21.08600 28.28800
C  -2.14700 22.48200 27.72400
C  -1.85100 22.31800 26.32600
C  -1.75000 20.85700 26.12000
C  -2.39200 23.76800 28.51600
C  -1.58500 23.36500 25.32100
O  -1.37900 23.16600 24.10700
C  -1.21900 24.66800 25.82600
N  -1.49000 17.83800 25.56300
C  -1.31900 18.80100 24.67100
C  -1.34700 18.20400 23.23000
C  -1.09200 16.68200 23.51900
C  -1.47500 16.57300 25.08000
C  -2.60500 18.46500 22.38500
C  0.31000 16.05100 23.19400
C  1.45600 16.59200 24.00500
N  -1.76600 16.10900 28.01700
C  -1.75000 15.08400 27.11700
C  -1.80400 13.88500 27.78000
C  -2.07900 14.21500 29.11000
C  -2.05400 15.61500 29.19300
C  -1.90600 12.58000 27.20300
C  -2.36500 13.58400 30.35100
O  -2.52300 12.42900 30.67000
C  -2.48800 14.86000 31.34600
C  -1.45800 14.51100 32.37200
O  -0.28300 14.83100 32.31200
O  -2.09000 13.71500 33.28800
C  -1.36700 13.12200 34.38200
H  -2.75400 21.71300 30.24100
H  -1.37200 20.73700 24.02200
H  -1.77800 14.46200 25.04200
H  -3.41200 17.46400 32.63700
H  -2.18300 20.15200 32.32000
H  -4.99100 19.15200 32.78200
H  -5.04000 19.98000 31.29400
H  -4.43400 20.81800 32.77400
H  -0.93500 18.77800 33.34600
H  -0.60400 17.07800 32.72300
H  -2.19400 16.28100 34.38000
H  -2.57500 18.02200 34.76700
H  -1.41300 24.10900 28.85200
H  -3.03700 23.63800 29.38500
H  -2.88600 24.46700 27.84100
H  -0.62500 24.43500 26.71000
H  -2.18300 25.11100 26.07500
H  -0.69800 25.27800 25.08700
H  -0.42100 18.51900 22.75000
H  -1.86200 16.07300 23.04600
H  -3.29700 17.64500 22.57400
H  -2.29700 18.55600 21.34300
H  -3.03600 19.42700 22.66100
H  0.52100 16.13900 22.12800
H  0.30500 14.97600 23.37800
H  1.12600 17.45700 24.58000
H  2.21100 16.85400 23.26400
H  1.86300 15.80800 24.64400
H  -0.94200 12.20700 26.85800
H  -2.45900 12.64100 26.26500
H  -2.44000 11.97800 27.93800
H  -3.47700 14.87500 31.80500
H  -0.35300 12.94300 34.02400
H  -1.74500 12.15000 34.69700
H  -1.46700 13.80400 35.22600
Mg -10.45800 16.80800 41.44600
C  -7.00200 16.88000 41.56000
C  -10.49300 20.25800 40.85400
C  -13.87300 16.74300 40.86500
C  -10.38000 13.35100 41.57300
N  -8.87400 18.32900 41.00500
C  -7.50700 18.20200 41.15700
C  -6.81500 19.56900 40.94700
C  -7.97000 20.51700 41.35500
C  -9.22300 19.67300 41.02100
C  -8.05800 20.95100 42.85200
C  -6.18200 19.95000 39.58000
C  -4.80900 19.31700 39.25000
H  -4.71500 18.29200 38.15800
N  -11.99500 18.29900 40.84300
C  -11.76900 19.61800 40.79100
C  -13.02100 20.27600 40.51100
C  -14.01200 19.34000 40.72700
C  -13.33900 18.05900 40.80400
C  -13.08700 21.75700 40.14000
C  -15.41600 19.51900 40.72400
O  -15.84200 20.63900 40.70300
C  -16.45500 18.45700 40.91500
N  -11.83600 15.28200 41.09200
C  -13.15700 15.51000 40.91900
C  -13.98800 14.14600 40.96200
C  -12.93400 13.14100 41.37100
C  -11.63400 13.93400 41.25200
C  -15.42000 14.01000 41.58900
C  -13.02800 11.77700 40.57400
C  -13.25900 10.43500 41.27200
N  -9.02400 15.38400 41.68100
C  -9.10500 14.01900 41.60700
C  -7.81700 13.43100 42.05000
C  -6.94200 14.51200 41.91700
C  -7.74100 15.67800 41.69800
C  -7.50800 11.99200 42.16000
C  -5.50200 14.94800 42.02400
O  -4.48200 14.29700 42.36600
C  -5.49800 16.46700 41.78900
C  -4.88500 17.10200 43.00000
O  -3.66400 17.30700 43.19700
O  -5.84800 17.51300 43.88500
C  -5.61000 18.10800 45.20700
H  -10.40900 21.34600 40.88600
H  -14.92500 16.69400 40.57600
H  -10.40300 12.26300 41.67300
H  -6.01800 19.70300 41.67800
H  -7.86800 21.37100 40.68400
H  -8.38300 21.97400 42.66400
H  -7.04800 20.95800 43.26100
H  -8.69500 20.22000 43.35000
H  -6.19400 21.03600 39.48600
H  -6.94200 19.75300 38.82300
H  -4.43200 18.94300 40.20200
H  -4.06900 20.08200 39.01700
H  -12.49500 22.36100 40.82700
H  -14.10700 22.13500 40.07400
H  -12.80100 21.90300 39.09900
H  -17.35900 18.89800 41.33500
H  -16.10400 17.85400 41.75300
H  -16.58700 17.95300 39.95800
H  -14.15900 13.98100 39.89800
H  -13.02000 12.79300 42.40000
H  -15.50800 13.00300 41.99500
H  -16.22100 14.16800 40.86700
H  -15.59200 14.74900 42.37200
H  -12.16300 11.65400 39.92200
H  -13.80900 11.92800 39.82800
H  -14.28400 10.29600 41.61800
H  -12.79800 10.48500 42.25800
H  -12.94800 9.50000 40.80700
H  -6.48700 11.86500 42.52100
H  -7.55800 11.69100 41.11300
H  -8.21600 11.43500 42.77300
H  -4.91200 16.68900 40.89700
H  -4.62600 17.76500 45.52600
H  -6.37500 17.89800 45.95400
H  -5.42100 19.17800 45.12400

