158

Mg 9.06300 3.84600 27.64200
C  10.14300 2.10500 30.51800
C  6.68500 5.47100 29.61400
C  7.85400 5.23100 24.80400
C  10.98000 1.55400 25.76400
N  8.42700 3.65800 29.77900
C  9.15800 3.06400 30.85400
C  8.67400 3.49200 32.20800
C  7.58300 4.56100 31.87800
C  7.55900 4.56100 30.32700
C  6.12900 4.19000 32.44100
C  9.69700 4.04100 33.16000
C  9.31600 5.09500 34.16600
H  10.03000 5.06000 35.57300
N  7.51100 5.24400 27.26100
C  6.62000 5.76700 28.21000
C  5.79200 6.75200 27.53900
C  6.17200 6.67600 26.12100
C  7.26900 5.75800 25.99800
C  4.73700 7.51600 28.26900
C  5.64600 7.46700 24.94200
O  5.95100 7.23300 23.77100
C  4.76600 8.53400 25.30300
N  9.38600 3.39500 25.61200
C  8.75400 4.16500 24.63600
C  9.13600 3.75500 23.17100
C  10.16400 2.56800 23.49200
C  10.17900 2.47200 25.02700
C  8.00200 3.46500 22.15200
C  11.50800 2.76500 22.88200
C  11.75300 1.87400 21.69400
N  10.35200 2.22100 28.01000
C  11.13800 1.40300 27.14000
C  11.95500 0.47300 27.83200
C  11.60300 0.69500 29.21600
C  10.64000 1.78500 29.23800
C  12.92500 -0.54100 27.13600
C  11.90600 0.35200 30.62500
O  12.76300 -0.37300 31.05900
C  10.88300 1.26300 31.47400
C  9.99700 0.50400 32.33200
O  8.98200 -0.10800 31.98400
O  10.40800 0.58900 33.63400
C  9.60600 -0.05800 34.67300
H  6.18000 6.20500 30.24600
H  7.58600 5.70100 23.85500
H  11.56100 0.92700 25.08400
H  8.27500 2.57800 32.64700
H  7.80800 5.58900 32.16500
H  6.14600 3.50600 33.29000
H  5.50200 3.88900 31.60200
H  5.75600 5.12300 32.86300
H  10.59300 4.25200 32.57600
H  9.90600 3.22800 33.85400
H  8.25400 5.05900 34.40800
H  9.67300 5.97500 33.63100
H  3.76100 7.57000 27.78600
H  5.16300 8.50700 28.42600
H  4.49700 7.07500 29.23600
H  4.65100 9.10100 24.37900
H  5.28300 9.05500 26.10900
H  3.78000 8.31700 25.71300
H  9.61100 4.65800 22.78700
H  9.77200 1.59200 23.20300
H  7.61200 4.36800 21.68300
H  7.13400 2.87400 22.44300
H  8.52900 2.99000 21.32400
H  12.26400 2.79500 23.66600
H  11.51400 3.80200 22.54700
H  11.06400 1.02900 21.66100
H  12.77400 1.57100 21.46300
H  11.46300 2.48700 20.84000
H  13.02100 -0.39500 26.06000
H  12.65400 -1.57300 27.35900
H  13.84300 -0.50900 27.72200
H  11.51300 1.96400 32.02100
H  10.08400 -0.98800 34.98400
H  8.62400 -0.33400 34.28800
H  9.41200 0.63900 35.48800
Mg 54.71100 25.23900 45.01100
C  51.80900 26.99100 43.92100
C  53.49500 22.45400 43.44500
C  57.83100 23.86800 45.23500
C  56.08400 28.39800 45.95400
N  52.94800 24.84700 43.70800
C  51.86800 25.73100 43.46100
C  50.83600 24.94600 42.58000
C  51.20900 23.47100 42.77300
C  52.62700 23.57500 43.37300
C  50.24200 22.84700 43.81700
C  50.86000 25.33700 41.06000
C  49.48800 25.49700 40.41400
H  49.35600 24.64800 39.21300
N  55.54800 23.40900 44.47700
C  54.86500 22.33500 43.95800
C  55.69600 21.10400 43.94100
C  56.96700 21.51700 44.33300
C  56.83500 22.99700 44.65300
C  55.27200 19.75700 43.44400
C  58.23500 20.75600 44.31600
O  58.12900 19.61500 43.96600
C  59.66000 21.21800 44.65500
N  56.75100 26.09000 45.28600
C  57.75200 25.24500 45.60100
C  58.95100 25.90400 46.23900
C  58.41600 27.41100 46.37600
C  56.98400 27.31500 45.83500
C  59.37500 25.20700 47.51100
C  59.36100 28.51900 45.81700
C  58.93500 29.18600 44.56700
N  54.13000 27.30300 44.99300
C  54.74100 28.39400 45.49400
C  53.71800 29.40700 45.83300
C  52.56200 28.97700 45.08400
C  52.89900 27.66500 44.65900
C  53.95300 30.60600 46.58000
C  51.20800 29.30700 44.62500
O  50.58900 30.32900 44.86700
C  50.68200 27.99500 43.86900
C  50.31200 28.52300 42.46200
O  51.15700 28.92000 41.60500
O  48.91700 28.64600 42.32500
C  48.51000 29.27700 41.07100
H  53.14400 21.50700 43.03100
H  58.75500 23.34300 45.48800
H  56.45100 29.29800 46.45200
H  49.85500 25.15500 43.00500
H  51.15100 22.83500 41.88900
H  49.88100 21.86300 43.51900
H  49.40400 23.51400 44.01900
H  50.78200 22.76900 44.76100
H  51.33300 24.50400 40.54000
H  51.53100 26.19600 41.04700
H  49.33100 26.53200 40.10800
H  48.77300 25.24700 41.19800
H  54.24600 19.49500 43.70200
H  55.80300 19.07200 44.10500
H  55.43500 19.60900 42.37700
H  59.95200 22.13300 44.13800
H  60.38500 20.45500 44.36900
H  59.65900 21.27700 45.74300
H  59.83000 25.91700 45.59600
H  58.37600 27.51600 47.46000
H  59.43700 25.77300 48.44000
H  60.38700 24.83900 47.34100
H  58.75300 24.31100 47.52200
H  60.35800 28.11800 45.63600
H  59.51500 29.20300 46.65100
H  58.50500 28.34700 44.02000
H  59.82300 29.49300 44.01500
H  58.33600 30.08700 44.69800
H  54.67000 30.39600 47.37400
H  52.92700 30.85100 46.85700
H  54.39800 31.37700 45.95200
H  49.80200 27.65000 44.41200
H  48.97500 30.26300 41.07800
H  47.43300 29.44100 41.10900
H  48.81300 28.75700 40.16200

