158

Mg -0.58900 7.50200 26.00500
C  0.43400 9.24100 28.79900
C  -1.02400 4.73700 27.95500
C  -1.24200 5.68600 23.28100
C  -0.29700 10.33400 24.13600
N  -0.22100 7.01100 28.12300
C  0.10300 7.91000 29.12500
C  -0.19100 7.37800 30.49200
C  -0.34700 5.83400 30.17700
C  -0.52500 5.81400 28.67100
C  0.76800 4.91100 30.62300
C  -1.50700 8.00300 31.19100
C  -1.28600 8.65800 32.56500
H  -0.12400 8.04200 33.30600
N  -1.03700 5.51600 25.62700
C  -1.21100 4.55200 26.58600
C  -1.61100 3.28700 26.00200
C  -1.51200 3.43800 24.58800
C  -1.23500 4.95200 24.42400
C  -1.87400 2.00800 26.83700
C  -1.69300 2.45600 23.39700
O  -1.52500 2.79000 22.24300
C  -2.18300 1.07500 23.62600
N  -0.79700 7.93600 23.93000
C  -1.12400 7.04800 23.00500
C  -1.31500 7.68500 21.60200
C  -1.10500 9.23000 22.00100
C  -0.71900 9.21200 23.41700
C  -0.32700 7.22900 20.57400
C  -2.36600 10.13900 21.89500
C  -2.34900 11.55000 21.42100
N  0.01600 9.40200 26.31400
C  0.04100 10.53400 25.50400
C  0.57700 11.71700 26.15300
C  0.70100 11.22400 27.44900
C  0.35500 9.81000 27.53100
C  0.90200 13.09100 25.60700
C  1.16300 11.61100 28.72900
O  1.61000 12.63600 29.13500
C  0.79500 10.34800 29.64500
C  2.08000 10.01900 30.33400
O  2.88200 9.13500 30.12400
O  2.28900 10.97400 31.32900
C  3.66400 11.06800 31.84900
H  -1.28100 3.94000 28.65600
H  -1.52000 5.08300 22.41400
H  -0.26000 11.29000 23.61000
H  0.67100 7.55000 31.13600
H  -1.24900 5.49700 30.68800
H  1.60500 5.43300 31.08900
H  1.14600 4.36700 29.75800
H  0.36800 4.12900 31.26800
H  -2.32400 7.28200 31.22900
H  -1.83300 8.83700 30.57000
H  -2.19900 8.42200 33.11200
H  -1.19500 9.74300 32.51500
H  -2.94300 1.88900 27.01100
H  -1.42300 2.05500 27.82800
H  -1.40000 1.14000 26.37900
H  -2.53500 0.59600 22.71300
H  -3.08800 1.20100 24.21900
H  -1.49600 0.37800 24.10600
H  -2.36500 7.56100 21.33700
H  -0.23200 9.58800 21.45600
H  -0.80200 6.48200 19.93900
H  0.51200 6.73500 21.06500
H  -0.01200 8.05000 19.93000
H  -2.85800 10.25600 22.86000
H  -3.21800 9.63400 21.44000
H  -3.26900 11.65000 20.84500
H  -1.50500 11.80000 20.77900
H  -2.29700 12.16600 22.31900
H  0.17100 13.48900 24.90400
H  1.86500 12.95000 25.11600
H  0.94200 13.79900 26.43500
H  0.04700 10.57800 30.40400
H  4.30500 11.01300 30.97000
H  3.82200 10.21900 32.51400
H  3.82400 12.08900 32.19700
Mg 47.77400 25.76300 28.06700
C  48.53800 28.07200 30.65600
C  46.29800 23.69800 30.54600
C  47.20400 23.50300 25.63200
C  49.33500 27.87000 25.77200
N  47.52500 25.94000 30.33300
C  47.79600 26.97400 31.11500
C  47.37100 26.69900 32.49200
C  46.66300 25.27800 32.52300
C  46.82300 24.94100 31.04300
C  47.30300 24.23600 33.48300
C  46.42400 27.81800 33.02100
C  45.71200 27.45400 34.34200
H  45.53300 28.46000 35.45500
N  46.84400 23.92700 28.07800
C  46.29900 23.24800 29.16600
C  45.84500 21.89800 28.71000
C  46.09500 21.89400 27.31200
C  46.78100 23.18300 26.93900
C  45.26200 20.84200 29.62100
C  45.84700 20.71900 26.24700
O  46.22800 20.78900 25.06800
C  44.96000 19.58800 26.59000
N  48.16900 25.70200 25.95100
C  47.80100 24.63100 25.22400
C  48.10800 24.92800 23.71400
C  48.67600 26.41100 23.74100
C  48.84400 26.68300 25.24900
C  49.18200 23.85800 23.20800
C  47.65800 27.41300 23.08300
C  48.03900 27.56900 21.52900
N  48.72600 27.51100 28.16900
C  49.32100 28.27300 27.13000
C  49.88900 29.53000 27.69900
C  49.59800 29.45900 29.09200
C  48.95600 28.21200 29.27500
C  50.71400 30.49000 26.93900
C  49.81300 30.13400 30.31900
O  50.49200 31.11100 30.57700
C  49.05800 29.27600 31.41900
C  49.87300 28.96000 32.63200
O  50.75500 28.10200 32.67400
O  49.42900 29.73200 33.74500
C  50.13500 29.41000 34.93000
H  45.84300 22.98600 31.23700
H  47.03700 22.79600 24.81700
H  49.67600 28.65200 25.09000
H  48.30000 26.80700 33.05200
H  45.59000 25.41300 32.66400
H  48.13300 24.58700 34.09700
H  47.64400 23.46000 32.79800
H  46.50500 23.76700 34.05800
H  45.72900 28.18900 32.26800
H  47.04100 28.66900 33.30900
H  46.19800 26.53900 34.67900
H  44.70300 27.16300 34.05100
H  45.27600 19.81300 29.26200
H  44.17800 20.93300 29.70200
H  45.65300 20.84400 30.63900
H  45.56900 18.84100 27.09900
H  44.62700 19.10400 25.67200
H  44.19700 20.02900 27.23300
H  47.20900 24.75700 23.12300
H  49.72900 26.47500 23.46700
H  50.16800 24.24000 22.94500
H  48.75600 23.34200 22.34800
H  49.36000 23.13700 24.00600
H  47.73900 28.35400 23.62700
H  46.64500 27.03300 23.21800
H  47.40300 26.94300 20.90300
H  49.03600 27.20000 21.28900
H  48.03700 28.58600 21.13500
H  51.61900 29.92400 26.71400
H  50.94100 31.22000 27.71600
H  50.40700 30.78600 25.93600
H  48.15800 29.77300 31.77900
H  51.12200 29.82700 34.72600
H  50.34400 28.38500 35.23400
H  49.79000 30.00000 35.77900

