158

Mg 0.80800 7.43000 24.93000
C  1.33000 9.16400 27.87100
C  1.06300 4.47900 26.77900
C  0.63200 5.69500 21.99500
C  1.06200 10.47700 23.09700
N  1.06500 6.93500 27.07700
C  1.25100 7.80200 28.10600
C  1.27400 7.08000 29.51000
C  1.23300 5.59300 29.05600
C  1.02700 5.68400 27.46100
C  2.43800 4.75100 29.43800
C  0.05700 7.37900 30.48900
C  0.42800 7.52600 31.98700
H  1.61000 6.78000 32.55600
N  0.68000 5.37400 24.47200
C  0.88500 4.36700 25.33800
C  0.91200 3.06400 24.63700
C  0.76600 3.36700 23.23500
C  0.68100 4.90200 23.16300
C  1.04500 1.76800 25.29000
C  0.62500 2.51400 22.01300
O  0.45000 2.93500 20.83200
C  0.45000 1.00900 22.18700
N  0.90700 7.96200 22.88800
C  0.65500 7.10500 21.88500
C  0.48600 7.83700 20.50000
C  0.59200 9.33100 20.87300
C  0.90400 9.28500 22.36800
C  1.36800 7.34900 19.31200
C  -0.49500 10.28000 20.33500
C  -1.95400 10.36300 20.94600
N  1.09100 9.42400 25.32100
C  1.17400 10.53100 24.55300
C  1.18900 11.72500 25.44600
C  1.30100 11.24100 26.72200
C  1.17900 9.85400 26.62000
C  1.22000 13.13700 25.03500
C  1.49500 11.62300 28.10800
O  1.63500 12.70100 28.66700
C  1.49200 10.27900 28.88700
C  2.66900 10.26300 29.84100
O  3.75900 9.72500 29.60600
O  2.27100 10.89400 31.01300
C  3.26500 11.04600 32.12100
H  1.13100 3.58500 27.40200
H  0.49000 5.23100 21.01600
H  0.97600 11.47600 22.66300
H  2.26200 7.31300 29.90700
H  0.30000 5.11000 29.34600
H  2.10800 3.94500 30.09300
H  3.11100 5.37500 30.02600
H  3.03500 4.31500 28.63600
H  -0.80800 6.71800 30.42900
H  -0.25600 8.37900 30.18700
H  -0.35100 7.00400 32.54300
H  0.44600 8.59500 32.19700
H  0.49100 0.95400 24.82200
H  0.58700 1.73200 26.27900
H  2.08900 1.46200 25.23000
H  1.33200 0.67700 22.73600
H  0.45900 0.65800 21.15500
H  -0.48800 0.70000 22.64900
H  -0.55900 7.71100 20.21700
H  1.51200 9.72400 20.44000
H  1.86100 6.40400 19.54000
H  2.08800 8.14600 19.12400
H  0.70200 7.15000 18.47300
H  -0.55500 9.95300 19.29700
H  -0.07400 11.28500 20.33900
H  -2.00000 9.53800 21.65700
H  -2.73000 10.23000 20.19200
H  -2.15800 11.33000 21.40600
H  2.19700 13.55100 25.28300
H  0.40100 13.56600 25.61200
H  1.01300 13.32300 23.98100
H  0.60000 10.23600 29.51200
H  4.18700 11.43200 31.68600
H  3.45800 10.03900 32.49000
H  2.84300 11.60800 32.95400
Mg 49.23200 44.58200 42.47400
C  45.86200 44.78600 41.64500
C  49.02300 41.21400 41.81800
C  52.65100 44.33500 42.75600
C  49.38800 48.03000 42.99200
N  47.71100 43.28400 41.56500
C  46.47900 43.58400 41.27400
C  45.72600 42.38800 40.82700
C  46.52900 41.24800 41.45400
C  47.87800 41.92000 41.59700
C  45.98400 40.85300 42.89600
C  45.54200 42.34300 39.31400
C  44.10900 42.71700 38.76700
H  44.17600 43.79000 37.68100
N  50.64500 42.99700 42.44700
C  50.33200 41.69300 42.16300
C  51.49700 40.91300 42.10900
C  52.64500 41.72900 42.47600
C  52.04900 43.09600 42.58700
C  51.57900 39.43900 41.75900
C  54.04600 41.32600 42.70300
O  54.34700 40.14200 42.88500
C  55.11800 42.26000 42.83400
N  50.79500 46.02000 42.54400
C  52.10200 45.66100 42.75800
C  53.04600 46.91100 42.89200
C  51.93200 48.01700 42.89800
C  50.60200 47.30300 42.88500
C  53.91400 47.06700 44.15900
C  52.14500 49.11800 41.77800
C  51.67900 50.52700 42.05200
N  47.99300 46.16000 42.38500
C  48.10300 47.46700 42.69800
C  46.83700 48.08800 42.57800
C  45.92500 47.04800 42.14500
C  46.67100 45.88300 42.06400
C  46.47600 49.50400 42.75200
C  44.56000 46.77500 41.96300
O  43.62500 47.60200 42.01700
C  44.48600 45.34600 41.60500
C  43.62200 44.61500 42.51900
O  42.42000 44.57200 42.35100
O  44.26400 44.08200 43.63600
C  43.33200 43.61000 44.72600
H  48.83700 40.14500 41.70000
H  53.73800 44.43700 42.75900
H  49.39300 49.08100 43.28700
H  44.72200 42.48100 41.24100
H  46.60500 40.45700 40.70800
H  45.05600 41.37000 43.14100
H  46.70200 41.12200 43.67100
H  45.89000 39.77000 42.82400
H  45.70600 41.37400 38.84100
H  46.27900 43.03200 38.90200
H  43.43600 43.07500 39.54600
H  43.69500 41.86300 38.23000
H  52.23400 39.28200 40.90300
H  50.56400 39.06200 41.63600
H  52.03100 38.92600 42.60800
H  55.20900 42.85300 41.92400
H  56.02700 41.65900 42.85800
H  55.04700 42.80300 43.77700
H  53.54800 46.85300 41.92600
H  51.91900 48.62700 43.80100
H  53.76600 46.26600 44.88300
H  53.62400 48.01800 44.60500
H  54.96400 47.05100 43.86800
H  51.79200 48.70100 40.83500
H  53.23000 49.20800 41.73700
H  51.69700 50.93100 43.06500
H  50.63600 50.59800 41.74400
H  52.24300 51.24200 41.45400
H  47.11500 50.05900 42.06600
H  46.79700 49.86000 43.73100
H  45.42700 49.65600 42.49600
H  44.00700 45.28700 40.62800
H  43.94400 43.41200 45.60600
H  42.88400 42.70000 44.32700
H  42.56200 44.33800 44.97900

