158

Mg -1.51000 16.87200 26.05400
C  -2.15800 14.36700 28.53900
C  -2.76800 19.11100 28.34500
C  -1.58300 19.08500 23.72100
C  -1.35600 14.24400 23.77300
N  -2.12600 16.70600 28.26100
C  -2.15800 15.64400 29.07400
C  -2.45100 16.03000 30.52300
C  -2.91600 17.52900 30.30100
C  -2.58800 17.84900 28.89300
C  -4.34700 17.86900 30.81300
C  -1.30900 15.82400 31.59700
C  -1.35700 16.77200 32.84500
H  -1.26000 16.18700 34.23700
N  -2.10200 18.92700 26.05200
C  -2.55100 19.66600 27.06400
C  -2.68100 20.99200 26.65900
C  -2.33600 21.02000 25.24200
C  -1.98200 19.63400 24.94400
C  -2.96900 22.10200 27.65500
C  -2.23900 22.22100 24.27900
O  -1.69500 22.22500 23.18800
C  -2.76100 23.52300 24.70800
N  -1.41300 16.67000 23.99500
C  -1.34400 17.79500 23.26000
C  -0.99600 17.42300 21.88400
C  -0.72800 15.85100 21.91100
C  -1.16800 15.56100 23.30900
C  -2.17900 17.72000 20.80500
C  0.74000 15.40700 21.62300
C  1.79700 15.34400 22.76700
N  -1.74000 14.74600 26.10000
C  -1.58100 13.82300 25.05000
C  -1.88700 12.50100 25.44500
C  -2.04600 12.64200 26.84600
C  -1.89500 13.99300 27.17800
C  -2.07400 11.31000 24.61200
C  -2.47100 11.96200 28.01000
O  -2.71500 10.74300 28.20100
C  -2.50200 12.97100 29.20200
C  -1.61000 12.46400 30.28400
O  -0.41600 12.76300 30.39000
O  -2.24500 11.67700 31.16100
C  -1.49900 11.41600 32.43000
H  -3.09700 19.78400 29.14000
H  -1.61000 19.88800 22.98100
H  -1.19700 13.45100 23.03900
H  -3.24700 15.44400 30.98200
H  -2.15500 18.19700 30.70500
H  -4.94700 18.48000 30.13900
H  -4.40500 18.38100 31.77300
H  -4.81700 16.89200 30.92500
H  -0.32800 15.98700 31.15000
H  -1.35900 14.79600 31.95500
H  -2.30300 17.31100 32.90300
H  -0.57700 17.52300 32.71600
H  -3.71400 22.74700 27.18700
H  -2.12200 22.73100 27.92700
H  -3.43600 21.72900 28.56600
H  -3.78000 23.19900 24.92000
H  -2.74700 24.16600 23.82900
H  -2.31900 24.06300 25.54600
H  -0.11000 17.99300 21.60400
H  -1.29000 15.24300 21.20200
H  -2.52800 16.76500 20.41100
H  -1.75600 18.32300 20.00200
H  -2.94500 18.28200 21.34000
H  1.22500 16.02500 20.86800
H  0.71900 14.37400 21.27500
H  2.24900 14.35200 22.74400
H  1.24500 15.56300 23.68100
H  2.58900 16.06100 22.55600
H  -2.33900 11.61100 23.59900
H  -2.84000 10.75000 25.14800
H  -1.13300 10.76200 24.65500
H  -3.49600 12.92900 29.64600
H  -0.45100 11.14600 32.30100
H  -2.05800 10.63000 32.93700
H  -1.56300 12.26700 33.10800
Mg 9.38700 2.55900 27.81900
C  10.67400 1.11200 30.72200
C  7.70400 4.82800 29.83800
C  8.13300 3.93700 24.98300
C  11.11100 0.11800 25.82300
N  9.25400 2.91700 30.03500
C  10.03100 2.32200 31.01500
C  9.73900 3.01900 32.36100
C  8.66900 4.19400 32.05600
C  8.48200 3.94900 30.55700
C  7.37500 3.95300 32.84600
C  11.06000 3.42000 33.12800
C  11.03700 4.50000 34.31800
H  10.81300 3.96100 35.69900
N  8.06100 4.11100 27.47800
C  7.44500 4.89800 28.42500
C  6.49400 5.75900 27.78200
C  6.69200 5.61900 26.38300
C  7.67100 4.49600 26.22100
C  5.72700 6.77900 28.53800
C  6.02400 6.37100 25.14300
O  6.25800 6.15100 23.98200
C  4.89500 7.34700 25.50400
N  9.60500 2.07300 25.65800
C  8.98100 2.83700 24.68800
C  9.41400 2.27400 23.30400
C  10.55000 1.22100 23.64800
C  10.38700 1.06800 25.14300
C  8.18400 1.65100 22.64500
C  12.04300 1.62400 23.16600
C  12.68700 0.61900 22.25300
N  10.46600 0.87100 28.10700
C  11.20300 -0.00500 27.22000
C  11.83000 -1.07000 28.00600
C  11.67500 -0.57500 29.34000
C  10.77900 0.51200 29.36300
C  12.57900 -2.16600 27.48100
C  12.12500 -0.80400 30.76100
O  12.86400 -1.65200 31.30000
C  11.55100 0.28100 31.55800
C  10.76600 -0.35000 32.63300
O  9.74400 -0.99900 32.56000
O  11.32700 -0.10700 33.88700
C  10.95200 -0.81600 35.11700
H  7.29500 5.58200 30.51400
H  7.69900 4.41600 24.10300
H  11.70700 -0.58900 25.24200
H  9.26800 2.20900 32.91800
H  8.95100 5.24000 32.17400
H  6.97300 4.94600 33.04800
H  7.47100 3.46100 33.81400
H  6.74000 3.25100 32.30500
H  11.65300 3.82100 32.30600
H  11.47700 2.53100 33.60200
H  10.15500 5.11500 34.14400
H  11.97300 5.05800 34.28800
H  4.67900 6.56000 28.33000
H  5.85900 7.78900 28.15000
H  5.82700 6.72500 29.62200
H  5.29800 8.26900 25.92200
H  4.29600 6.73800 26.18000
H  4.25300 7.59700 24.65900
H  9.81500 2.98700 22.58300
H  10.24000 0.25100 23.26000
H  7.26600 1.58600 23.23000
H  8.21400 0.69000 22.13200
H  7.96600 2.34500 21.83300
H  12.57500 1.91500 24.07200
H  11.73200 2.50600 22.60600
H  12.15200 -0.33100 22.26800
H  13.67400 0.51500 22.70300
H  12.64600 0.97700 21.22400
H  12.96100 -2.79600 28.28400
H  13.37200 -1.77800 26.84200
H  11.97300 -2.82400 26.85800
H  12.42700 0.84800 31.87200
H  10.23700 -1.62900 34.98700
H  10.64600 -0.07000 35.85100
H  11.79300 -1.32200 35.59000

