158

Mg 26.47000 50.40300 26.66900
C  24.48500 51.98700 28.92500
C  28.87900 49.71600 29.12000
C  28.51000 49.31700 24.31300
C  24.20100 51.58300 24.08100
N  26.66300 50.78700 28.71300
C  25.63500 51.33800 29.46300
C  25.86200 51.08500 30.95400
C  27.28700 50.39400 31.05500
C  27.65700 50.29400 29.57100
C  28.37100 51.22400 31.91700
C  24.75400 50.21400 31.68300
C  24.10800 50.72000 32.95800
H  24.82100 51.25800 34.14700
N  28.43100 49.66900 26.70300
C  29.19100 49.44200 27.79200
C  30.43100 48.78700 27.36300
C  30.36800 48.71800 25.94700
C  29.07000 49.28300 25.55700
C  31.54400 48.19500 28.31300
C  31.34300 48.06800 24.94500
O  31.13400 47.92000 23.72500
C  32.61600 47.49600 25.46200
N  26.39100 50.46900 24.46800
C  27.32000 49.81600 23.78300
C  27.14700 50.11400 22.29700
C  25.61400 50.57400 22.19000
C  25.34200 50.92600 23.66900
C  28.12200 51.17600 21.68200
C  24.60700 49.42200 21.76200
C  24.59400 49.02800 20.24400
N  24.69700 51.63300 26.49400
C  23.87200 51.96000 25.39000
C  22.72300 52.66600 25.92200
C  22.92700 52.77900 27.27900
C  24.10700 52.10800 27.61000
C  21.62800 53.29400 25.02100
C  22.36500 53.23600 28.47900
O  21.33500 53.91600 28.72300
C  23.30400 52.65600 29.65600
C  23.73700 53.81000 30.50200
O  24.43900 54.74000 30.12000
O  22.98800 53.77600 31.71600
C  23.11500 55.06000 32.47500
H  29.56700 49.32700 29.87300
H  29.05500 48.82300 23.50600
H  23.47200 51.78400 23.29300
H  25.81000 52.03100 31.49300
H  27.20900 49.36000 31.39000
H  29.09800 51.59500 31.19500
H  28.88000 50.61600 32.66500
H  27.85600 51.97600 32.51400
H  25.29100 49.38200 32.13800
H  24.00700 49.80800 31.00000
H  23.53500 49.88100 33.35100
H  23.48200 51.50200 32.52800
H  31.71400 47.12500 28.19200
H  31.25500 48.23600 29.36300
H  32.51400 48.65000 28.11200
H  33.26500 47.18900 24.64200
H  32.39200 46.60100 26.04300
H  33.09900 48.32000 25.98700
H  27.27000 49.25100 21.64200
H  25.71900 51.41000 21.49900
H  28.85300 51.35400 22.47000
H  27.65000 52.14500 21.51900
H  28.58500 50.71500 20.81000
H  23.59600 49.65400 22.09500
H  24.89100 48.50000 22.26900
H  23.60100 49.31700 19.89900
H  24.85100 47.98000 20.09100
H  25.25200 49.59200 19.58400
H  21.26100 52.45300 24.43200
H  22.07700 53.95000 24.27500
H  20.88600 53.87100 25.57400
H  22.72700 51.92600 30.22400
H  23.47500 55.92700 31.92000
H  23.81600 54.77800 33.25900
H  22.21500 55.34300 33.02100
Mg 9.27400 48.37800 25.25300
C  7.05900 49.12400 27.96600
C  11.98400 48.98700 27.28000
C  11.13300 47.97100 22.62000
C  6.29700 48.16200 23.11000
N  9.44700 49.03000 27.31200
C  8.44800 49.13500 28.28400
C  9.06800 49.37500 29.63400
C  10.58200 49.37600 29.39300
C  10.70500 49.08500 27.87400
C  11.30500 50.75200 29.72700
C  8.61500 48.32400 30.77800
C  9.42800 48.14200 32.05800
H  8.63600 47.79500 33.30100
N  11.23300 48.49300 25.00100
C  12.23200 48.76200 25.91700
C  13.51800 48.71000 25.32900
C  13.31800 48.31100 23.94800
C  11.82800 48.26200 23.78200
C  14.75200 49.00000 26.10300
C  14.38800 48.17200 22.77900
O  14.05700 47.95200 21.63000
C  15.86200 48.23000 23.01000
N  8.80100 48.13900 23.09400
C  9.78500 47.89900 22.26700
C  9.24100 47.51500 20.89800
C  7.72000 47.47500 21.09200
C  7.55000 47.94700 22.48900
C  9.67600 48.33600 19.66800
C  6.83000 46.23200 20.79400
C  5.39900 46.45300 20.31000
N  7.03900 48.56000 25.46200
C  5.99600 48.45600 24.52600
C  4.78400 48.67800 25.19200
C  5.14000 49.01300 26.51300
C  6.52800 48.91000 26.64300
C  3.39600 48.58100 24.58300
C  4.58700 49.34500 27.73800
O  3.40300 49.58500 27.96900
C  5.82700 49.50400 28.81300
C  5.49800 48.34100 29.74500
O  5.68400 47.16200 29.45600
O  4.98800 48.89100 30.87100
C  4.74100 47.90500 31.93200
H  12.79400 49.18500 27.98600
H  11.68400 47.87400 21.68300
H  5.37700 48.09300 22.52500
H  8.69500 50.34300 29.96700
H  11.18000 48.69300 29.99600
H  12.16400 50.63600 30.38800
H  10.53200 51.36300 30.19200
H  11.74600 51.23700 28.85600
H  8.52000 47.37100 30.25800
H  7.60900 48.62200 31.07300
H  10.00400 49.06100 32.16500
H  10.16800 47.37300 31.83600
H  15.12400 48.18300 26.72100
H  14.69800 49.87500 26.75100
H  15.57300 49.33300 25.46900
H  16.20900 49.20800 23.34400
H  16.35300 47.97700 22.07000
H  16.17600 47.45700 23.71100
H  9.59700 46.51100 20.67000
H  7.28000 48.31200 20.55000
H  8.98200 49.12800 19.38500
H  9.72300 47.55800 18.90500
H  10.59300 48.84900 19.95600
H  6.70300 45.75400 21.76600
H  7.39500 45.48000 20.24300
H  5.23400 47.49500 20.03700
H  4.71600 46.16800 21.11000
H  5.21200 45.85100 19.42100
H  3.28200 49.49000 23.99200
H  2.66500 48.48100 25.38600
H  3.42100 47.73100 23.90100
H  5.72400 50.49100 29.26500
H  5.38100 47.02500 31.86400
H  3.70300 47.57200 31.94600
H  5.07500 48.46800 32.80400

