158

Mg 25.85600 50.18000 25.68500
C  23.97800 51.18300 28.32900
C  28.19600 48.85400 27.99000
C  27.85300 49.32000 23.15700
C  23.67900 51.63700 23.41000
N  26.11800 50.13400 27.92700
C  25.13600 50.60000 28.81600
C  25.58500 50.43500 30.29600
C  26.89900 49.62600 30.09500
C  27.12400 49.54800 28.58800
C  28.03000 50.12900 30.95000
C  24.46200 49.79600 31.15200
C  24.79700 49.04000 32.44600
H  24.09100 49.56800 33.69300
N  27.70100 49.22700 25.57300
C  28.50200 48.75400 26.61600
C  29.72200 48.19300 26.06200
C  29.71200 48.54900 24.66800
C  28.35100 49.07700 24.42100
C  30.71800 47.49600 26.87500
C  30.87500 48.39200 23.67800
O  30.82000 48.74200 22.53000
C  32.19700 47.88100 24.16700
N  25.66600 50.31900 23.55400
C  26.65300 49.77900 22.70100
C  26.30000 50.10700 21.26100
C  24.81000 50.77900 21.38700
C  24.68000 50.94300 22.90100
C  27.35600 51.02700 20.53800
C  23.59500 49.91700 20.85600
C  23.57700 49.82200 19.30600
N  24.24300 51.21500 25.77900
C  23.45700 51.78700 24.82700
C  22.24500 52.32400 25.47300
C  22.43200 52.15500 26.85100
C  23.64900 51.48800 27.01800
C  21.07500 52.95500 24.74400
C  21.81100 52.34100 28.13700
O  20.73200 52.74500 28.49700
C  22.83800 51.69600 29.19300
C  23.21300 52.84100 30.10900
O  24.09400 53.66800 29.99400
O  22.30900 52.64700 31.24600
C  22.60300 53.63100 32.31100
H  28.83200 48.43900 28.77500
H  28.58500 49.01400 22.40600
H  22.91400 52.09200 22.77800
H  25.77000 51.41900 30.72700
H  26.66100 48.60200 30.38200
H  28.82500 50.32100 30.22900
H  28.44500 49.41100 31.65700
H  27.73400 51.01300 31.51400
H  23.97600 49.14700 30.42400
H  23.94600 50.69900 31.47900
H  25.85800 49.24100 32.59900
H  24.53800 47.98600 32.34500
H  30.31700 47.28800 27.86700
H  31.68800 47.99100 26.92400
H  30.84000 46.49500 26.46200
H  32.12600 46.89800 24.63300
H  32.58600 48.55800 24.92700
H  32.92000 47.96500 23.35600
H  26.16600 49.15900 20.74000
H  24.89300 51.73700 20.87200
H  28.26700 51.28900 21.07700
H  26.98000 51.94800 20.09300
H  27.75400 50.59500 19.62000
H  22.60400 50.31500 21.07400
H  23.77300 48.94600 21.32000
H  23.64000 48.80100 18.92900
H  24.32400 50.42600 18.79100
H  22.68900 50.11100 18.74500
H  20.88000 52.41200 23.81900
H  21.21400 53.96800 24.36700
H  20.09900 52.80100 25.20400
H  22.32700 50.90800 29.74700
H  22.96400 54.60400 31.98000
H  23.29400 53.24200 33.06000
H  21.74900 53.82200 32.96000
Mg 6.50400 54.32400 40.99500
C  5.57200 50.90100 40.37200
C  9.53900 53.70900 39.93500
C  6.79100 57.69500 40.90700
C  2.87400 54.90400 41.49100
N  7.48600 52.48400 40.38100
C  6.94600 51.22900 40.15500
C  8.04700 50.26900 39.68700
C  9.32600 51.13900 39.82900
C  8.80800 52.56900 40.12900
C  10.39800 50.65900 40.91200
C  7.87900 49.44900 38.33500
C  7.84400 50.20300 37.03600
H  6.62500 50.08900 36.09200
N  7.97400 55.52100 40.46600
C  9.22700 55.08700 40.08200
C  10.10600 56.20400 40.04900
C  9.36400 57.32600 40.35500
C  7.96600 56.90700 40.60700
C  11.58300 56.14600 39.77000
C  9.88500 58.68000 40.52700
O  10.95500 58.88900 40.06200
C  9.17300 59.84700 41.19100
N  4.99700 56.01400 41.16400
C  5.46400 57.29800 41.26600
C  4.35600 58.34100 41.42300
C  3.11100 57.45100 41.38400
C  3.65700 56.01200 41.48000
C  4.53200 59.14600 42.71300
C  2.23700 57.70500 40.11600
C  0.69800 58.06200 40.32200
N  4.59900 53.15800 41.05400
C  3.28000 53.51000 41.29600
C  2.47500 52.31300 41.48200
C  3.31100 51.28900 41.11200
C  4.57100 51.82600 40.73400
C  1.00100 52.16500 41.74500
C  3.40700 49.88700 40.94400
O  2.52100 49.04000 41.15500
C  4.82100 49.55300 40.40400
C  4.57400 49.04900 39.06000
O  4.04500 49.60200 38.10100
O  4.76900 47.68900 39.09900
C  3.85900 46.98100 38.08600
H  10.51500 53.63800 39.45100
H  6.88900 58.77400 41.04200
H  1.81000 55.14300 41.55100
H  8.19600 49.60300 40.53700
H  9.68700 51.17900 38.80100
H  11.30300 50.52400 40.31800
H  10.14500 49.70100 41.36700
H  10.61000 51.39100 41.69100
H  6.96900 48.85300 38.39700
H  8.74300 48.78500 38.30000
H  8.61800 49.74500 36.42000
H  8.14000 51.24600 37.14200
H  11.62600 56.79900 38.89800
H  11.92500 55.23800 39.27300
H  12.20800 56.38000 40.63200
H  8.46100 60.30800 40.50600
H  9.87500 60.59800 41.55500
H  8.69700 59.46200 42.09300
H  4.49100 58.92200 40.51100
H  2.46800 57.53700 42.26100
H  5.42200 58.89600 43.29000
H  3.71000 59.18600 43.42700
H  4.67700 60.18600 42.42200
H  2.29400 56.76400 39.56800
H  2.64800 58.53900 39.54800
H  0.15000 57.17600 40.00000
H  0.33000 58.83500 39.64700
H  0.44600 58.25700 41.36400
H  0.64000 53.02600 42.30800
H  0.81200 51.27600 42.34700
H  0.44600 52.06900 40.81200
H  5.31200 48.77800 40.99200
H  3.59500 46.01200 38.51000
H  4.41700 46.92800 37.15000
H  2.89000 47.47400 38.01500

