158

Mg 49.43400 35.72400 27.49400
C  47.40200 34.05000 29.70800
C  50.01100 38.15300 29.84500
C  50.75100 37.64200 25.16300
C  48.68900 33.30900 25.03900
N  48.88600 35.89800 29.57600
C  48.07900 35.05800 30.28500
C  47.99000 35.47900 31.73100
C  48.58400 36.92300 31.64100
C  49.27800 36.99500 30.26600
C  47.52300 38.05200 31.90100
C  48.79200 34.49300 32.62300
C  48.38700 34.17400 34.10300
H  47.35200 35.11700 34.77600
N  50.31100 37.60000 27.47600
C  50.46800 38.39000 28.54900
C  50.99300 39.69500 28.10600
C  51.24000 39.60900 26.70200
C  50.67000 38.26300 26.34900
C  51.16600 40.85600 29.07600
C  51.95500 40.57900 25.87100
O  52.25300 40.34100 24.71500
C  52.49500 41.84700 26.39700
N  49.83100 35.41200 25.31500
C  50.42000 36.40600 24.66100
C  50.47300 35.99200 23.18000
C  49.92500 34.54100 23.15500
C  49.39500 34.39800 24.55000
C  49.68500 36.92400 22.22200
C  50.90000 33.43100 22.79000
C  51.71300 33.51000 21.47500
N  48.36300 33.98600 27.35500
C  48.18600 33.12300 26.32100
C  47.34200 32.01500 26.78700
C  46.96500 32.37400 28.09800
C  47.57300 33.56700 28.36800
C  46.99400 30.70900 26.09200
C  46.15900 31.95800 29.24500
O  45.42300 30.98900 29.45400
C  46.27700 33.09800 30.31900
C  46.64000 32.42500 31.65900
O  47.61500 31.72200 31.93900
O  45.53300 32.60900 32.48700
C  45.54900 31.70700 33.66300
H  49.98100 38.92900 30.61300
H  51.07000 38.36100 24.40500
H  48.52200 32.43900 24.40000
H  46.91500 35.45400 31.90500
H  49.27100 37.12900 32.46200
H  46.52200 37.68300 32.12600
H  47.42200 38.54600 30.93400
H  47.95300 38.69100 32.67200
H  49.78000 34.93500 32.75800
H  49.06100 33.62900 32.01500
H  49.32000 34.20000 34.66600
H  48.18300 33.12300 34.30700
H  50.57800 41.67300 28.65800
H  52.18900 41.16900 29.28500
H  50.74800 40.56700 30.04100
H  51.73900 42.51600 26.80800
H  53.08800 42.40800 25.67400
H  53.28800 41.60800 27.10600
H  51.49300 35.95800 22.79800
H  49.06200 34.38400 22.50800
H  49.08000 36.41400 21.47300
H  50.47100 37.50200 21.73600
H  49.04500 37.63000 22.75200
H  50.34100 32.50100 22.69200
H  51.47600 33.49600 23.71300
H  52.75000 33.72600 21.73100
H  51.15600 34.20800 20.85000
H  51.74400 32.54100 20.97700
H  46.68700 31.02100 25.09300
H  46.23000 30.12500 26.60600
H  47.94600 30.17900 26.07400
H  45.40200 33.74400 30.38800
H  44.54900 31.31000 33.84300
H  45.81900 32.33000 34.51600
H  46.21300 30.84500 33.60100
Mg 10.02000 47.99600 25.64500
C  8.02500 48.23900 28.53000
C  12.49000 49.39700 27.29300
C  11.64400 48.23000 22.69100
C  7.14400 46.86800 23.86000
N  10.17100 48.70000 27.70400
C  9.33600 48.61500 28.74500
C  10.04100 49.15100 30.04700
C  11.32100 49.89400 29.45400
C  11.31600 49.33100 28.06000
C  10.99800 51.40200 29.22800
C  10.37600 48.13100 31.08100
C  10.00700 48.50900 32.54300
H  10.19600 47.40600 33.49600
N  11.82800 48.63400 25.07400
C  12.77300 49.11000 25.93300
C  14.04600 49.22000 25.24500
C  13.82200 48.92500 23.89700
C  12.33600 48.61800 23.82500
C  15.34100 49.59900 25.97300
C  14.77100 48.83300 22.65200
O  14.43300 48.83400 21.45100
C  16.19700 48.91400 22.95000
N  9.41100 47.75800 23.49100
C  10.31500 47.87700 22.51400
C  9.72100 47.37100 21.17900
C  8.38100 46.65000 21.66300
C  8.30700 47.06900 23.11800
C  9.56100 48.52900 20.18700
C  8.21600 45.13100 21.36400
C  8.90300 44.02300 22.27000
N  7.92600 47.76300 25.98000
C  6.87300 47.31000 25.14800
C  5.68900 47.19200 25.97500
C  6.10200 47.58800 27.29100
C  7.48400 47.85600 27.21100
C  4.39400 46.58200 25.47900
C  5.61200 47.77700 28.71100
O  4.46400 47.75600 29.20200
C  6.90700 47.96500 29.60000
C  7.14500 46.65100 30.35400
O  7.80700 45.71200 29.93300
O  6.48500 46.74800 31.54600
C  6.65300 45.60600 32.45900
H  13.32100 49.91200 27.78000
H  12.23400 48.12700 21.77800
H  6.28200 46.41100 23.37000
H  9.40400 49.83600 30.60600
H  12.29100 49.67600 29.90000
H  10.01000 51.68100 29.59400
H  10.95100 51.74500 28.19400
H  11.75500 51.98000 29.75800
H  11.45400 47.97100 31.05900
H  9.96500 47.12200 31.03700
H  8.91900 48.56700 32.51400
H  10.57000 49.40100 32.81700
H  15.22200 49.71100 27.05100
H  15.74400 50.57300 25.69400
H  16.11100 48.84200 25.82500
H  16.67000 49.04600 21.97700
H  16.52300 47.98000 23.40600
H  16.33500 49.84100 23.50700
H  10.36800 46.61100 20.74300
H  7.49500 47.13900 21.25900
H  10.20200 49.36200 20.47600
H  8.50000 48.78000 20.22200
H  9.72200 48.32000 19.12900
H  8.47500 45.03700 20.30900
H  7.15000 44.96100 21.51600
H  8.21400 43.19700 22.44400
H  9.32300 44.43100 23.18900
H  9.70300 43.65700 21.62700
H  3.82900 47.32100 24.91100
H  3.71600 46.40300 26.31400
H  4.43000 45.66600 24.89000
H  6.98900 48.85500 30.22500
H  7.59800 45.78000 32.97300
H  6.70100 44.64000 31.95800
H  5.92400 45.52700 33.26500

