158

Mg 47.28100 24.16600 27.99400
C  47.97600 26.34600 30.73100
C  46.32900 21.74300 30.12000
C  46.97300 22.12300 25.34000
C  48.52800 26.70600 25.88000
N  47.07200 24.12000 30.13100
C  47.44300 25.07500 31.03400
C  47.12600 24.54100 32.47500
C  46.74400 23.07400 32.23700
C  46.67900 22.98500 30.73500
C  47.68000 21.96600 32.85500
C  45.97200 25.35400 33.15100
C  46.40700 25.91300 34.48900
H  45.30200 26.35700 35.55400
N  46.60400 22.24700 27.77700
C  46.21900 21.35400 28.76100
C  45.83700 20.15600 28.21500
C  46.05600 20.22200 26.80900
C  46.51700 21.62400 26.58900
C  45.34000 19.04100 29.00300
C  45.75900 19.19400 25.64400
O  46.14100 19.39600 24.53200
C  45.06900 17.86800 25.95400
N  47.66800 24.39200 25.89600
C  47.52800 23.44300 25.03500
C  47.63100 23.94100 23.61200
C  47.76700 25.47200 23.79500
C  48.04700 25.56300 25.27000
C  48.79000 23.28300 22.91600
C  46.67400 26.35800 23.19900
C  45.38200 26.63300 24.00700
N  48.21500 26.13800 28.22200
C  48.58400 27.04100 27.20800
C  48.94700 28.27700 27.84200
C  48.77500 28.02700 29.25900
C  48.28100 26.76200 29.40900
C  49.47000 29.50200 27.15500
C  49.00300 28.61500 30.60100
O  49.46200 29.73400 30.80500
C  48.47400 27.49800 31.59300
C  49.47200 27.12400 32.60700
O  50.08400 26.08900 32.64000
O  49.43500 28.09700 33.58600
C  50.28400 27.73000 34.72800
H  46.22600 20.88500 30.78700
H  46.77900 21.54400 24.43500
H  48.72700 27.54200 25.20600
H  48.09900 24.58400 32.96500
H  45.74100 22.78400 32.55100
H  47.05700 21.18300 33.28700
H  48.28800 22.25700 33.71100
H  48.38300 21.48800 32.17300
H  45.19900 24.64900 33.45600
H  45.60600 26.11100 32.45700
H  47.09400 26.75700 34.43100
H  46.99400 25.12800 34.96600
H  44.36800 18.66800 28.68000
H  45.08200 19.32700 30.02200
H  46.13300 18.29900 28.91900
H  45.49700 17.49700 26.88500
H  45.33300 17.16300 25.16600
H  43.98000 17.85000 26.00000
H  46.70600 23.69100 23.09300
H  48.74000 25.87100 23.51100
H  49.55200 24.01900 22.66100
H  48.43100 22.64400 22.11000
H  49.24400 22.59200 23.62700
H  46.38200 25.89000 22.25800
H  46.99000 27.36500 22.92800
H  45.52200 26.41800 25.06600
H  44.68800 25.92800 23.55100
H  45.04700 27.66000 23.86100
H  48.66100 30.23300 27.18100
H  49.67500 29.30200 26.10400
H  50.35500 29.78900 27.72300
H  47.53600 27.87000 32.00700
H  50.30900 28.56800 35.42400
H  51.31500 27.50900 34.45200
H  49.88000 26.82700 35.18600
Mg 42.33600 41.61000 26.10700
C  41.40700 43.96300 28.61500
C  43.16300 39.44900 28.70500
C  43.26900 39.53700 23.74600
C  41.58100 44.06300 23.71400
N  42.45000 41.81500 28.46300
C  41.74000 42.72000 29.18400
C  41.58400 42.27200 30.68500
C  42.23300 40.83100 30.73300
C  42.58300 40.62600 29.20300
C  43.48500 40.57600 31.55200
C  40.10300 42.40900 31.10400
C  39.73200 43.33200 32.26800
H  39.40500 42.78100 33.66500
N  43.26100 39.83800 26.24600
C  43.43700 39.07000 27.34400
C  43.94900 37.81200 26.95800
C  43.94900 37.75900 25.56700
C  43.48200 39.12200 25.11400
C  44.23700 36.80100 27.92900
C  44.28300 36.60400 24.51800
O  44.22700 36.78400 23.31000
C  44.68400 35.28000 24.94100
N  42.56800 41.85500 23.98900
C  42.93800 40.83400 23.23600
C  42.85500 41.15600 21.73200
C  41.92600 42.46400 21.69600
C  41.98300 42.83000 23.20600
C  44.20300 41.34400 20.99600
C  40.55600 42.27300 21.11700
C  39.51700 41.70100 22.13900
N  41.64400 43.60300 26.13500
C  41.48300 44.49300 25.03700
C  41.14900 45.79300 25.53400
C  40.97100 45.59700 26.93700
C  41.31200 44.22400 27.22900
C  40.87100 47.02400 24.77200
C  40.57400 46.36700 28.21400
O  40.29700 47.51400 28.50400
C  40.91100 45.26400 29.29800
C  41.84800 45.82700 30.29400
O  42.98600 45.54300 30.43200
O  41.16300 46.57800 31.25400
C  41.84000 46.95300 32.52900
H  43.32400 38.72100 29.50300
H  43.38400 38.78900 22.95800
H  41.14800 44.78500 23.01900
H  42.12500 42.95200 31.34300
H  41.47400 40.07100 30.92200
H  44.29100 40.67300 30.82400
H  43.39300 39.55900 31.93400
H  43.52800 41.35600 32.31100
H  39.77900 41.40700 31.38300
H  39.41400 42.69700 30.31000
H  38.81600 43.85400 31.99100
H  40.56000 44.03700 32.33600
H  43.69100 35.90100 27.64300
H  44.07900 36.92900 29.00000
H  45.27800 36.50700 27.79700
H  43.80200 34.66600 25.12400
H  45.31100 35.44000 25.81800
H  45.20600 34.74200 24.15000
H  42.34400 40.34500 21.21400
H  42.32000 43.31800 21.14300
H  44.01300 41.93100 20.09800
H  44.67400 40.40800 20.69600
H  44.91800 41.78200 21.69300
H  40.48700 41.57800 20.28100
H  40.31200 43.29300 20.81900
H  38.68600 41.10300 21.76400
H  38.99400 42.55000 22.57900
H  40.01300 41.22700 22.98500
H  40.06300 46.85900 24.05900
H  41.75900 47.38100 24.25000
H  40.74200 47.87300 25.44200
H  40.03100 45.08400 29.91500
H  41.26100 46.57300 33.37100
H  41.83300 48.03400 32.66800
H  42.86700 46.60600 32.63700

