158

Mg 24.59000 -4.27800 45.64900
C  26.63000 -1.94900 44.26900
C  21.99500 -3.26100 43.70100
C  22.83600 -6.82100 46.95600
C  27.41800 -5.39500 47.63500
N  24.31700 -2.74700 44.16600
C  25.34800 -2.01800 43.65800
C  24.80500 -1.24400 42.38300
C  23.22900 -1.35800 42.59100
C  23.14800 -2.47400 43.58300
C  22.51700 -0.13500 43.07000
C  25.26100 -1.92000 41.04900
C  25.90200 -0.90800 40.07700
H  25.51900 -0.95500 38.55200
N  22.68000 -5.02600 45.35100
C  21.72800 -4.40600 44.51100
C  20.53800 -5.16700 44.55500
C  20.71300 -6.20800 45.60300
C  22.12600 -6.03900 46.02200
C  19.37800 -4.82200 43.68500
C  19.63800 -7.25700 46.08900
O  18.56000 -7.24700 45.54800
C  19.86800 -8.20000 47.27800
N  24.98200 -5.86400 47.19800
C  24.11100 -6.82200 47.46700
C  24.66500 -7.93400 48.38100
C  26.05600 -7.33500 48.80900
C  26.19000 -6.07000 47.85700
C  23.80300 -8.41900 49.55300
C  27.13800 -8.45500 48.66000
C  28.32200 -8.42000 49.61100
N  26.57000 -3.72200 45.99700
C  27.55200 -4.22300 46.85600
C  28.69900 -3.41000 46.71800
C  28.41500 -2.50000 45.69500
C  27.09900 -2.77900 45.29100
C  30.01300 -3.62700 47.43900
C  28.93700 -1.35700 44.94900
O  30.03000 -0.81300 44.96500
C  27.73700 -0.93500 43.91400
C  27.30800 0.53400 44.01600
O  26.32600 0.97700 44.54600
O  28.21800 1.26400 43.33000
C  28.30000 2.63900 43.75100
H  21.20600 -2.92200 43.02600
H  22.25700 -7.71200 47.20800
H  28.28700 -5.71900 48.21200
H  25.14000 -0.20700 42.41800
H  22.66800 -1.63300 41.69800
H  22.76900 0.74300 42.47400
H  22.89600 0.14600 44.05200
H  21.43700 -0.28500 43.06900
H  24.44100 -2.36500 40.48500
H  25.93800 -2.76700 41.16400
H  26.98600 -1.01800 40.05000
H  25.80400 0.13600 40.37400
H  19.30300 -5.31000 42.71300
H  19.31500 -3.73400 43.71300
H  18.46100 -5.12700 44.18900
H  20.37400 -7.64000 48.06400
H  20.57100 -8.95600 46.92700
H  18.93500 -8.73800 47.44200
H  24.65000 -8.76100 47.67200
H  26.22800 -7.08500 49.85600
H  24.31500 -8.29600 50.50800
H  23.72300 -9.50200 49.46100
H  22.84100 -7.90800 49.57700
H  27.36600 -8.40600 47.59500
H  26.80300 -9.46600 48.89400
H  28.19300 -8.87300 50.59500
H  28.60500 -7.37200 49.70600
H  29.20800 -8.82500 49.12100
H  30.14400 -4.70500 47.53300
H  29.98500 -3.15100 48.41900
H  30.82700 -3.19800 46.85400
H  28.15200 -1.06800 42.91500
H  29.32500 2.99400 43.86200
H  27.79100 2.85300 44.69100
H  27.91600 3.21100 42.90700
Mg -2.66900 34.31300 26.44500
C  -4.46200 33.09200 29.12100
C  -1.80300 37.09400 28.29200
C  -1.04800 35.61100 23.69900
C  -3.79300 31.76400 24.48200
N  -3.13900 34.94100 28.46500
C  -3.70700 34.17000 29.44700
C  -3.49500 34.78100 30.85100
C  -2.99400 36.25400 30.48000
C  -2.53600 36.10500 28.92400
C  -3.99800 37.47500 30.67000
C  -2.46700 33.94200 31.65100
C  -2.51200 34.46100 33.17700
H  -2.72400 33.34400 34.25100
N  -1.60200 36.12900 26.10300
C  -1.45100 37.13800 26.93200
C  -0.73300 38.19800 26.31400
C  -0.43700 37.81700 25.00200
C  -1.05800 36.44300 24.89100
C  -0.37900 39.47100 27.06400
C  0.27200 38.50400 23.88100
O  0.22800 38.02500 22.75700
C  0.94400 39.91400 24.06000
N  -2.55100 33.89000 24.31600
C  -1.73500 34.46700 23.43300
C  -1.72700 33.71500 22.12600
C  -2.56400 32.47900 22.37100
C  -3.01500 32.72600 23.83200
C  -2.27400 34.59000 20.99500
C  -1.73500 31.19900 22.19300
C  -2.49900 30.02600 21.52400
N  -4.06900 32.81800 26.62900
C  -4.33500 31.84700 25.80500
C  -5.22800 30.90800 26.41700
C  -5.33200 31.36300 27.71400
C  -4.56200 32.53100 27.82000
C  -5.94600 29.77800 25.80200
C  -5.87900 31.09300 29.02600
O  -6.59900 30.16300 29.41400
C  -5.28400 32.18400 29.94300
C  -6.44800 32.96800 30.51800
O  -6.91700 33.98600 30.07700
O  -6.95400 32.34800 31.64700
C  -7.88300 33.08300 32.55800
H  -1.47300 37.98100 28.83600
H  -0.35600 35.85800 22.89100
H  -4.05200 30.90600 23.85700
H  -4.47400 34.80800 31.32900
H  -2.13300 36.51500 31.09500
H  -4.80100 37.25700 31.37500
H  -4.20000 37.80900 29.65300
H  -3.42600 38.26800 31.15200
H  -1.52900 33.96300 31.09700
H  -2.76600 32.89400 31.63000
H  -3.27700 35.22300 33.32600
H  -1.58900 34.98500 33.42600
H  -0.84800 39.69300 28.02200
H  -0.48600 40.28000 26.34100
H  0.68300 39.42100 27.30100
H  1.65600 39.80300 24.87800
H  0.06900 40.52800 24.27200
H  1.29100 40.25200 23.08400
H  -0.69300 33.41900 21.94800
H  -3.50500 32.45400 21.82200
H  -3.04200 35.21900 21.44500
H  -2.80100 34.00500 20.24100
H  -1.47900 35.15500 20.51000
H  -1.31800 30.88300 23.14900
H  -0.94900 31.35300 21.45400
H  -3.38800 30.44600 21.05400
H  -2.89800 29.31100 22.24300
H  -1.88100 29.51300 20.78700
H  -6.30100 29.95500 24.78700
H  -6.81400 29.49600 26.39900
H  -5.20600 28.98300 25.70100
H  -4.80300 31.65200 30.76400
H  -8.88300 33.28800 32.17800
H  -7.51000 34.10100 32.67400
H  -7.94100 32.53400 33.49800

