158

Mg 9.11500 3.22600 27.44000
C  10.28100 1.68000 30.32500
C  7.45300 5.46200 29.47200
C  7.76300 4.46100 24.70700
C  10.73000 0.64900 25.44300
N  8.93200 3.52000 29.65500
C  9.46500 2.74400 30.70400
C  9.21200 3.41600 32.13800
C  8.24600 4.58300 31.74400
C  8.17300 4.50900 30.18500
C  6.88500 4.54800 32.53600
C  10.61500 3.80000 32.73500
C  10.63500 4.98800 33.68100
H  11.10800 4.79900 35.07200
N  7.87400 4.83000 27.16000
C  7.30400 5.67700 28.09900
C  6.70000 6.74500 27.38800
C  6.78500 6.50100 25.93500
C  7.50200 5.19600 25.87600
C  6.04600 7.76200 28.15000
C  6.22400 7.35200 24.85700
O  6.45400 7.13000 23.65800
C  5.37300 8.62400 25.14700
N  9.10100 2.54600 25.40500
C  8.52100 3.31800 24.54800
C  8.64300 2.74300 23.16700
C  9.46100 1.43600 23.26700
C  9.81600 1.53900 24.79700
C  7.21500 2.52600 22.49500
C  10.64200 1.21100 22.25700
C  10.39900 0.07000 21.26900
N  10.29500 1.47800 27.74800
C  10.78400 0.55100 26.90700
C  11.57100 -0.38100 27.69200
C  11.40400 0.05100 29.02100
C  10.59200 1.17500 29.02200
C  12.24600 -1.64600 27.34800
C  11.80900 -0.25000 30.38900
O  12.58800 -1.11300 30.77900
C  11.18900 0.81900 31.27200
C  10.38400 0.22200 32.41100
O  9.37400 -0.41800 32.25900
O  11.02100 0.42000 33.60900
C  10.39200 -0.08900 34.85200
H  6.99800 6.21700 30.11700
H  7.30400 4.79500 23.77500
H  11.21000 -0.18000 24.91800
H  8.60400 2.75300 32.75500
H  8.64300 5.56900 31.98300
H  6.50400 5.55100 32.72900
H  7.18700 4.35100 33.56500
H  6.28300 3.78400 32.04400
H  11.24900 3.99500 31.87000
H  10.99000 2.93400 33.28000
H  9.65700 5.46200 33.77500
H  11.45000 5.62300 33.33400
H  5.86900 7.66100 29.22100
H  5.01100 7.70900 27.81300
H  6.44500 8.73200 27.85200
H  6.02500 9.21000 25.79500
H  4.54900 8.37200 25.81300
H  5.12800 9.19800 24.25300
H  9.08700 3.51300 22.53600
H  8.88900 0.51000 23.20600
H  7.06200 1.52400 22.09400
H  7.06100 3.18300 21.63900
H  6.37400 2.62600 23.18200
H  11.56200 1.03000 22.81400
H  10.74600 2.18800 21.78500
H  9.33400 -0.12600 21.14400
H  10.86300 -0.84900 21.62700
H  10.76100 0.48400 20.32800
H  13.20500 -1.42900 26.87800
H  11.60600 -2.17300 26.64100
H  12.16800 -2.18900 28.29000
H  11.96900 1.48200 31.64400
H  9.90800 0.71400 35.40800
H  11.29300 -0.47100 35.33100
H  9.73500 -0.94600 34.70100
Mg 0.24700 43.44200 25.49400
C  2.52600 42.84900 27.99200
C  -2.28800 42.50500 27.73700
C  -2.10600 43.70600 22.91000
C  2.67700 44.07500 23.17500
N  0.21100 42.49800 27.61200
C  1.27000 42.65600 28.45400
C  0.79900 42.40000 29.91600
C  -0.77700 42.12400 29.78300
C  -1.00900 42.33500 28.28100
C  -1.16000 40.69900 30.34900
C  1.13100 43.61100 30.84700
C  1.58700 43.27600 32.29000
H  1.03800 42.01000 32.99300
N  -1.89900 43.11900 25.36500
C  -2.74000 42.73600 26.42900
C  -4.11800 42.84300 25.99100
C  -4.11500 42.99000 24.55000
C  -2.64000 43.28600 24.20700
C  -5.37800 42.78100 26.90200
C  -5.24000 43.22500 23.58900
O  -5.03500 43.58400 22.44300
C  -6.59200 43.10800 24.07700
N  0.19500 43.84100 23.35800
C  -0.83700 44.01400 22.55000
C  -0.44300 44.51100 21.17100
C  1.02900 44.78400 21.32100
C  1.33700 44.27200 22.69200
C  -0.87800 43.54600 20.01200
C  1.35700 46.29000 21.06800
C  1.47700 47.20100 22.25200
N  2.19400 43.45500 25.51900
C  3.11900 43.85800 24.52900
C  4.49000 43.63600 25.04800
C  4.31800 43.24600 26.37900
C  2.89100 43.15500 26.64100
C  5.78600 43.92100 24.28400
C  5.02100 42.87100 27.60200
O  6.17800 42.63700 27.84500
C  3.90500 42.77800 28.74000
C  4.10400 41.44800 29.42700
O  3.93700 40.36200 28.96300
O  4.52100 41.69300 30.73300
C  4.68300 40.48900 31.51800
H  -3.07900 42.30200 28.46300
H  -2.72600 43.73100 22.01200
H  3.39200 44.26600 22.37100
H  1.41400 41.58200 30.29100
H  -1.33300 42.78800 30.44500
H  -1.64200 40.14000 29.54600
H  -1.76400 41.01000 31.20200
H  -0.34800 40.05000 30.67400
H  0.26800 44.27200 30.92700
H  1.82200 44.29600 30.35500
H  1.38500 44.07000 33.00800
H  2.67400 43.24100 32.20600
H  -5.96500 43.67900 26.70900
H  -4.97800 42.88800 27.91100
H  -5.88900 41.82300 26.80400
H  -7.25600 43.20800 23.21900
H  -6.82700 43.78900 24.89500
H  -6.72900 42.11000 24.49400
H  -0.95400 45.44700 20.94300
H  1.58200 44.22600 20.56500
H  -0.17700 43.36500 19.19600
H  -1.75100 43.92200 19.48000
H  -1.03800 42.61500 20.55600
H  0.69600 46.73100 20.32200
H  2.34300 46.35700 20.60900
H  2.32400 47.88100 22.15700
H  1.48400 46.65200 23.19300
H  0.66400 47.92800 22.25400
H  6.47900 44.61300 24.76200
H  5.38400 44.31900 23.35200
H  6.45000 43.08400 24.06600
H  4.02700 43.59400 29.45300
H  5.69500 40.56500 31.91700
H  4.56000 39.48400 31.11600
H  3.97600 40.54600 32.34600

