158

Mg 46.75900 34.63800 28.67900
C  45.19300 32.35100 30.72500
C  46.71800 36.89200 31.19100
C  47.83100 36.91700 26.45800
C  46.04100 32.41400 25.85900
N  46.16600 34.53600 30.71600
C  45.47900 33.52800 31.43500
C  45.30800 33.87700 32.91500
C  45.27800 35.43000 32.75300
C  46.15800 35.62000 31.48500
C  43.82900 35.99200 32.63500
C  46.41200 33.20000 33.90200
C  47.40900 33.94300 34.76000
H  46.91200 34.47700 36.15800
N  47.53300 36.57300 28.92400
C  47.46800 37.36100 30.04500
C  48.16400 38.53800 29.88900
C  48.49100 38.58500 28.48600
C  47.92700 37.37400 27.86000
C  48.46700 39.40800 31.04100
C  49.25100 39.59600 27.71100
O  49.55500 39.38600 26.52200
C  49.63300 40.95200 28.32000
N  46.89800 34.61800 26.47700
C  47.35500 35.72400 25.85700
C  47.39100 35.49900 24.32500
C  46.81800 34.06500 24.19800
C  46.63000 33.61800 25.60100
C  46.79300 36.65200 23.46000
C  47.61000 33.08600 23.25600
C  46.85200 32.56100 22.02000
N  45.86900 32.75500 28.33200
C  45.67400 31.93400 27.16900
C  44.90500 30.76400 27.49700
C  44.76700 30.83100 28.94300
C  45.22100 32.08200 29.34200
C  44.47200 29.71300 26.61800
C  44.27400 30.18600 30.14900
O  43.80900 29.10200 30.30300
C  44.37300 31.24600 31.25300
C  44.70900 30.63300 32.60300
O  45.73400 30.12500 32.97500
O  43.59400 30.86900 33.39900
C  43.79200 30.40700 34.81500
H  46.56700 37.68400 31.92800
H  48.15600 37.68800 25.75700
H  45.68000 31.78900 25.04000
H  44.40200 33.55900 33.43000
H  45.76100 35.94900 33.58100
H  43.31400 35.72600 33.55800
H  43.28300 35.61500 31.77100
H  43.89100 37.08000 32.64600
H  46.97600 32.48700 33.30200
H  45.76800 32.84000 34.70500
H  47.55100 34.88000 34.22200
H  48.39000 33.46800 34.76300
H  47.72200 40.20200 31.08500
H  49.37600 39.99400 30.90200
H  48.70800 39.00300 32.02400
H  48.87000 41.47800 28.89400
H  49.91200 41.51100 27.42700
H  50.45900 40.72300 28.99300
H  48.44700 35.42000 24.06600
H  45.75300 34.09400 23.97100
H  46.11200 37.28100 24.03200
H  46.12600 36.12100 22.78100
H  47.57900 37.15400 22.89500
H  47.90300 32.14400 23.72000
H  48.54300 33.55800 22.94900
H  47.54200 32.47400 21.18100
H  46.02600 33.12800 21.58900
H  46.56200 31.53500 22.24500
H  45.33900 29.24600 26.15000
H  43.80800 30.14000 25.86700
H  44.05900 28.84500 27.13200
H  43.38500 31.70000 31.33300
H  43.74600 29.32800 34.96000
H  43.08100 31.02500 35.36200
H  44.82100 30.52000 35.15600
Mg -2.06500 34.57400 26.89400
C  -3.18400 32.47600 29.51800
C  -0.33800 36.54300 29.27600
C  -1.15400 36.75200 24.42700
C  -4.12700 32.91700 24.71400
N  -1.90600 34.54400 29.05500
C  -2.38600 33.55100 29.94100
C  -2.00300 33.84300 31.46200
C  -1.14500 35.16500 31.33000
C  -1.15000 35.51600 29.77700
C  -1.47700 36.28700 32.35000
C  -1.43400 32.58700 32.20700
C  -0.61100 32.81100 33.48500
H  -1.03500 32.12800 34.81200
N  -0.84300 36.26300 26.86100
C  -0.20100 36.86200 27.91500
C  0.73900 37.86700 27.43300
C  0.50300 37.99200 26.00000
C  -0.51400 36.96000 25.70700
C  1.72300 38.68900 28.34200
C  1.13400 38.89800 24.96500
O  0.89000 38.95600 23.75100
C  2.12600 39.89000 25.42700
N  -2.72500 34.96300 24.99600
C  -2.10400 35.78600 24.08900
C  -2.77400 35.79000 22.69100
C  -3.63700 34.49500 22.75300
C  -3.47900 34.06800 24.28000
C  -3.46200 37.13200 22.29300
C  -3.33100 33.50600 21.63500
C  -2.06800 32.69300 21.73400
N  -3.34100 32.96300 27.00600
C  -4.03900 32.35500 26.01000
C  -4.53300 31.12300 26.48600
C  -4.38800 31.10900 27.90300
C  -3.58100 32.26500 28.13200
C  -5.15100 30.05900 25.69600
C  -4.60700 30.49800 29.23300
O  -5.26500 29.44000 29.58100
C  -3.83100 31.36300 30.19000
C  -4.84100 31.68700 31.25300
O  -5.59800 32.63600 31.27100
O  -4.98400 30.69000 32.18800
C  -5.99900 30.81400 33.21400
H  0.08900 37.22400 30.01600
H  -0.95600 37.49500 23.65100
H  -4.70300 32.35600 23.97500
H  -2.92100 34.13500 31.97100
H  -0.12900 34.87800 31.60200
H  -2.10400 36.04800 33.20900
H  -1.98500 37.04900 31.75900
H  -0.56600 36.70700 32.77600
H  -0.78300 32.02900 31.53400
H  -2.24900 31.90800 32.45400
H  -0.60200 33.88200 33.68900
H  0.43400 32.55500 33.31100
H  2.76400 38.68400 28.01900
H  1.62900 38.20000 29.31200
H  1.44500 39.74000 28.42400
H  1.72400 40.67300 26.07000
H  2.62800 40.47000 24.65400
H  2.87900 39.28500 25.93300
H  -1.89200 35.59600 22.08100
H  -4.67800 34.78200 22.60000
H  -2.71000 37.62800 21.67800
H  -3.59800 37.77700 23.16100
H  -4.38500 36.91200 21.75700
H  -3.46100 34.02900 20.68800
H  -4.21600 32.87000 21.67200
H  -1.75400 32.95200 22.74600
H  -1.31500 33.04000 21.02700
H  -2.26200 31.62600 21.62300
H  -4.67200 29.95000 24.72300
H  -6.22800 30.21800 25.63800
H  -4.97600 29.11800 26.21700
H  -3.08600 30.71200 30.65000
H  -6.87800 31.43100 33.03200
H  -5.45000 31.31400 34.01200
H  -6.24400 29.83200 33.61900

