158

Mg 53.67100 23.99100 44.90800
C  51.07500 26.06800 43.75700
C  52.02100 21.18800 43.63400
C  56.58900 22.35300 45.00100
C  55.23600 26.90700 45.99000
N  51.71600 23.69600 43.91500
C  50.80500 24.67700 43.56300
C  49.50700 23.99700 43.11500
C  49.72100 22.44300 43.60400
C  51.25800 22.44700 43.62800
C  49.06000 22.08700 44.93700
C  49.43900 24.02300 41.56600
C  47.96500 24.10600 41.10600
H  47.67300 23.83100 39.66800
N  54.22500 22.00200 44.39100
C  53.36500 20.98700 43.97600
C  54.09600 19.73600 43.94900
C  55.47100 20.05000 44.17200
C  55.50200 21.56700 44.51100
C  53.43100 18.39100 43.65100
C  56.62500 19.05800 44.19400
O  56.46000 17.86200 43.99700
C  58.05100 19.39900 44.51000
N  55.56400 24.53900 45.36100
C  56.65300 23.68200 45.30200
C  57.96800 24.34000 45.75700
C  57.39300 25.78600 46.18100
C  55.92700 25.76800 45.79900
C  58.65900 23.57300 46.96300
C  58.10800 27.02400 45.52600
C  58.54000 28.18800 46.38400
N  53.31900 26.05900 44.92600
C  53.93900 27.13800 45.47400
C  53.22300 28.37300 45.36100
C  52.08900 27.98700 44.63400
C  52.15200 26.56900 44.41900
C  53.64500 29.74800 45.85600
C  50.80200 28.38200 44.13700
O  50.28400 29.46100 44.10000
C  50.05200 27.17400 43.56900
C  49.70900 27.49000 42.16300
O  50.53100 27.50900 41.23700
O  48.37700 27.83100 41.91000
C  47.92000 27.79400 40.50900
H  51.36100 20.38400 43.30300
H  57.51700 21.81400 45.20100
H  55.82700 27.77400 46.29400
H  48.57300 24.31800 43.57700
H  49.30700 21.77000 42.85300
H  48.71300 22.99100 45.43600
H  49.70500 21.64000 45.69400
H  48.22900 21.43800 44.66100
H  50.02900 23.23800 41.09200
H  49.91400 24.96400 41.29000
H  47.57800 25.08000 41.40500
H  47.38900 23.37600 41.67400
H  53.81100 17.95600 42.72600
H  52.35000 18.51700 43.70400
H  53.70300 17.75600 44.49300
H  58.26900 20.32000 43.97000
H  58.70900 18.58900 44.19700
H  58.02800 19.37000 45.60000
H  58.66200 24.43500 44.92200
H  57.45400 25.89700 47.26400
H  58.53100 24.03300 47.94300
H  59.70800 23.52500 46.67200
H  58.29200 22.56300 47.14500
H  57.52900 27.41800 44.69100
H  59.05700 26.65700 45.13500
H  57.95300 29.08400 46.18200
H  59.62000 28.31800 46.30800
H  58.36800 27.94600 47.43200
H  53.99400 30.35100 45.01800
H  54.42500 29.80700 46.61400
H  52.75900 30.26100 46.23000
H  49.17800 27.04900 44.20900
H  48.54200 27.12000 39.91900
H  47.74400 28.79900 40.12400
H  46.91600 27.39000 40.63200
Mg 9.25000 48.08700 24.69800
C  7.00900 48.88600 27.43600
C  11.79800 49.28900 26.78200
C  11.46700 47.48800 22.24900
C  6.52700 47.57500 22.67800
N  9.35000 48.79900 26.86400
C  8.33900 48.99900 27.77400
C  8.80100 49.54000 29.11700
C  10.13500 50.16600 28.58600
C  10.48700 49.31300 27.36300
C  10.05700 51.65100 28.23800
C  8.98000 48.42900 30.20200
C  8.84300 48.84300 31.65900
H  8.14400 47.86000 32.62500
N  11.33100 48.28100 24.57200
C  12.20800 48.78400 25.54000
C  13.60600 48.61100 25.11700
C  13.46000 48.04400 23.78200
C  12.06600 47.92000 23.47800
C  14.75600 48.93600 25.94800
C  14.57800 47.68900 22.83900
O  14.38600 47.22300 21.74100
C  15.92800 47.95700 23.31800
N  9.02600 47.71600 22.74500
C  10.12700 47.52400 21.90000
C  9.69300 47.00500 20.58200
C  8.10400 46.99200 20.57600
C  7.83600 47.46300 22.09100
C  10.14600 47.87800 19.38000
C  7.47100 45.64200 20.14800
C  7.32400 45.55400 18.57900
N  7.23200 48.17200 24.91900
C  6.23900 48.06700 23.99900
C  4.96800 48.38600 24.48700
C  5.16800 48.59200 25.84900
C  6.54700 48.51100 26.13900
C  3.69900 48.19800 23.74900
C  4.50900 48.85000 27.16300
O  3.29700 48.83200 27.45500
C  5.73300 49.18900 28.15400
C  5.50100 48.46900 29.38500
O  5.74900 47.32400 29.63900
O  4.84300 49.35500 30.23900
C  4.58100 48.84100 31.58800
H  12.59400 49.80300 27.32500
H  12.10100 47.24900 21.39200
H  5.64700 47.32800 22.08000
H  8.10900 50.29100 29.49900
H  10.89000 49.95900 29.34400
H  9.18400 52.19400 28.60100
H  9.87300 51.77900 27.17100
H  10.87400 52.24700 28.64400
H  10.00300 48.08900 30.04700
H  8.38400 47.52000 30.12000
H  8.56000 49.86200 31.92300
H  9.86300 48.85200 32.04300
H  14.44400 48.89500 26.99200
H  15.15800 49.89300 25.61700
H  15.45700 48.10700 25.84600
H  16.04800 48.91900 23.81600
H  16.74300 47.97600 22.59400
H  16.06900 47.17200 24.06100
H  10.19400 46.05400 20.40500
H  7.71800 47.80800 19.96500
H  9.35800 48.37300 18.81300
H  10.79800 47.38400 18.65900
H  10.72900 48.73200 19.72500
H  6.49900 45.51400 20.62600
H  8.17000 44.93100 20.58800
H  7.78500 46.42700 18.11800
H  6.27000 45.40000 18.34700
H  7.83900 44.66100 18.22600
H  3.52800 47.14400 23.52900
H  3.73200 48.79800 22.83900
H  2.95000 48.68000 24.37800
H  5.56600 50.24900 28.34600
H  3.50400 48.93100 31.72900
H  4.87900 49.61800 32.29200
H  4.94300 47.89600 31.99300

