158

Mg 48.10800 16.39000 28.87100
C  45.70400 16.07400 31.32100
C  49.99600 18.34800 31.29300
C  50.32000 16.91100 26.61900
C  45.86100 14.88100 26.59900
N  47.81000 17.25800 30.97200
C  46.79500 16.79800 31.77400
C  46.98300 17.22600 33.25700
C  48.09300 18.31300 33.08500
C  48.70900 17.92800 31.68800
C  47.68800 19.78700 33.21800
C  47.35200 16.10500 34.24600
C  47.11700 16.36300 35.77000
H  46.87300 17.89900 36.21300
N  49.97300 17.33900 28.96300
C  50.60400 18.14800 29.98400
C  51.89800 18.46800 29.53300
C  51.99700 18.16600 28.17000
C  50.74200 17.45900 27.85100
C  52.81800 19.23100 30.50000
C  53.21900 18.50700 27.16800
O  53.19600 18.13300 25.99200
C  54.33400 19.38000 27.53800
N  48.03400 15.98300 26.89400
C  49.12800 16.29300 26.16800
C  49.07800 15.56400 24.82600
C  47.71500 14.78200 24.83400
C  47.13800 15.28000 26.19200
C  49.24000 16.48400 23.61900
C  47.76700 13.27000 24.72900
C  47.92100 12.61900 23.32700
N  46.21900 15.57400 28.92100
C  45.40200 15.03900 27.89400
C  44.09200 14.71200 28.43400
C  44.18100 15.08000 29.79000
C  45.50300 15.55800 29.99300
C  42.99900 14.14800 27.69400
C  43.47700 15.06900 31.03300
O  42.35600 14.61100 31.36900
C  44.42400 15.67700 32.05300
C  43.62600 16.80900 32.60500
O  43.36900 17.83400 32.03400
O  43.00900 16.42900 33.80000
C  42.35100 17.49900 34.50600
H  50.54400 18.92000 32.04600
H  51.00400 16.85100 25.77000
H  45.27200 14.38200 25.82700
H  46.04900 17.66000 33.61500
H  48.92600 18.16300 33.77100
H  46.65400 20.05400 33.43500
H  48.18300 20.29100 32.38800
H  48.17200 20.21800 34.09400
H  48.40500 15.85500 34.11700
H  46.78000 15.18600 34.12200
H  47.87900 15.85300 36.35800
H  46.19200 15.81800 35.96100
H  52.78300 20.16700 29.94300
H  53.83700 18.88100 30.66700
H  52.41600 19.61800 31.43700
H  53.90500 20.36100 27.74100
H  55.02600 19.55600 26.71500
H  54.83600 18.91200 28.38500
H  49.84100 14.78700 24.87200
H  47.07500 15.02800 23.98600
H  48.73200 16.08100 22.74200
H  50.30900 16.42700 23.41800
H  48.97100 17.53200 23.75700
H  46.91900 12.73200 25.15200
H  48.66600 13.08300 25.31700
H  48.90600 12.15400 23.28800
H  48.02500 13.43700 22.61500
H  47.21200 11.84800 23.02600
H  42.39300 13.64500 28.44800
H  43.42700 13.41500 27.01000
H  42.37900 14.87100 27.16500
H  44.67500 14.92400 32.80000
H  41.50100 17.97700 34.01800
H  43.10800 18.27100 34.64000
H  42.22200 17.01400 35.47300
Mg 41.22600 40.92400 26.39600
C  40.78300 43.42800 28.85100
C  42.26400 38.74900 28.86500
C  41.69200 38.73900 24.11600
C  40.44300 43.32000 23.98400
N  41.41500 41.07700 28.63000
C  41.26700 42.20600 29.38200
C  41.33500 41.79800 30.83100
C  42.18900 40.50100 30.82300
C  42.01000 40.02300 29.36300
C  43.77700 40.67100 31.06600
C  39.94000 41.63500 31.61600
C  39.56300 42.70400 32.69800
H  39.05000 42.25400 34.05900
N  41.80300 39.00900 26.50700
C  42.18500 38.26300 27.52900
C  42.52000 36.91300 27.12600
C  42.34200 36.85000 25.71400
C  41.98100 38.19200 25.35400
C  42.99000 35.77300 28.05800
C  42.56500 35.67700 24.73100
O  42.48900 35.82900 23.48200
C  42.92900 34.35300 25.23900
N  41.19000 41.05800 24.34900
C  41.37100 39.95100 23.61900
C  41.34400 40.21400 22.14800
C  40.79600 41.67600 22.06600
C  40.81200 42.08900 23.57100
C  42.68800 40.02600 21.42700
C  39.32800 41.74300 21.53700
C  38.33700 40.84900 22.33000
N  40.63800 42.96500 26.34100
C  40.32300 43.84800 25.28300
C  39.83400 45.06300 25.80200
C  39.93700 44.94900 27.19300
C  40.53800 43.72800 27.48400
C  39.24300 46.17400 24.97300
C  39.71900 45.60700 28.44700
O  39.27600 46.70300 28.66800
C  40.31800 44.66800 29.58500
C  41.38800 45.43900 30.31300
O  42.60500 45.29200 30.10500
O  40.85800 46.25900 31.28000
C  41.72000 46.79400 32.33000
H  42.52200 38.06300 29.67500
H  41.75000 38.02500 23.29200
H  40.12600 43.95800 23.15700
H  41.82300 42.55600 31.44200
H  41.82700 39.77500 31.55100
H  44.02800 41.72900 31.13800
H  44.35600 40.39600 30.18500
H  43.91800 40.12300 31.99800
H  39.95300 40.73200 32.22600
H  39.11800 41.58600 30.90200
H  38.68000 43.22100 32.32300
H  40.40200 43.37700 32.87100
H  42.33600 34.90700 27.95800
H  43.17100 36.05100 29.09600
H  43.95200 35.47700 27.63900
H  43.94700 34.50600 25.59800
H  42.89400 33.52100 24.53600
H  42.21500 34.06100 26.00900
H  40.61100 39.44400 21.91000
H  41.44000 42.30600 21.45200
H  43.44000 40.26100 22.18000
H  42.82700 40.75200 20.62700
H  42.77700 39.05300 20.94300
H  39.00700 41.54000 20.51600
H  39.15800 42.81700 21.61300
H  38.92900 40.21500 22.99100
H  37.87600 40.10000 21.68500
H  37.57500 41.44200 22.83600
H  38.71200 45.77400 24.11000
H  40.07300 46.86500 24.82900
H  38.46800 46.62800 25.59200
H  39.53200 44.39600 30.28900
H  42.08100 45.91400 32.86300
H  41.11200 47.52200 32.86700
H  42.53500 47.31200 31.82300

