158

Mg 6.27300 53.05200 40.46500
C  5.68600 49.54300 40.45900
C  9.37100 52.37600 39.27800
C  6.49800 56.31500 39.62600
C  2.87900 53.43000 41.27400
N  7.35700 51.18700 39.91400
C  6.94100 49.89100 39.99700
C  8.03000 48.88200 39.50600
C  9.30800 49.79200 39.56600
C  8.68500 51.22400 39.65000
C  10.42400 49.50400 40.64700
C  7.80900 48.31000 38.05000
C  7.00000 49.04900 36.98400
H  7.81500 49.54700 35.71900
N  7.74000 54.15300 39.58100
C  8.98100 53.72500 39.30000
C  9.82900 54.92700 38.86100
C  9.00800 56.04300 38.88600
C  7.67200 55.50100 39.36000
C  11.25900 54.85700 38.40800
C  9.39400 57.35800 38.30000
O  10.59500 57.62400 37.96500
C  8.41600 58.47600 38.20100
N  4.88800 54.60800 40.31000
C  5.26900 55.86900 40.02300
C  4.19500 56.90500 40.44000
C  3.00300 56.00300 40.91500
C  3.59600 54.56600 40.84300
C  4.75600 57.91500 41.53700
C  1.69100 56.22400 40.16800
C  0.43100 56.77800 40.93700
N  4.59800 51.81700 40.91800
C  3.30100 52.06600 41.26100
C  2.58700 50.88600 41.54800
C  3.48700 49.86600 41.18800
C  4.66300 50.48300 40.75000
C  1.19100 50.66100 42.11000
C  3.70200 48.41700 41.17900
O  2.93500 47.51100 41.37300
C  5.15800 48.18800 40.62600
C  5.01100 47.26300 39.41600
O  4.51300 47.61800 38.35600
O  5.19200 45.93700 39.80700
C  4.93500 44.94100 38.76100
H  10.33200 51.99800 38.92200
H  6.51800 57.38700 39.41700
H  1.82200 53.46100 41.54200
H  8.06500 48.07200 40.23400
H  9.84000 49.73000 38.61700
H  11.43900 49.85000 40.45200
H  10.53800 48.42100 40.68700
H  10.19000 49.85500 41.65200
H  7.25400 47.37600 38.13300
H  8.76800 47.95800 37.66800
H  6.57600 49.92200 37.48100
H  6.22700 48.35900 36.64500
H  11.36800 55.24600 37.39600
H  11.58300 53.82000 38.31800
H  11.89200 55.25700 39.20100
H  8.11900 58.69200 39.22700
H  7.66600 58.19300 37.46300
H  8.80300 59.47000 37.97800
H  3.81400 57.44400 39.57200
H  2.65600 56.15500 41.93700
H  5.63300 57.45100 41.98800
H  4.05000 58.06700 42.35300
H  5.00500 58.84900 41.03400
H  1.29900 55.26500 39.83100
H  1.86800 56.76700 39.24000
H  0.68400 56.86800 41.99400
H  -0.49300 56.20300 40.98800
H  0.23300 57.78100 40.56100
H  0.59700 51.54200 42.35200
H  1.20400 49.99500 42.97200
H  0.61800 50.08500 41.38300
H  5.72200 47.59400 41.34500
H  5.88700 44.94800 38.23000
H  4.18700 45.14800 37.99700
H  4.62100 44.00500 39.22200
Mg 10.05100 47.88100 26.10400
C  7.92600 48.05100 28.94900
C  12.53200 49.33300 27.81400
C  11.84000 47.82200 23.43400
C  7.09000 47.19800 24.24200
N  10.12500 48.81800 28.04900
C  9.29400 48.53300 29.09800
C  10.01800 48.93500 30.41300
C  11.15000 49.73100 29.93900
C  11.28100 49.29000 28.48800
C  10.98600 51.24100 29.98400
C  10.44400 47.67100 31.23800
C  9.76900 47.49000 32.60600
H  10.17800 46.32100 33.47600
N  11.98600 48.43800 25.70100
C  12.92600 48.89800 26.56100
C  14.26700 48.92400 25.91500
C  14.03600 48.44400 24.59900
C  12.55400 48.23400 24.50300
C  15.60200 49.26100 26.73100
C  15.02500 48.27200 23.45500
O  14.75000 47.90800 22.27200
C  16.52000 48.43100 23.72300
N  9.48500 47.82300 24.03700
C  10.54700 47.66000 23.21100
C  9.99700 47.30700 21.78900
C  8.46000 46.94700 22.06000
C  8.32300 47.30000 23.51600
C  10.16300 48.38900 20.68300
C  8.08300 45.44500 21.69100
C  8.33300 44.26200 22.65300
N  7.96300 47.62800 26.49800
C  6.90400 47.34400 25.64800
C  5.65000 47.28800 26.33100
C  6.06500 47.48400 27.67200
C  7.42000 47.70100 27.65900
C  4.32300 47.00000 25.79600
C  5.49900 47.51500 29.02000
O  4.31600 47.48700 29.29900
C  6.69300 47.71500 29.87500
C  6.94700 46.45800 30.60700
O  7.65700 45.55600 30.26900
O  6.08200 46.56400 31.70100
C  6.23400 45.45400 32.66800
H  13.37200 49.76300 28.36400
H  12.41500 47.74200 22.50900
H  6.18400 46.95100 23.68500
H  9.27700 49.49600 30.98200
H  12.11200 49.59000 30.43400
H  11.76900 51.62300 30.63900
H  10.02600 51.49600 30.43400
H  11.24500 51.76000 29.06100
H  11.52000 47.68500 31.41000
H  10.11100 46.73800 30.78200
H  8.70400 47.56900 32.38800
H  9.99000 48.41200 33.14400
H  16.19300 48.35200 26.61800
H  15.35900 49.50200 27.76600
H  15.99400 50.16400 26.26200
H  16.81100 47.81700 24.57500
H  16.82200 49.47800 23.67700
H  16.99400 48.01600 22.83400
H  10.57300 46.43500 21.48100
H  7.83500 47.63100 21.48500
H  9.28300 49.00200 20.48800
H  10.28600 47.78700 19.78300
H  11.02700 49.00400 20.93400
H  8.76200 45.20700 20.87300
H  7.08300 45.46800 21.25700
H  7.43400 43.99600 23.20800
H  9.02900 44.52400 23.44900
H  8.70600 43.40800 22.08700
H  3.66700 46.63300 26.58500
H  4.34100 46.37500 24.90300
H  3.91100 47.94600 25.44300
H  6.58100 48.58300 30.52500
H  6.07000 46.01900 33.58500
H  7.26800 45.11100 32.63900
H  5.52900 44.62300 32.63300

