158

Mg 2.82000 -1.17800 45.12100
C  6.27600 -0.62800 44.54000
C  2.12900 1.54200 43.05000
C  -0.38000 -2.30700 45.03900
C  3.76800 -4.12200 46.90300
N  4.06100 0.32100 43.95200
C  5.46300 0.25000 43.80700
C  5.93400 1.36900 42.91600
C  4.59600 2.12300 42.63000
C  3.49100 1.28700 43.23400
C  4.50400 3.53100 43.24300
C  6.73400 0.72200 41.70900
C  7.96500 1.47700 41.08600
H  7.71000 2.23700 39.79500
N  1.11800 -0.40500 44.23600
C  1.01400 0.72200 43.43100
C  -0.39300 0.98900 43.23600
C  -1.16800 -0.01800 43.84200
C  -0.13800 -0.97600 44.43400
C  -0.94100 2.11100 42.42600
C  -2.68800 -0.13600 43.81000
O  -3.37000 0.70100 43.27500
C  -3.33900 -1.20700 44.60500
N  1.85400 -2.87000 45.79100
C  0.51000 -3.15300 45.66700
C  0.14300 -4.59600 46.20800
C  1.42800 -5.06900 46.96000
C  2.41600 -3.92000 46.50300
C  -1.21400 -4.57400 47.04700
C  1.82700 -6.57500 46.56000
C  1.28400 -7.66200 47.49600
N  4.61600 -2.16300 45.76600
C  4.85900 -3.26200 46.53400
C  6.23800 -3.47200 46.72300
C  6.83300 -2.38400 46.06200
C  5.83600 -1.72700 45.37600
C  6.98800 -4.60500 47.36100
C  8.11500 -1.71100 45.66900
O  9.24400 -1.96300 45.85500
C  7.74700 -0.62500 44.70900
C  8.26800 0.67600 45.28900
O  7.66000 1.34800 46.11500
O  9.40000 1.02900 44.59800
C  9.81500 2.39600 44.91600
H  1.89800 2.30700 42.30600
H  -1.35700 -2.76700 44.87700
H  3.94200 -5.03500 47.47600
H  6.55400 1.99500 43.55700
H  4.35700 2.18500 41.56900
H  5.34600 4.18000 43.00300
H  4.58400 3.26300 44.29600
H  3.53100 3.97400 43.03200
H  6.00100 0.59200 40.91200
H  7.07600 -0.30200 41.85700
H  8.73300 0.73000 40.88400
H  8.27300 2.21100 41.83000
H  -0.91700 1.80200 41.38100
H  -0.23500 2.93900 42.48900
H  -1.90400 2.55500 42.67600
H  -3.14100 -1.14300 45.67400
H  -3.01000 -2.20200 44.30400
H  -4.41500 -1.29400 44.45500
H  -0.06100 -5.27100 45.37700
H  1.21800 -4.87400 48.01100
H  -1.93900 -5.18200 46.50600
H  -1.53300 -3.53800 47.16000
H  -0.96000 -5.07200 47.98200
H  2.90200 -6.62500 46.38600
H  1.47400 -6.78100 45.55000
H  1.00600 -7.22000 48.45200
H  2.10700 -8.37700 47.48400
H  0.44800 -8.20800 47.06000
H  7.16700 -5.41700 46.65700
H  6.38400 -4.83400 48.23900
H  7.94300 -4.23200 47.73200
H  8.30300 -0.82000 43.79200
H  10.62000 2.53200 44.19400
H  10.21000 2.51000 45.92500
H  9.08400 3.17600 44.70500
Mg -11.08700 16.05100 42.30200
C  -8.00100 14.74500 41.57900
C  -10.13300 18.90700 40.20800
C  -14.31100 17.05100 41.82200
C  -12.12500 13.16000 43.65000
N  -9.31800 16.64900 40.87500
C  -8.08800 15.97500 40.88300
C  -6.99300 16.82500 40.13700
C  -7.67400 18.22000 40.03000
C  -9.14100 17.92700 40.44800
C  -6.88700 19.33400 40.78300
C  -6.54600 16.26400 38.73500
C  -5.08400 16.45000 38.20600
H  -5.00000 17.16300 36.78300
N  -12.02400 17.88700 41.41700
C  -11.45200 18.88600 40.64200
C  -12.46500 19.81700 40.24100
C  -13.68500 19.29700 40.82100
C  -13.40000 17.99300 41.38600
C  -12.32700 21.07200 39.46900
C  -15.02000 20.01900 40.88400
O  -15.13700 21.10400 40.29300
C  -16.26600 19.63300 41.73000
N  -12.99200 15.18900 42.72000
C  -14.18600 15.81400 42.54200
C  -15.37700 15.01700 43.01200
C  -14.57300 13.86800 43.80800
C  -13.13400 14.03000 43.35200
C  -16.36000 15.81900 43.91300
C  -15.18900 12.47600 43.52200
C  -15.27700 11.60100 44.72200
N  -10.24900 14.34500 42.74000
C  -10.80600 13.21700 43.35000
C  -9.67100 12.22700 43.61500
C  -8.55800 12.86500 43.00600
C  -8.96100 14.10800 42.43400
C  -9.69200 10.85600 44.21000
C  -7.19400 12.62200 42.63900
O  -6.41900 11.72800 42.91300
C  -6.73700 13.91600 41.73600
C  -5.69700 14.70700 42.42400
O  -5.78500 15.40800 43.40500
O  -4.57100 14.43400 41.63200
C  -3.29900 15.04200 42.16500
H  -9.96500 19.88100 39.74400
H  -15.34700 17.12100 41.48200
H  -12.43100 12.23900 44.15000
H  -6.15900 16.98600 40.82000
H  -7.83800 18.60400 39.02400
H  -6.05300 19.00700 41.40300
H  -7.60500 19.84700 41.42300
H  -6.53200 20.14100 40.14200
H  -7.12300 16.84500 38.01600
H  -6.68200 15.18300 38.74100
H  -4.60400 15.47300 38.16500
H  -4.54300 17.08300 38.91000
H  -12.02300 21.86200 40.15600
H  -13.24900 21.43400 39.01500
H  -11.62400 20.99900 38.63900
H  -16.78800 20.55700 41.97600
H  -15.72000 19.32800 42.62300
H  -16.96400 18.95800 41.23500
H  -15.96400 14.68100 42.15700
H  -14.65500 14.03800 44.88200
H  -16.06300 16.86200 44.02000
H  -16.51600 15.48600 44.94000
H  -17.29600 15.72000 43.36300
H  -14.47700 11.98900 42.85600
H  -16.11400 12.61500 42.96300
H  -14.60600 10.77400 44.49100
H  -16.27500 11.16400 44.69300
H  -15.02400 12.00400 45.70300
H  -10.41600 10.72400 45.01400
H  -8.74300 10.71500 44.72700
H  -9.85300 10.13800 43.40600
H  -6.45900 13.61000 40.72800
H  -2.45600 14.38000 41.96800
H  -3.34900 15.12700 43.25000
H  -3.20500 16.01500 41.68300

