158

Mg -2.54700 16.79300 27.36200
C  -3.37700 14.56900 29.83100
C  -3.01300 19.36700 29.63700
C  -2.04600 19.13000 24.91000
C  -2.76000 14.32100 24.96000
N  -3.26100 16.93000 29.38400
C  -3.43300 15.90100 30.20700
C  -3.74900 16.35800 31.66200
C  -3.63000 17.89600 31.56600
C  -3.27900 18.07600 30.09700
C  -4.84400 18.84800 32.02900
C  -2.83100 15.83300 32.85600
C  -2.74300 16.70200 34.18000
H  -2.79000 15.97400 35.46800
N  -2.55200 18.96900 27.28200
C  -2.69000 19.78300 28.37000
C  -2.44600 21.15200 27.94000
C  -2.22600 21.12500 26.48300
C  -2.25500 19.75400 26.16200
C  -2.42600 22.33700 28.84200
C  -1.91200 22.31100 25.57800
O  -1.70600 22.16100 24.37700
C  -1.80100 23.64800 26.15700
N  -2.49800 16.72300 25.29500
C  -2.19500 17.84100 24.56300
C  -2.34500 17.45700 23.11800
C  -2.31400 15.89800 23.07200
C  -2.56800 15.63300 24.50900
C  -3.67700 17.93800 22.46300
C  -0.99900 15.25000 22.57400
C  0.22300 15.64000 23.40200
N  -2.81600 14.78200 27.38000
C  -2.85200 13.88300 26.33800
C  -3.06900 12.59400 26.85400
C  -3.17100 12.72800 28.21100
C  -3.13300 14.09600 28.47500
C  -2.96700 11.37300 26.08000
C  -3.31400 12.09800 29.50000
O  -3.50700 10.92000 29.81200
C  -3.33800 13.25700 30.57100
C  -2.09800 13.26000 31.34600
O  -1.13500 13.95500 31.13500
O  -2.22500 12.26400 32.30600
C  -1.09400 12.18900 33.27600
H  -3.16000 20.19700 30.33200
H  -1.79800 19.86300 24.13900
H  -2.75000 13.54800 24.18800
H  -4.78400 16.08300 31.86700
H  -2.76500 18.31100 32.08400
H  -4.53200 19.75900 32.54200
H  -5.52100 18.31300 32.69500
H  -5.51900 19.10700 31.21400
H  -1.80800 15.87300 32.48300
H  -3.15600 14.83100 33.13500
H  -3.50400 17.47900 34.25500
H  -1.79300 17.23500 34.22300
H  -3.18100 23.06400 28.54100
H  -1.50400 22.91800 28.85600
H  -2.52400 22.18200 29.91700
H  -1.53300 24.36900 25.38500
H  -0.98400 23.65400 26.87800
H  -2.77000 23.93600 26.56400
H  -1.44400 17.83000 22.63100
H  -3.09000 15.42100 22.47100
H  -4.33500 18.59100 23.03500
H  -4.27900 17.13400 22.03800
H  -3.33100 18.45300 21.56700
H  -0.71000 15.59800 21.58300
H  -1.14800 14.18500 22.39800
H  0.01200 16.27700 24.26100
H  0.77900 16.25400 22.69400
H  0.85600 14.80600 23.70400
H  -2.36600 11.63500 25.20900
H  -3.96000 11.10100 25.72300
H  -2.53500 10.47600 26.52500
H  -4.13000 12.95800 31.25700
H  -0.76700 11.16800 33.47400
H  -1.50100 12.72200 34.13500
H  -0.12300 12.59800 33.00000
Mg 15.78300 -1.87200 27.38400
C  14.80000 0.21800 30.37400
C  17.87300 -3.57700 29.48200
C  16.96300 -3.30700 24.75000
C  13.88900 0.37900 25.52000
N  16.32100 -1.60500 29.69100
C  15.75700 -0.80400 30.68000
C  16.32800 -1.23900 32.00700
C  17.19100 -2.50900 31.72200
C  17.11600 -2.58600 30.21700
C  18.64800 -2.40600 32.32900
C  15.30100 -1.59200 33.12000
C  15.53800 -0.83300 34.49200
H  16.86800 -0.28000 34.94700
N  17.23600 -3.36800 27.12600
C  17.98700 -3.93500 28.06300
C  18.83400 -4.92200 27.48100
C  18.50900 -4.89200 26.09300
C  17.54100 -3.81000 25.89100
C  19.80000 -5.84800 28.24900
C  19.12900 -5.66400 25.00700
O  18.82800 -5.53600 23.81800
C  20.09600 -6.78100 25.28100
N  15.32400 -1.59600 25.39200
C  15.99900 -2.31100 24.44500
C  15.61100 -1.75300 23.05600
C  14.39700 -0.79600 23.30300
C  14.44200 -0.70600 24.82700
C  16.81700 -1.08200 22.33800
C  13.08900 -1.41600 22.87900
C  12.81500 -1.23200 21.37600
N  14.69200 -0.07300 27.76700
C  14.01600 0.64300 26.87500
C  13.34500 1.75200 27.53600
C  13.59500 1.63200 28.89200
C  14.36300 0.47500 29.03800
C  12.64100 2.88800 26.85400
C  13.34000 2.28400 30.22500
O  12.97600 3.39100 30.57200
C  14.10900 1.34100 31.24200
C  15.00400 2.22700 32.04300
O  15.99000 2.77000 31.59900
O  14.49800 2.50500 33.23100
C  15.20000 3.39800 34.13300
H  18.44300 -4.18100 30.19100
H  17.37900 -3.65900 23.80400
H  13.25300 1.05800 24.94900
H  16.96300 -0.45900 32.42600
H  16.59700 -3.37900 32.00500
H  18.71100 -1.47200 32.88700
H  19.39700 -2.40800 31.53700
H  18.67900 -3.35700 32.86100
H  15.33000 -2.66600 33.30600
H  14.31200 -1.33000 32.74600
H  15.15900 -1.43200 35.32000
H  14.96400 0.06800 34.27400
H  20.77100 -5.37600 28.40100
H  19.91000 -6.88900 27.94300
H  19.40700 -5.90000 29.26400
H  21.02200 -6.32800 25.63500
H  20.27600 -7.42700 24.42100
H  19.64400 -7.38600 26.06700
H  15.21500 -2.50700 22.37600
H  14.58300 0.23100 22.98800
H  16.77100 -0.02800 22.61200
H  16.76000 -1.23800 21.26100
H  17.79000 -1.47000 22.64000
H  12.25500 -0.95600 23.40900
H  12.93300 -2.43000 23.24700
H  13.76800 -0.91200 20.95400
H  12.17300 -0.37400 21.17700
H  12.39800 -2.08300 20.83900
H  13.30100 3.45400 26.19600
H  12.25400 3.55300 27.62600
H  11.81500 2.54400 26.23100
H  13.41800 0.91200 31.96700
H  15.04200 4.45400 33.91500
H  16.24500 3.11100 34.25600
H  14.72200 3.28700 35.10600

