158

Mg 1.58900 7.61600 25.43800
C  1.68200 9.21200 28.35300
C  1.53400 4.50600 27.10300
C  1.30300 5.83000 22.41800
C  2.34800 10.33300 23.63400
N  1.52700 6.91700 27.58500
C  1.54300 7.83500 28.61900
C  1.62500 7.04800 29.97600
C  1.79500 5.56400 29.49500
C  1.59600 5.63200 27.97000
C  3.17500 4.92400 29.79800
C  0.44400 7.32200 30.86200
C  0.53300 7.05200 32.35900
H  1.96200 6.72400 33.09700
N  1.33400 5.49600 24.84600
C  1.42700 4.42500 25.70500
C  1.40500 3.21300 24.97800
C  1.27200 3.55300 23.56200
C  1.29600 4.99400 23.54200
C  1.65800 1.83700 25.60300
C  1.07500 2.67800 22.31000
O  1.10000 3.11800 21.18600
C  1.12000 1.13600 22.62500
N  1.43400 8.01200 23.34100
C  1.36000 7.17800 22.30600
C  1.60700 7.90600 20.93700
C  1.69600 9.38900 21.34200
C  1.88500 9.24200 22.85500
C  2.89000 7.36600 20.17800
C  0.52600 10.35200 20.90000
C  -0.82500 10.13700 21.71900
N  1.94400 9.37700 25.87300
C  2.31600 10.43600 25.07000
C  2.42600 11.66600 25.76500
C  2.18300 11.31500 27.13400
C  1.87800 9.87500 27.07200
C  2.73000 13.01400 25.12200
C  2.12700 11.69000 28.46600
O  2.29900 12.85200 28.88700
C  1.78500 10.36900 29.32000
C  2.87600 10.26300 30.31600
O  3.99500 9.74800 30.10500
O  2.49700 10.83400 31.54100
C  3.63900 10.79800 32.47500
H  1.35700 3.66300 27.77400
H  1.28100 5.35600 21.43400
H  2.57900 11.27500 23.13300
H  2.38100 7.53100 30.59500
H  1.08800 5.00600 30.11000
H  3.02000 3.94000 30.24200
H  3.81500 5.53200 30.43700
H  3.65300 4.97900 28.82000
H  -0.42200 6.72500 30.57500
H  0.12000 8.34800 30.69000
H  -0.22200 6.33500 32.68200
H  0.21300 7.97100 32.84900
H  2.48800 1.36500 25.07900
H  0.73200 1.26600 25.66600
H  2.02100 1.80800 26.63100
H  0.35000 0.79400 23.31700
H  2.06100 0.87400 23.10900
H  0.99100 0.66700 21.65000
H  0.72500 7.59200 20.37900
H  2.62200 9.76300 20.90600
H  3.65300 6.88700 20.79200
H  3.37100 8.18100 19.63800
H  2.58300 6.59400 19.47200
H  0.28800 10.04000 19.88400
H  0.90400 11.37000 20.80600
H  -0.68800 9.39300 22.50400
H  -1.69700 9.96300 21.08900
H  -1.02800 11.11300 22.16000
H  3.75600 13.27600 25.38000
H  1.91500 13.57000 25.58500
H  2.50800 13.14700 24.06300
H  0.83000 10.50100 29.82800
H  4.51400 11.27000 32.02700
H  3.93600 9.75900 32.61500
H  3.54200 11.12300 33.51100
Mg 0.08500 44.06900 25.13900
C  2.14200 44.01100 28.10700
C  -2.45000 42.98600 27.13200
C  -1.70700 44.24600 22.42700
C  2.95300 44.71200 23.27000
N  -0.08000 43.48800 27.39900
C  0.86500 43.66800 28.41200
C  0.22100 43.34200 29.82600
C  -1.13600 42.67800 29.36500
C  -1.23900 43.13800 27.87100
C  -1.34900 41.16900 29.53700
C  -0.05600 44.66600 30.55500
C  0.06000 44.62400 32.04600
H  -0.29200 43.30200 32.75200
N  -1.77600 43.72700 24.84300
C  -2.71300 43.35100 25.75800
C  -3.98400 43.20500 25.08700
C  -3.83100 43.55900 23.71900
C  -2.43800 43.97700 23.63500
C  -5.25200 42.93200 25.85300
C  -4.85100 43.60200 22.50900
O  -4.49100 43.97500 21.39800
C  -6.31200 43.26000 22.69800
N  0.65200 44.02200 22.96000
C  -0.37600 44.36800 22.09200
C  0.17000 44.96000 20.73400
C  1.69300 45.29600 21.17500
C  1.73100 44.66400 22.59000
C  0.12800 43.95500 19.55900
C  2.10900 46.76800 21.10900
C  1.37000 47.73200 22.05900
N  2.11700 44.23700 25.50600
C  3.13100 44.49000 24.67900
C  4.39200 44.47900 25.35300
C  4.02600 44.36000 26.71400
C  2.58800 44.20300 26.74300
C  5.85200 44.69100 24.75500
C  4.53900 44.29700 28.03700
O  5.73200 44.23000 28.31600
C  3.28900 44.08500 28.99400
C  3.58100 42.90200 29.88900
O  3.67000 41.74100 29.44400
O  3.63200 43.27500 31.20700
C  3.87800 42.13700 32.15000
H  -3.21700 42.68100 27.84700
H  -2.29900 44.55600 21.56300
H  3.78100 45.06500 22.65300
H  0.79700 42.67500 30.46700
H  -1.93500 43.19900 29.89300
H  -0.58300 40.87500 30.25500
H  -1.10500 40.63500 28.61900
H  -2.28400 40.86300 30.00500
H  -1.05000 45.05200 30.33100
H  0.65900 45.42600 30.23900
H  -0.44300 45.46000 32.53200
H  1.11900 44.74400 32.27500
H  -5.48800 43.88500 26.32600
H  -4.89300 42.26700 26.63800
H  -5.96300 42.47100 25.16800
H  -6.74400 43.67300 23.61000
H  -6.23400 42.17400 22.75400
H  -6.98400 43.63300 21.92500
H  -0.45500 45.84100 20.58800
H  2.37000 44.71800 20.54600
H  -0.58600 44.32000 18.82100
H  -0.18400 42.99100 19.96100
H  1.00100 43.93100 18.90700
H  1.72700 47.00800 20.11700
H  3.19800 46.81500 21.11500
H  1.97800 48.23900 22.80800
H  0.74600 47.01800 22.59700
H  0.65100 48.35500 21.52600
H  5.82700 45.43300 23.95700
H  6.37400 43.78400 24.45000
H  6.45500 45.07300 25.57800
H  3.18800 44.95900 29.63600
H  2.87000 41.81200 32.41100
H  4.49700 42.45400 32.99000
H  4.43800 41.29500 31.74300

