158

Mg 7.07100 54.05700 39.62300
C  6.40000 50.60900 39.53800
C  10.27600 53.42800 38.55200
C  7.63800 57.36700 39.42600
C  3.68200 54.61200 40.02300
N  8.10500 52.21100 39.08700
C  7.71300 50.89500 39.14100
C  8.82100 49.87500 38.81700
C  10.13500 50.86800 38.81100
C  9.47300 52.23300 38.80700
C  10.94300 50.74300 40.06600
C  8.72800 49.15800 37.39400
C  8.35700 50.02400 36.19400
H  7.20400 49.52000 35.26500
N  8.72300 55.25800 38.95200
C  10.00800 54.80700 38.64000
C  10.92400 55.90900 38.44400
C  10.20900 57.05900 38.83400
C  8.79500 56.63100 39.03600
C  12.37100 55.73700 38.08000
C  10.71500 58.43700 39.03000
O  11.92200 58.73100 38.87500
C  9.80600 59.58400 39.21900
N  5.70400 55.74800 39.53300
C  6.23400 57.03100 39.50900
C  5.14100 58.05600 39.73700
C  3.79600 57.16700 39.95800
C  4.39000 55.77000 39.77900
C  5.39100 59.14200 40.79900
C  2.60400 57.44500 38.99900
C  1.52900 58.33100 39.66100
N  5.36300 52.85300 39.80900
C  4.07100 53.23600 40.00900
C  3.23500 52.06300 40.23000
C  4.14600 51.04400 40.14600
C  5.43000 51.55000 39.85500
C  1.68800 52.06700 40.44200
C  4.21700 49.56600 40.22400
O  3.37400 48.75000 40.65500
C  5.69500 49.21500 39.83100
C  5.72300 48.32700 38.65800
O  5.10700 48.46800 37.58700
O  6.36700 47.23200 39.04300
C  6.25900 46.07400 38.10700
H  11.32200 53.16000 38.39100
H  7.75200 58.44400 39.56500
H  2.62500 54.72500 40.27400
H  8.74500 49.18700 39.65900
H  10.64500 50.71600 37.86000
H  11.18800 51.73600 40.44200
H  11.86400 50.22200 39.80500
H  10.41000 50.18500 40.83500
H  8.13900 48.24300 37.32800
H  9.77300 48.86800 37.28900
H  9.18100 50.19400 35.50100
H  7.94300 50.96200 36.56500
H  12.91600 56.19400 38.90600
H  12.65700 56.22200 37.14700
H  12.68600 54.69600 38.15000
H  10.43600 60.46300 39.08000
H  9.47400 59.55500 40.25700
H  9.09500 59.56100 38.39400
H  5.15200 58.57400 38.77800
H  3.43600 57.14500 40.98600
H  6.42000 59.16100 41.15700
H  4.70700 59.13700 41.64800
H  5.26200 60.08200 40.26400
H  2.14800 56.48800 38.74400
H  2.98200 58.10100 38.21600
H  0.55800 57.83500 39.68900
H  1.34000 59.09800 38.91000
H  1.87400 58.81500 40.57400
H  1.29000 53.05900 40.65600
H  1.47900 51.46800 41.32900
H  1.24100 51.68100 39.52600
H  5.99000 48.73700 40.76600
H  6.96600 46.18600 37.28400
H  5.23400 45.89900 37.77900
H  6.57400 45.20400 38.68400
Mg 17.79300 52.99900 25.76100
C  19.64600 51.59100 28.43700
C  15.19400 53.42500 27.93200
C  15.82800 53.83100 23.27000
C  20.32100 51.89700 23.52200
N  17.47000 52.73000 27.94500
C  18.37900 52.08100 28.80100
C  17.82200 52.06100 30.18400
C  16.26400 52.45500 30.00300
C  16.33400 52.93600 28.55800
C  15.20400 51.45400 30.44300
C  18.57900 53.14100 31.07500
C  18.45100 53.09300 32.61200
H  17.40600 52.21800 33.23200
N  15.98400 53.87700 25.72500
C  15.05800 53.94900 26.64500
C  13.91600 54.71900 26.18400
C  14.12000 54.91700 24.79600
C  15.33900 54.18600 24.51900
C  12.73900 55.07700 27.04200
C  13.30600 55.68000 23.74100
O  13.67800 55.94300 22.58100
C  11.91600 56.16800 24.06300
N  18.11900 52.88000 23.72900
C  17.08300 53.28200 22.87600
C  17.47900 53.18300 21.41700
C  19.02400 52.69800 21.57300
C  19.15000 52.41100 23.03500
C  16.58200 52.14300 20.69300
C  20.14100 53.70400 21.10500
C  20.36900 55.03600 21.94100
N  19.63200 51.89800 25.90900
C  20.58800 51.61500 24.89900
C  21.71800 51.05100 25.57300
C  21.43400 51.08600 26.99300
C  20.09200 51.51800 27.10500
C  22.98100 50.63300 25.03000
C  21.95900 50.73800 28.34300
O  23.00600 50.29400 28.65000
C  20.79000 51.08200 29.21800
C  20.45900 49.95300 30.12800
O  19.94300 48.91800 29.75200
O  20.73800 50.26800 31.43500
C  20.29700 49.20800 32.38300
H  14.35200 53.64800 28.59100
H  15.16100 53.98600 22.41900
H  21.12200 51.51300 22.88900
H  17.99300 51.09400 30.65700
H  16.21500 53.40000 30.54400
H  14.39800 51.92700 31.00500
H  15.55800 50.57400 30.98000
H  14.67600 51.06300 29.57400
H  18.23200 54.13900 30.80400
H  19.63600 53.06600 30.81900
H  18.30700 54.11800 32.95300
H  19.43800 52.86400 33.01400
H  12.08400 54.21600 27.17400
H  12.14500 55.91200 26.66900
H  12.97300 55.39100 28.05900
H  11.45000 56.48500 23.13000
H  12.08600 57.02400 24.71500
H  11.24300 55.46500 24.55400
H  17.42900 54.19400 21.01100
H  19.14600 51.77300 21.00900
H  15.76000 51.86000 21.35000
H  17.08200 51.26600 20.28100
H  16.00400 52.59900 19.88900
H  19.87300 53.81500 20.05400
H  21.07500 53.15400 20.99200
H  20.02100 54.81800 22.95000
H  19.81500 55.81200 21.41400
H  21.40100 55.38700 21.93400
H  23.28900 51.36900 24.28800
H  22.86300 49.62200 24.63800
H  23.71700 50.79000 25.81800
H  21.21500 51.98000 29.66700
H  20.97900 48.35800 32.37900
H  19.27000 48.84900 32.31100
H  20.21200 49.67100 33.36600

