158

Mg 6.50400 54.32400 40.99500
C  5.57200 50.90100 40.37200
C  9.53900 53.70900 39.93500
C  6.79100 57.69500 40.90700
C  2.87400 54.90400 41.49100
N  7.48600 52.48400 40.38100
C  6.94600 51.22900 40.15500
C  8.04700 50.26900 39.68700
C  9.32600 51.13900 39.82900
C  8.80800 52.56900 40.12900
C  10.39800 50.65900 40.91200
C  7.87900 49.44900 38.33500
C  7.84400 50.20300 37.03600
H  6.62500 50.08900 36.09200
N  7.97400 55.52100 40.46600
C  9.22700 55.08700 40.08200
C  10.10600 56.20400 40.04900
C  9.36400 57.32600 40.35500
C  7.96600 56.90700 40.60700
C  11.58300 56.14600 39.77000
C  9.88500 58.68000 40.52700
O  10.95500 58.88900 40.06200
C  9.17300 59.84700 41.19100
N  4.99700 56.01400 41.16400
C  5.46400 57.29800 41.26600
C  4.35600 58.34100 41.42300
C  3.11100 57.45100 41.38400
C  3.65700 56.01200 41.48000
C  4.53200 59.14600 42.71300
C  2.23700 57.70500 40.11600
C  0.69800 58.06200 40.32200
N  4.59900 53.15800 41.05400
C  3.28000 53.51000 41.29600
C  2.47500 52.31300 41.48200
C  3.31100 51.28900 41.11200
C  4.57100 51.82600 40.73400
C  1.00100 52.16500 41.74500
C  3.40700 49.88700 40.94400
O  2.52100 49.04000 41.15500
C  4.82100 49.55300 40.40400
C  4.57400 49.04900 39.06000
O  4.04500 49.60200 38.10100
O  4.76900 47.68900 39.09900
C  3.85900 46.98100 38.08600
H  10.51500 53.63800 39.45100
H  6.88900 58.77400 41.04200
H  1.81000 55.14300 41.55100
H  8.19600 49.60300 40.53700
H  9.68700 51.17900 38.80100
H  11.30300 50.52400 40.31800
H  10.14500 49.70100 41.36700
H  10.61000 51.39100 41.69100
H  6.96900 48.85300 38.39700
H  8.74300 48.78500 38.30000
H  8.61800 49.74500 36.42000
H  8.14000 51.24600 37.14200
H  11.62600 56.79900 38.89800
H  11.92500 55.23800 39.27300
H  12.20800 56.38000 40.63200
H  8.46100 60.30800 40.50600
H  9.87500 60.59800 41.55500
H  8.69700 59.46200 42.09300
H  4.49100 58.92200 40.51100
H  2.46800 57.53700 42.26100
H  5.42200 58.89600 43.29000
H  3.71000 59.18600 43.42700
H  4.67700 60.18600 42.42200
H  2.29400 56.76400 39.56800
H  2.64800 58.53900 39.54800
H  0.15000 57.17600 40.00000
H  0.33000 58.83500 39.64700
H  0.44600 58.25700 41.36400
H  0.64000 53.02600 42.30800
H  0.81200 51.27600 42.34700
H  0.44600 52.06900 40.81200
H  5.31200 48.77800 40.99200
H  3.59500 46.01200 38.51000
H  4.41700 46.92800 37.15000
H  2.89000 47.47400 38.01500
Mg -0.65100 44.15800 25.81600
C  1.42200 43.89400 28.65400
C  -3.20500 42.81400 27.90700
C  -2.60600 44.06700 23.16300
C  2.11400 45.16700 23.95000
N  -0.92700 43.66300 28.13300
C  0.04000 43.66800 29.01500
C  -0.39600 43.19500 30.41300
C  -1.83800 42.62000 30.05700
C  -2.01000 43.02200 28.62800
C  -2.07700 41.04100 30.28900
C  -0.40500 44.42000 31.39700
C  -0.07500 44.20100 32.89700
H  -0.22800 42.77200 33.52500
N  -2.63900 43.64100 25.60200
C  -3.48500 43.11000 26.52400
C  -4.73200 42.73500 25.83600
C  -4.59400 42.94800 24.47300
C  -3.22900 43.50700 24.34800
C  -5.96800 42.20600 26.48000
C  -5.54200 42.65800 23.30300
O  -5.19000 42.80400 22.11400
C  -6.86600 42.02000 23.42300
N  -0.30400 44.54400 23.87400
C  -1.31200 44.63600 22.95600
C  -0.79600 45.13700 21.66900
C  0.60800 45.72200 21.98500
C  0.86200 45.13300 23.36300
C  -0.68400 44.09400 20.52900
C  0.50100 47.28800 21.95000
C  1.12200 47.89400 20.76200
N  1.43000 44.45900 26.15500
C  2.41800 44.77700 25.27000
C  3.69900 44.77000 25.97100
C  3.33600 44.38300 27.30600
C  1.94600 44.24100 27.37200
C  5.07600 45.06600 25.44400
C  3.90400 44.16600 28.60000
O  5.08500 44.24200 28.97100
C  2.71100 43.89300 29.53300
C  2.85600 42.57300 30.16500
O  2.83700 41.53400 29.53100
O  3.23900 42.68600 31.46600
C  3.76700 41.46100 32.07700
H  -3.95500 42.26900 28.48500
H  -3.22800 44.31200 22.30000
H  3.00000 45.53300 23.42600
H  0.26100 42.37800 30.71000
H  -2.57600 43.05900 30.72900
H  -2.80000 40.87600 31.08800
H  -1.13000 40.67900 30.69000
H  -2.28100 40.36400 29.45900
H  -1.46000 44.68900 31.43700
H  0.05100 45.30600 30.95400
H  -0.72400 44.90300 33.42000
H  0.94800 44.56400 33.00200
H  -6.72200 42.98800 26.39000
H  -5.73000 41.95400 27.51300
H  -6.44100 41.36100 25.97900
H  -6.85600 41.06000 23.94000
H  -7.03300 41.72000 22.38900
H  -7.68900 42.67400 23.71300
H  -1.43000 45.94200 21.29900
H  1.51300 45.37700 21.48400
H  -0.67800 43.11900 21.01600
H  0.23500 44.26500 19.97000
H  -1.41800 44.17200 19.72700
H  1.10200 47.51600 22.83000
H  -0.46600 47.75600 22.12900
H  2.03200 48.41900 21.05200
H  0.39500 48.51000 20.23100
H  1.39500 47.05800 20.11800
H  5.85300 44.54100 26.00100
H  5.28300 46.13600 25.40600
H  5.11200 44.62900 24.44700
H  2.66800 44.58000 30.37700
H  4.85100 41.49600 31.96600
H  3.41700 40.52100 31.65100
H  3.48400 41.46500 33.12900

