158

Mg 42.46200 41.85200 25.66000
C  42.03900 44.01200 28.30300
C  43.57100 39.49000 27.96200
C  43.10000 39.81600 23.07800
C  41.97400 44.54700 23.41600
N  42.69400 41.74800 27.88100
C  42.37800 42.73900 28.77200
C  42.58700 42.29600 30.27300
C  43.05800 40.78500 30.08300
C  43.08600 40.62100 28.54900
C  44.34300 40.40500 30.84400
C  41.31200 42.64800 31.07700
C  41.00400 41.73700 32.31600
H  40.54900 42.44300 33.57400
N  43.24800 39.91000 25.53300
C  43.60500 39.15600 26.57700
C  43.99100 37.83800 26.11200
C  43.82500 37.85200 24.67400
C  43.35500 39.22500 24.35900
C  44.54500 36.72300 27.02400
C  43.98900 36.82800 23.63100
O  43.80000 37.03700 22.46900
C  44.48700 35.49300 24.08600
N  42.60500 42.17000 23.60200
C  42.77600 41.14800 22.71000
C  42.66000 41.62700 21.21800
C  41.96200 43.00500 21.39300
C  42.15800 43.30400 22.89800
C  43.97300 41.65300 20.37700
C  40.40300 43.08100 20.99100
C  39.27200 42.79400 22.10100
N  42.12200 43.86500 25.77600
C  41.95900 44.83100 24.80300
C  41.65100 46.10000 25.49000
C  41.70300 45.82800 26.85200
C  41.96800 44.44100 26.97600
C  41.21900 47.33400 24.85400
C  41.43600 46.40900 28.23400
O  41.00700 47.47100 28.61600
C  41.81800 45.32200 29.17200
C  42.95700 45.77700 29.97000
O  44.11400 45.34800 29.87200
O  42.47500 46.54200 30.99400
C  43.56800 46.86200 31.92500
H  43.80200 38.64300 28.61200
H  43.12800 39.17500 22.19400
H  41.79300 45.34000 22.68800
H  43.38700 42.84500 30.77100
H  42.27300 40.12000 30.44200
H  45.27100 40.57600 30.29700
H  44.22400 39.34900 31.08700
H  44.43300 40.92300 31.79900
H  40.43000 42.66700 30.43600
H  41.44700 43.66800 31.43600
H  41.80800 41.04800 32.57700
H  40.21200 41.13400 31.87000
H  45.24000 37.13400 27.75500
H  45.03800 35.95700 26.42500
H  43.81900 36.33200 27.73800
H  43.76100 34.97100 24.71000
H  45.51100 35.38800 24.44300
H  44.47700 35.03000 23.10000
H  41.92800 41.05700 20.64600
H  42.54000 43.74200 20.83600
H  43.97400 40.65900 19.92800
H  44.70500 41.85000 21.16000
H  43.98700 42.47900 19.66600
H  40.17600 42.38700 20.18100
H  40.29300 44.12200 20.68800
H  39.78500 42.72900 23.06100
H  38.87700 41.78600 21.97400
H  38.47600 43.53900 22.09200
H  41.75200 47.42000 23.90700
H  41.51700 48.13400 25.53200
H  40.14800 47.30000 24.65200
H  40.98100 45.11800 29.84100
H  44.26900 47.60800 31.55100
H  44.23800 46.04500 32.19100
H  43.26900 47.27600 32.88900
Mg -2.14100 34.87800 26.36100
C  -3.76900 32.88200 28.73800
C  -0.52100 36.49900 28.94900
C  -0.95600 36.86800 24.06400
C  -3.75200 32.97400 23.86700
N  -2.18300 34.68700 28.61600
C  -2.89900 33.80900 29.36900
C  -2.74900 34.14600 30.82400
C  -1.70600 35.35500 30.84400
C  -1.51100 35.54000 29.35900
C  -2.26100 36.61800 31.56500
C  -2.22700 32.88000 31.67800
C  -2.98500 32.50000 32.98500
H  -2.23900 32.40900 34.36100
N  -0.94900 36.58500 26.48400
C  -0.29500 37.02400 27.61400
C  0.68700 38.00800 27.21100
C  0.56000 38.09300 25.77700
C  -0.52100 37.21700 25.40700
C  1.40100 38.89400 28.14000
C  1.37700 39.03600 24.81100
O  1.09700 39.18300 23.59600
C  2.56200 39.75400 25.35600
N  -2.43400 35.06300 24.28600
C  -1.83100 35.98800 23.51400
C  -2.07000 35.70400 22.05100
C  -2.52600 34.24200 22.06100
C  -2.91600 34.05600 23.51400
C  -3.08400 36.67600 21.38800
C  -1.53600 33.12800 21.54400
C  -0.06900 33.24600 21.93200
N  -3.58100 33.19000 26.26100
C  -4.17000 32.58100 25.13000
C  -5.00200 31.51900 25.63000
C  -4.95900 31.58800 27.04100
C  -4.06500 32.62800 27.39000
C  -5.79000 30.46800 24.84800
C  -5.43500 31.08600 28.27300
O  -6.19300 30.17100 28.55400
C  -4.71700 31.99000 29.46200
C  -5.76900 32.71500 30.14300
O  -6.34000 33.69800 29.73700
O  -5.96000 32.09200 31.38200
C  -6.92800 32.70400 32.33300
H  0.06000 36.90700 29.77900
H  -0.50700 37.39100 23.21700
H  -4.12600 32.36200 23.04400
H  -3.73400 34.48200 31.14700
H  -0.76600 35.04300 31.29800
H  -3.19700 36.40300 32.08000
H  -2.55600 37.28800 30.75800
H  -1.54300 37.09400 32.23300
H  -1.17400 33.01500 31.92700
H  -2.21700 31.91200 31.17600
H  -3.34200 31.49700 32.75100
H  -3.70600 33.30600 33.12700
H  2.41300 38.51500 28.28300
H  0.88200 38.95300 29.09700
H  1.45000 39.90900 27.74500
H  2.13700 40.64300 25.82200
H  3.09000 39.94300 24.42200
H  3.09000 39.01500 25.95900
H  -1.12100 35.76100 21.51800
H  -3.50900 34.17600 21.59400
H  -4.05900 36.24600 21.16100
H  -2.60900 36.98100 20.45500
H  -3.27900 37.48200 22.09600
H  -1.56600 33.09700 20.45500
H  -1.95500 32.21800 21.97100
H  0.58200 33.26000 21.05800
H  0.23200 32.35900 22.49100
H  0.13800 34.08200 22.60000
H  -5.61100 29.45500 25.20700
H  -5.41800 30.52900 23.82500
H  -6.87000 30.61500 24.85000
H  -4.24900 31.25600 30.11800
H  -6.40700 32.87700 33.27500
H  -7.77200 32.04300 32.52800
H  -7.24100 33.67000 31.93800

