158

Mg 54.25100 23.20000 44.33100
C  51.98900 25.77400 43.43400
C  51.73700 20.85600 43.54700
C  56.59200 20.90400 44.40300
C  56.64200 25.72100 44.81100
N  52.08200 23.23100 43.47500
C  51.49900 24.44900 43.25300
C  50.10400 24.09800 42.60300
C  49.82100 22.60100 43.05100
C  51.26700 22.21200 43.37700
C  48.90500 22.31100 44.22800
C  50.09600 24.26400 41.05700
C  48.81300 24.88500 40.44400
H  48.31800 24.11300 39.14500
N  54.21500 21.20700 43.93500
C  53.07000 20.42200 43.73100
C  53.51000 19.01900 43.86100
C  54.91800 19.04100 44.04800
C  55.31800 20.44600 44.10600
C  52.60500 17.84600 43.56700
C  55.76400 17.81100 44.15400
O  55.22200 16.70400 44.05500
C  57.26700 17.81700 44.60800
N  56.43000 23.32900 44.28900
C  57.05000 22.21300 44.56400
C  58.53000 22.50600 44.72300
C  58.55200 24.05900 44.92000
C  57.17300 24.43500 44.65600
C  59.18700 21.71100 45.88500
C  59.64200 24.75900 44.03200
C  60.57800 25.71500 44.84900
N  54.36100 25.31200 44.28900
C  55.32200 26.20600 44.61600
C  54.82400 27.58700 44.55700
C  53.48500 27.47400 44.14700
C  53.28100 26.07300 43.91300
C  55.58000 28.79300 44.94100
C  52.27300 28.17300 43.84700
O  52.03400 29.37600 43.84900
C  51.27100 27.14500 43.22700
C  51.20400 27.55600 41.78300
O  52.14100 27.34500 40.99700
O  50.02300 28.12500 41.48700
C  49.74400 28.56200 40.13500
H  50.94000 20.12700 43.38300
H  57.50000 20.29700 44.42300
H  57.32800 26.48100 45.19100
H  49.36200 24.78400 43.01300
H  49.52400 21.95700 42.22300
H  48.31000 21.41800 44.03800
H  48.21400 23.15100 44.29800
H  49.49500 22.24900 45.14200
H  50.27400 23.30900 40.56200
H  50.96100 24.91300 40.91800
H  48.98900 25.91500 40.13600
H  47.98900 24.96700 41.15200
H  52.76600 16.88600 44.05700
H  52.68100 17.58600 42.51100
H  51.61000 18.18700 43.85300
H  57.81000 18.32300 43.80900
H  57.70200 16.82100 44.52200
H  57.36900 18.28000 45.58900
H  58.98500 22.22900 43.77200
H  58.71700 24.22900 45.98400
H  59.45900 20.71200 45.54500
H  58.40000 21.55000 46.62200
H  60.02000 22.21400 46.37600
H  59.13400 25.33800 43.26100
H  60.25800 23.93900 43.66400
H  60.41000 26.77700 44.66600
H  61.62000 25.44200 44.68200
H  60.39400 25.57900 45.91500
H  56.50100 28.99500 44.39500
H  55.70900 28.76100 46.02300
H  54.90100 29.62300 44.74700
H  50.28100 27.17700 43.68200
H  48.89400 28.02800 39.71000
H  50.59000 28.66400 39.45500
H  49.28700 29.55000 40.19000
Mg 4.47900 54.70400 40.76900
C  4.70700 51.18500 40.00300
C  7.32300 55.16600 39.31200
C  3.63200 57.97900 40.61900
C  1.11200 53.97700 41.83700
N  5.67100 53.32900 39.43700
C  5.70400 51.97400 39.44000
C  7.07100 51.46900 38.97300
C  8.03900 52.71900 39.11100
C  6.90300 53.85100 39.24800
C  8.87700 52.62300 40.39900
C  7.02800 50.90000 37.48800
C  6.14000 51.57300 36.43800
H  6.50800 51.25400 34.95900
N  5.38100 56.43700 40.05700
C  6.62400 56.39100 39.51300
C  7.11200 57.75700 39.51000
C  5.96300 58.55000 39.77000
C  4.84200 57.67900 40.10100
C  8.59800 58.14400 39.08800
C  5.86400 60.02500 39.59500
O  6.86400 60.64000 39.17900
C  4.74800 60.99000 39.98400
N  2.52400 55.78400 41.04400
C  2.59800 57.13200 41.11200
C  1.30500 57.72600 41.72700
C  0.49500 56.45700 42.02400
C  1.39300 55.32500 41.56100
C  1.56100 58.68200 42.99000
C  -0.88200 56.39300 41.37100
C  -2.08500 57.08600 41.96500
N  3.14200 52.91500 40.98200
C  1.80500 52.84800 41.47400
C  1.53300 51.46200 41.66300
C  2.64300 50.75900 41.06900
C  3.56000 51.71400 40.65700
C  0.31300 51.01700 42.32100
C  3.16800 49.46000 40.84000
O  2.74600 48.36200 41.18400
C  4.56000 49.69500 40.06400
C  4.54500 49.04400 38.67900
O  3.90000 49.34300 37.68900
O  5.26500 47.89600 38.64600
C  5.31000 46.96500 37.48300
H  8.38400 55.35400 39.13500
H  3.40700 59.03000 40.81200
H  0.15500 53.86100 42.34900
H  7.37600 50.66700 39.64500
H  8.52900 52.84400 38.14500
H  8.47300 53.29500 41.15700
H  9.92600 52.81400 40.17400
H  8.88000 51.59300 40.75500
H  6.79600 49.84000 37.59000
H  8.04300 50.98900 37.10200
H  6.08100 52.65800 36.52200
H  5.12300 51.20000 36.55200
H  9.26100 57.38600 39.50500
H  8.82300 59.15700 39.42100
H  8.82900 58.19100 38.02400
H  5.16400 61.99700 40.02800
H  4.46600 60.76300 41.01200
H  3.90500 61.05100 39.29500
H  0.84200 58.35300 40.96500
H  0.38000 56.36700 43.10500
H  2.53800 58.67000 43.47500
H  0.96400 58.28300 43.81000
H  1.30700 59.71900 42.77300
H  -1.21000 55.35800 41.46800
H  -0.79800 56.69100 40.32600
H  -1.76200 57.30900 42.98100
H  -3.00700 56.50400 41.97700
H  -2.28000 58.00500 41.41300
H  0.02400 51.64300 43.16500
H  0.44300 50.06200 42.83000
H  -0.56000 51.06500 41.67100
H  5.33000 49.13200 40.59000
H  5.32300 47.55100 36.56400
H  4.45700 46.29100 37.40100
H  6.28200 46.47700 37.55900

