158

Mg 0.87100 7.29800 26.36200
C  1.89100 8.97600 29.12500
C  1.01100 4.43700 28.21300
C  0.62200 5.41600 23.49600
C  1.33900 10.16200 24.41600
N  1.36000 6.78700 28.45200
C  1.57200 7.69000 29.45300
C  1.53100 7.02600 30.81800
C  1.34900 5.49900 30.45100
C  1.26000 5.61200 28.91200
C  2.48000 4.57200 30.97600
C  0.29900 7.56400 31.57900
C  0.32900 7.73800 33.11800
H  1.43400 6.97900 33.91200
N  0.83500 5.24500 25.90100
C  0.85000 4.22500 26.85100
C  0.55500 2.93900 26.20900
C  0.48200 3.22600 24.80200
C  0.60700 4.65700 24.67400
C  0.19600 1.68800 26.94300
C  0.25900 2.24900 23.61400
O  0.45700 2.51200 22.46100
C  -0.10000 0.91400 23.91700
N  0.74400 7.71900 24.32300
C  0.59600 6.80200 23.33300
C  0.58900 7.53300 22.00200
C  0.45700 9.09100 22.29200
C  0.86500 8.98500 23.76300
C  1.72800 7.14500 21.11100
C  -0.99000 9.70900 22.23800
C  -1.00700 10.97700 21.40000
N  1.27400 9.22800 26.68500
C  1.58900 10.28500 25.82000
C  1.90500 11.45700 26.59500
C  1.99200 10.98300 27.86900
C  1.67300 9.60700 27.90000
C  2.10400 12.86900 26.13100
C  2.33100 11.40200 29.19500
O  2.66200 12.48000 29.63400
C  2.15500 10.10800 30.16400
C  3.30300 9.97900 31.09900
O  4.48000 9.98000 30.81200
O  2.79300 10.21900 32.41300
C  3.80300 10.38500 33.37700
H  1.08200 3.54900 28.84400
H  0.45800 4.74500 22.65000
H  1.54800 11.04400 23.80700
H  2.48400 7.14000 31.33500
H  0.52600 5.07100 31.02400
H  2.02300 3.62400 31.25800
H  2.89800 4.99800 31.88800
H  3.22500 4.40000 30.19900
H  -0.54000 6.91100 31.33800
H  0.11300 8.59100 31.26700
H  -0.63100 7.48100 33.56400
H  0.46700 8.80200 33.31200
H  0.81300 0.91900 26.47800
H  -0.87900 1.57600 26.80200
H  0.43900 1.71800 28.00600
H  0.68300 0.40600 24.48000
H  -0.18100 0.34600 22.99000
H  -0.99500 0.75700 24.52000
H  -0.34900 7.20800 21.55300
H  1.20900 9.62200 21.71000
H  2.59100 7.78300 21.30100
H  1.46700 7.13800 20.05300
H  2.00800 6.12800 21.38800
H  -1.47500 9.83300 23.20600
H  -1.64200 9.02400 21.69600
H  0.00300 11.36400 21.26100
H  -1.45500 11.76500 22.00400
H  -1.52400 10.89300 20.44400
H  3.01000 13.12900 25.58400
H  2.16400 13.42700 27.06600
H  1.16300 13.15700 25.66200
H  1.31600 10.26600 30.84200
H  4.50400 11.20600 33.22600
H  4.41700 9.53200 33.66600
H  3.32300 10.81100 34.25800
Mg -4.59900 25.72200 25.99500
C  -2.81200 27.02200 28.55600
C  -6.46800 23.89700 28.10200
C  -6.46700 24.43400 23.33400
C  -2.49000 27.17800 23.65500
N  -4.71100 25.60600 28.03400
C  -3.88500 26.18300 28.92400
C  -4.29500 25.92500 30.39600
C  -5.36300 24.80100 30.25700
C  -5.49300 24.69000 28.67100
C  -4.94000 23.36200 30.90400
C  -4.97500 27.19700 31.14600
C  -5.43500 26.94600 32.54300
H  -4.86700 25.82500 33.46300
N  -6.13600 24.23700 25.75000
C  -6.84400 23.68400 26.77800
C  -7.99000 22.86000 26.30200
C  -7.92400 22.90500 24.85400
C  -6.80700 23.87500 24.59700
C  -8.93600 22.09900 27.23000
C  -8.81000 22.34000 23.74900
O  -8.49500 22.36000 22.57000
C  -10.05900 21.65600 24.04700
N  -4.47800 25.74600 23.77600
C  -5.44000 25.23500 22.93900
C  -5.23800 25.72700 21.52300
C  -3.97300 26.60300 21.62900
C  -3.63800 26.54700 23.13800
C  -5.14200 24.58800 20.44900
C  -3.89500 28.02100 20.96900
C  -4.20800 29.29400 21.74700
N  -2.80600 26.72100 26.03800
C  -2.06100 27.30300 24.99500
C  -1.03000 28.13200 25.54800
C  -1.25300 28.00800 26.94100
C  -2.40400 27.20300 27.17900
C  -0.29700 29.10600 24.77700
C  -0.87700 28.62400 28.28100
O  -0.08300 29.48700 28.53000
C  -1.92500 28.00600 29.28500
C  -1.21300 27.32500 30.34800
O  -0.51100 26.35700 30.18100
O  -1.41400 28.02400 31.55400
C  -0.70700 27.49400 32.72100
H  -7.17200 23.37600 28.75400
H  -7.11800 24.25700 22.47500
H  -1.94300 27.70400 22.87000
H  -3.50400 25.51700 31.02500
H  -6.34500 25.04100 30.66400
H  -4.88800 22.64200 30.08700
H  -5.66900 23.01800 31.63800
H  -4.05000 23.54900 31.50400
H  -5.85100 27.44900 30.54700
H  -4.28200 28.03800 31.13900
H  -6.49400 26.75100 32.37300
H  -5.24700 27.87700 33.07800
H  -8.60800 22.33000 28.24300
H  -8.99300 21.04100 26.97500
H  -9.91700 22.53300 27.03400
H  -10.39700 21.08500 23.18300
H  -10.82200 22.41400 24.22300
H  -9.93300 21.05800 24.95000
H  -6.18900 26.24700 21.41000
H  -3.19500 26.11300 21.04200
H  -6.17700 24.47600 20.12500
H  -4.81100 23.59600 20.75500
H  -4.61000 24.92900 19.56100
H  -4.55500 28.04300 20.10100
H  -2.91500 28.09400 20.49700
H  -4.33400 29.07800 22.80800
H  -5.19700 29.61100 21.41800
H  -3.44900 30.07400 21.68500
H  -0.24800 29.99700 25.40300
H  -0.66300 29.47100 23.81800
H  0.73900 28.78200 24.67300
H  -2.58800 28.76000 29.70800
H  0.33900 27.24600 32.54100
H  -1.20800 26.60300 33.09600
H  -0.74200 28.14700 33.59300

