158

Mg 54.74100 24.17800 45.41100
C  52.14400 26.26500 44.44600
C  53.08700 21.49600 44.16900
C  57.56300 22.33500 45.99400
C  56.47200 27.06100 46.55500
N  53.02200 24.04600 44.08800
C  51.99800 24.95900 43.94800
C  50.78600 24.32100 43.17000
C  51.02500 22.87500 43.65100
C  52.53300 22.79100 43.85200
C  50.23100 22.30000 44.84800
C  50.74100 24.58400 41.63600
C  49.39900 24.44600 41.00600
H  49.37600 23.87300 39.58900
N  55.19300 22.14000 45.18000
C  54.37900 21.20600 44.62300
C  55.03900 19.98000 44.56500
C  56.40700 20.13600 44.94100
C  56.48000 21.57400 45.45700
C  54.39000 18.76100 44.03800
C  57.45400 19.13000 44.88100
O  57.21600 17.98900 44.44300
C  58.89900 19.39700 45.19700
N  56.82300 24.63200 45.95700
C  57.74700 23.70800 46.19500
C  59.04900 24.35200 46.62100
C  58.72000 25.85300 46.72800
C  57.26200 25.87200 46.46600
C  59.64900 23.74600 47.97600
C  59.47200 26.80600 45.76700
C  60.14900 28.07500 46.32400
N  54.41200 26.26700 45.55200
C  55.19000 27.26400 46.11500
C  54.37200 28.47800 46.23000
C  53.20100 28.13800 45.54100
C  53.31600 26.76100 45.16100
C  54.70600 29.69300 46.87600
C  51.95400 28.55300 45.11900
O  51.41600 29.67000 45.19200
C  51.28400 27.49800 44.30400
C  51.07700 28.02000 42.94700
O  51.96800 28.28600 42.12600
O  49.69900 28.16600 42.67700
C  49.40900 28.53800 41.28100
H  52.45900 20.62700 43.96100
H  58.52400 21.89900 46.27500
H  56.92800 27.99300 46.89500
H  49.84500 24.74500 43.52200
H  50.74000 22.18600 42.85600
H  49.42100 22.94900 45.18000
H  50.89500 22.04300 45.67300
H  49.79200 21.39100 44.43500
H  51.30800 23.79100 41.14800
H  51.22600 25.53400 41.41300
H  48.95300 25.43900 40.94500
H  48.70200 23.84500 41.58900
H  54.70000 18.58300 43.00900
H  53.30800 18.82800 43.92600
H  54.64300 17.87400 44.61900
H  59.25100 20.38000 44.88400
H  59.56900 18.63800 44.79200
H  59.02600 19.45100 46.27800
H  59.73700 24.19900 45.78900
H  58.96400 26.20000 47.73200
H  59.15800 22.77800 48.07100
H  59.33400 24.28400 48.87000
H  60.72100 23.56000 47.90400
H  58.72400 27.16000 45.05800
H  60.15300 26.31100 45.07500
H  59.60200 28.94700 45.96500
H  61.18700 27.90400 46.03800
H  60.14400 28.23900 47.40100
H  55.52500 29.64700 47.59300
H  53.82800 30.05600 47.41100
H  54.98700 30.43600 46.12900
H  50.28100 27.46200 44.72900
H  48.84800 29.47300 41.29800
H  48.58000 27.99700 40.82600
H  50.16000 28.46300 40.49500
Mg 47.74100 24.46600 28.46500
C  48.67600 26.63000 31.16100
C  46.84600 22.22700 30.66700
C  46.92100 22.64600 25.82900
C  48.95800 27.00600 26.26200
N  47.88000 24.41300 30.68400
C  48.03900 25.41500 31.57200
C  47.59200 25.08800 32.98100
C  47.10200 23.64600 32.82500
C  47.23700 23.38400 31.28300
C  47.85900 22.65600 33.77600
C  46.64600 26.12100 33.64200
C  46.03200 25.65200 35.00000
H  46.36300 26.58000 36.18000
N  47.04500 22.62000 28.22600
C  46.78700 21.81900 29.31000
C  46.22800 20.61200 28.84100
C  46.18800 20.75200 27.46000
C  46.73800 22.04500 27.06800
C  45.73900 19.47600 29.68200
C  45.66100 19.76500 26.49800
O  45.56600 20.04900 25.29800
C  44.93100 18.46900 26.87000
N  47.89400 24.78500 26.30800
C  47.46300 23.84800 25.51800
C  47.46800 24.33000 24.07400
C  47.92700 25.82500 24.13600
C  48.34800 25.89500 25.63500
C  48.44500 23.41800 23.19900
C  46.78800 26.85100 23.71500
C  47.26600 27.82900 22.57300
N  48.79000 26.40200 28.61100
C  49.21700 27.27900 27.66900
C  49.76600 28.46400 28.20000
C  49.64900 28.26300 29.62700
C  48.93800 27.03200 29.80800
C  50.45600 29.53800 27.47500
C  49.93500 28.79700 30.92200
O  50.54600 29.76900 31.26200
C  49.10100 27.90200 31.97700
C  50.08000 27.57300 33.04600
O  51.05000 26.83700 32.91300
O  49.83300 28.20600 34.15800
C  50.70400 27.93200 35.27700
H  46.50700 21.47600 31.38500
H  46.68700 22.05200 24.94300
H  49.08100 27.89800 25.64400
H  48.53500 25.13200 33.52600
H  46.04600 23.54400 33.07400
H  48.53400 23.22000 34.42000
H  48.52500 22.04500 33.16600
H  47.13300 22.06300 34.33300
H  45.78700 26.34700 33.00900
H  47.29300 26.96500 33.88000
H  46.36700 24.65900 35.29800
H  44.96300 25.61700 34.79000
H  44.74500 19.15200 29.37400
H  45.70800 19.68300 30.75200
H  46.43400 18.63700 29.68200
H  45.49400 17.75400 27.46900
H  44.50700 17.95700 26.00500
H  44.10000 18.77700 27.50400
H  46.47300 24.15600 23.66300
H  48.82000 25.83800 23.51200
H  49.16100 22.98000 23.89500
H  48.94300 23.98600 22.41300
H  47.97600 22.54300 22.75000
H  46.49700 27.39100 24.61600
H  45.90200 26.39600 23.27300
H  48.24900 27.43000 22.32500
H  47.48100 28.79500 23.03000
H  46.57300 27.82800 21.73100
H  51.22000 30.02000 28.08500
H  49.74600 30.30000 27.15300
H  50.96000 29.22400 26.56100
H  48.22000 28.45500 32.30100
H  51.68500 28.38900 35.15500
H  50.80400 26.86200 35.45800
H  50.15400 28.34400 36.12300

