158

Mg 53.87300 24.33900 44.36800
C  51.21700 26.41700 43.59700
C  52.19300 21.81200 42.88500
C  56.66900 22.58100 44.25300
C  55.56300 27.13200 45.73700
N  52.03000 24.22000 43.09700
C  51.08300 25.20900 42.93800
C  49.88000 24.65100 42.17300
C  50.00900 23.08900 42.50600
C  51.47600 22.96800 42.88600
C  49.10000 22.47000 43.62500
C  49.90600 25.04400 40.60800
C  48.57200 25.57700 39.89000
H  47.99600 24.58000 38.78000
N  54.34400 22.41800 43.74900
C  53.53200 21.53900 43.19800
C  54.22600 20.28400 42.97400
C  55.52900 20.45900 43.36200
C  55.56400 21.82700 43.87300
C  53.46500 19.01800 42.50100
C  56.54600 19.37400 43.41600
O  56.46700 18.25000 42.96500
C  57.83800 19.66400 44.09100
N  55.89700 24.95800 44.79600
C  56.78500 23.94600 44.76400
C  58.07600 24.41000 45.36900
C  57.76800 25.87000 45.95000
C  56.39300 26.02300 45.47000
C  58.66300 23.42400 46.39500
C  58.65200 27.03300 45.37000
C  58.84800 28.24900 46.28200
N  53.46100 26.30500 44.74100
C  54.18500 27.28000 45.36000
C  53.35300 28.48000 45.47800
C  52.13500 28.21800 44.90500
C  52.33500 26.90100 44.37600
C  53.64800 29.72200 46.22100
C  50.72300 28.60200 44.52900
O  50.15200 29.60500 44.73800
C  50.16600 27.43500 43.74100
C  49.55700 27.86900 42.38800
O  50.10700 28.20300 41.38800
O  48.19400 27.86200 42.54300
C  47.41100 28.59700 41.42800
H  51.63000 20.98100 42.45400
H  57.63500 22.07400 44.29900
H  56.07700 27.95900 46.23200
H  49.03800 25.09700 42.70200
H  49.87100 22.46900 41.62000
H  49.34700 22.89600 44.59700
H  49.05000 21.38600 43.52000
H  48.16200 22.93400 43.32000
H  50.25800 24.15900 40.07800
H  50.63300 25.85600 40.56000
H  48.77600 26.51400 39.37000
H  47.75600 25.83500 40.56500
H  53.98700 18.47200 41.71500
H  52.52600 19.29900 42.02400
H  53.27300 18.37500 43.36100
H  58.49400 20.31000 43.50800
H  58.31800 18.69800 44.24800
H  57.67000 20.22000 45.01300
H  58.80800 24.51300 44.56800
H  57.84300 25.74600 47.03000
H  59.54400 22.91200 46.00900
H  57.88900 22.72300 46.70800
H  59.09100 23.91900 47.26700
H  58.15000 27.37800 44.46600
H  59.61300 26.62500 45.05800
H  59.88300 28.57700 46.37700
H  58.35700 28.23100 47.25500
H  58.35500 29.05700 45.74200
H  53.41300 29.59300 47.27700
H  53.10000 30.54200 45.75600
H  54.71600 29.90400 46.10600
H  49.34500 27.00800 44.31900
H  47.50700 27.82400 40.66400
H  47.88300 29.54400 41.16800
H  46.36000 28.64000 41.71400
Mg 0.44100 42.86900 25.87700
C  2.88800 42.49900 28.69000
C  -1.99800 42.22000 28.21300
C  -1.73000 42.82800 23.42200
C  3.16500 43.22000 23.76400
N  0.48900 42.33100 28.14500
C  1.50700 42.34700 29.05800
C  0.96300 42.20200 30.47700
C  -0.44300 41.52700 30.24000
C  -0.69900 42.05200 28.77200
C  -0.30700 39.99400 30.39400
C  0.79900 43.48100 31.23500
C  0.99800 43.42700 32.73900
H  1.03200 42.10200 33.53400
N  -1.60900 42.60600 25.79300
C  -2.41200 42.40100 26.81800
C  -3.76300 42.46100 26.39300
C  -3.73900 42.51300 25.01200
C  -2.33500 42.66200 24.68500
C  -4.92600 42.46600 27.39700
C  -4.89800 42.58800 24.02300
O  -4.80200 42.83200 22.79300
C  -6.27200 42.14900 24.57300
N  0.69300 43.03100 23.92100
C  -0.36500 43.00000 23.06200
C  0.11800 42.99700 21.59700
C  1.69000 43.15400 21.73600
C  1.87100 43.16700 23.22100
C  -0.24300 41.61800 20.91400
C  2.37900 44.41500 21.15300
C  2.09700 45.75700 21.90800
N  2.58200 42.88000 26.07800
C  3.51200 43.12700 25.13600
C  4.81300 43.03300 25.72600
C  4.66600 42.81000 27.12100
C  3.29200 42.77800 27.31200
C  6.11000 43.22500 24.97300
C  5.36800 42.60800 28.38700
O  6.52600 42.56100 28.74200
C  4.16300 42.42400 29.46500
C  4.29400 41.24100 30.35700
O  4.00300 40.05800 30.10700
O  4.92400 41.57800 31.54200
C  5.30000 40.52900 32.46700
H  -2.75700 42.07000 28.98400
H  -2.37800 42.78200 22.54500
H  4.09300 43.35100 23.20300
H  1.69900 41.54200 30.93600
H  -1.32400 41.83400 30.80400
H  -1.02600 39.62300 31.12400
H  0.69900 39.67800 30.67200
H  -0.56200 39.48000 29.46800
H  -0.22200 43.78400 31.00100
H  1.40800 44.21800 30.71200
H  0.26400 44.07000 33.22500
H  1.92700 43.95500 32.95100
H  -5.58900 43.30600 27.18700
H  -4.50800 42.76600 28.35800
H  -5.53700 41.57600 27.55000
H  -6.66800 42.87200 25.28600
H  -6.12800 41.18400 25.05900
H  -6.93500 42.11400 23.70800
H  -0.37300 43.75300 20.98400
H  2.20000 42.31800 21.25900
H  -0.67300 41.00600 21.70700
H  0.50700 41.00300 20.41600
H  -0.95800 41.92700 20.15200
H  1.90100 44.52800 20.18000
H  3.40300 44.14200 20.89500
H  2.13700 46.55800 21.17000
H  2.93100 45.94900 22.58300
H  1.13300 45.77700 22.41600
H  6.43900 44.26500 24.96900
H  6.02300 42.70500 24.02000
H  6.88100 42.70600 25.54200
H  4.29500 43.23500 30.18200
H  6.35000 40.52400 32.76200
H  5.02800 39.49400 32.26000
H  4.78300 40.88200 33.35900

