158

Mg -11.83600 16.85700 40.96500
C  -8.67000 15.53400 41.04100
C  -10.38900 19.93000 40.28300
C  -14.85500 18.02000 39.97500
C  -13.14600 13.52700 41.16700
N  -9.70500 17.65300 40.78500
C  -8.57300 16.94700 40.78700
C  -7.30500 17.78800 40.56800
C  -7.92200 19.25900 40.68000
C  -9.42700 18.96700 40.56500
C  -7.43700 19.97000 42.00200
C  -6.48200 17.36000 39.30900
C  -5.04900 16.75200 39.50900
H  -4.80000 15.45900 38.85200
N  -12.55000 18.71000 40.26800
C  -11.80100 19.84700 40.05400
C  -12.62200 20.87200 39.58600
C  -13.93200 20.39100 39.50100
C  -13.83800 18.96500 39.94500
C  -12.12900 22.25800 39.15600
C  -15.19400 21.20100 39.11100
O  -15.00000 22.41100 38.81100
C  -16.63300 20.74700 39.15600
N  -13.72800 15.97900 40.74500
C  -14.83700 16.68000 40.32600
C  -15.96400 15.71000 39.88400
C  -15.49700 14.44000 40.54500
C  -14.00300 14.59400 40.83200
C  -17.31700 16.27200 40.46100
C  -15.89000 13.11800 39.88300
C  -16.98000 12.30600 40.62500
N  -11.12600 14.94700 41.27500
C  -11.75500 13.71000 41.36400
C  -10.73900 12.64700 41.43500
C  -9.50500 13.35200 41.37300
C  -9.85500 14.70100 41.18500
C  -11.02000 11.22800 41.54800
C  -8.10000 13.11300 41.19400
O  -7.41500 12.09700 41.06300
C  -7.51000 14.52600 41.13400
C  -6.69300 14.82000 42.33800
O  -6.97300 15.50700 43.29700
O  -5.50000 14.07400 42.31100
C  -4.66100 14.20200 43.51000
H  -9.84700 20.82400 39.96700
H  -15.78200 18.37600 39.52200
H  -13.52000 12.51500 41.33900
H  -6.66000 17.62100 41.43100
H  -7.76900 19.76800 39.72900
H  -7.41900 21.05100 41.86600
H  -6.42700 19.71200 42.31900
H  -8.20600 19.74200 42.74000
H  -6.39900 18.24100 38.67200
H  -7.03700 16.56100 38.81700
H  -4.87700 16.71100 40.58500
H  -4.28300 17.42400 39.12200
H  -12.54700 22.51900 38.18400
H  -11.04800 22.15200 39.06600
H  -12.26200 23.05900 39.88300
H  -16.75800 19.96200 38.41000
H  -17.32900 21.55400 38.92500
H  -17.00400 20.31800 40.08600
H  -16.03100 15.78000 38.79800
H  -15.95700 14.44900 41.53200
H  -17.97100 16.73000 39.71900
H  -17.03800 17.05700 41.16400
H  -17.80200 15.41200 40.92400
H  -15.01800 12.48200 39.73400
H  -16.40500 13.32700 38.94500
H  -17.88300 12.64300 40.11600
H  -17.14800 12.39900 41.69800
H  -16.71500 11.25500 40.51300
H  -11.51700 10.93900 40.62300
H  -11.61400 10.94700 42.41800
H  -10.08300 10.68400 41.67200
H  -6.86700 14.62700 40.26000
H  -4.67500 15.19700 43.95300
H  -3.66200 13.94000 43.16200
H  -5.01400 13.46700 44.23400
Mg -4.44400 25.97600 26.18100
C  -3.05300 27.29500 29.15800
C  -6.37100 23.82300 28.03100
C  -5.15600 24.16300 23.37700
C  -2.06400 27.82400 24.41500
N  -4.56400 25.46500 28.40300
C  -4.02000 26.27200 29.41000
C  -4.58500 25.87600 30.82300
C  -5.46800 24.62000 30.43800
C  -5.51800 24.62900 28.89400
C  -4.84400 23.34900 31.01700
C  -5.36400 27.12600 31.40300
C  -5.11600 27.47900 32.88100
H  -4.91500 26.23500 33.84200
N  -5.72500 24.38700 25.73300
C  -6.49800 23.73800 26.61300
C  -7.47600 22.88900 25.89600
C  -7.06700 22.94700 24.53700
C  -5.89700 23.82700 24.47700
C  -8.53900 22.12200 26.60300
C  -7.62700 22.11000 23.35900
O  -7.19200 22.11700 22.23300
C  -8.78700 21.22900 23.66500
N  -3.66600 25.97500 24.17900
C  -4.18900 25.16500 23.17500
C  -3.36400 25.43400 21.88500
C  -2.50200 26.70700 22.14800
C  -2.74900 26.84900 23.66000
C  -2.44500 24.28000 21.33300
C  -2.80500 27.94900 21.36400
C  -1.60600 28.20400 20.39100
N  -2.86600 27.28800 26.62300
C  -2.13700 28.06100 25.81600
C  -1.32900 28.99500 26.57700
C  -1.55900 28.71100 27.89200
C  -2.62100 27.67600 27.88300
C  -0.42200 30.01400 25.92600
C  -1.25300 28.99400 29.27800
O  -0.41900 29.68900 29.82200
C  -2.29800 28.17400 30.17500
C  -1.42700 27.37900 31.01400
O  -0.65000 26.50300 30.65500
O  -1.73600 27.61200 32.31700
C  -0.94300 26.93400 33.30700
H  -7.02700 23.13100 28.56100
H  -5.35600 23.67900 22.41900
H  -1.38000 28.42700 23.81500
H  -3.73800 25.58900 31.44600
H  -6.53100 24.73000 30.65500
H  -4.25700 22.92300 30.20300
H  -5.61400 22.61400 31.25200
H  -4.22600 23.61500 31.87500
H  -6.42200 26.99500 31.17400
H  -4.91700 27.91600 30.79900
H  -6.04300 27.99300 33.13700
H  -4.28900 28.18900 32.88400
H  -9.50700 22.33300 26.14800
H  -8.60700 22.41900 27.65000
H  -8.38300 21.04700 26.51500
H  -8.63100 20.51500 24.47400
H  -9.28400 20.81700 22.78700
H  -9.53800 21.93900 24.01200
H  -4.13800 25.67400 21.15600
H  -1.44100 26.46300 22.19400
H  -1.49500 24.49700 20.84600
H  -3.07000 23.82700 20.56300
H  -2.14800 23.66700 22.18400
H  -2.94000 28.84100 21.97500
H  -3.67900 27.73000 20.75000
H  -0.77400 27.50300 20.45600
H  -1.16400 29.18700 20.55000
H  -2.05200 28.28100 19.39900
H  -0.80900 30.44200 25.00200
H  0.61800 29.75500 25.72500
H  -0.31800 30.77300 26.70100
H  -2.98700 28.87400 30.64700
H  -1.09700 25.85700 33.36800
H  -1.37300 27.34200 34.22200
H  0.11900 27.17500 33.30700

