158

Mg 47.92600 15.47500 27.89000
C  45.84900 15.00800 30.73100
C  49.83600 17.57600 29.89600
C  49.93000 15.88300 25.35900
C  45.65500 13.54400 26.00800
N  47.88600 16.08800 30.14200
C  46.93000 15.79400 31.04400
C  47.33200 16.37800 32.39200
C  48.48000 17.47200 32.03000
C  48.79800 16.96700 30.62700
C  47.98900 18.94100 31.92500
C  47.68400 15.30000 33.44400
C  47.42100 15.63200 34.95800
H  48.64900 15.50100 35.84100
N  49.61700 16.62200 27.63700
C  50.24100 17.37800 28.55500
C  51.29900 18.13700 27.89200
C  51.51300 17.49100 26.59200
C  50.40600 16.59200 26.48900
C  52.09400 19.26600 28.58100
C  52.62800 17.70100 25.46100
O  52.50300 17.37400 24.26400
C  53.79500 18.52400 25.88800
N  47.69900 14.92400 25.86700
C  48.70300 15.17800 25.04900
C  48.52100 14.31000 23.76100
C  47.10600 13.71300 23.91500
C  46.73800 14.07400 25.36700
C  48.74600 15.22900 22.50900
C  46.87000 12.27700 23.34100
C  47.08100 10.98800 24.25600
N  46.13800 14.34800 28.28500
C  45.24200 13.68100 27.36400
C  44.08300 13.17700 28.10000
C  44.35200 13.58000 29.43600
C  45.48800 14.41800 29.46000
C  42.96000 12.25300 27.63800
C  43.88300 13.54100 30.81200
O  42.87900 13.00700 31.24000
C  44.75000 14.54600 31.60900
C  43.80400 15.66200 31.99400
O  43.12000 16.37400 31.22400
O  43.66800 15.83000 33.34100
C  42.72900 16.81900 33.83400
H  50.28400 18.41800 30.42800
H  50.61500 15.98400 24.51500
H  45.04900 12.92600 25.34200
H  46.51700 16.95800 32.82400
H  49.39500 17.35000 32.61100
H  47.06500 19.11100 32.47800
H  47.76800 19.21400 30.89300
H  48.78900 19.61400 32.23300
H  48.76700 15.35400 33.33300
H  47.38200 14.30100 33.13000
H  46.67200 15.07700 35.52300
H  47.03000 16.63900 35.10800
H  51.61000 19.50500 29.52800
H  52.03300 20.05500 27.83200
H  53.13400 18.95300 28.67300
H  54.63700 18.59400 25.20000
H  54.24600 18.12200 26.79500
H  53.41000 19.54000 25.98500
H  49.36600 13.62700 23.85600
H  46.44300 14.35300 23.33200
H  48.05600 14.73500 21.82500
H  49.66600 14.92300 22.01000
H  48.42000 16.25800 22.65700
H  47.59300 12.18300 22.53100
H  45.91500 12.37600 22.82500
H  47.61400 10.15300 23.80000
H  46.15900 10.46500 24.51000
H  47.48400 11.29600 25.22000
H  41.98000 12.58200 27.98200
H  43.09300 11.26100 28.07000
H  42.93300 12.21200 26.54900
H  45.08900 14.13100 32.55800
H  42.11200 17.29800 33.07400
H  43.28600 17.63700 34.29200
H  42.05000 16.31200 34.52000
Mg 6.41700 55.56000 42.13000
C  5.90500 52.13800 42.06100
C  9.33200 55.15600 40.32800
C  6.31500 58.85500 41.54800
C  3.13300 55.83800 43.65600
N  7.38700 53.85200 41.26700
C  6.98500 52.55400 41.25900
C  7.91900 51.67100 40.35700
C  9.21500 52.58500 40.25900
C  8.59500 53.96600 40.58700
C  10.24700 52.33100 41.37200
C  7.16200 51.53200 38.98300
C  7.62100 50.20500 38.21700
H  6.83500 49.85900 36.98900
N  7.63600 56.86100 41.07700
C  8.86900 56.50100 40.49500
C  9.46300 57.66700 39.95500
C  8.58000 58.79800 40.22500
C  7.40300 58.24400 40.93400
C  10.78300 57.68200 39.19100
C  8.77700 60.26300 39.93600
O  9.76000 60.66100 39.36800
C  7.74500 61.31400 40.00900
N  4.77500 57.11500 42.29800
C  5.10400 58.39700 42.13500
C  3.97100 59.33700 42.57400
C  2.98000 58.34400 43.13900
C  3.65600 56.96700 42.97400
C  4.37700 60.44000 43.70100
C  1.56800 58.26700 42.46500
C  0.42000 57.89600 43.38800
N  4.90900 54.24800 42.99000
C  3.65200 54.47500 43.59300
C  3.10900 53.27400 44.14200
C  3.88400 52.30900 43.47600
C  4.95700 52.99200 42.79600
C  1.79900 53.14800 44.84200
C  4.06500 50.91900 43.21800
O  3.42400 49.91600 43.57000
C  5.27500 50.75700 42.28800
C  4.91800 49.97600 41.04000
O  3.83400 50.09200 40.39200
O  5.79500 48.95100 40.93500
C  5.30800 47.79800 40.23000
H  10.29600 54.88500 39.89100
H  6.47800 59.92400 41.70000
H  2.14800 55.84900 44.12800
H  8.10900 50.72100 40.85800
H  9.59400 52.54900 39.23700
H  11.13600 51.91600 40.89700
H  9.94300 51.66600 42.18100
H  10.61400 53.27100 41.78200
H  7.24300 52.50300 38.49500
H  6.12500 51.42300 39.29900
H  7.83600 49.35500 38.86600
H  8.58000 50.42400 37.74700
H  10.64600 57.76000 38.11200
H  11.46800 56.89300 39.50200
H  11.34300 58.57300 39.47500
H  6.76300 60.85400 39.90200
H  7.84200 62.01700 39.18100
H  7.82900 61.83100 40.96500
H  3.48000 59.79300 41.71400
H  2.75500 58.38300 44.20500
H  5.36300 60.14700 44.06000
H  3.63800 60.34900 44.49800
H  4.41800 61.45900 43.31700
H  1.56000 57.63400 41.57800
H  1.36100 59.27600 42.10600
H  -0.25100 58.73100 43.58700
H  0.79500 57.55000 44.35100
H  -0.12200 57.12300 42.84300
H  1.29000 54.08600 45.06400
H  1.81600 52.59500 45.78100
H  1.06900 52.60500 44.24200
H  5.96000 50.14400 42.87400
H  5.81700 47.73100 39.26800
H  4.23000 47.87200 40.09000
H  5.54700 46.96500 40.89100

