158

Mg 26.48300 50.85100 26.43300
C  24.56700 51.93200 29.01100
C  28.89700 49.83100 28.82700
C  28.31600 49.37300 24.04100
C  24.45800 52.29300 24.13200
N  26.81700 51.12500 28.72800
C  25.73600 51.29900 29.49400
C  26.07100 51.11200 31.00900
C  27.65100 50.90000 30.85500
C  27.82100 50.55900 29.38400
C  28.56000 52.04500 31.37100
C  25.27100 50.00500 31.62300
C  24.85900 50.28200 33.12100
H  25.88000 50.70000 34.24600
N  28.37500 49.81600 26.38800
C  29.17900 49.47400 27.51500
C  30.22900 48.63100 27.10700
C  30.10500 48.45800 25.64600
C  28.90000 49.25300 25.28300
C  31.27100 48.05700 27.97600
C  30.82500 47.58900 24.77000
O  30.61700 47.47500 23.62600
C  31.96500 46.70100 25.26200
N  26.48800 50.90800 24.32400
C  27.22100 50.07300 23.56500
C  26.60200 49.84600 22.19500
C  25.22300 50.76500 22.26300
C  25.38000 51.36000 23.63300
C  27.54600 50.13700 20.97400
C  23.87200 50.04600 22.04100
C  22.81600 50.67500 21.06300
N  24.87100 51.99500 26.54700
C  24.10900 52.52900 25.46800
C  22.95800 53.21900 26.08500
C  23.07400 52.98900 27.44800
C  24.24900 52.26200 27.69400
C  21.86600 53.86900 25.36600
C  22.40500 53.17900 28.71200
O  21.27600 53.62600 28.95400
C  23.38000 52.52400 29.85200
C  23.81000 53.61500 30.75500
O  24.66400 54.46600 30.51700
O  23.08600 53.67300 31.95300
C  23.58200 54.66100 33.01800
H  29.63700 49.56500 29.58500
H  28.79300 48.82200 23.22800
H  23.65100 52.54600 23.44100
H  26.00900 52.01000 31.62300
H  28.00800 50.01600 31.38500
H  27.90900 52.83900 31.73700
H  29.19800 52.44100 30.58100
H  29.08700 51.67100 32.24800
H  25.86400 49.09100 31.58900
H  24.36300 49.83700 31.04400
H  24.32400 49.43300 33.54700
H  24.07400 51.03500 33.04000
H  31.18600 48.44400 28.99200
H  32.25000 48.37400 27.61500
H  31.39200 46.98300 27.83700
H  32.66300 47.38600 25.74300
H  32.39700 46.21300 24.38800
H  31.43000 46.01000 25.91400
H  26.30900 48.81000 22.02500
H  25.37100 51.66100 21.66000
H  27.24100 50.96800 20.33800
H  27.53100 49.25200 20.33700
H  28.57600 50.39400 21.21900
H  23.40500 50.07700 23.02600
H  24.13800 49.02300 21.77500
H  22.47600 49.84300 20.44700
H  23.16800 51.43200 20.36200
H  21.95900 51.13800 21.55300
H  21.13000 54.28800 26.05200
H  21.30700 53.22800 24.68300
H  22.30000 54.57100 24.65400
H  22.77300 51.75600 30.33200
H  22.89900 54.80000 33.85600
H  23.70300 55.61400 32.50400
H  24.50900 54.32500 33.48200
Mg -10.89900 39.53000 40.61300
C  -9.45900 36.43300 39.72400
C  -8.42400 41.14600 39.07500
C  -12.85300 42.29900 40.75900
C  -13.86600 37.52400 41.62500
N  -9.29400 38.76900 39.21600
C  -8.78000 37.53600 39.08600
C  -7.43100 37.51700 38.34900
C  -7.07200 39.06500 38.37600
C  -8.33500 39.70100 38.90100
C  -5.76600 39.40200 39.13000
C  -7.47600 36.77000 37.00500
C  -6.95300 37.49700 35.74900
H  -8.02100 38.22300 34.91400
N  -10.65600 41.46700 39.98700
C  -9.49100 42.00600 39.47200
C  -9.53800 43.42300 39.45800
C  -10.83300 43.77100 39.95600
C  -11.53400 42.46100 40.26900
C  -8.38200 44.33600 38.99400
C  -11.38900 45.23700 40.01800
O  -10.66800 46.15800 39.76600
C  -12.86200 45.58300 40.23600
N  -13.15000 39.81500 40.78600
C  -13.57500 41.10200 40.98900
C  -15.00200 41.11800 41.60400
C  -15.41700 39.67300 41.72000
C  -14.11700 38.93800 41.38500
C  -15.07200 41.93000 42.93000
C  -16.46800 39.26800 40.69700
C  -17.30300 37.98800 40.94300
N  -11.52200 37.45200 40.85400
C  -12.69100 36.84100 41.28800
C  -12.38700 35.44200 41.50100
C  -11.15500 35.23300 40.93400
C  -10.69200 36.45700 40.43800
C  -13.35700 34.39900 42.11000
C  -10.18500 34.24100 40.52600
O  -10.17000 33.02900 40.69900
C  -9.05300 34.99300 39.74700
C  -7.79200 34.66700 40.46500
O  -7.33800 33.53400 40.43800
O  -7.22400 35.75400 41.15900
C  -6.18400 35.32100 42.11400
H  -7.54100 41.67900 38.71700
H  -13.37900 43.24100 40.92800
H  -14.61900 36.97800 42.19800
H  -6.71500 36.95500 38.94900
H  -6.88700 39.47100 37.38100
H  -5.20900 40.05100 38.45500
H  -5.26700 38.48100 39.43300
H  -6.03300 40.05900 39.95700
H  -8.52900 36.52900 36.86500
H  -6.75500 35.96900 37.16800
H  -6.38800 36.91500 35.02100
H  -6.15300 38.18800 36.01900
H  -7.47900 43.73500 38.88100
H  -8.16100 45.09700 39.74200
H  -8.62300 44.75100 38.01500
H  -12.99200 46.56500 39.78000
H  -13.12000 45.56100 41.29500
H  -13.43800 44.83800 39.68800
H  -15.61100 41.63100 40.86000
H  -15.73000 39.45700 42.74100
H  -15.73800 41.45900 43.65300
H  -15.51100 42.90600 42.72700
H  -14.10900 42.04000 43.43000
H  -15.97100 39.23500 39.72800
H  -17.20600 40.05800 40.55700
H  -17.11200 37.24800 40.16500
H  -18.36300 38.23900 40.97900
H  -17.12800 37.54500 41.92300
H  -13.15700 33.41300 41.69200
H  -14.39300 34.72200 42.01200
H  -13.12700 34.43600 43.17500
H  -9.09700 34.55700 38.74900
H  -6.51800 34.66800 42.92000
H  -5.67900 36.15000 42.60900
H  -5.36200 34.82500 41.59700

