158

Mg 41.59000 8.93100 29.66000
C  43.49100 10.09800 32.18200
C  39.46200 7.30500 31.94800
C  39.85700 7.82900 27.04800
C  44.11600 10.15500 27.36000
N  41.38800 8.75300 31.73900
C  42.32200 9.33900 32.58800
C  41.95000 9.12900 34.07900
C  40.82400 8.05800 33.99800
C  40.50900 8.04300 32.48300
C  41.32100 6.64500 34.37700
C  41.45800 10.51800 34.62400
C  40.82400 10.52100 36.12600
H  41.56000 11.31000 37.22900
N  39.90300 7.80200 29.54600
C  39.21600 7.15100 30.57300
C  38.03600 6.44100 30.01000
C  38.01700 6.78300 28.59300
C  39.34100 7.44400 28.33000
C  36.99200 5.66900 30.80500
C  37.04200 6.48700 27.60900
O  37.23100 6.76200 26.41200
C  35.70300 5.90200 27.90900
N  42.13100 8.75100 27.54700
C  41.11000 8.43700 26.73100
C  41.42300 8.62400 25.18200
C  42.81400 9.28000 25.29800
C  43.08400 9.41700 26.85300
C  41.42900 7.33000 24.33000
C  43.12500 10.53900 24.45900
C  42.66200 11.91900 24.84100
N  43.42100 9.96500 29.70500
C  44.27500 10.47100 28.74200
C  45.32400 11.26200 29.35700
C  45.02200 11.22900 30.73700
C  43.95200 10.33500 30.86900
C  46.45400 11.96600 28.62700
C  45.40700 11.69300 32.04600
O  46.26000 12.53100 32.30700
C  44.48100 10.97000 33.04200
C  45.14100 10.10100 34.07600
O  45.88000 9.15200 33.83900
O  44.83300 10.48100 35.39800
C  45.23100 9.58100 36.50000
H  38.84200 6.71200 32.62300
H  39.30300 7.67200 26.12000
H  44.89700 10.53200 26.69700
H  42.82500 8.74400 34.60200
H  39.99400 8.25700 34.67600
H  41.00600 5.89000 33.65700
H  40.71400 6.41600 35.25200
H  42.40000 6.56700 34.50800
H  40.75100 11.01500 33.95900
H  42.34400 11.14000 34.74600
H  40.82300 9.50700 36.52600
H  39.78600 10.85100 36.09100
H  37.18000 5.57400 31.87400
H  36.82900 4.65900 30.42900
H  35.99800 6.11600 30.82300
H  35.11300 6.60300 28.50000
H  35.73900 4.99700 28.51400
H  35.34100 5.65500 26.91100
H  40.75900 9.33900 24.69700
H  43.57800 8.53300 25.08000
H  40.64400 7.31600 23.57400
H  41.14400 6.52600 25.00800
H  42.42800 7.14900 23.93300
H  42.63300 10.36100 23.50200
H  44.21200 10.45500 24.45800
H  43.54000 12.56600 24.83900
H  42.21100 11.91600 25.83300
H  42.00800 12.50000 24.19000
H  47.33300 11.40400 28.31100
H  46.83900 12.78700 29.23200
H  46.17100 12.36800 27.65400
H  43.94000 11.76500 33.55400
H  46.31900 9.64600 36.52100
H  44.96600 8.54800 36.27600
H  44.70600 9.83100 37.42200
Mg 48.65400 45.15800 43.70100
C  45.60700 46.18500 42.19300
C  48.54600 42.26500 41.96500
C  51.83300 44.95900 44.33300
C  48.80900 48.60200 44.86000
N  47.13800 44.37500 42.37000
C  46.04100 44.91700 41.85800
C  45.40600 44.00000 40.90000
C  46.27000 42.69800 41.00800
C  47.44200 43.11900 41.87000
C  45.51100 41.41500 41.59100
C  45.35100 44.46600 39.39600
C  44.00200 44.19600 38.65600
H  44.07600 43.06700 37.60200
N  49.93200 43.71900 43.30300
C  49.70300 42.55200 42.59900
C  50.91600 41.82200 42.48600
C  51.93000 42.55100 43.20800
C  51.25300 43.87200 43.62100
C  51.03800 40.64100 41.61500
C  53.33300 42.03700 43.49400
O  53.72300 40.95800 43.06300
C  54.42200 42.77500 44.14100
N  50.17300 46.60800 44.53400
C  51.44800 46.23200 44.65900
C  52.38600 47.39300 45.03300
C  51.39400 48.59100 45.36200
C  50.02600 47.92400 44.83400
C  53.47600 47.11300 46.19200
C  51.67200 49.99800 44.68200
C  51.41400 51.17500 45.68700
N  47.44300 46.93300 43.75800
C  47.65600 48.19100 44.26600
C  46.51700 49.04700 44.03200
C  45.68900 48.25100 43.25400
C  46.25400 46.99400 43.11600
C  46.27300 50.45400 44.48000
C  44.41300 48.24200 42.54800
O  43.60600 49.20000 42.51600
C  44.36400 46.95500 41.73100
C  43.01900 46.31200 42.04900
O  42.79700 45.53200 42.91800
O  42.12900 46.59800 41.02800
C  40.92300 45.75800 41.06500
H  48.51800 41.31000 41.43600
H  52.91700 44.90800 44.45400
H  48.76800 49.62500 45.23900
H  44.38000 43.90800 41.25600
H  46.62600 42.48400 40.00100
H  44.43200 41.41100 41.43400
H  45.72600 41.36200 42.65800
H  45.71300 40.47300 41.08200
H  46.16600 44.07100 38.78900
H  45.44500 45.55200 39.37900
H  43.69600 45.14500 38.21500
H  43.10700 43.92200 39.21500
H  51.11100 40.93900 40.56900
H  50.13500 40.03900 41.70500
H  51.77600 39.85200 41.76100
H  54.14400 43.08500 45.14800
H  54.49300 43.68600 43.54700
H  55.38200 42.26100 44.09600
H  52.96500 47.67900 44.15500
H  51.28200 48.62900 46.44600
H  54.52000 47.16600 45.88000
H  53.20000 46.12500 46.56100
H  53.37200 47.80800 47.02500
H  51.02000 50.27300 43.85300
H  52.69100 49.99400 44.29400
H  52.34100 51.74000 45.78500
H  51.25700 50.73600 46.67200
H  50.61900 51.83000 45.33100
H  46.47400 51.18600 43.69800
H  46.90900 50.60300 45.35400
H  45.21800 50.55200 44.73600
H  44.40300 47.31100 40.70200
H  40.38900 45.70200 42.01400
H  41.14600 44.70000 40.93000
H  40.20700 45.89800 40.25600

