158

Mg 29.88600 57.95300 38.81400
C  27.31800 55.65000 37.85400
C  32.11000 55.57800 38.30900
C  32.30800 60.34200 38.93300
C  27.41500 60.57700 38.29900
N  29.67700 55.87500 38.20200
C  28.59100 55.08000 37.95800
C  28.97500 53.62100 37.85500
C  30.45700 53.58100 38.27100
C  30.79900 55.12700 38.22100
C  30.92600 52.97300 39.61500
C  28.61800 52.99900 36.42700
C  29.07000 53.79300 35.25800
H  28.05000 54.13500 34.14400
N  31.97100 57.92900 38.86700
C  32.67900 56.83500 38.59400
C  34.11300 57.12100 38.61500
C  34.23900 58.53600 38.83000
C  32.81700 59.02400 38.92200
C  35.13000 56.12400 38.46600
C  35.57500 59.31300 38.83800
O  36.68000 58.79000 38.73200
C  35.59400 60.77000 39.02700
N  29.93600 60.14700 38.48700
C  31.01700 60.85200 38.71200
C  30.80000 62.35100 38.66000
C  29.25400 62.44900 38.45800
C  28.83000 60.93700 38.47000
C  31.21800 63.21000 39.99000
C  28.69600 63.12000 37.14500
C  27.62200 64.19400 37.39200
N  27.75200 58.13800 38.29100
C  26.89200 59.20900 38.15900
C  25.56700 58.72200 37.78300
C  25.72900 57.36900 37.65100
C  27.04100 57.02900 38.04000
C  24.34900 59.52700 37.53800
C  24.95600 56.16000 37.41300
O  23.79700 55.96800 37.07800
C  25.99500 55.02500 37.60500
C  25.58400 54.08700 38.64400
O  25.59900 54.36700 39.82200
O  25.15000 52.88200 38.16800
C  25.02000 51.84300 39.16900
H  32.78500 54.77100 38.01600
H  33.11300 61.08000 38.95100
H  26.66500 61.36600 38.21400
H  28.32100 53.13400 38.57900
H  31.03500 53.14300 37.45700
H  31.47700 52.03700 39.52400
H  30.04600 52.73500 40.21200
H  31.56500 53.65500 40.17600
H  27.53700 52.85800 36.40700
H  29.15100 52.05000 36.37000
H  29.88600 53.25000 34.78000
H  29.58300 54.74500 35.39600
H  35.47900 55.98900 37.44200
H  34.73100 55.13100 38.67600
H  36.01100 56.30500 39.08200
H  35.08800 61.03100 39.95700
H  35.02100 61.36300 38.31500
H  36.62400 61.10000 39.16200
H  31.37600 62.59100 37.76600
H  28.80000 62.86800 39.35600
H  32.00500 62.66800 40.51500
H  30.34800 63.26900 40.64400
H  31.68400 64.14600 39.68200
H  28.34800 62.48700 36.32800
H  29.54100 63.67700 36.74300
H  26.64400 63.79300 37.12500
H  27.84300 65.13100 36.88000
H  27.55800 64.43700 38.45200
H  23.59500 59.26100 38.27900
H  24.03400 59.32500 36.51400
H  24.48500 60.60600 37.61000
H  26.15600 54.49600 36.66600
H  24.27800 52.13300 39.91300
H  25.95900 51.69300 39.70200
H  24.72600 50.90900 38.69000
Mg -5.03600 25.97400 25.95000
C  -3.99000 27.26500 28.91200
C  -6.87800 23.54900 27.69500
C  -5.80500 24.42100 23.11000
C  -2.94900 28.03000 24.27800
N  -5.28500 25.36400 28.04800
C  -4.87100 26.17400 29.10900
C  -5.46600 25.61300 30.43700
C  -6.09200 24.20600 30.06100
C  -6.11000 24.37500 28.47700
C  -5.33000 22.89100 30.45900
C  -6.38500 26.52500 31.19400
C  -6.38500 26.51400 32.80200
H  -5.64900 25.39400 33.53000
N  -6.32700 24.35900 25.48900
C  -6.97800 23.49700 26.30800
C  -7.87800 22.72300 25.54700
C  -7.47000 22.80700 24.17500
C  -6.55400 23.95000 24.21700
C  -8.77100 21.66700 26.14100
C  -7.87900 21.96700 22.91500
O  -7.20900 22.04400 21.91300
C  -9.01100 20.97100 23.00300
N  -4.55300 26.29300 23.98400
C  -4.90600 25.43600 23.00500
C  -4.24700 25.73700 21.61400
C  -3.51000 27.06900 21.96800
C  -3.74500 27.23000 23.48500
C  -3.33700 24.53900 21.10900
C  -3.94900 28.29300 21.12800
C  -3.12500 28.69500 19.91900
N  -3.61200 27.27600 26.46900
C  -2.86400 28.11800 25.71500
C  -2.09300 29.05800 26.46400
C  -2.54300 28.72500 27.76700
C  -3.47300 27.68700 27.70400
C  -1.21500 30.15600 25.97300
C  -2.52900 29.16500 29.14100
O  -2.04100 30.19000 29.62500
C  -3.42100 28.20900 29.95200
C  -2.54400 27.46700 30.89700
O  -1.80600 26.52800 30.57600
O  -2.70800 27.93200 32.16800
C  -1.84500 27.36500 33.21100
H  -7.38900 22.76500 28.25700
H  -5.82000 23.94100 22.12900
H  -2.41400 28.76500 23.67300
H  -4.66300 25.45600 31.15800
H  -7.12000 24.12000 30.41400
H  -5.30600 22.18300 29.63100
H  -5.91000 22.36300 31.21600
H  -4.27600 23.02300 30.70300
H  -7.44300 26.32900 31.02000
H  -6.20900 27.56300 30.91400
H  -7.43000 26.54500 33.11400
H  -5.97000 27.48900 33.05700
H  -8.23500 20.72100 26.06100
H  -9.63300 21.59900 25.47800
H  -9.06000 21.90800 27.16400
H  -9.19800 20.31900 22.14900
H  -9.95500 21.49400 23.16100
H  -8.68200 20.29400 23.79000
H  -5.10600 25.85000 20.95300
H  -2.44700 26.84900 21.87300
H  -3.66500 23.63500 21.62100
H  -2.27500 24.58300 21.34900
H  -3.61100 24.43400 20.05900
H  -3.97400 29.14300 21.81000
H  -5.02700 28.22000 20.98800
H  -3.92200 29.00700 19.24400
H  -2.51000 27.88600 19.52600
H  -2.48900 29.55400 20.13300
H  -1.91300 30.78200 25.41700
H  -0.39000 29.82000 25.34500
H  -0.88600 30.78900 26.79700
H  -4.22100 28.64500 30.55100
H  -0.80500 27.68200 33.14600
H  -1.98700 26.28600 33.15200
H  -2.17600 27.75400 34.17400

