158

Mg 29.74500 58.45800 39.69500
C  26.94900 56.44000 38.84500
C  31.75100 55.80100 38.66200
C  32.31600 60.49400 39.63300
C  27.52400 61.20800 39.84800
N  29.38600 56.50000 38.72700
C  28.20300 55.85300 38.52300
C  28.33400 54.42100 38.04900
C  29.75900 54.10800 38.54500
C  30.39800 55.58300 38.65500
C  29.90700 53.28600 39.82500
C  27.96700 54.09700 36.57400
C  26.66000 53.42900 36.33600
H  26.29300 53.14000 34.84500
N  31.76700 58.14100 39.36000
C  32.41300 56.97700 39.00700
C  33.83600 57.28500 38.88200
C  34.08700 58.62000 39.24200
C  32.69200 59.16400 39.46600
C  34.88500 56.32200 38.35200
C  35.42200 59.31500 39.32800
O  36.41700 58.64500 39.02600
C  35.56400 60.78800 39.63600
N  29.87400 60.58600 39.59700
C  31.05000 61.18100 39.76100
C  30.95000 62.69600 39.98000
C  29.40200 62.90900 39.73700
C  28.88300 61.45200 39.74000
C  31.40700 63.12000 41.40900
C  29.05100 63.54200 38.37300
C  27.84500 64.51500 38.35700
N  27.63900 58.75000 39.66300
C  26.88500 59.91100 39.74700
C  25.50200 59.54700 39.70200
C  25.49300 58.19800 39.33600
C  26.82500 57.78400 39.26800
C  24.43200 60.44600 40.15400
C  24.63200 57.09400 39.11800
O  23.43900 57.05800 39.16100
C  25.56400 55.91900 38.75900
C  25.25700 54.83400 39.58100
O  25.93400 54.55300 40.55500
O  24.11600 54.18500 38.98800
C  23.81200 52.99700 39.80400
H  32.37300 54.98400 38.28900
H  33.12300 61.23000 39.64600
H  26.77300 62.00100 39.85100
H  27.64200 53.79400 38.61000
H  30.25400 53.60100 37.71600
H  30.48600 53.89200 40.52200
H  30.42700 52.36500 39.56300
H  28.96500 53.04300 40.31700
H  28.71700 53.49000 36.06600
H  27.95600 55.03900 36.02700
H  25.80000 53.99500 36.69400
H  26.59000 52.47100 36.84900
H  35.55100 56.67700 37.56600
H  34.43800 55.38900 38.00900
H  35.50100 55.97500 39.18200
H  36.62900 60.98200 39.50600
H  35.31300 60.80000 40.69700
H  35.06800 61.42300 38.90200
H  31.45100 63.16800 39.13400
H  28.87500 63.40300 40.55400
H  30.57300 63.54400 41.96800
H  32.12300 63.93100 41.27100
H  31.84600 62.30200 41.98000
H  28.71100 62.80000 37.65100
H  29.93000 64.02500 37.94600
H  27.12400 64.20800 37.60000
H  28.22100 65.47500 38.00100
H  27.40700 64.59800 39.35100
H  24.57600 60.98000 41.09300
H  23.56300 59.79600 40.25500
H  24.19100 60.99000 39.24000
H  25.28700 55.73400 37.72100
H  23.23000 53.32300 40.66600
H  24.66200 52.34600 40.01100
H  23.23400 52.41500 39.08700
Mg 16.50400 51.66700 24.82200
C  18.01300 50.49000 27.70900
C  13.74000 52.60000 26.64500
C  14.80300 51.92500 21.94100
C  19.00000 50.03000 23.04100
N  15.90500 51.40400 26.99400
C  16.78400 51.07000 28.02600
C  16.17200 51.42700 29.37700
C  14.75800 51.93700 29.05800
C  14.75800 52.00200 27.47800
C  13.48500 51.15600 29.66500
C  17.12600 52.40100 30.13400
C  17.31900 52.30800 31.66100
H  16.53100 51.30700 32.50000
N  14.53400 52.26300 24.32900
C  13.53900 52.62100 25.25400
C  12.38900 52.95200 24.54400
C  12.64400 52.74200 23.16400
C  13.99300 52.28400 23.02400
C  11.12800 53.38200 25.26900
C  11.68800 52.91700 22.01700
O  12.05600 52.66700 20.86500
C  10.36400 53.59500 22.30100
N  16.83100 50.94900 22.80500
C  16.01100 51.34300 21.76800
C  16.58800 51.02300 20.40200
C  17.96600 50.53800 20.75200
C  17.98900 50.53700 22.25200
C  15.64000 50.05700 19.55500
C  19.22100 51.13900 20.06100
C  19.63500 52.55600 20.49800
N  18.19600 50.69700 25.24900
C  19.08100 50.06700 24.44200
C  20.12300 49.35300 25.11300
C  19.74000 49.50900 26.43200
C  18.61800 50.34200 26.47700
C  21.35500 48.77600 24.62500
C  20.04300 49.15800 27.80000
O  20.94900 48.52900 28.31300
C  18.94000 49.81500 28.69100
C  18.31300 48.67900 29.44700
O  17.27600 48.13400 29.22400
O  19.16600 48.31200 30.48700
C  18.83500 47.11400 31.29100
H  12.95900 53.03000 27.27500
H  14.31000 52.10000 20.98200
H  19.85900 49.54400 22.57500
H  16.02500 50.50600 29.94000
H  14.58100 52.93800 29.45000
H  12.82700 51.95900 29.99700
H  13.69100 50.41200 30.43500
H  13.00500 50.63100 28.83900
H  16.85300 53.40600 29.81300
H  18.12600 52.25700 29.72600
H  17.08300 53.29600 32.05600
H  18.35700 52.30900 31.99500
H  10.24700 52.89300 24.85400
H  11.12800 54.45600 25.08000
H  11.13700 53.07100 26.31300
H  10.52700 54.42000 22.99500
H  9.68700 52.81000 22.63900
H  9.92900 54.04900 21.41100
H  16.74700 51.96300 19.87300
H  17.87200 49.52200 20.36900
H  15.00500 50.49600 18.78500
H  14.87300 49.60800 20.18600
H  16.16500 49.33300 18.93200
H  19.05000 51.17900 18.98500
H  20.10600 50.54400 20.28300
H  19.67300 53.20700 19.62500
H  20.64100 52.45700 20.90600
H  18.91200 52.95900 21.20700
H  21.20600 48.10500 23.77900
H  21.99600 48.29200 25.36100
H  21.97300 49.51600 24.11600
H  19.32700 50.44900 29.48900
H  18.44900 46.26400 30.72700
H  18.13000 47.55300 31.99700
H  19.72700 46.83700 31.85200

