158

Mg 5.83400 55.93600 41.01800
C  3.28500 53.35500 41.10900
C  7.91700 53.47800 39.39500
C  8.10000 58.36200 40.38000
C  3.49400 58.21700 41.89200
N  5.57300 53.61500 40.28600
C  4.45000 52.85600 40.45900
C  4.66800 51.44700 39.78700
C  6.27700 51.47600 39.54800
C  6.62400 52.96100 39.69900
C  7.06000 50.65100 40.51900
C  3.89200 51.41000 38.35500
C  3.15900 50.16600 37.96600
H  3.71100 49.43900 36.78200
N  7.75000 55.91400 40.06800
C  8.42400 54.80200 39.53900
C  9.77600 55.25600 39.20600
C  9.80400 56.65300 39.36600
C  8.51800 57.03700 39.90100
C  10.90800 54.27000 38.99400
C  11.00900 57.58300 39.06400
O  12.03300 57.02000 38.58200
C  11.10100 59.02600 39.32500
N  5.73000 58.02700 40.95100
C  6.85600 58.81000 40.78800
C  6.53000 60.33200 40.99600
C  5.08100 60.24200 41.49000
C  4.73700 58.75000 41.51000
C  7.49500 60.92600 42.01200
C  4.02800 61.15100 40.74400
C  3.61900 62.45900 41.55600
N  3.86000 55.87400 41.59900
C  3.00600 56.85400 41.96700
C  1.76500 56.25400 42.38300
C  1.82600 54.92700 42.06500
C  3.10400 54.72600 41.46300
C  0.62400 57.03900 42.84800
C  1.15800 53.62500 42.09800
O  0.03500 53.39000 42.52900
C  2.07900 52.56400 41.52500
C  1.27000 51.89900 40.49700
O  0.98100 52.46900 39.48300
O  1.04600 50.57900 40.74600
C  0.19200 49.82600 39.78000
H  8.66200 52.82100 38.94100
H  8.82400 59.17900 40.33200
H  2.79600 58.95300 42.29600
H  4.29400 50.63400 40.40900
H  6.48200 51.34200 38.48600
H  7.52000 51.30100 41.26400
H  7.87000 50.08300 40.06300
H  6.41600 50.04100 41.15200
H  4.62800 51.62300 37.57900
H  3.21700 52.26400 38.30800
H  2.15000 50.37300 37.60900
H  3.01000 49.43100 38.75700
H  11.19200 54.12900 37.95200
H  10.76500 53.25700 39.37100
H  11.75900 54.63400 39.57000
H  11.96900 59.56200 38.94000
H  11.04000 59.30900 40.37600
H  10.27900 59.46800 38.76200
H  6.60000 60.90800 40.07300
H  4.99600 60.46500 42.55400
H  8.19600 60.19000 42.40500
H  6.90400 61.29800 42.84900
H  8.13500 61.72700 41.64000
H  3.16100 60.53200 40.51400
H  4.47500 61.49500 39.81200
H  4.32300 62.72000 42.34700
H  2.61500 62.40300 41.97500
H  3.51500 63.25400 40.81700
H  0.99700 57.91900 43.37000
H  0.06100 56.39600 43.52500
H  -0.01200 57.35600 42.02100
H  2.32500 51.95800 42.39700
H  -0.74000 50.25600 40.14700
H  0.09400 48.74500 39.88400
H  0.31400 50.05000 38.72000
Mg -11.96000 17.76800 40.48300
C  -8.82800 16.03300 40.10800
C  -10.16700 20.63700 39.48700
C  -14.82700 19.34500 39.86200
C  -13.52700 14.75000 40.95200
N  -9.74900 18.19300 39.67900
C  -8.67900 17.38000 39.72100
C  -7.39800 18.07700 39.09300
C  -7.86500 19.58500 39.08300
C  -9.36300 19.48300 39.43400
C  -7.15400 20.40100 40.21600
C  -7.01600 17.45800 37.70600
C  -5.62100 16.88000 37.44100
H  -5.61500 15.45400 36.89600
N  -12.40900 19.77600 39.91300
C  -11.54600 20.78900 39.58500
C  -12.33500 22.00400 39.52300
C  -13.75700 21.59700 39.48400
C  -13.71400 20.17200 39.74400
C  -11.67600 23.35500 39.35800
C  -14.93600 22.58400 39.34300
O  -14.75500 23.74700 38.97400
C  -16.35700 22.18100 39.67400
N  -13.87400 17.07700 40.40700
C  -14.88100 17.96100 40.10300
C  -16.21000 17.20400 39.99500
C  -15.87300 15.82900 40.74400
C  -14.33500 15.88400 40.72500
C  -17.34600 17.94400 40.61100
C  -16.40400 14.57200 39.98000
C  -17.02300 13.36200 40.79500
N  -11.33800 15.78300 40.59600
C  -12.08800 14.67900 40.85700
C  -11.24500 13.51200 40.93600
C  -9.94900 14.01500 40.66200
C  -10.04700 15.41100 40.45900
C  -11.64300 12.03700 41.21300
C  -8.55300 13.67200 40.70200
O  -8.05500 12.67500 41.13800
C  -7.75800 14.96400 40.18500
C  -6.77100 15.34100 41.26900
O  -7.09100 15.98400 42.28800
O  -5.49600 14.83300 40.93900
C  -4.45300 14.79300 41.97500
H  -9.60700 21.55500 39.29300
H  -15.79600 19.73900 39.55000
H  -14.13500 13.87100 41.17700
H  -6.47100 17.90200 39.63900
H  -7.78100 20.17600 38.17000
H  -6.22200 19.96100 40.56800
H  -7.69100 20.50300 41.15900
H  -6.85600 21.38000 39.84100
H  -7.25900 18.19700 36.94200
H  -7.74300 16.67900 37.47400
H  -4.86600 16.99000 38.21900
H  -5.21000 17.55700 36.69200
H  -10.86300 23.55000 40.05800
H  -12.40200 24.12800 39.61000
H  -11.28600 23.47300 38.34700
H  -16.70800 21.49200 38.90700
H  -16.99600 23.06100 39.74700
H  -16.45700 21.65500 40.62400
H  -16.50600 17.09800 38.95200
H  -16.23700 15.91300 41.76800
H  -17.13600 18.96800 40.91800
H  -17.75100 17.37900 41.45000
H  -18.21200 17.93200 39.94900
H  -15.53500 14.15000 39.47400
H  -17.00500 14.98400 39.16900
H  -16.98800 13.55900 41.86700
H  -16.52600 12.42600 40.53700
H  -17.98700 13.20800 40.31200
H  -12.42100 11.82200 40.48000
H  -12.01200 11.85900 42.22300
H  -10.85300 11.33700 40.93900
H  -7.25200 14.65800 39.26900
H  -4.94700 14.62900 42.93200
H  -3.86100 15.69900 41.83900
H  -3.88300 13.91800 41.66200

