158

Mg 0.27700 8.56900 26.46100
C  1.12100 10.50300 29.29000
C  -0.03200 5.82300 28.62300
C  -0.18100 6.55500 23.81700
C  1.16600 11.16100 24.39400
N  0.62000 8.20700 28.73400
C  0.83500 9.13700 29.66100
C  0.76600 8.58600 31.11700
C  0.65800 7.02800 30.87800
C  0.35900 6.98700 29.34200
C  1.96500 6.25400 31.33900
C  -0.50500 9.05100 31.88600
C  -0.17700 9.49700 33.33000
H  1.02100 8.94700 34.13500
N  -0.15700 6.45700 26.26700
C  -0.24500 5.54900 27.27400
C  -0.48900 4.24100 26.69300
C  -0.68500 4.47800 25.29700
C  -0.30100 5.85000 25.04100
C  -0.57200 2.97700 27.45300
C  -1.18800 3.46500 24.23000
O  -1.30500 3.83900 23.05100
C  -1.62300 2.13200 24.58300
N  0.47900 8.87300 24.50500
C  0.18200 7.90000 23.57000
C  0.51900 8.34700 22.15900
C  0.82500 9.90300 22.40000
C  0.82200 9.99700 23.85700
C  1.68800 7.57100 21.54000
C  -0.11100 10.95600 21.68700
C  -1.38500 11.43300 22.46200
N  1.17700 10.44000 26.76800
C  1.39200 11.41500 25.82700
C  1.77900 12.66500 26.51700
C  1.79900 12.36500 27.85000
C  1.36200 10.97600 27.92600
C  2.06400 13.96900 25.93200
C  1.87200 12.89400 29.20600
O  2.10400 13.97900 29.63000
C  1.48500 11.72200 30.18800
C  2.67500 11.57600 31.28200
O  3.54900 10.71700 31.23300
O  2.43100 12.49400 32.29600
C  3.42600 12.56200 33.33600
H  -0.10200 4.97600 29.30900
H  -0.66300 6.05000 22.97700
H  1.36400 11.94700 23.66300
H  1.67900 8.92300 31.60700
H  -0.17900 6.48400 31.31600
H  2.72100 7.01500 31.53400
H  2.39700 5.51500 30.66500
H  1.57300 5.73400 32.21300
H  -1.25400 8.26100 31.93800
H  -1.04300 9.84500 31.36800
H  -1.03500 9.38400 33.99300
H  -0.00300 10.57200 33.27800
H  -0.28600 2.95600 28.50500
H  0.17300 2.28200 27.06400
H  -1.57000 2.54500 27.38200
H  -0.89000 1.45000 25.01300
H  -2.14100 1.80100 23.68200
H  -2.39100 2.36400 25.32100
H  -0.32100 8.37400 21.46600
H  1.80900 10.18000 22.02300
H  2.61100 7.72500 22.10000
H  1.94600 7.87600 20.52600
H  1.40700 6.51900 21.49500
H  -0.50400 10.49900 20.77800
H  0.51800 11.82200 21.48600
H  -1.50200 11.07700 23.48500
H  -2.36600 11.27200 22.01300
H  -1.30500 12.51300 22.58400
H  1.56900 13.97800 24.96100
H  3.09300 13.93300 25.57600
H  1.78500 14.87800 26.46500
H  0.62400 11.96500 30.81100
H  4.30900 13.12300 33.02800
H  3.70400 11.62200 33.81200
H  2.97900 13.18100 34.11400
Mg 26.21200 0.61700 28.85300
C  28.26700 0.35000 31.84900
C  23.42800 0.68600 30.81600
C  24.48100 0.68600 26.03500
C  29.21200 -0.09000 26.98500
N  25.91300 0.43400 31.11700
C  26.87600 0.46600 32.07800
C  26.21600 0.57100 33.42700
C  24.61200 0.64200 33.11800
C  24.61600 0.55300 31.58000
C  23.88200 -0.39800 33.99900
C  26.78900 1.67300 34.25100
C  27.24200 1.32700 35.72700
H  26.71300 2.27600 36.83900
N  24.27000 0.74100 28.48600
C  23.25400 0.73700 29.43500
C  21.98900 0.89200 28.75400
C  22.23800 0.82300 27.32800
C  23.73000 0.73400 27.22300
C  20.73400 1.04900 29.50200
C  21.22600 0.80900 26.20700
O  21.50900 0.54000 25.06500
C  19.73800 1.09800 26.50500
N  26.74800 0.29100 26.76800
C  25.83600 0.51400 25.74300
C  26.49700 0.84200 24.43100
C  27.99200 0.59600 24.73300
C  28.02400 0.27700 26.24700
C  25.93500 -0.02100 23.29900
C  28.86700 1.77700 24.38300
C  29.53700 1.58400 23.01500
N  28.23400 0.11600 29.26500
C  29.30400 -0.14100 28.40800
C  30.50600 -0.33500 29.13800
C  30.20100 -0.16200 30.49900
C  28.77800 0.15700 30.50900
C  31.89700 -0.59500 28.51800
C  30.70100 -0.14300 31.78900
O  31.83700 -0.27100 32.27400
C  29.42800 0.15500 32.79800
C  29.20400 -1.07000 33.71800
O  28.77600 -2.17100 33.38500
O  29.67300 -0.83300 35.00300
C  29.14500 -1.82500 35.96700
H  22.52800 0.81100 31.42300
H  23.88200 0.95200 25.16200
H  30.10500 -0.16200 26.36200
H  26.45400 -0.39200 33.87800
H  24.24000 1.62900 33.39300
H  24.53000 -0.71700 34.81500
H  23.62300 -1.32600 33.48900
H  22.98400 0.04900 34.42500
H  26.00300 2.42400 34.33000
H  27.64400 2.14500 33.76700
H  28.32800 1.31400 35.64400
H  26.82800 0.33400 35.90300
H  20.80300 1.44200 30.51600
H  20.24000 0.07700 29.49300
H  19.98400 1.61900 28.95300
H  19.13500 1.06200 25.59800
H  19.68000 2.08200 26.97000
H  19.32200 0.32200 27.14800
H  26.20700 1.89200 24.38500
H  28.24600 -0.34400 24.24400
H  25.46300 -0.94300 23.63700
H  26.70300 -0.44800 22.65400
H  25.25200 0.53900 22.66000
H  29.67300 1.92200 25.10300
H  28.29600 2.70500 24.37000
H  29.30000 2.44300 22.38600
H  29.25800 0.67700 22.47800
H  30.61700 1.63900 23.15200
H  32.70900 -0.35300 29.20400
H  32.07100 -0.22200 27.50900
H  31.77200 -1.66200 28.33300
H  29.80300 0.91500 33.48300
H  29.66200 -1.52000 36.87700
H  29.31600 -2.87500 35.72700
H  28.07700 -1.62800 36.05700

