158

Mg 49.51400 46.86500 43.18000
C  46.21000 47.30600 42.18900
C  49.47400 43.78200 41.51100
C  52.82500 46.75700 43.29700
C  49.47300 49.98600 44.62000
N  47.95100 45.62800 42.06000
C  46.70300 46.02800 41.68000
C  45.97100 44.88600 40.89400
C  46.97500 43.71200 41.07600
C  48.24900 44.41500 41.64300
C  46.51900 42.47400 41.95600
C  45.61300 45.35000 39.41900
C  44.20400 45.01700 39.03200
H  43.87100 44.09700 37.82200
N  50.99700 45.49100 42.47100
C  50.81500 44.30100 41.80700
C  52.06700 43.67400 41.56600
C  53.08300 44.48400 42.06800
C  52.33400 45.65200 42.65500
C  52.26800 42.25900 40.83100
C  54.58600 44.16900 42.09600
O  55.05000 43.21500 41.46500
C  55.57100 44.99300 42.82100
N  50.94700 48.10500 44.03000
C  52.28600 47.91300 43.88200
C  53.04900 49.00600 44.67300
C  51.89100 49.87000 45.23300
C  50.70200 49.29500 44.60300
C  54.07000 48.40400 45.76500
C  52.01400 51.45100 45.24100
C  53.30700 52.16100 45.72800
N  48.18500 48.33500 43.39100
C  48.25700 49.58400 43.97800
C  47.00600 50.28500 43.86400
C  46.18900 49.41000 43.15300
C  46.89900 48.22700 42.97200
C  46.77900 51.76100 44.30400
C  44.86600 49.26400 42.63500
O  43.90700 50.00700 42.70000
C  44.83200 47.87300 41.98000
C  43.75600 47.05300 42.67400
O  43.88800 46.38200 43.70500
O  42.53600 47.02300 41.97300
C  41.45100 46.18400 42.48800
H  49.54400 42.76300 41.12500
H  53.91000 46.86700 43.35500
H  49.33400 50.92600 45.15700
H  45.13500 44.70000 41.56900
H  47.27300 43.29700 40.11300
H  46.71900 41.59200 41.34700
H  45.47800 42.65200 42.22600
H  47.07700 42.30000 42.87600
H  46.23700 44.87900 38.66000
H  45.69800 46.43500 39.48500
H  43.52600 45.86700 38.96000
H  43.84700 44.37000 39.83200
H  52.70700 42.30900 39.83400
H  51.32800 41.71100 40.89200
H  53.01500 41.75100 41.44200
H  56.48500 44.40900 42.92800
H  55.21300 45.19000 43.83100
H  55.84600 45.90800 42.29600
H  53.69300 49.50400 43.94800
H  51.72900 49.56100 46.26600
H  53.57900 47.50600 46.14000
H  54.18600 49.05600 46.63100
H  55.04800 48.16800 45.34600
H  51.20300 51.88500 45.82700
H  51.81900 51.70100 44.19800
H  54.12100 51.49600 46.01400
H  53.11200 52.93900 46.46600
H  53.57000 52.65300 44.79100
H  47.68400 52.08400 44.81900
H  45.93000 52.06200 44.91900
H  46.68400 52.36400 43.40100
H  44.60600 48.03100 40.92600
H  41.65600 45.11900 42.38000
H  40.57100 46.50500 41.93000
H  41.28100 46.35600 43.55000
Mg 1.44700 42.71600 24.70400
C  2.40600 42.87600 27.98300
C  -1.69200 41.56400 25.73400
C  0.63100 41.78500 21.44900
C  4.60300 43.50400 23.59400
N  0.53600 42.15700 26.68700
C  1.03900 42.50300 27.87100
C  -0.04800 42.30400 28.93000
C  -1.28700 41.80000 28.16500
C  -0.80300 41.76300 26.81000
C  -1.79600 40.37900 28.64300
C  -0.20200 43.59900 29.73800
C  -0.49300 43.38600 31.24300
H  -1.08600 42.05100 31.76600
N  -0.30200 41.93200 23.70900
C  -1.45200 41.56400 24.33900
C  -2.46000 41.25100 23.36600
C  -1.82300 41.35800 22.06800
C  -0.44700 41.72700 22.34500
C  -3.93300 40.92300 23.74700
C  -2.37100 41.18200 20.68400
O  -1.71700 41.24600 19.66500
C  -3.83000 40.67800 20.59500
N  2.43900 42.64500 22.76800
C  1.94600 42.17900 21.65600
C  3.05800 42.03100 20.55400
C  4.16400 43.04200 21.11400
C  3.70400 43.16500 22.55000
C  3.50400 40.56700 20.47700
C  4.13700 44.46100 20.54900
C  4.92300 44.59700 19.23000
N  3.21600 43.06100 25.59700
C  4.42500 43.39700 25.08200
C  5.29200 43.68600 26.17200
C  4.57800 43.50200 27.35000
C  3.32600 43.09800 26.92300
C  6.68600 44.15600 26.13500
C  4.68200 43.50100 28.85100
O  5.56500 43.73900 29.66700
C  3.23000 43.00400 29.28000
C  3.42000 41.70200 30.01100
O  4.51600 41.03600 30.01800
O  2.36000 41.27300 30.78600
C  2.42000 40.17500 31.71500
H  -2.68400 41.33900 26.13100
H  0.47800 41.35600 20.45700
H  5.51700 43.85000 23.10700
H  0.30000 41.50900 29.58900
H  -2.06400 42.54100 28.35300
H  -1.48200 39.65700 27.89000
H  -2.87900 40.46200 28.73200
H  -1.34100 40.05800 29.58000
H  -1.00600 44.21900 29.34000
H  0.64500 44.28000 29.64900
H  -1.05000 44.28300 31.51500
H  0.45200 43.47100 31.77900
H  -4.59600 41.72300 23.41600
H  -4.09300 40.74400 24.81000
H  -4.20700 39.98500 23.26300
H  -4.19200 40.82200 19.57700
H  -4.58500 41.13300 21.23700
H  -3.80900 39.59800 20.74100
H  2.64400 42.26000 19.57200
H  5.18000 42.64900 21.15000
H  4.47900 40.49800 20.95900
H  3.55100 40.30700 19.41900
H  2.85500 39.83900 20.96400
H  4.66400 44.99300 21.34200
H  3.12500 44.86000 20.48800
H  4.97700 45.63600 18.90500
H  4.65000 43.96000 18.38900
H  5.94300 44.30900 19.48300
H  7.36400 43.35000 25.85500
H  6.91100 44.72800 27.03400
H  6.76400 44.72100 25.20600
H  2.65500 43.68400 29.90800
H  2.46500 39.24400 31.15100
H  1.39500 40.08800 32.07400
H  3.19600 40.35900 32.45800

