158

Mg -1.97400 17.04500 26.18700
C  -2.06000 14.69600 28.87800
C  -2.77300 19.42300 28.51400
C  -1.80500 19.12100 23.67900
C  -2.10900 14.36800 23.90300
N  -2.43400 16.98700 28.39000
C  -2.33700 15.99500 29.31400
C  -2.64900 16.46400 30.77500
C  -3.30900 17.84900 30.52500
C  -2.86700 18.14800 29.04200
C  -4.89300 17.64200 30.59100
C  -1.27400 16.53200 31.59400
C  -1.29400 15.79900 32.92600
H  -1.68100 16.67500 33.98700
N  -2.16100 18.98100 26.14600
C  -2.44900 19.81900 27.22700
C  -2.33500 21.20800 26.76400
C  -1.95700 21.17200 25.33100
C  -1.92200 19.74000 24.97900
C  -2.51500 22.32600 27.68000
C  -1.75800 22.29400 24.29200
O  -1.55300 22.09300 23.09300
C  -1.58600 23.67300 24.79500
N  -2.23200 16.71300 24.01700
C  -2.00500 17.82300 23.24200
C  -2.11300 17.40100 21.73400
C  -2.33000 15.84900 21.82200
C  -2.20300 15.59100 23.33600
C  -3.12000 18.12700 20.85400
C  -1.15700 15.15800 21.06400
C  0.28800 15.11900 21.68500
N  -2.05900 14.98600 26.26700
C  -1.93300 14.02700 25.26400
C  -1.80300 12.70000 25.84000
C  -1.83100 12.90400 27.24300
C  -2.04200 14.31000 27.48800
C  -1.79000 11.39200 25.14900
C  -1.76800 12.25600 28.49500
O  -1.57400 11.10400 28.81600
C  -2.00000 13.38200 29.58800
C  -0.93800 13.15100 30.67400
O  0.24100 13.43200 30.53700
O  -1.47100 12.57100 31.74100
C  -0.70000 12.37200 32.96900
H  -2.94800 20.16900 29.29200
H  -1.72600 19.81000 22.83500
H  -2.09500 13.59400 23.13300
H  -3.29700 15.75600 31.29200
H  -2.96200 18.64200 31.18800
H  -5.26500 18.47300 31.19100
H  -5.18400 16.81000 31.23100
H  -5.35900 17.55700 29.61000
H  -1.02800 17.54800 31.90400
H  -0.39700 16.25600 31.00800
H  -0.33200 15.38000 33.21800
H  -2.02100 14.98700 32.89100
H  -2.98500 22.20600 28.65500
H  -3.08400 23.00900 27.04900
H  -1.55800 22.82600 27.82900
H  -0.79500 23.60100 25.54200
H  -2.50700 23.98300 25.29000
H  -1.27500 24.31000 23.96700
H  -1.13600 17.66400 21.32900
H  -3.29100 15.46100 21.48300
H  -2.45900 18.57000 20.10900
H  -3.77900 18.83500 21.35800
H  -3.66700 17.42600 20.22400
H  -0.93200 15.71300 20.15400
H  -1.47800 14.21600 20.62000
H  0.36000 15.52600 22.69400
H  1.02500 15.65100 21.08300
H  0.67800 14.10100 21.70400
H  -1.31000 11.41800 24.17100
H  -2.80400 11.06500 24.92000
H  -1.32200 10.62200 25.76300
H  -2.93800 13.40600 30.14300
H  -0.48200 11.30700 33.03700
H  -1.16300 12.80600 33.85500
H  0.30700 12.79000 32.94000
Mg 8.54600 47.64600 25.01100
C  6.52400 47.59800 27.93000
C  11.17100 48.45800 27.02700
C  10.43900 47.66500 22.28900
C  5.69700 47.59400 23.03700
N  8.76400 48.12100 27.17000
C  7.84200 48.02200 28.21000
C  8.39900 48.53100 29.54200
C  9.77600 49.18800 29.04900
C  9.97900 48.51100 27.68800
C  9.84100 50.72800 28.95200
C  8.67300 47.30500 30.51800
C  9.04100 47.58400 31.96300
H  8.81300 46.52500 32.99500
N  10.51500 47.94200 24.68100
C  11.41900 48.16800 25.67100
C  12.73900 48.13300 25.05600
C  12.60800 47.80600 23.69300
C  11.13400 47.72900 23.49700
C  14.03600 48.42800 25.80000
C  13.69400 47.67000 22.55800
O  13.38500 47.49300 21.42200
C  15.10900 47.69400 22.87700
N  8.13400 47.48900 22.99300
C  9.08000 47.66000 22.04800
C  8.53200 47.74000 20.62400
C  7.07200 47.70100 20.90000
C  6.93100 47.52600 22.38400
C  9.09700 48.88000 19.70300
C  6.25400 46.60000 20.07600
C  6.12500 46.76300 18.53400
N  6.52500 47.53800 25.36700
C  5.52800 47.46100 24.45400
C  4.32700 47.27100 25.20700
C  4.66100 47.38000 26.57200
C  5.98400 47.54200 26.63100
C  2.99700 47.12500 24.71200
C  4.08800 47.25300 27.84000
O  2.95500 47.09800 28.14800
C  5.27400 47.30200 28.81800
C  5.33800 46.15500 29.73500
O  6.17800 45.24800 29.55000
O  4.57500 46.27900 30.81800
C  4.65800 45.19900 31.79000
H  11.96000 48.86500 27.66300
H  11.10500 47.50700 21.43800
H  4.82200 47.60600 22.38400
H  7.70000 49.28400 29.90500
H  10.56300 48.87700 29.73500
H  9.92800 51.08100 29.98000
H  8.86100 51.05400 28.60400
H  10.62200 51.10200 28.29100
H  9.43600 46.69700 30.03200
H  7.82800 46.61700 30.47600
H  8.52600 48.47300 32.32700
H  10.10100 47.81600 31.86100
H  14.39000 49.39500 25.44200
H  14.78900 47.64400 25.71900
H  13.84300 48.56800 26.86400
H  15.52700 48.66700 23.13700
H  15.75600 47.43100 22.04000
H  15.36500 47.00200 23.67900
H  8.80500 46.72700 20.33100
H  6.63800 48.68400 20.71600
H  9.79000 49.43400 20.33600
H  8.24100 49.51500 19.47300
H  9.48500 48.40700 18.80200
H  5.26200 46.50600 20.51800
H  6.78500 45.65200 20.16000
H  6.74900 47.58600 18.18300
H  5.09000 46.97600 18.26900
H  6.44600 45.81400 18.10400
H  2.89900 46.60800 23.75700
H  2.73700 48.17600 24.58400
H  2.51700 46.49600 25.46200
H  5.05600 48.19100 29.41000
H  4.56700 45.58500 32.80500
H  5.45800 44.46200 31.72300
H  3.77300 44.58600 31.61600

