158

Mg 25.00700 -6.38500 47.73800
C  26.23600 -3.56500 46.08000
C  22.13700 -6.20000 45.55600
C  24.15800 -9.38600 48.59200
C  28.00600 -6.65800 49.34700
N  24.34600 -5.15300 45.99700
C  25.00100 -3.99500 45.58000
C  24.28300 -3.29900 44.36700
C  22.87300 -3.95300 44.51200
C  23.10800 -5.15200 45.39100
C  21.68500 -3.07800 44.95300
C  25.04000 -3.66200 43.05000
C  25.48500 -2.44800 42.18100
H  24.72100 -2.35800 40.83000
N  23.31300 -7.59600 47.19000
C  22.25600 -7.35800 46.39400
C  21.27400 -8.42500 46.51100
C  21.81700 -9.39900 47.43100
C  23.21100 -8.86800 47.74300
C  19.98100 -8.45800 45.68500
C  21.11200 -10.63100 47.93600
O  20.00200 -10.80600 47.51700
C  21.66000 -11.61500 49.01800
N  25.95600 -7.84600 48.86400
C  25.37800 -8.99900 49.12900
C  26.26600 -9.97200 50.01500
C  27.54700 -9.02900 50.22400
C  27.21200 -7.78900 49.39700
C  25.56300 -10.35600 51.29900
C  28.87400 -9.78100 49.85900
C  29.34400 -9.85800 48.39300
N  26.80300 -5.34700 47.83900
C  27.82800 -5.50600 48.63800
C  28.66500 -4.34000 48.53200
C  28.11100 -3.54600 47.48700
C  26.94900 -4.23200 47.08400
C  29.98000 -4.17400 49.22300
C  28.20300 -2.38200 46.59800
O  29.11700 -1.54000 46.52300
C  26.90900 -2.32200 45.81200
C  26.00500 -1.24700 46.44700
O  26.27000 -0.01600 46.27600
O  24.92700 -1.70600 47.21500
C  24.05500 -0.75500 47.81900
H  21.27200 -6.09900 44.89800
H  23.86700 -10.41900 48.79500
H  28.93300 -6.66400 49.92500
H  24.16100 -2.22300 44.49100
H  22.60000 -4.25200 43.50000
H  21.74900 -1.99300 44.87600
H  21.52500 -3.28400 46.01100
H  20.78800 -3.38700 44.41600
H  24.39700 -4.24900 42.39400
H  25.88800 -4.29900 43.30000
H  26.55600 -2.42800 41.97700
H  25.27000 -1.49600 42.66500
H  19.74500 -9.43500 45.26200
H  20.17000 -7.85100 44.79900
H  19.14800 -8.06900 46.27000
H  22.50400 -12.14300 48.57500
H  20.92500 -12.37900 49.27100
H  21.88100 -11.02300 49.90600
H  26.50500 -10.81900 49.37200
H  27.55000 -8.72700 51.27100
H  24.72000 -9.75700 51.64600
H  26.23700 -10.42200 52.15400
H  25.29700 -11.40100 51.14200
H  28.67700 -10.79500 50.20800
H  29.69600 -9.35600 50.43600
H  30.35900 -9.49400 48.24000
H  28.66600 -9.27300 47.77200
H  29.27300 -10.89900 48.07600
H  29.79000 -4.32900 50.28500
H  30.44900 -3.19500 49.12800
H  30.66200 -4.98300 48.95700
H  27.14600 -2.12400 44.76700
H  23.56300 -1.19400 48.68700
H  23.22800 -0.50700 47.15200
H  24.51700 0.16700 48.17100
Mg -4.32800 24.82100 25.99300
C  -2.93800 26.69300 28.52400
C  -5.60600 22.56400 28.30400
C  -5.27900 22.84900 23.53300
C  -2.87800 27.02500 23.68800
N  -4.21200 24.62200 28.06600
C  -3.67900 25.58400 28.94500
C  -4.17100 25.32500 30.38500
C  -4.70200 23.81900 30.27800
C  -4.88500 23.66500 28.77500
C  -3.69600 22.80400 30.94300
C  -5.25600 26.39500 30.83100
C  -5.04600 26.92500 32.24900
H  -4.38600 25.97000 33.30100
N  -5.32800 22.97900 25.96500
C  -5.80000 22.18800 26.99800
C  -6.38900 20.98700 26.45300
C  -6.47100 21.17400 25.03900
C  -5.68100 22.36100 24.76800
C  -6.90500 19.83400 27.35000
C  -7.16500 20.27900 24.01600
O  -7.16800 20.48900 22.79700
C  -7.97000 19.08300 24.57600
N  -4.14300 24.92300 23.99700
C  -4.64400 23.99800 23.18700
C  -4.68600 24.47500 21.72600
C  -4.00400 25.83800 21.77600
C  -3.60100 25.97400 23.20800
C  -4.10400 23.46100 20.70600
C  -4.89600 27.05500 21.26600
C  -4.29000 27.89000 20.14100
N  -3.21700 26.60500 26.05200
C  -2.63400 27.32100 25.03200
C  -1.81700 28.37200 25.55900
C  -1.90200 28.19700 26.98600
C  -2.74000 27.07000 27.19500
C  -1.00100 29.47700 24.88100
C  -1.47500 28.69700 28.28400
O  -0.73600 29.61500 28.56900
C  -2.18800 27.71200 29.28700
C  -1.04400 27.16300 30.17600
O  -0.20800 26.29400 29.93800
O  -1.03900 27.88500 31.26000
C  -0.10000 27.55400 32.31200
H  -5.89500 21.88200 29.10700
H  -5.56500 22.21400 22.69200
H  -2.47600 27.78200 23.01000
H  -3.34600 25.47400 31.08100
H  -5.69800 23.91200 30.71100
H  -4.28800 22.36100 31.74500
H  -2.93300 23.44600 31.38300
H  -3.16300 22.05400 30.35900
H  -6.27700 26.02800 30.93500
H  -5.23000 27.20000 30.09700
H  -6.01500 26.98000 32.74600
H  -4.44100 27.83100 32.25800
H  -7.98300 19.72300 27.22800
H  -6.73900 19.90200 28.42500
H  -6.40300 18.95200 26.95200
H  -7.20200 18.41000 24.95700
H  -8.45600 18.70200 23.67800
H  -8.78000 19.38900 25.23900
H  -5.76600 24.55900 21.60400
H  -3.09800 25.86900 21.17100
H  -3.92400 22.47700 21.13800
H  -3.16700 23.75000 20.22900
H  -4.89700 23.08800 20.05900
H  -5.28300 27.73800 22.02200
H  -5.75000 26.60100 20.76300
H  -3.37900 27.53100 19.66200
H  -3.95600 28.85700 20.51500
H  -5.04500 28.01400 19.36500
H  -0.08100 29.04700 24.48400
H  -0.82100 30.23000 25.64800
H  -1.58200 29.88200 24.05300
H  -2.90400 28.22600 29.92900
H  0.86000 28.03000 32.10700
H  0.12800 26.48900 32.26500
H  -0.39900 27.58400 33.35900

