158

Mg 2.50500 -2.38300 44.33100
C  5.93500 -1.80700 43.60100
C  1.73900 0.19700 42.06200
C  -0.68700 -3.39800 44.25300
C  3.54100 -5.35200 45.78500
N  3.72400 -1.19700 42.79600
C  5.07400 -0.90300 42.95600
C  5.46100 0.33000 42.07800
C  4.09200 0.95100 41.68800
C  3.11400 -0.03800 42.24200
C  3.93300 2.41400 42.13100
C  6.28800 -0.01100 40.82400
C  7.52800 0.85700 40.39900
H  7.55700 1.65400 39.01600
N  0.72300 -1.55600 43.38000
C  0.61400 -0.53100 42.52500
C  -0.78600 -0.30500 42.25500
C  -1.52300 -1.41000 42.82300
C  -0.47300 -2.17400 43.50000
C  -1.21200 0.91700 41.40200
C  -3.03400 -1.61900 42.67800
O  -3.78800 -0.95500 42.01900
C  -3.62200 -2.78200 43.48800
N  1.63300 -4.14600 44.85400
C  0.27900 -4.34900 44.78700
C  -0.21800 -5.55000 45.71800
C  1.17800 -6.30400 45.68900
C  2.20600 -5.20600 45.52600
C  -0.52600 -5.09400 47.17800
C  1.30000 -7.39200 44.65600
C  1.23700 -8.82600 45.27200
N  4.35900 -3.39800 44.77200
C  4.57100 -4.51300 45.51400
C  5.96800 -4.71400 45.71200
C  6.57300 -3.54900 45.09300
C  5.51600 -2.91500 44.42000
C  6.74400 -5.81400 46.43600
C  7.81300 -2.85800 44.80400
O  8.96000 -3.12300 45.08500
C  7.43600 -1.78100 43.76800
C  8.03700 -0.50800 44.20100
O  7.98000 0.01700 45.27900
O  8.93400 -0.07300 43.24300
C  9.61800 1.18000 43.68900
H  1.38700 1.13200 41.62100
H  -1.68700 -3.80600 44.41600
H  3.87100 -6.21700 46.36300
H  6.09400 0.90200 42.75600
H  3.86400 1.01500 40.62400
H  4.66000 2.79100 42.85000
H  3.09300 2.54100 42.81500
H  3.76500 3.06200 41.27100
H  5.73000 0.04700 39.88900
H  6.46000 -1.08300 40.92200
H  8.23000 0.02500 40.34600
H  7.87800 1.45500 41.24000
H  -0.76100 0.68900 40.43600
H  -0.69200 1.79200 41.79400
H  -2.28900 1.08100 41.37600
H  -4.69500 -2.83200 43.30300
H  -3.54100 -2.62000 44.56200
H  -3.06000 -3.65100 43.14400
H  -0.83900 -6.28500 45.20600
H  1.44400 -6.86200 46.58700
H  0.12000 -4.23800 47.37200
H  -0.19000 -5.96000 47.74900
H  -1.58600 -4.85000 47.23400
H  2.16600 -7.16700 44.03300
H  0.49900 -7.29300 43.92300
H  0.36100 -9.34500 44.88400
H  1.07500 -8.81000 46.35000
H  2.04900 -9.48800 44.96900
H  6.09500 -6.46900 47.01800
H  7.47200 -5.40600 47.13700
H  7.34400 -6.38800 45.73000
H  8.02100 -2.06300 42.89200
H  10.20100 1.07600 44.60400
H  8.90600 2.00200 43.75900
H  10.33000 1.32700 42.87800
Mg 17.12800 -2.19300 28.11700
C  15.88200 -0.03100 30.44800
C  19.06800 -3.60400 30.58300
C  18.81900 -3.93500 25.90800
C  15.64200 -0.37800 25.67400
N  17.57100 -1.73100 30.20400
C  16.75300 -0.97200 30.96700
C  17.04800 -1.14800 32.42100
C  18.33400 -1.96700 32.43200
C  18.39200 -2.46300 31.01400
C  19.61200 -1.15500 32.77700
C  15.87700 -1.68800 33.33600
C  15.78200 -1.48000 34.88900
H  17.00700 -0.80300 35.67800
N  18.46000 -3.77700 28.26400
C  19.14300 -4.20900 29.33700
C  19.83200 -5.38700 29.06500
C  19.80400 -5.56200 27.62600
C  18.97200 -4.40600 27.22700
C  20.48200 -6.20700 30.13600
C  20.45600 -6.55500 26.66400
O  20.44300 -6.53000 25.44300
C  21.23500 -7.65700 27.22600
N  17.24000 -2.15300 26.15200
C  17.96200 -3.01000 25.40100
C  17.75600 -2.74900 23.85400
C  16.67700 -1.60000 23.88000
C  16.47800 -1.39900 25.31600
C  19.15700 -2.49100 23.07500
C  15.46700 -1.80400 22.84100
C  15.23700 -0.57100 21.90600
N  15.93200 -0.58100 27.99500
C  15.31900 0.03800 26.95800
C  14.43600 1.11200 27.40700
C  14.70600 1.12200 28.79600
C  15.56500 0.06600 29.09100
C  13.62600 1.98900 26.55100
C  14.35300 1.83000 30.03900
O  13.74400 2.91900 30.17100
C  15.08900 1.00600 31.19900
C  16.04400 1.98200 31.70400
O  17.01100 2.39800 31.12700
O  15.56900 2.52400 32.87600
C  16.47000 3.40300 33.56400
H  19.60600 -4.05000 31.42200
H  19.34700 -4.59300 25.21500
H  15.04700 0.24600 25.00400
H  17.29900 -0.17800 32.85100
H  18.18500 -2.71600 33.21000
H  20.36000 -1.56900 32.10000
H  20.08900 -1.35400 33.73600
H  19.47300 -0.07700 32.70700
H  15.81400 -2.77000 33.22000
H  14.87200 -1.32200 33.12800
H  15.52700 -2.42800 35.36200
H  14.92400 -0.82500 35.04300
H  20.47600 -5.83500 31.16100
H  21.50300 -6.46400 29.85500
H  19.98400 -7.17600 30.14100
H  22.10500 -7.27100 27.75800
H  21.61400 -8.19500 26.35800
H  20.52900 -8.27500 27.78200
H  17.26200 -3.65600 23.50700
H  17.28500 -0.73600 23.61100
H  19.37400 -1.42400 23.03500
H  18.98900 -2.91800 22.08600
H  19.98600 -2.97100 23.59600
H  14.56900 -1.82900 23.45800
H  15.59000 -2.75000 22.31400
H  14.38200 -0.00200 22.26900
H  15.10500 -0.92300 20.88300
H  16.10600 0.08600 21.94700
H  14.22600 2.84400 26.24000
H  12.77500 2.29300 27.16000
H  13.23700 1.37400 25.73900
H  14.52300 0.70900 32.08200
H  16.98500 2.77800 34.29300
H  15.76800 4.10600 34.01100
H  17.22100 3.94300 32.98700

