158

Mg 2.45500 -2.45500 45.06200
C  5.76600 -1.81300 44.44000
C  1.62000 0.15300 42.84000
C  -0.85500 -3.42100 45.07200
C  3.29100 -5.51700 46.55900
N  3.54300 -0.95500 43.94500
C  4.92500 -0.89700 43.81900
C  5.45200 0.16200 42.81200
C  4.06200 0.80900 42.38500
C  3.00600 -0.08000 43.08200
C  3.93400 2.22000 42.93400
C  6.30900 -0.35500 41.60100
C  7.72200 0.27500 41.47000
H  8.01800 1.01600 40.21200
N  0.62200 -1.54400 44.33300
C  0.51800 -0.53600 43.38200
C  -0.85300 -0.31300 43.18900
C  -1.63200 -1.21700 43.96900
C  -0.64400 -2.12200 44.55400
C  -1.28900 0.88000 42.25800
C  -3.14100 -1.17200 44.14000
O  -3.85700 -0.37000 43.48800
C  -3.73000 -2.01900 45.11800
N  1.40000 -4.34000 45.58200
C  0.04300 -4.37100 45.58800
C  -0.48100 -5.66800 46.26500
C  0.85700 -6.39300 46.67300
C  1.93700 -5.46600 46.14000
C  -1.62300 -5.45200 47.34300
C  0.91300 -7.83000 46.10700
C  0.53200 -9.03200 47.07000
N  4.16300 -3.44700 45.52800
C  4.33500 -4.70600 46.06700
C  5.79100 -4.97900 46.18400
C  6.43400 -3.84100 45.55000
C  5.39700 -3.01300 45.17800
C  6.50600 -6.20500 46.75200
C  7.72000 -3.20600 45.19800
O  8.88800 -3.50100 45.43300
C  7.30800 -1.89700 44.45900
C  7.76200 -0.75200 45.25800
O  7.61700 -0.64400 46.46600
O  8.45400 0.19000 44.46300
C  8.69400 1.46700 45.05900
H  1.49000 0.84900 42.00900
H  -1.91100 -3.60300 45.28400
H  3.60400 -6.47200 46.98700
H  5.98700 0.90000 43.41000
H  3.81600 0.82700 41.32300
H  3.74200 2.89100 42.09700
H  4.74100 2.50300 43.60800
H  3.04600 2.37800 43.54600
H  5.80500 -0.12600 40.66100
H  6.28200 -1.43700 41.73000
H  8.39300 -0.56000 41.67200
H  7.98800 1.00200 42.23700
H  -2.18200 0.49700 41.76400
H  -0.59600 1.09200 41.44400
H  -1.41700 1.82600 42.78400
H  -3.16300 -2.04300 46.04800
H  -3.77400 -3.01100 44.66800
H  -4.77200 -1.75700 45.29900
H  -1.00600 -6.21500 45.48200
H  0.94800 -6.55300 47.74800
H  -2.07600 -4.46200 47.30200
H  -1.27800 -5.39700 48.37500
H  -2.42800 -6.18100 47.25100
H  1.95100 -7.98300 45.81200
H  0.36000 -8.03400 45.19000
H  -0.42000 -9.38800 46.67800
H  0.27900 -8.65500 48.06100
H  1.36900 -9.72700 47.13600
H  6.09000 -6.54500 47.70100
H  7.56500 -5.98500 46.88400
H  6.42300 -6.92500 45.93900
H  7.79900 -1.97600 43.48900
H  7.80500 1.80800 45.59000
H  8.85100 2.21300 44.28000
H  9.53500 1.39300 45.74800
Mg 36.93700 49.88400 24.54800
C  37.16400 48.11800 27.57100
C  35.27700 52.36400 26.15400
C  36.27700 51.25800 21.46600
C  37.88300 46.85900 22.82700
N  36.47900 50.21100 26.68400
C  36.68100 49.39300 27.75300
C  36.34200 50.14500 29.02300
C  35.76400 51.51800 28.50600
C  35.84900 51.44300 27.01900
C  34.28500 51.82000 29.02000
C  37.67900 50.28800 29.80400
C  37.68700 50.00000 31.35000
H  36.32100 49.81000 32.01300
N  36.04400 51.65700 23.89500
C  35.48600 52.55200 24.70300
C  35.11800 53.75700 23.90600
C  35.38900 53.44600 22.55500
C  35.89800 52.02400 22.54900
C  34.48200 54.94600 24.61800
C  35.24200 54.29800 21.33700
O  35.46900 53.91700 20.16700
C  34.85000 55.83000 21.53700
N  37.04400 49.08700 22.44200
C  36.80400 49.93400 21.39200
C  37.21400 49.21800 20.10300
C  37.78500 47.87200 20.53200
C  37.63400 47.90100 22.01500
C  36.11300 49.12600 19.00900
C  39.33100 47.64900 20.15600
C  40.32600 48.82400 20.57600
N  37.58200 47.94600 25.02100
C  37.82400 46.82000 24.21400
C  38.04100 45.67000 25.03500
C  37.81800 46.16200 26.32200
C  37.44400 47.50700 26.29100
C  38.44300 44.35100 24.55100
C  37.79000 45.72800 27.75100
O  37.97900 44.62500 28.24500
C  37.41500 47.02700 28.56800
C  36.24800 46.62700 29.39200
O  35.09700 46.74800 29.01500
O  36.68200 46.10000 30.58900
C  35.65600 45.47900 31.42100
H  34.99700 53.23400 26.75200
H  36.06600 51.77800 20.53000
H  38.14200 45.94600 22.28800
H  35.65200 49.52200 29.59100
H  36.42900 52.31100 28.84900
H  33.61600 51.63900 28.17900
H  34.20900 52.88400 29.24300
H  33.82300 51.17400 29.76700
H  37.91800 51.34800 29.72000
H  38.53400 49.70500 29.46300
H  38.26700 50.76800 31.86100
H  38.23800 49.06500 31.44500
H  33.45600 55.24000 24.39900
H  34.98400 55.83100 24.22800
H  34.59600 54.95500 25.70200
H  33.82100 55.91800 21.88500
H  34.65600 56.30600 20.57600
H  35.72800 56.22000 22.05300
H  37.99400 49.81300 19.62700
H  37.23400 47.01600 20.14200
H  35.16700 49.39300 19.48200
H  36.10300 48.25000 18.36200
H  36.28300 49.99100 18.36700
H  39.43100 47.64100 19.07000
H  39.55900 46.71100 20.66300
H  39.89100 49.52500 21.28700
H  40.65100 49.44100 19.73800
H  41.19300 48.29800 20.97600
H  39.47900 44.18200 24.84300
H  38.19200 44.28700 23.49200
H  37.86100 43.55700 25.02000
H  38.28200 47.36300 29.13700
H  34.91700 46.20000 31.77000
H  36.14400 44.98900 32.26400
H  35.15000 44.68800 30.86700

