158

Mg 7.98100 3.66500 27.96900
C  9.47500 2.24400 30.74700
C  6.33000 5.82100 29.81900
C  6.56900 4.74300 25.09800
C  9.19900 0.89000 26.11600
N  7.81000 3.95600 30.05300
C  8.62500 3.35400 31.03000
C  8.32000 4.00600 32.42900
C  7.16500 4.99500 32.11900
C  7.03500 4.85900 30.58800
C  5.80400 4.76500 32.89800
C  9.61900 4.61800 33.06700
C  10.20600 4.12400 34.34200
H  10.53400 5.13100 35.48600
N  6.67900 5.13600 27.53800
C  6.24400 6.07800 28.41800
C  5.59400 7.19700 27.76400
C  5.66100 6.87400 26.38700
C  6.34400 5.54500 26.29600
C  5.00800 8.42500 28.56500
C  5.16600 7.66000 25.20700
O  5.22000 7.20200 24.05200
C  4.28200 8.81400 25.33800
N  7.87700 2.88000 25.95400
C  7.18000 3.56600 24.96500
C  7.48800 2.95800 23.63300
C  8.31100 1.73400 23.94700
C  8.49400 1.83800 25.45800
C  6.25900 2.65900 22.71100
C  9.61500 1.62600 23.13900
C  9.48500 0.65600 22.01900
N  9.18700 1.89200 28.28000
C  9.56300 0.85200 27.51600
C  10.33500 -0.11200 28.21100
C  10.37900 0.43500 29.50300
C  9.73100 1.64600 29.47300
C  10.87300 -1.41200 27.73300
C  10.88700 0.23700 30.88600
O  11.58600 -0.65000 31.41900
C  10.32400 1.47200 31.76100
C  9.67500 0.92100 32.95400
O  8.59300 0.42600 33.06300
O  10.63000 0.90700 33.95100
C  10.33600 0.37300 35.27800
H  5.99200 6.58200 30.52500
H  6.19400 5.13100 24.14900
H  9.77300 0.10300 25.62300
H  7.97900 3.20700 33.08800
H  7.37300 6.05100 32.29400
H  4.93200 4.64900 32.25400
H  5.58000 5.72200 33.36900
H  5.84700 4.01700 33.69000
H  9.49300 5.69000 33.22200
H  10.38000 4.45400 32.30400
H  11.15300 3.67000 34.04800
H  9.42500 3.48400 34.75300
H  3.93400 8.26600 28.66200
H  5.37600 9.30700 28.04200
H  5.37900 8.39500 29.58900
H  4.15400 9.29500 24.36900
H  4.81600 9.54900 25.94200
H  3.31300 8.44900 25.67700
H  8.02900 3.80300 23.20700
H  7.66700 0.87000 23.78500
H  6.21200 1.59600 22.47500
H  6.37800 3.24000 21.79700
H  5.33900 2.98400 23.19700
H  10.36500 1.33900 23.87600
H  9.97000 2.57700 22.74300
H  10.08300 0.98600 21.17000
H  8.45300 0.43600 21.74400
H  9.83400 -0.24000 22.53100
H  11.88300 -1.53000 28.12500
H  10.84800 -1.66200 26.67200
H  10.27400 -2.18000 28.22400
H  11.11800 2.14500 32.08400
H  9.84800 1.19000 35.81000
H  11.28100 -0.05200 35.61800
H  9.54700 -0.37700 35.33100
Mg 25.29900 1.60600 29.89700
C  27.34600 1.54800 32.81200
C  22.64200 1.77600 32.02500
C  23.36900 1.55000 27.17100
C  28.16100 1.37300 28.00700
N  25.02300 1.77800 32.19700
C  26.00800 1.80700 33.14900
C  25.45300 2.08800 34.54300
C  23.89700 2.20500 34.26500
C  23.84700 1.94700 32.74000
C  22.99000 1.22700 35.02200
C  26.06700 3.35900 35.31300
C  25.46600 3.86300 36.69100
H  26.22300 3.70300 37.95900
N  23.27100 1.60300 29.66600
C  22.30800 1.56600 30.65600
C  20.99800 1.38800 30.06000
C  21.14000 1.46500 28.63200
C  22.64000 1.47400 28.44100
C  19.73400 1.37800 30.82600
C  20.14000 1.60000 27.47100
O  20.45000 1.68900 26.29400
C  18.62000 1.37300 27.81000
N  25.70800 1.22200 27.84500
C  24.78200 1.50700 26.92000
C  25.37800 1.88000 25.58500
C  26.86700 1.79800 25.90600
C  26.91600 1.48000 27.38700
C  24.81200 0.99900 24.39200
C  27.82400 2.86900 25.32200
C  27.62600 4.36500 25.71000
N  27.29200 1.20400 30.26600
C  28.35400 1.15000 29.37100
C  29.57000 1.07400 30.13700
C  29.17800 1.19000 31.49000
C  27.82500 1.29700 31.54700
C  30.91100 0.87600 29.55200
C  29.75100 1.25800 32.74900
O  30.91000 1.14100 33.13000
C  28.53600 1.55500 33.69800
C  28.42400 0.47500 34.74900
O  28.31500 -0.80100 34.59400
O  28.73600 1.07700 35.94600
C  28.88500 0.18100 37.12900
H  21.79700 1.89300 32.70700
H  22.80700 1.72900 26.25200
H  29.08700 1.50500 27.44300
H  25.81800 1.21600 35.08500
H  23.61700 3.24900 34.41100
H  22.58300 0.43300 34.39600
H  22.17700 1.84700 35.40100
H  23.59000 0.80100 35.82600
H  26.14900 4.20600 34.63300
H  27.10800 3.07400 35.46700
H  24.54700 3.34000 36.95700
H  25.30000 4.94000 36.65600
H  19.93900 1.33200 31.89500
H  19.28800 0.43800 30.50200
H  19.08000 2.18600 30.49700
H  18.36700 0.63200 28.56900
H  17.99900 1.16200 26.94000
H  18.23200 2.34500 28.11600
H  24.94500 2.87300 25.46900
H  27.13700 0.82700 25.49100
H  25.64200 0.60900 23.80400
H  24.05900 1.61400 23.89900
H  24.27000 0.14500 24.79900
H  27.77800 2.76500 24.23800
H  28.84700 2.65700 25.63400
H  28.52600 4.95300 25.88700
H  26.91400 4.50700 26.52400
H  27.10200 4.70900 24.81800
H  31.00200 1.56300 28.71100
H  31.15000 -0.17300 29.37800
H  31.60300 1.24600 30.30800
H  28.74700 2.51900 34.16300
H  29.96200 0.09000 37.26400
H  28.45700 -0.81700 37.02500
H  28.52500 0.69700 38.01900

