158

Mg 2.65600 -1.53100 44.42400
C  6.00200 -0.83300 43.62800
C  1.64900 0.87900 42.33000
C  -0.52500 -2.55100 44.81400
C  3.76200 -4.70000 45.58700
N  3.72700 -0.09100 43.27400
C  5.09000 0.08300 43.06700
C  5.34100 1.12700 42.06400
C  3.90800 1.72700 41.78600
C  3.00900 0.76700 42.55700
C  3.67700 3.22900 42.16900
C  6.06400 0.54700 40.76000
C  6.92100 1.56800 40.10400
H  6.41900 2.07900 38.77000
N  0.83200 -0.83800 43.75200
C  0.61900 0.20400 42.93500
C  -0.73600 0.50000 42.78900
C  -1.47200 -0.59400 43.36700
C  -0.34700 -1.37500 44.06800
C  -1.15000 1.75700 41.98500
C  -2.93600 -0.75300 43.30700
O  -3.66300 0.10400 42.77200
C  -3.62500 -1.98200 43.87000
N  1.77100 -3.43000 45.04400
C  0.42100 -3.48000 45.22000
C  0.04500 -4.91000 45.79400
C  1.41800 -5.48300 46.23200
C  2.38100 -4.50000 45.61700
C  -1.03900 -5.01400 46.83800
C  1.69900 -6.93100 45.87000
C  2.46900 -7.84700 46.87700
N  4.47500 -2.58700 44.68300
C  4.74700 -3.79900 45.17500
C  6.14900 -3.99900 45.27600
C  6.72700 -2.82200 44.72800
C  5.63800 -2.04100 44.29700
C  6.84000 -5.21900 45.85600
C  7.91900 -2.12900 44.42000
O  9.07100 -2.43800 44.58000
C  7.48300 -0.83600 43.64400
C  8.10100 0.31300 44.37900
O  7.88800 0.56700 45.54500
O  8.66700 1.08000 43.40700
C  9.38300 2.34100 43.69500
H  1.43800 1.59700 41.53500
H  -1.54100 -2.94400 44.88900
H  4.09500 -5.70500 45.85600
H  5.97200 1.91300 42.47800
H  3.64200 1.79900 40.73100
H  4.68100 3.64300 42.26600
H  3.23100 3.35900 43.15500
H  3.10400 3.71800 41.38100
H  5.33300 0.12300 40.07100
H  6.65800 -0.33600 40.99000
H  7.90200 1.09800 40.03900
H  7.06100 2.48700 40.67300
H  -2.16300 2.12400 42.14700
H  -1.14600 1.57700 40.91000
H  -0.38500 2.46800 42.29600
H  -4.67800 -1.87100 43.61000
H  -3.38700 -1.85800 44.92600
H  -3.18800 -2.85900 43.39200
H  -0.16900 -5.63600 45.01000
H  1.49000 -5.25400 47.29600
H  -1.63500 -4.12000 46.65900
H  -0.83500 -5.23100 47.88600
H  -1.63800 -5.86800 46.52200
H  2.18600 -6.91100 44.89500
H  0.82000 -7.48400 45.53900
H  3.47400 -8.06300 46.51300
H  1.89800 -8.76700 46.99800
H  2.75900 -7.44600 47.84800
H  6.20200 -6.10200 45.88800
H  7.15400 -4.91700 46.85500
H  7.71000 -5.45200 45.24200
H  7.91800 -0.76900 42.64700
H  8.71800 3.16900 43.44900
H  10.20200 2.41600 42.97900
H  9.82100 2.36700 44.69300
Mg 36.48500 49.27900 24.91900
C  36.15200 47.45500 27.79000
C  35.30300 52.09000 26.40200
C  36.32600 50.73500 21.86400
C  37.35200 46.20000 23.26600
N  35.61100 49.66400 26.88800
C  35.86700 48.83700 27.99300
C  35.41800 49.54200 29.26200
C  35.18800 51.06300 28.78000
C  35.45200 50.95200 27.23000
C  33.73500 51.77800 29.13400
C  36.36900 49.38800 30.56300
C  35.77700 48.87400 31.93500
H  34.26400 49.03700 32.18000
N  35.83600 51.12900 24.23800
C  35.46500 52.16500 24.99900
C  35.17400 53.31200 24.25200
C  35.36200 52.97100 22.85900
C  35.86800 51.62200 22.94200
C  34.60400 54.59700 24.92400
C  35.25100 53.80300 21.67000
O  35.40900 53.38400 20.51600
C  34.95800 55.26300 21.75200
N  37.03600 48.62000 22.83400
C  36.70800 49.41100 21.83800
C  37.08500 48.74900 20.52400
C  37.75400 47.41000 21.01300
C  37.40400 47.34300 22.45800
C  35.89900 48.58100 19.62100
C  39.30900 47.36900 20.73200
C  40.27500 48.01600 21.68900
N  36.79400 47.29100 25.41000
C  37.17200 46.15700 24.65100
C  37.28400 44.96600 25.54800
C  36.76000 45.41100 26.78700
C  36.56800 46.85400 26.63700
C  37.63800 43.53100 25.13400
C  36.41800 45.08600 28.15100
O  36.51000 44.03000 28.79100
C  36.08900 46.42300 28.88900
C  34.85200 46.27400 29.75500
O  33.75700 46.66600 29.55200
O  35.18800 45.46400 30.79300
C  34.07700 45.05900 31.61900
H  35.14900 53.02600 26.94400
H  36.11700 51.16500 20.88200
H  37.72100 45.29300 22.78200
H  34.45100 49.15000 29.58000
H  35.98000 51.71500 29.14800
H  33.12800 51.84700 28.23100
H  33.78900 52.71900 29.68300
H  33.32500 51.03000 29.81300
H  36.88400 50.30400 30.85400
H  37.15500 48.72100 30.20700
H  36.33800 49.28600 32.77400
H  35.97700 47.80400 31.88900
H  33.97000 55.22400 24.29700
H  35.36100 55.21100 25.41200
H  33.86400 54.32500 25.67700
H  33.90500 55.19100 22.02500
H  35.05900 55.78000 20.79800
H  35.52600 55.79900 22.51100
H  37.85900 49.37600 20.08100
H  37.45700 46.47000 20.54700
H  35.05900 49.24400 19.82900
H  35.48600 47.57200 19.61800
H  36.10600 48.83100 18.58000
H  39.40000 47.70400 19.69900
H  39.48900 46.29500 20.76700
H  39.83700 48.72100 22.39600
H  41.11600 48.48100 21.17400
H  40.64600 47.13000 22.20500
H  38.69200 43.27400 25.03400
H  37.19300 43.28600 24.17000
H  37.21800 42.86100 25.88400
H  36.84800 46.71100 29.61600
H  33.09500 44.98700 31.15200
H  34.09400 45.73000 32.47800
H  34.33300 44.06500 31.98500

