158

Mg 1.15200 8.29500 25.57300
C  1.88800 10.28900 28.36000
C  1.84100 5.60900 27.49100
C  0.90100 6.45800 22.79400
C  1.22500 11.13800 23.67200
N  1.98800 8.03000 27.71800
C  1.86700 8.90500 28.71600
C  1.85400 8.28000 30.07400
C  2.08000 6.76100 29.68600
C  1.94700 6.79000 28.23200
C  3.37900 6.05600 30.16400
C  0.55800 8.56700 30.80000
C  0.64600 8.76000 32.28100
H  1.71600 7.91200 33.01200
N  1.17800 6.33500 25.21600
C  1.42800 5.34000 26.17600
C  1.26100 4.06400 25.50200
C  0.82300 4.34000 24.17900
C  0.99600 5.80600 24.00100
C  1.24000 2.76000 26.28400
C  0.23600 3.39000 23.15300
O  -0.27800 3.73400 22.09100
C  0.14300 1.84900 23.38600
N  0.86200 8.81400 23.45500
C  0.85700 7.81300 22.53300
C  0.78400 8.48500 21.11400
C  0.66600 9.99000 21.43900
C  0.83900 10.00400 22.93100
C  2.03400 8.09000 20.11900
C  -0.57800 10.67500 20.95600
C  -0.52900 12.17100 20.49200
N  1.62000 10.20100 25.85500
C  1.55300 11.28000 25.01300
C  1.71000 12.52100 25.72300
C  1.83200 12.20400 27.00800
C  1.88900 10.77900 27.07400
C  1.60100 13.93500 25.12600
C  2.02800 12.66800 28.44000
O  2.13700 13.80000 28.86600
C  1.95000 11.45800 29.33000
C  3.14300 11.59400 30.25600
O  4.33400 11.47500 29.97200
O  2.75500 11.80300 31.59000
C  3.91100 12.01800 32.46300
H  1.91600 4.71100 28.10700
H  0.84400 5.71100 21.99900
H  1.35100 12.02100 23.04200
H  2.72900 8.65500 30.60500
H  1.27800 6.10700 30.02800
H  4.01000 6.77300 30.68900
H  4.08400 5.81200 29.36900
H  3.04600 5.25200 30.82100
H  -0.16700 7.75600 30.74200
H  0.04200 9.44700 30.41500
H  -0.27500 8.48200 32.79400
H  0.92700 9.80700 32.39300
H  1.90100 2.00500 25.85800
H  0.24000 2.34100 26.17000
H  1.32000 2.84500 27.36800
H  1.11100 1.53100 23.77400
H  -0.22200 1.49200 22.42300
H  -0.57400 1.71100 24.19500
H  -0.13600 8.04000 20.73400
H  1.58100 10.45500 21.07400
H  2.75200 7.51100 20.69900
H  2.59900 9.00400 19.94000
H  1.65900 7.57400 19.23500
H  -1.34500 10.48100 21.70600
H  -0.86400 10.05100 20.11000
H  -1.19200 12.17100 19.62700
H  0.50000 12.49200 20.33200
H  -0.90500 12.72700 21.35100
H  1.18600 13.88300 24.11900
H  2.52800 14.50200 25.04100
H  0.96600 14.47200 25.83200
H  1.01700 11.57600 29.88000
H  4.64600 12.72900 32.08600
H  4.24000 10.99600 32.65100
H  3.53400 12.26900 33.45500
Mg 36.34900 49.48800 24.99100
C  36.59400 47.92000 28.06400
C  36.01100 52.47600 26.58200
C  36.07200 50.92000 22.02100
C  37.04600 46.41900 23.52400
N  36.34900 50.17400 27.13400
C  36.40000 49.31400 28.23300
C  36.09200 50.01100 29.61400
C  35.78700 51.47100 29.04500
C  36.10800 51.38200 27.46400
C  34.35300 52.03200 29.34800
C  37.30700 49.97300 30.65200
C  36.89600 50.16600 32.13100
H  35.34700 50.15300 32.50700
N  36.10300 51.40200 24.39900
C  35.95400 52.49700 25.13800
C  35.86700 53.68000 24.37700
C  35.80400 53.27700 23.02300
C  36.01700 51.80100 23.08900
C  35.72600 55.07300 24.96000
C  35.45100 54.02000 21.83700
O  35.45300 53.50300 20.71500
C  35.13900 55.45900 21.90100
N  36.36100 48.74400 23.00600
C  36.31900 49.54300 21.92600
C  36.48700 48.80600 20.57200
C  36.92600 47.34400 21.06700
C  36.75400 47.49400 22.59300
C  35.08000 48.85500 19.93800
C  38.23400 46.89500 20.53800
C  39.44500 46.83300 21.46100
N  36.74900 47.50900 25.56100
C  36.91400 46.37600 24.90100
C  37.16800 45.28300 25.80300
C  37.04100 45.86100 27.03100
C  36.76800 47.18000 26.82200
C  37.62700 43.90000 25.47800
C  37.11700 45.59100 28.45000
O  37.45500 44.55600 29.02500
C  36.75500 46.86400 29.18300
C  35.55200 46.50800 29.97800
O  34.41000 46.57200 29.50500
O  35.85500 46.04300 31.17400
C  34.78100 45.61900 32.00000
H  35.82800 53.42100 27.09800
H  35.87900 51.32600 21.02600
H  37.25900 45.42900 23.11500
H  35.23100 49.49300 30.03600
H  36.55700 52.12600 29.45300
H  33.81600 51.44000 30.08900
H  33.77300 51.88100 28.43800
H  34.50300 53.07300 29.63400
H  38.00200 50.76500 30.37400
H  37.92100 49.09900 30.43500
H  37.39300 51.07500 32.46900
H  37.37300 49.41800 32.76400
H  34.80900 55.64200 24.80500
H  36.54500 55.65300 24.53700
H  35.79000 55.03900 26.04800
H  35.96400 56.01100 22.35100
H  34.34900 55.61900 22.63500
H  34.85600 55.90800 20.94900
H  37.27500 49.27700 19.98500
H  36.16500 46.62500 20.76200
H  34.94200 47.90900 19.41400
H  34.98800 49.54000 19.09600
H  34.33100 48.86400 20.73100
H  38.42000 47.42500 19.60400
H  38.05200 45.83800 20.34700
H  39.37000 47.73800 22.06500
H  40.25700 47.00200 20.75400
H  39.64900 45.92000 22.02000
H  36.94400 43.15200 25.88100
H  38.57000 43.66900 25.97400
H  37.79300 43.79400 24.40600
H  37.53800 47.19100 29.86700
H  35.05700 45.70400 33.05100
H  34.52600 44.60500 31.69000
H  33.91800 46.26500 31.84200

