158

Mg 17.14400 -1.05600 28.80200
C  15.89700 1.17900 31.29300
C  18.61300 -2.90500 31.32200
C  18.64700 -2.91000 26.47300
C  15.43900 0.74200 26.32100
N  17.15100 -0.85200 31.06900
C  16.66900 0.17300 31.87200
C  17.07200 -0.00100 33.35300
C  17.98000 -1.26900 33.28900
C  17.91100 -1.69900 31.78600
C  19.44100 -0.96400 33.76000
C  15.85300 -0.05300 34.33300
C  15.82800 -1.03500 35.50100
H  16.81400 -0.91200 36.64200
N  18.39000 -2.71600 28.86400
C  18.92700 -3.27500 30.00100
C  19.76700 -4.46400 29.62100
C  19.86900 -4.45200 28.19900
C  18.93700 -3.36600 27.77400
C  20.54400 -5.33900 30.63400
C  20.72400 -5.20200 27.23700
O  20.85700 -5.10600 26.02100
C  21.62400 -6.20200 27.90700
N  17.23800 -0.93200 26.65500
C  17.89900 -1.84300 26.01600
C  17.85300 -1.44300 24.47000
C  16.73900 -0.40400 24.36500
C  16.37100 -0.17300 25.86000
C  19.16600 -0.87400 23.95700
C  15.50900 -0.93200 23.57400
C  15.35500 -0.31900 22.20800
N  15.96500 0.62300 28.75400
C  15.22700 1.19100 27.70800
C  14.52000 2.39400 28.23300
C  14.76100 2.37900 29.61900
C  15.56700 1.29100 29.88300
C  13.65400 3.30200 27.45100
C  14.60000 3.20600 30.78200
O  14.05400 4.26000 30.89700
C  15.28100 2.37400 31.99800
C  16.23900 3.30200 32.76400
O  17.24200 3.83500 32.41100
O  15.76500 3.43500 34.03900
C  16.70400 3.71300 35.14100
H  18.96300 -3.54200 32.13700
H  18.98700 -3.58800 25.68800
H  14.82100 1.33500 25.64400
H  17.57500 0.91400 33.66300
H  17.73800 -2.18000 33.83800
H  19.88200 -1.69400 34.43800
H  19.43700 0.09000 34.03900
H  20.00900 -0.97600 32.82900
H  14.91300 -0.25100 33.81700
H  15.67200 0.86600 34.88900
H  15.78400 -2.03800 35.07700
H  14.86700 -0.86400 35.98500
H  20.35600 -6.40600 30.52100
H  20.25200 -5.07300 31.65000
H  21.59800 -5.06200 30.67200
H  21.04100 -7.01000 28.34900
H  22.41400 -5.83800 28.56400
H  22.10400 -6.62500 27.02400
H  17.65100 -2.38900 23.96800
H  17.08000 0.55700 23.97900
H  19.60000 -1.46500 23.15100
H  19.91700 -0.78000 24.74200
H  19.09100 0.09700 23.46600
H  14.64600 -0.76000 24.21700
H  15.50900 -2.00400 23.37800
H  16.30500 0.15400 21.95900
H  14.59600 0.46100 22.15100
H  15.13300 -1.05100 21.43200
H  13.68700 4.33300 27.80400
H  12.63100 2.96100 27.61300
H  13.69900 3.16000 26.37100
H  14.54400 1.97100 32.69300
H  17.70700 3.30500 35.01800
H  16.12300 3.16800 35.88400
H  16.84300 4.78200 35.30600
Mg 47.20100 24.37900 27.59900
C  47.49600 26.56400 30.20100
C  46.59300 21.89000 29.95600
C  46.86200 22.22600 25.11800
C  48.13900 26.79900 25.40200
N  46.94400 24.26400 29.84100
C  47.11000 25.28600 30.66400
C  46.76500 24.84300 32.07100
C  46.51900 23.30000 32.01100
C  46.79300 23.14200 30.52800
C  47.30100 22.24200 32.89900
C  45.66900 25.67300 32.70100
C  45.20000 25.23600 34.05100
H  45.16800 26.30900 35.17200
N  46.65400 22.27800 27.54400
C  46.48100 21.46500 28.61300
C  46.04800 20.15400 28.15700
C  46.18000 20.19300 26.69800
C  46.60900 21.58900 26.37000
C  45.51900 19.11500 29.03100
C  45.89500 19.10100 25.70600
O  46.09100 19.24500 24.49200
C  45.21500 17.74000 26.20300
N  47.37700 24.49900 25.54900
C  47.14800 23.49200 24.71900
C  47.37200 23.92700 23.21200
C  47.51300 25.48600 23.30400
C  47.65800 25.64200 24.84500
C  48.54900 23.31100 22.43000
C  46.21300 26.12700 22.82700
C  44.92300 26.03800 23.63300
N  47.79000 26.28200 27.71300
C  48.20200 27.14700 26.74700
C  48.68400 28.39600 27.38800
C  48.30000 28.23300 28.73700
C  47.83200 26.93500 28.86400
C  49.27700 29.57300 26.76400
C  48.33400 28.85400 29.95200
O  48.70400 29.96900 30.27200
C  47.69800 27.86200 30.93400
C  48.51900 27.64500 32.23400
O  49.61400 27.08400 32.40100
O  47.82400 28.26000 33.18600
C  48.37300 28.31400 34.53200
H  46.21900 21.09800 30.60800
H  46.71600 21.56500 24.26100
H  48.28800 27.58600 24.65900
H  47.60600 24.95300 32.75600
H  45.46300 23.16300 32.24100
H  46.65600 21.45200 33.28200
H  47.69300 22.71800 33.79800
H  48.09100 21.74200 32.33900
H  44.77100 25.45400 32.12400
H  45.79200 26.75600 32.73000
H  45.73500 24.32100 34.30500
H  44.16900 24.92000 33.88600
H  46.38800 18.53300 29.33700
H  44.69200 18.52200 28.64100
H  45.11300 19.44400 29.98700
H  45.82900 17.24900 26.95800
H  45.24800 17.14100 25.29300
H  44.18000 17.83000 26.53100
H  46.39600 23.64300 22.81800
H  48.42900 25.91200 22.89500
H  49.24600 24.11200 22.18400
H  48.33900 22.86500 21.45800
H  49.01500 22.53500 23.03800
H  46.11000 25.79000 21.79600
H  46.38200 27.17300 22.56800
H  44.17200 25.88300 22.85800
H  44.78100 26.96500 24.18900
H  45.02900 25.18500 24.30300
H  48.88300 29.64200 25.75100
H  50.33600 29.32100 26.80700
H  48.94400 30.46700 27.29100
H  46.73800 28.34000 31.12900
H  47.46500 28.31100 35.13500
H  48.86000 29.27100 34.71900
H  48.99000 27.42900 34.68900

