158

Mg 24.17800 -4.35800 46.06900
C  26.59900 -2.40200 44.72400
C  21.98700 -3.18100 43.68300
C  22.25300 -6.92600 46.76600
C  26.65500 -5.70400 48.39900
N  24.30500 -2.95400 44.46700
C  25.36500 -2.21900 44.11700
C  25.03100 -1.30800 42.87500
C  23.47000 -1.23400 43.03900
C  23.22100 -2.52800 43.85100
C  23.04600 0.03600 43.85600
C  25.65400 -1.91400 41.60100
C  26.15100 -0.85800 40.60200
H  25.55000 -0.87500 39.15500
N  22.29700 -4.89600 45.29200
C  21.57600 -4.32200 44.29500
C  20.42400 -5.11500 44.19700
C  20.50500 -6.28200 44.95200
C  21.72600 -6.09600 45.71300
C  19.34500 -4.77300 43.11300
C  19.49700 -7.39100 44.94000
O  18.56500 -7.43800 44.10900
C  19.59200 -8.55200 45.89900
N  24.54800 -6.09900 47.39000
C  23.48200 -6.90800 47.53500
C  23.65800 -7.86800 48.75200
C  24.96700 -7.33500 49.40300
C  25.44400 -6.38500 48.33800
C  22.39400 -7.92600 49.67900
C  26.01800 -8.47800 49.61100
C  27.02300 -8.38000 50.75800
N  26.21600 -4.04400 46.56900
C  27.05600 -4.67400 47.48000
C  28.41400 -4.09500 47.34300
C  28.26700 -3.16300 46.29600
C  26.90300 -3.27600 45.83100
C  29.59900 -4.56000 48.16900
C  28.99400 -2.24500 45.49600
O  30.16600 -1.85100 45.59100
C  27.96500 -1.69600 44.46100
C  27.89000 -0.24000 44.70500
O  27.07600 0.35700 45.44100
O  28.83400 0.36000 43.96000
C  29.14600 1.78300 44.08300
H  21.33800 -2.71900 42.93600
H  21.62200 -7.77600 47.03500
H  27.42400 -6.01300 49.10900
H  25.53100 -0.37300 43.12700
H  23.07400 -1.28900 42.02500
H  23.80700 0.81600 43.88700
H  22.77600 -0.27000 44.86700
H  22.17300 0.47700 43.37500
H  24.85600 -2.45000 41.08500
H  26.35400 -2.74500 41.68500
H  27.23700 -0.88700 40.69100
H  25.77000 0.05400 41.06200
H  18.38700 -5.04400 43.55800
H  19.49000 -5.32000 42.18200
H  19.26100 -3.71300 42.87100
H  18.89300 -9.33300 45.59900
H  19.27000 -8.39400 46.92900
H  20.55500 -9.06000 45.84800
H  23.85300 -8.84200 48.30400
H  24.72100 -6.74400 50.28400
H  21.61800 -7.25000 49.32300
H  22.46500 -7.59600 50.71500
H  21.97300 -8.92400 49.80200
H  26.54800 -8.48100 48.65900
H  25.57600 -9.46300 49.76100
H  26.82700 -9.05400 51.59100
H  27.03300 -7.34600 51.10300
H  27.99600 -8.68900 50.37600
H  29.91900 -5.51100 47.74200
H  29.37300 -4.71900 49.22300
H  30.44000 -3.87000 48.09300
H  28.27500 -1.84400 43.42600
H  30.08700 2.07800 43.61900
H  29.26700 1.99800 45.14400
H  28.29000 2.35700 43.72800
Mg 0.47400 44.01600 26.15700
C  2.81800 43.90000 28.78400
C  -1.89400 43.32700 28.25600
C  -1.60600 43.46300 23.46700
C  3.21400 44.00100 23.85000
N  0.43800 43.85900 28.31700
C  1.49200 43.87700 29.20800
C  1.01800 43.91400 30.71300
C  -0.39900 43.32400 30.43300
C  -0.65400 43.47600 28.89500
C  -0.56800 41.78000 30.80700
C  0.89300 45.35600 31.31500
C  0.91900 45.37000 32.88500
H  0.50500 44.06300 33.64300
N  -1.51100 43.55100 25.88200
C  -2.39400 43.30200 26.97000
C  -3.69200 43.02500 26.48300
C  -3.59400 43.11900 25.08200
C  -2.21100 43.45000 24.70300
C  -4.87700 42.91900 27.39000
C  -4.62700 42.74900 24.09000
O  -4.48900 42.83300 22.89900
C  -5.93900 42.25900 24.59300
N  0.79800 43.84900 23.99900
C  -0.28800 43.66300 23.14700
C  0.23100 43.51800 21.71700
C  1.67800 44.08200 21.79000
C  1.93800 43.86800 23.30000
C  0.06100 42.07600 21.06700
C  2.01500 45.49600 21.39000
C  3.24600 45.90100 20.54900
N  2.62900 44.12300 26.21300
C  3.60100 44.11100 25.23000
C  4.95900 44.26200 25.86100
C  4.67600 44.17400 27.20300
C  3.26200 44.13200 27.37900
C  6.28900 44.28200 25.17800
C  5.31100 44.08400 28.48800
O  6.50700 43.91800 28.74900
C  4.14600 43.92900 29.56100
C  4.40400 42.75000 30.41800
O  4.49400 41.59900 29.92300
O  4.35200 43.01000 31.80000
C  4.55500 41.77700 32.62100
H  -2.64700 43.00900 28.98100
H  -2.20900 43.31000 22.57000
H  3.96300 44.16800 23.07400
H  1.61800 43.26100 31.34700
H  -1.10300 43.82700 31.09500
H  -1.48500 41.74400 31.39600
H  0.24100 41.24000 31.29800
H  -0.71700 41.18300 29.90700
H  -0.01300 45.88800 31.02500
H  1.75700 45.86800 30.89300
H  0.45200 46.30700 33.18900
H  1.92500 45.51300 33.28200
H  -5.51400 42.03800 27.32100
H  -5.57300 43.72400 27.15000
H  -4.54500 43.02000 28.42300
H  -5.77900 41.28700 25.05900
H  -6.55200 42.22000 23.69300
H  -6.39600 42.93100 25.31900
H  -0.30800 44.18200 21.04000
H  2.38100 43.43000 21.27200
H  -0.10000 41.39200 21.90000
H  1.03100 41.89300 20.60500
H  -0.71300 42.11000 20.30000
H  1.95600 46.16800 22.24700
H  1.10000 45.88900 20.94700
H  3.92100 46.53300 21.12700
H  2.89700 46.44000 19.66900
H  3.67700 44.94200 20.26100
H  6.29800 43.89600 24.15900
H  7.06700 43.73400 25.70900
H  6.52200 45.34600 25.12700
H  4.12900 44.78300 30.23900
H  4.41600 41.91900 33.69300
H  5.54000 41.32200 32.52800
H  3.76200 41.09400 32.31700

