158

Mg 1.06700 8.25200 27.04400
C  1.53000 10.28100 29.78200
C  1.23200 5.54400 29.03600
C  0.90200 6.33900 24.22200
C  1.37500 11.03600 24.98100
N  1.49700 7.96700 29.22200
C  1.37700 8.96100 30.14300
C  1.19200 8.36900 31.58900
C  1.07500 6.86600 31.27300
C  1.27800 6.74800 29.75400
C  2.10900 6.04700 32.08700
C  0.02400 9.04800 32.43300
C  -0.52200 8.21200 33.59800
H  0.46000 7.94200 34.67900
N  1.03300 6.17100 26.72300
C  1.07000 5.23200 27.66500
C  0.73400 3.91300 27.11400
C  0.69300 4.13500 25.69500
C  0.86400 5.63000 25.51200
C  0.60900 2.59200 28.02800
C  0.34000 3.15900 24.58300
O  0.51600 3.45100 23.37100
C  -0.07900 1.67100 24.90100
N  1.09200 8.63500 24.97100
C  1.02600 7.68300 24.05000
C  0.90600 8.30500 22.61400
C  0.73000 9.78900 22.92700
C  1.07700 9.83300 24.42400
C  2.11800 7.96700 21.68400
C  -0.75200 10.29700 22.77100
C  -0.87500 11.54300 21.84000
N  1.55600 10.26200 27.32100
C  1.63800 11.22100 26.39600
C  1.94600 12.53400 27.13900
C  1.85300 12.18400 28.46700
C  1.60800 10.83300 28.51500
C  2.21900 13.81700 26.57400
C  2.02800 12.68400 29.73100
O  2.33400 13.81900 30.11700
C  1.71900 11.49800 30.66700
C  2.79000 11.25600 31.74300
O  3.85500 10.59700 31.65100
O  2.39700 11.86600 32.90700
C  3.38600 11.93600 33.94600
H  1.05000 4.77400 29.78800
H  0.89600 5.75400 23.30000
H  1.38100 11.98000 24.43300
H  2.11400 8.67000 32.08600
H  0.06900 6.46900 31.40500
H  2.90900 6.67000 32.48800
H  2.62900 5.33300 31.44800
H  1.56500 5.48600 32.84600
H  -0.67400 9.26600 31.62500
H  0.26600 10.02500 32.85200
H  -1.00300 7.31300 33.21300
H  -1.27600 8.76000 34.16400
H  0.51000 1.61800 27.54900
H  -0.34000 2.75600 28.53800
H  1.47400 2.53600 28.68900
H  -1.04200 1.71700 25.40900
H  0.73100 1.19100 25.44900
H  -0.14700 1.08700 23.98300
H  -0.02800 7.84800 22.28600
H  1.43000 10.44500 22.41000
H  1.91200 7.00800 21.20800
H  3.02300 7.89000 22.28600
H  2.31100 8.66400 20.86800
H  -1.02800 10.71800 23.73800
H  -1.47200 9.55500 22.42600
H  0.07200 11.60100 21.30400
H  -1.19400 12.38600 22.45300
H  -1.63300 11.37200 21.07500
H  2.34900 13.79800 25.49200
H  3.13700 14.08000 27.09800
H  1.58200 14.63800 26.90500
H  0.84400 11.79600 31.24500
H  4.42300 11.72200 33.69000
H  3.09800 11.11800 34.60600
H  3.28300 12.86500 34.50700
Mg 48.10400 16.42200 29.61000
C  45.54700 16.10800 32.00800
C  50.01700 17.85500 32.06600
C  50.21700 16.78800 27.23100
C  45.79200 14.87000 27.31300
N  47.72100 17.04100 31.80500
C  46.72700 16.61400 32.54800
C  47.01200 16.81400 33.95300
C  48.41700 17.61900 34.01300
C  48.77100 17.52400 32.53900
C  48.39400 19.04300 34.53000
C  46.92200 15.56100 34.87800
C  47.78000 15.50900 36.10400
H  47.83500 16.65200 37.10900
N  49.89600 17.22900 29.62800
C  50.60500 17.65400 30.74700
C  51.96800 18.01500 30.27000
C  51.95300 17.89700 28.81000
C  50.63700 17.26800 28.50700
C  52.98400 18.52700 31.26800
C  53.04500 18.26900 27.80800
O  52.92700 18.18400 26.56400
C  54.31600 18.88600 28.32400
N  47.94100 16.12900 27.41500
C  49.04200 16.26000 26.71200
C  48.83600 15.70700 25.28500
C  47.47100 14.91900 25.37100
C  47.05500 15.29700 26.83700
C  48.81900 16.86300 24.20900
C  47.54200 13.33700 25.24700
C  46.91600 12.68500 23.94000
N  46.19700 15.52800 29.64600
C  45.39600 14.96400 28.64800
C  44.13300 14.51800 29.24900
C  44.17300 14.97500 30.56500
C  45.37200 15.63300 30.71900
C  43.02500 13.78600 28.49200
C  43.41100 14.90700 31.85800
O  42.34500 14.42100 32.18200
C  44.28000 15.69600 32.82100
C  43.62900 16.83300 33.63300
O  43.76600 18.04000 33.49400
O  43.02100 16.12600 34.64400
C  42.61600 16.99200 35.74000
H  50.77500 18.28500 32.72400
H  51.05700 16.64600 26.54800
H  45.28700 14.11700 26.70300
H  46.22800 17.51100 34.25000
H  49.18700 16.96600 34.42300
H  49.24900 19.27200 35.16500
H  47.53800 19.12300 35.20000
H  48.43600 19.83100 33.77900
H  47.12900 14.69900 34.24500
H  45.90000 15.52200 35.25600
H  48.73900 15.13200 35.74800
H  47.37600 14.65700 36.65100
H  53.48100 17.64300 31.66800
H  52.48700 18.99700 32.11700
H  53.68200 19.21900 30.79800
H  54.63600 18.23300 29.13700
H  54.12900 19.91600 28.62800
H  55.06400 18.83800 27.53300
H  49.62200 14.97300 25.10100
H  46.74800 15.26000 24.63000
H  49.45600 16.68700 23.34200
H  49.16700 17.77200 24.70000
H  47.81200 17.02700 23.82800
H  46.92300 12.91600 26.03900
H  48.55000 12.99400 25.48000
H  47.57000 12.05000 23.34200
H  46.69700 13.51900 23.27200
H  46.02500 12.09300 24.14700
H  43.02400 14.01300 27.42600
H  42.11900 14.20100 28.93500
H  43.14000 12.71000 28.61900
H  44.57500 14.96300 33.57100
H  41.89700 16.44100 36.34700
H  41.92000 17.80500 35.52900
H  43.42400 17.08800 36.46500

