158

Mg 17.25500 -1.67700 27.08700
C  16.24800 0.10600 29.88700
C  19.30900 -3.64500 28.97400
C  18.62300 -2.81900 24.16000
C  15.25400 0.51100 25.13900
N  17.87500 -1.59500 29.18000
C  17.28300 -0.86400 30.16400
C  17.69600 -1.42500 31.60600
C  18.82800 -2.50400 31.27200
C  18.67800 -2.62400 29.72500
C  20.28800 -2.14700 31.80900
C  16.53700 -2.04100 32.43500
C  16.50500 -1.70400 33.94100
H  17.64900 -0.91300 34.64900
N  18.53400 -3.22100 26.61300
C  19.27000 -3.86600 27.56000
C  19.91400 -4.96000 26.81400
C  19.74200 -4.72600 25.41400
C  18.90600 -3.54900 25.36000
C  20.82900 -5.90600 27.53800
C  20.23900 -5.59600 24.30000
O  20.00500 -5.39800 23.09300
C  20.97400 -6.87000 24.55900
N  16.95400 -1.30300 25.01400
C  17.78300 -1.71200 24.04600
C  17.30200 -1.20700 22.64800
C  16.09900 -0.28300 22.99700
C  16.07000 -0.37100 24.47400
C  18.37700 -0.56400 21.85100
C  14.82900 -0.74500 22.27300
C  14.49100 -0.07000 20.96000
N  15.99200 -0.01300 27.43500
C  15.20400 0.72600 26.49500
C  14.56700 1.78500 27.21300
C  14.87500 1.51700 28.59900
C  15.76700 0.44700 28.64300
C  13.69500 2.92700 26.64200
C  14.77200 2.07000 29.99400
O  14.15700 3.01900 30.43100
C  15.58900 1.12800 30.87200
C  16.61100 1.93500 31.54300
O  17.72900 2.26200 31.07200
O  16.07000 2.34700 32.80900
C  16.98700 3.27800 33.56700
H  19.92400 -4.26900 29.62600
H  19.07200 -3.21100 23.24500
H  14.58000 1.16600 24.58400
H  18.09200 -0.66500 32.27800
H  18.60400 -3.45400 31.75500
H  21.02200 -2.39000 31.04100
H  20.68100 -2.62100 32.70800
H  20.25000 -1.08300 32.04200
H  16.47700 -3.12900 32.39800
H  15.57000 -1.60300 32.18500
H  16.23300 -2.55000 34.57200
H  15.64600 -1.04400 34.06000
H  20.45400 -6.92700 27.46900
H  20.70100 -5.66500 28.59400
H  21.87100 -5.89600 27.22200
H  21.78000 -6.68600 25.26900
H  21.47900 -7.20000 23.65100
H  20.31000 -7.62900 24.97400
H  17.03900 -2.15600 22.18100
H  16.39800 0.74400 22.78800
H  18.84900 -1.18700 21.09100
H  19.20000 -0.25400 22.49600
H  17.87400 0.21100 21.27300
H  13.96000 -0.63100 22.92100
H  14.92700 -1.82800 22.19800
H  15.08600 0.84200 20.91700
H  13.43400 0.19000 21.01500
H  14.66600 -0.72900 20.11000
H  13.16800 2.62900 25.73600
H  14.28200 3.83500 26.49700
H  12.93200 3.29600 27.32800
H  14.96500 0.59200 31.58600
H  17.76800 2.67300 34.02700
H  16.37500 3.69800 34.36500
H  17.31100 4.12700 32.96500
Mg 47.50100 14.76600 27.52200
C  45.53400 14.86600 30.49500
C  49.48600 17.28000 28.81100
C  49.10700 14.84300 24.61000
C  45.06000 12.64700 26.22800
N  47.48400 15.87600 29.42300
C  46.71800 15.68000 30.58600
C  47.23100 16.40700 31.77900
C  48.44800 17.28300 31.23200
C  48.48000 16.85700 29.71800
C  48.39200 18.83000 31.49500
C  47.57700 15.44700 32.86400
C  47.31400 15.94000 34.26700
H  48.38400 15.71100 35.36000
N  49.16300 15.90500 26.79000
C  49.79000 16.93300 27.44400
C  50.75400 17.57400 26.53200
C  50.81100 16.65700 25.34900
C  49.66600 15.75700 25.52100
C  51.61800 18.82200 26.83100
C  51.76200 16.76700 24.15200
O  51.67000 16.01700 23.14900
C  52.92700 17.79400 24.15700
N  47.11400 13.85800 25.69700
C  47.92600 14.02200 24.65700
C  47.57100 13.06000 23.51100
C  46.36000 12.25900 24.09000
C  46.17700 12.89400 25.44800
C  47.21600 13.84200 22.16400
C  46.71700 10.66600 24.24400
C  47.28900 9.95300 22.99000
N  45.55600 13.99700 28.14800
C  44.74400 13.14800 27.47100
C  43.54500 12.97200 28.33100
C  43.89300 13.56600 29.54000
C  45.12100 14.18900 29.35700
C  42.28800 12.15400 27.99200
C  43.36700 13.84300 30.85700
O  42.31200 13.53400 31.37000
C  44.38300 14.68000 31.55400
C  43.77100 15.96000 31.94900
O  43.48100 16.87100 31.23500
O  43.56000 15.91900 33.27700
C  42.81700 16.99300 33.90400
H  50.15000 18.04100 29.22600
H  49.71900 14.65000 23.72600
H  44.39500 11.95000 25.71300
H  46.45200 17.06100 32.17100
H  49.34800 16.79800 31.61000
H  48.49900 19.37900 30.56000
H  49.20800 19.03500 32.18800
H  47.48000 19.22300 31.94500
H  48.61400 15.13500 32.74400
H  47.12600 14.45600 32.80700
H  46.37700 15.53400 34.64900
H  47.18800 17.02200 34.29500
H  51.26500 19.59300 26.14500
H  52.70500 18.78200 26.76200
H  51.50900 19.22200 27.83900
H  53.26200 17.76500 23.12000
H  53.72100 17.37300 24.77300
H  52.48100 18.76000 24.39400
H  48.46400 12.50000 23.23400
H  45.47800 12.53100 23.51100
H  47.92300 14.55600 21.74200
H  46.21900 14.27300 22.25100
H  47.01100 13.13100 21.36400
H  45.81100 10.21600 24.64900
H  47.40100 10.33900 25.02700
H  46.75000 9.06700 22.65500
H  48.26800 9.51300 23.17600
H  47.23500 10.61800 22.12800
H  42.56200 11.19000 27.56300
H  41.84600 12.70100 27.16000
H  41.65800 12.15400 28.88100
H  44.85500 14.18900 32.40500
H  43.46100 17.42300 34.67200
H  41.87700 16.68400 34.36000
H  42.66000 17.84500 33.24300

