158

Mg 45.14400 4.29000 47.74800
C  43.31300 7.27400 46.95300
C  42.27400 2.56500 46.94100
C  46.93700 1.60300 47.23500
C  48.04300 6.42700 47.88000
N  43.04600 4.84200 46.87600
C  42.58300 6.10300 46.67000
C  41.16900 6.03000 46.13900
C  40.69900 4.57500 46.40600
C  42.03800 3.97800 46.88200
C  39.47900 4.42000 47.33900
C  41.15700 6.42600 44.64100
C  40.66000 7.85900 44.33200
H  39.59100 7.88200 43.18600
N  44.62400 2.21600 47.44100
C  43.40200 1.70000 47.20000
C  43.47700 0.27900 47.11900
C  44.89500 -0.08200 47.30000
C  45.56600 1.21800 47.40100
C  42.19400 -0.59200 46.85000
C  45.48400 -1.48900 47.17800
O  44.81000 -2.48200 46.91800
C  46.97600 -1.74400 47.35700
N  47.22900 4.10700 47.56300
C  47.66500 2.81100 47.33600
C  49.23200 2.84900 47.31400
C  49.57700 4.41000 47.54000
C  48.20200 5.03500 47.71900
C  49.79500 1.92900 48.41000
C  50.41000 4.98700 46.36200
C  51.80100 5.66700 46.63200
N  45.60500 6.46400 47.61100
C  46.79600 7.09600 47.69700
C  46.56600 8.54800 47.53700
C  45.21300 8.69100 47.36200
C  44.64800 7.38500 47.29600
C  47.56400 9.59300 47.60300
C  44.04800 9.60800 47.14600
O  43.98800 10.83100 47.15700
C  42.83600 8.73400 46.79200
C  41.87900 9.09000 47.90200
O  41.71500 8.48800 48.96000
O  40.98900 10.02400 47.39000
C  39.84000 10.35200 48.25200
H  41.33300 2.05700 46.71800
H  47.69400 0.81900 47.16800
H  48.89000 7.10600 47.99900
H  40.59300 6.76300 46.70600
H  40.40300 4.03200 45.50900
H  39.06900 5.40900 47.54100
H  39.85000 3.99900 48.27400
H  38.73600 3.72300 46.95100
H  40.63500 5.76200 43.95100
H  42.18900 6.37200 44.29600
H  41.49600 8.47400 43.99700
H  40.14300 8.26500 45.20100
H  42.51700 -1.40100 46.19300
H  41.37400 -0.14400 46.28900
H  41.73300 -1.02800 47.73600
H  47.10600 -2.80700 47.56100
H  47.21400 -1.21600 48.28000
H  47.59500 -1.45700 46.50700
H  49.50500 2.58100 46.29300
H  49.97200 4.65100 48.52700
H  50.57000 2.48900 48.93300
H  50.28400 1.07200 47.94700
H  49.06800 1.47900 49.08700
H  49.79200 5.73600 45.86700
H  50.71200 4.21100 45.65900
H  52.22600 5.42000 47.60500
H  51.72600 6.73300 46.41500
H  52.58600 5.32200 45.95900
H  48.14700 9.73600 48.51300
H  47.11300 10.53400 47.28700
H  48.26200 9.27200 46.83000
H  42.52300 8.89500 45.76100
H  40.01100 10.21200 49.31900
H  38.99200 9.72000 47.98700
H  39.66900 11.41900 48.10800
Mg 30.70800 57.94300 39.47000
C  28.05000 56.02900 38.45000
C  32.81200 55.24900 38.52600
C  33.34000 59.82100 40.01400
C  28.42400 60.61300 39.73600
N  30.44400 55.97100 38.36300
C  29.22600 55.34300 38.18300
C  29.36700 53.85400 37.77400
C  30.88000 53.61300 38.11100
C  31.42000 55.07200 38.34700
C  31.16200 52.70100 39.35000
C  28.98200 53.49800 36.32000
C  29.35700 54.51900 35.17400
H  28.21700 55.08300 34.34300
N  32.73900 57.61400 39.37200
C  33.42800 56.45100 38.90600
C  34.80900 56.69400 39.04200
C  35.00900 57.94300 39.64800
C  33.66600 58.52200 39.75700
C  35.73100 55.54400 38.82300
C  36.37900 58.49900 40.07100
O  37.41300 57.86600 39.88800
C  36.56100 59.85300 40.73800
N  30.79300 59.97800 39.89500
C  32.05700 60.52400 40.05000
C  31.94000 62.12000 40.11300
C  30.38100 62.26900 40.14500
C  29.79300 60.87900 39.85600
C  32.75300 62.81800 41.32400
C  29.89100 63.31500 39.10200
C  29.91000 62.84100 37.55900
N  28.61400 58.27500 39.31200
C  27.83700 59.38400 39.55300
C  26.47600 58.99700 39.47200
C  26.46100 57.69500 39.05000
C  27.83700 57.30600 38.93400
C  25.27100 59.77700 39.80100
C  25.62700 56.57200 38.63900
O  24.43800 56.49300 38.55400
C  26.64200 55.41100 38.20200
C  26.19700 54.29500 39.16000
O  26.82600 53.92700 40.13200
O  25.00100 53.81000 38.66900
C  24.37000 52.82800 39.51800
H  33.38600 54.32300 38.45700
H  34.11500 60.58200 40.12100
H  27.73300 61.45800 39.72900
H  28.65800 53.35400 38.43400
H  31.40600 53.14000 37.28200
H  30.22000 52.32600 39.75100
H  31.77400 53.18700 40.11000
H  31.69000 51.77800 39.10900
H  27.91500 53.28100 36.26700
H  29.53500 52.58200 36.11300
H  30.04000 53.98200 34.51500
H  30.00200 55.25600 35.65100
H  36.78300 55.79500 38.96000
H  35.62900 55.15100 37.81100
H  35.48600 54.84200 39.62000
H  35.74000 60.04400 41.42900
H  36.52300 60.62000 39.96500
H  37.55300 59.75100 41.17900
H  32.29400 62.60000 39.20000
H  30.04600 62.43200 41.16900
H  33.50000 62.19300 41.81300
H  32.06000 63.03700 42.13700
H  33.20700 63.72900 40.93600
H  30.48000 64.23200 39.12100
H  28.89400 63.50500 39.49900
H  30.12200 63.72400 36.95500
H  28.91700 62.41100 37.43400
H  30.69400 62.12000 37.32700
H  25.16200 60.68800 39.21300
H  25.19900 59.95900 40.87400
H  24.46200 59.11000 39.50500
H  26.47900 55.08400 37.17500
H  24.01200 52.05000 38.84400
H  23.62300 53.37200 40.09600
H  25.01200 52.34600 40.25500

