158

Mg 24.46400 -5.52200 46.43100
C  26.23900 -2.96100 44.61500
C  21.82100 -4.75500 44.48800
C  23.18600 -8.48500 47.39900
C  27.49400 -6.43300 47.97300
N  24.06000 -3.99200 44.70500
C  24.86400 -3.03700 44.22400
C  24.22300 -2.28800 43.07900
C  22.77300 -2.67400 43.28300
C  22.87200 -3.85500 44.15500
C  21.78700 -1.63800 43.87000
C  24.77700 -2.58200 41.68200
C  25.07600 -1.30300 40.88000
H  24.66200 -1.30100 39.41800
N  22.75800 -6.37800 46.00300
C  21.77800 -5.96000 45.18600
C  20.67100 -6.86400 45.19100
C  20.88700 -7.85600 46.13700
C  22.31100 -7.60800 46.56800
C  19.37900 -6.61800 44.42100
C  19.95300 -8.91800 46.47400
O  18.78700 -9.04400 46.02700
C  20.34000 -10.07500 47.42500
N  25.15000 -7.09800 47.68800
C  24.43900 -8.28200 47.86000
C  25.20300 -9.32900 48.79000
C  26.55400 -8.60000 49.00700
C  26.43800 -7.28600 48.15300
C  24.49500 -9.67100 50.14600
C  27.80700 -9.47800 48.87900
C  28.80100 -9.28700 50.09500
N  26.41500 -4.84700 46.39800
C  27.56500 -5.25000 47.08700
C  28.68700 -4.43300 46.78600
C  28.24200 -3.57900 45.78100
C  26.82800 -3.82000 45.60600
C  30.09300 -4.61200 47.34600
C  28.58000 -2.39100 44.87800
O  29.54300 -1.67900 44.76200
C  27.31000 -2.09700 44.06300
C  26.91000 -0.61500 44.08400
O  26.11800 0.01900 44.80500
O  27.67500 0.07600 43.19700
C  27.50500 1.46900 42.90800
H  20.89300 -4.35900 44.06900
H  22.84700 -9.48300 47.68500
H  28.41000 -6.80300 48.43600
H  24.33700 -1.24900 43.38700
H  22.31900 -2.90200 42.31900
H  22.29200 -0.78600 44.32600
H  21.15100 -2.02700 44.66500
H  21.16000 -1.18000 43.10500
H  24.15800 -3.24800 41.08100
H  25.74700 -3.07100 41.77200
H  26.15300 -1.29400 40.71400
H  24.70500 -0.46500 41.47000
H  18.56900 -6.20300 45.02000
H  19.06500 -7.56300 43.97600
H  19.60500 -5.99400 43.55600
H  20.87300 -9.74400 48.31600
H  21.00600 -10.75100 46.88900
H  19.51800 -10.74900 47.66600
H  25.42600 -10.26200 48.27200
H  26.48500 -8.03300 49.93500
H  25.18200 -9.33400 50.92200
H  24.56000 -10.75900 50.18500
H  23.49200 -9.25700 50.25100
H  28.36100 -9.13700 48.00400
H  27.61700 -10.54200 48.74200
H  28.48700 -8.45800 50.73000
H  29.77600 -8.95200 49.74100
H  28.96400 -10.19000 50.68300
H  30.77300 -3.85200 46.95900
H  30.24300 -5.65800 47.08000
H  30.00900 -4.60100 48.43200
H  27.72000 -2.36000 43.08800
H  27.86100 1.74100 41.91400
H  28.01600 2.06900 43.66200
H  26.47500 1.79700 43.04800
Mg 17.29400 52.81200 26.33100
C  19.30500 51.02700 28.68800
C  14.83000 53.03300 28.87100
C  15.24700 54.14900 24.08800
C  19.57800 51.72900 23.83600
N  17.08500 52.07700 28.55400
C  18.10900 51.51200 29.27500
C  17.73200 51.43900 30.74000
C  16.16600 51.69100 30.70100
C  15.95500 52.29500 29.30800
C  15.35900 50.43400 30.80600
C  18.64900 52.45100 31.48900
C  18.96500 52.04200 33.00100
H  17.88300 51.38800 33.83500
N  15.27300 53.55100 26.42500
C  14.51800 53.67000 27.56700
C  13.32300 54.43800 27.22800
C  13.35600 54.77900 25.81900
C  14.63500 54.12200 25.33000
C  12.29100 54.96800 28.28600
C  12.47000 55.51500 24.85700
O  12.60800 55.52500 23.61300
C  11.46900 56.41000 25.51800
N  17.40700 52.90500 24.37200
C  16.51400 53.70000 23.67100
C  16.77700 53.60300 22.15600
C  18.18200 53.06800 22.09900
C  18.45900 52.54200 23.49400
C  15.69800 52.88800 21.24700
C  19.31800 53.98500 21.57000
C  19.64100 55.17300 22.50200
N  19.12300 51.66800 26.25400
C  19.93700 51.35800 25.13000
C  21.08400 50.58200 25.58100
C  20.86000 50.40500 26.97500
C  19.69300 51.10600 27.34200
C  22.21900 50.22600 24.65100
C  21.53100 49.83500 28.10300
O  22.59100 49.18300 28.21600
C  20.52500 50.26300 29.35000
C  20.04400 49.06700 30.05900
O  19.36100 48.10700 29.60300
O  20.38300 49.22900 31.41200
C  20.19400 48.06800 32.28500
H  14.10000 52.95700 29.67900
H  14.60800 54.58100 23.31500
H  20.22400 51.39100 23.02300
H  17.85100 50.45300 31.19000
H  15.88700 52.38800 31.49100
H  15.07100 50.31500 31.85100
H  15.77900 49.49600 30.44500
H  14.48300 50.56300 30.17200
H  18.12600 53.40700 31.51400
H  19.61900 52.61800 31.02100
H  19.57200 52.73300 33.58400
H  19.57400 51.14200 32.91600
H  12.69400 55.91300 28.65100
H  12.42100 54.32700 29.15800
H  11.29000 55.12100 27.88300
H  11.02400 56.96100 24.69000
H  11.94900 57.22900 26.05500
H  10.76800 55.81200 26.10000
H  16.89700 54.61600 21.77100
H  18.21200 52.17000 21.48300
H  16.12000 52.85600 20.24300
H  14.80900 53.51800 21.24800
H  15.52200 51.88100 21.62600
H  18.92400 54.40800 20.64600
H  20.19800 53.36300 21.40200
H  19.41500 56.09200 21.96000
H  20.71600 55.15200 22.68100
H  19.00500 55.21100 23.38700
H  23.14500 50.07300 25.20400
H  22.19200 51.01500 23.89800
H  22.04300 49.31600 24.07700
H  21.02500 50.89600 30.08300
H  19.86500 47.14800 31.80200
H  19.45400 48.36300 33.02900
H  21.04200 47.82500 32.92500

