158

Mg 1.38200 8.13800 26.99300
C  1.97600 9.77400 29.81800
C  1.33900 5.09700 28.68400
C  0.97800 6.43500 24.02900
C  2.01300 10.95800 25.12500
N  1.56100 7.54700 29.07900
C  1.60100 8.43600 30.10700
C  1.60100 7.73200 31.45600
C  1.45900 6.22900 31.06400
C  1.40300 6.26900 29.52400
C  2.62500 5.34500 31.63400
C  0.43300 8.28300 32.31500
C  0.06000 7.60300 33.65300
H  1.07400 7.57400 34.84200
N  1.05400 6.05700 26.41000
C  1.14600 5.01700 27.23800
C  0.85400 3.77200 26.55200
C  0.67800 4.19300 25.19800
C  0.85000 5.62800 25.18200
C  0.77700 2.38900 27.27800
C  0.34600 3.39700 24.01000
O  0.21800 3.89700 22.89400
C  0.25600 1.85900 24.13500
N  1.55200 8.64600 24.88300
C  1.26100 7.80100 23.87300
C  1.37600 8.50300 22.53800
C  1.45800 10.03800 22.92600
C  1.68200 9.86400 24.38400
C  2.66100 8.04800 21.83100
C  0.17400 10.93200 22.53100
C  -1.16600 10.21200 22.64600
N  1.98000 10.03600 27.36500
C  2.20800 11.09000 26.51900
C  2.50800 12.26800 27.29500
C  2.52900 11.80500 28.63300
C  2.11000 10.46300 28.58000
C  2.85900 13.68900 26.83800
C  2.74800 12.13600 30.00700
O  2.96000 13.25200 30.44800
C  2.25100 10.92700 30.85500
C  3.35300 10.64700 31.85000
O  4.18000 9.74700 31.73600
O  3.34500 11.60700 32.85200
C  4.21700 11.25500 33.94100
H  1.19400 4.16500 29.23400
H  0.93500 5.98400 23.03500
H  2.35900 11.83800 24.57900
H  2.50500 7.97300 32.01400
H  0.52300 5.77300 31.38800
H  3.21900 5.08100 30.75900
H  2.21500 4.42000 32.04000
H  3.33400 5.87100 32.27400
H  -0.52100 8.28100 31.78800
H  0.57300 9.27400 32.74800
H  -0.10200 6.54700 33.43800
H  -0.92700 7.92400 33.98500
H  1.47400 1.61800 26.95000
H  -0.26800 2.16300 27.06900
H  0.90600 2.40500 28.36100
H  -0.60800 1.57000 24.73300
H  1.14100 1.46700 24.63500
H  0.19900 1.30800 23.19600
H  0.63500 8.29000 21.76800
H  2.34900 10.54300 22.55200
H  3.39200 8.85400 21.76600
H  2.55300 7.92300 20.75400
H  3.02700 7.16500 22.35600
H  0.21600 11.16300 21.46600
H  0.17500 11.85500 23.11000
H  -1.02800 9.14600 22.82500
H  -1.81700 10.33700 21.78000
H  -1.72500 10.58300 23.50500
H  3.47600 14.24000 27.54800
H  1.94200 14.25500 26.67400
H  3.36900 13.63700 25.87700
H  1.34000 11.17000 31.40400
H  3.70300 10.52700 34.56900
H  4.34800 12.16200 34.53200
H  5.16300 10.83700 33.59700
Mg 35.94000 2.69500 30.64100
C  33.21600 3.40500 33.01600
C  38.17300 2.76900 33.36900
C  38.38600 1.94300 28.57000
C  33.59700 2.92000 28.15000
N  35.66700 3.08900 32.90200
C  34.49100 3.31800 33.61400
C  34.84800 3.32500 35.13100
C  36.42500 3.52400 35.13500
C  36.83900 3.13100 33.67800
C  36.91600 4.97700 35.50600
C  34.36100 2.03000 35.84900
C  33.87000 2.15200 37.32600
H  34.30500 3.41300 38.06000
N  37.99200 2.24200 30.95200
C  38.66800 2.23100 32.16000
C  40.04700 1.78400 31.83600
C  40.12700 1.62900 30.46900
C  38.79600 1.98300 29.95600
C  41.12400 1.69600 32.86800
C  41.27100 1.22200 29.61500
O  41.19100 1.04600 28.40500
C  42.56000 0.82700 30.31300
N  36.03600 2.59400 28.62600
C  37.18000 2.25400 27.93600
C  36.92000 2.35400 26.44500
C  35.34500 2.58200 26.33200
C  34.98000 2.72300 27.81700
C  37.83700 3.45200 25.83700
C  34.54200 1.33400 25.82500
C  33.49800 1.78500 24.84400
N  33.76500 3.17400 30.55200
C  33.00700 3.18800 29.43000
C  31.69300 3.46800 29.78000
C  31.62500 3.56000 31.18300
C  33.01100 3.40000 31.60700
C  30.53000 3.50800 28.83000
C  30.83300 3.75400 32.38200
O  29.66000 3.91100 32.51200
C  31.85800 3.69100 33.64800
C  31.86600 4.96300 34.39200
O  32.58900 5.94400 34.22100
O  30.96200 4.84000 35.41800
C  30.98600 5.98700 36.37000
H  38.79400 2.79900 34.26700
H  39.17200 1.79600 27.82600
H  32.87500 2.94300 27.33100
H  34.30700 4.14300 35.60700
H  36.88500 2.91000 35.90900
H  37.41900 4.93600 36.47200
H  36.04200 5.62800 35.51100
H  37.62700 5.22800 34.72000
H  35.15300 1.30600 35.66100
H  33.54100 1.69000 35.21600
H  34.08900 1.20900 37.82700
H  32.78000 2.15400 37.31300
H  41.69000 0.76500 32.83100
H  40.69200 1.67900 33.86800
H  41.88000 2.48100 32.86800
H  42.24400 -0.12100 30.75000
H  42.93000 1.61000 30.97300
H  43.26200 0.61400 29.50700
H  37.18400 1.36600 26.06700
H  35.06700 3.48900 25.79400
H  37.20400 4.13700 25.27400
H  38.64100 3.02500 25.23600
H  38.24000 4.09200 26.62100
H  34.05200 0.77100 26.61900
H  35.15100 0.63200 25.25600
H  33.79800 1.41100 23.86500
H  33.20700 2.82600 24.98800
H  32.58300 1.25300 25.10500
H  30.40900 2.54200 28.34100
H  30.61000 4.37600 28.17500
H  29.59500 3.65000 29.37100
H  31.58800 2.97600 34.42500
H  29.97000 6.37700 36.43300
H  31.60200 6.86700 36.18800
H  31.32600 5.64200 37.34600

