158

Mg 24.34100 -6.37600 45.31700
C  26.42100 -4.14900 43.76500
C  21.70700 -5.38200 43.40000
C  22.72500 -9.34800 46.14000
C  27.17600 -7.65900 47.08800
N  24.13300 -4.94500 43.79200
C  25.11200 -4.08600 43.33000
C  24.51800 -3.02600 42.29500
C  22.94400 -3.28000 42.34000
C  22.89900 -4.67000 43.14000
C  22.10300 -2.14200 43.05400
C  25.11700 -3.32200 40.81100
C  25.32900 -2.00200 40.04400
H  24.87400 -1.87900 38.55900
N  22.42200 -7.18900 45.00400
C  21.47800 -6.62100 44.14500
C  20.29100 -7.49200 44.15500
C  20.50300 -8.48400 45.10100
C  21.92500 -8.41300 45.38300
C  19.06600 -7.18300 43.31400
C  19.47100 -9.36700 45.68300
O  18.36000 -9.10000 45.39900
C  19.82800 -10.34600 46.60000
N  24.97000 -8.32100 46.36100
C  24.07700 -9.34300 46.58800
C  24.63700 -10.41200 47.56700
C  26.05900 -9.76800 47.90600
C  26.07500 -8.50000 47.12200
C  23.74100 -11.03000 48.72600
C  27.26200 -10.80300 47.64000
C  28.46600 -10.96300 48.64300
N  26.40200 -6.03300 45.30400
C  27.38400 -6.55500 46.17100
C  28.67100 -5.82300 46.01700
C  28.31400 -4.93000 44.94500
C  26.99800 -5.08200 44.65300
C  29.89200 -5.97700 46.69600
C  28.86800 -3.87700 44.09700
O  29.95400 -3.38500 44.01000
C  27.58800 -3.33800 43.31500
C  27.54100 -1.86300 43.53700
O  26.90600 -1.31900 44.39300
O  28.34700 -1.21200 42.66700
C  28.43300 0.26800 42.87200
H  20.85900 -5.01800 42.81600
H  22.19000 -10.26600 46.39300
H  28.06100 -7.96800 47.64700
H  24.78500 -2.00100 42.55200
H  22.58100 -3.34100 41.31400
H  22.71700 -1.24500 43.14200
H  21.84600 -2.42600 44.07400
H  21.17000 -2.11800 42.49200
H  24.37800 -3.95400 40.31800
H  25.99400 -3.95200 40.96400
H  26.39100 -1.75800 40.01300
H  24.96800 -1.10500 40.54800
H  19.32800 -6.80700 42.32500
H  18.32800 -6.58800 43.85200
H  18.55100 -8.11900 43.09500
H  20.38800 -9.85400 47.39500
H  20.41400 -11.13900 46.13600
H  18.97800 -10.88300 47.02100
H  24.98500 -11.17100 46.86600
H  25.96400 -9.35900 48.91200
H  24.39200 -11.30500 49.55600
H  23.10900 -11.80600 48.29400
H  23.14700 -10.26200 49.22200
H  27.65200 -10.33100 46.73800
H  26.84500 -11.80500 47.53800
H  28.09900 -11.70500 49.35200
H  28.75100 -9.98200 49.02300
H  29.32900 -11.32100 48.08100
H  29.68800 -6.04600 47.76400
H  30.48500 -5.08500 46.48900
H  30.52000 -6.82300 46.41800
H  27.63300 -3.44400 42.23100
H  28.59300 0.52600 43.91900
H  27.46500 0.66000 42.55900
H  29.18800 0.83700 42.32900
Mg 55.17200 23.15800 44.63100
C  52.77700 25.43100 43.81300
C  53.20300 20.57500 43.52500
C  57.86700 21.09800 44.65300
C  57.27000 25.91400 45.65500
N  53.31200 22.97500 43.66200
C  52.46600 24.10300 43.45100
C  51.02600 23.67400 42.97900
C  51.04800 22.13500 43.34700
C  52.57800 21.81000 43.55000
C  50.19500 21.58400 44.50300
C  50.83600 23.87800 41.46600
C  49.50500 24.14100 40.91900
H  49.30800 23.82700 39.39100
N  55.46700 21.09600 44.18400
C  54.58200 20.20100 43.65000
C  55.12000 18.94400 43.53100
C  56.39900 19.03200 44.11000
C  56.65500 20.48500 44.37000
C  54.33000 17.78200 42.92000
C  57.26200 17.80500 44.48300
O  56.91100 16.67800 44.15200
C  58.56400 17.95600 45.24000
N  57.25500 23.44500 45.16700
C  58.13900 22.41200 45.03800
C  59.58600 22.83000 45.41500
C  59.35900 24.35700 45.95100
C  57.89800 24.66200 45.52800
C  60.38000 22.01900 46.43600
C  60.39700 25.30200 45.36000
C  61.35000 25.84200 46.46400
N  54.99300 25.23400 44.86100
C  55.86600 26.25800 45.27100
C  55.16200 27.54000 45.34200
C  53.91200 27.24700 44.80400
C  53.91600 25.87100 44.46300
C  55.80000 28.81900 45.92800
C  52.69200 27.81600 44.30700
O  52.41400 28.99200 44.31400
C  51.85800 26.66400 43.68900
C  51.67000 27.08600 42.33200
O  52.53900 27.00200 41.45200
O  50.35500 27.39600 42.12400
C  49.98600 28.04500 40.85200
H  52.49000 19.79700 43.24600
H  58.74700 20.45200 44.60100
H  57.81300 26.79600 46.00300
H  50.22900 24.09600 43.59200
H  50.78300 21.61800 42.42400
H  49.93400 22.37800 45.20300
H  50.67500 20.82400 45.12100
H  49.27400 21.23600 44.03600
H  51.41800 23.12000 40.94200
H  51.42200 24.79200 41.37700
H  49.26500 25.18700 41.10900
H  48.86300 23.50500 41.52800
H  53.63100 18.20600 42.19800
H  53.78800 17.24800 43.70100
H  55.06500 17.11100 42.47600
H  59.36700 18.28800 44.58300
H  58.98100 17.04500 45.67000
H  58.36400 18.50400 46.16100
H  60.19400 22.93700 44.51600
H  59.43500 24.35500 47.03900
H  61.26600 21.61200 45.94700
H  59.81900 21.17500 46.83800
H  60.55000 22.59800 47.34300
H  59.85600 26.04000 44.76900
H  61.03000 24.79100 44.63500
H  62.31000 25.33200 46.37600
H  61.02300 25.66600 47.48900
H  61.40900 26.93000 46.48900
H  56.39400 29.28100 45.14000
H  56.49800 28.58300 46.73200
H  54.96500 29.46500 46.19700
H  50.97400 26.51300 44.30900
H  50.80500 28.49300 40.28900
H  49.18600 28.77500 40.97800
H  49.62400 27.15900 40.33100

