158

Mg 1.22100 -1.33900 45.20400
C  4.38000 -0.28800 44.19900
C  -0.10800 1.49100 43.49500
C  -1.83700 -2.61800 45.42200
C  2.70100 -4.42700 46.26700
N  1.93900 0.41400 44.09300
C  3.34900 0.61800 43.86800
C  3.61400 2.02000 43.09800
C  2.17200 2.73500 43.15000
C  1.26100 1.50800 43.56500
C  2.10700 3.95000 43.98300
C  4.16300 1.71600 41.58600
C  5.44100 2.46500 41.06800
H  6.80400 1.77700 40.64200
N  -0.74600 -0.67300 44.57600
C  -1.07300 0.50900 43.91200
C  -2.44900 0.62100 43.93800
C  -3.03500 -0.58900 44.36900
C  -1.85100 -1.33000 44.88900
C  -2.95900 1.88700 43.25900
C  -4.49000 -0.90700 44.42600
O  -5.32100 -0.04300 44.07400
C  -5.02700 -2.29400 44.68600
N  0.53300 -3.27100 45.57300
C  -0.81700 -3.49200 45.75400
C  -1.07500 -4.90000 46.41400
C  0.35900 -5.26400 46.83600
C  1.29300 -4.27700 46.12600
C  -2.21000 -5.20000 47.46200
C  0.78300 -6.81300 46.58900
C  0.84000 -7.77300 47.81800
N  3.19400 -2.18800 45.30200
C  3.63100 -3.45200 45.77300
C  5.03200 -3.45900 45.75600
C  5.40800 -2.26400 45.12000
C  4.22100 -1.55500 44.82500
C  5.94200 -4.44000 46.39100
C  6.49100 -1.42600 44.71400
O  7.69000 -1.52700 44.74200
C  5.91900 -0.10100 44.13000
C  6.29400 1.09800 44.96700
O  6.21500 1.18900 46.19300
O  6.76400 2.07700 44.15900
C  7.40700 3.27500 44.77000
H  -0.47700 2.41000 43.03400
H  -2.83800 -3.05200 45.47400
H  3.12400 -5.31700 46.73800
H  4.22400 2.71900 43.66900
H  1.81400 3.03500 42.16500
H  3.04500 4.48400 44.13300
H  1.77600 3.71400 44.99500
H  1.31400 4.57000 43.56600
H  3.35700 1.99100 40.90700
H  4.33400 0.64200 41.51600
H  5.70500 3.26700 41.75700
H  5.15100 2.90000 40.11100
H  -4.02700 1.96800 43.46100
H  -3.04600 1.82900 42.17400
H  -2.40500 2.77100 43.57500
H  -4.33200 -3.02200 44.26800
H  -5.93400 -2.41800 44.09400
H  -5.25700 -2.48600 45.73500
H  -1.27100 -5.47200 45.50700
H  0.51300 -5.15300 47.91000
H  -3.12200 -5.66000 47.08200
H  -2.52600 -4.24000 47.86900
H  -1.84500 -5.87100 48.24000
H  1.74000 -6.98400 46.09600
H  0.02800 -7.18300 45.89500
H  1.33200 -8.72600 47.62300
H  -0.15800 -8.12300 48.08000
H  1.30300 -7.30500 48.68700
H  5.53000 -5.41300 46.12300
H  5.90900 -4.34200 47.47600
H  6.93700 -4.37200 45.95000
H  6.35400 -0.13200 43.13100
H  6.87200 4.22500 44.74700
H  8.33000 3.46700 44.22400
H  7.66300 3.18200 45.82600
Mg 29.67800 57.24600 40.19000
C  27.11800 54.78700 39.25600
C  32.09300 54.83100 39.25400
C  31.84000 59.68400 40.11900
C  26.98200 59.47600 40.63000
N  29.58200 55.02000 39.35200
C  28.42800 54.34800 39.06000
C  28.84800 53.07600 38.33800
C  30.38800 52.98500 38.71400
C  30.75900 54.34200 39.11300
C  30.72800 51.92100 39.73500
C  28.51000 53.15400 36.79300
C  27.29700 52.33500 36.25100
H  26.44300 53.09400 35.19400
N  31.74400 57.29800 39.89300
C  32.47500 56.17700 39.54600
C  33.84400 56.62900 39.42100
C  33.87900 58.03700 39.70400
C  32.44900 58.39800 39.95300
C  34.95300 55.63800 39.06400
C  35.13100 58.98100 39.66500
O  36.20900 58.50100 39.46200
C  35.00300 60.44500 39.98400
N  29.41400 59.26400 40.19300
C  30.52500 60.10700 40.31500
C  30.08400 61.58400 40.39200
C  28.53600 61.48100 40.74500
C  28.28400 59.99700 40.52400
C  30.93500 62.44100 41.36500
C  27.59000 62.46600 39.94400
C  26.71300 63.35200 40.75800
N  27.48200 57.14800 40.05600
C  26.61500 58.17300 40.31000
C  25.24100 57.66400 40.27400
C  25.40500 56.33800 39.74700
C  26.80500 56.07800 39.71300
C  23.95300 58.39300 40.75100
C  24.71700 55.12900 39.31300
O  23.50600 55.00900 39.03900
C  25.82800 54.08400 38.94500
C  25.50700 52.98700 39.78700
O  26.25700 52.61500 40.64400
O  24.33100 52.37400 39.51300
C  24.04100 51.17500 40.31600
H  32.81100 54.07600 38.92600
H  32.58400 60.48400 40.13300
H  26.20200 60.19100 40.89900
H  28.32400 52.19100 38.69900
H  30.89700 52.80800 37.76700
H  31.52100 52.41600 40.29600
H  31.17800 51.09700 39.18300
H  29.85400 51.57300 40.28500
H  29.35400 52.66200 36.31000
H  28.46900 54.16000 36.37400
H  26.73400 51.90200 37.07900
H  27.75800 51.44100 35.83300
H  35.89300 56.07200 38.72500
H  34.59200 55.01700 38.24400
H  35.22100 55.09700 39.97200
H  34.55400 60.40400 40.97600
H  34.49300 60.97000 39.17700
H  35.99900 60.88700 40.03200
H  30.17000 61.95400 39.37000
H  28.47600 61.77800 41.79200
H  31.45200 63.11700 40.68300
H  31.69200 61.87200 41.90500
H  30.41600 63.05500 42.10100
H  26.84800 61.76200 39.56800
H  27.98800 63.07700 39.13500
H  26.42800 64.18900 40.12000
H  27.18600 63.78300 41.64100
H  25.82200 62.93300 41.22600
H  23.97500 58.24200 41.83000
H  23.02200 58.03900 40.30800
H  23.91400 59.45100 40.49400
H  25.73700 53.73800 37.91600
H  23.34600 51.39400 41.12600
H  24.89700 50.78500 40.86800
H  23.64100 50.38500 39.68100

