158

Mg 54.24600 22.97900 44.69600
C  52.09100 25.53000 43.64800
C  52.02600 20.66200 44.01800
C  56.76000 20.67700 44.90700
C  56.68800 25.56700 45.53300
N  52.34300 23.11300 43.82700
C  51.54600 24.24300 43.52000
C  50.13200 23.85600 43.11600
C  50.00500 22.38200 43.65400
C  51.53400 21.98600 43.80700
C  49.21400 22.18000 45.03400
C  49.86100 24.05300 41.70300
C  48.56700 24.71800 41.39800
H  47.80300 24.24400 40.19600
N  54.40400 20.82000 44.36800
C  53.30900 20.07800 44.11000
C  53.69100 18.74500 44.08300
C  55.17600 18.71000 44.25900
C  55.54800 20.10400 44.49000
C  52.75500 17.62700 43.73300
C  56.00600 17.45900 44.42600
O  55.49700 16.42500 44.17900
C  57.48500 17.30300 44.99000
N  56.53300 23.20900 44.85500
C  57.27100 22.03200 45.01900
C  58.73400 22.40200 45.59700
C  58.68600 23.95400 45.82400
C  57.20400 24.28900 45.35700
C  59.33300 21.51900 46.78500
C  59.73000 24.73500 44.87700
C  60.80700 25.61400 45.46900
N  54.42700 25.06700 44.68200
C  55.41200 25.95900 44.97600
C  54.97100 27.33900 44.79700
C  53.71000 27.17000 44.19700
C  53.41200 25.80600 44.15700
C  55.67700 28.64300 45.05000
C  52.54800 27.90700 43.65400
O  52.48200 29.13400 43.69300
C  51.50700 26.86200 43.08900
C  51.53500 27.02200 41.58700
O  52.52600 26.86000 40.89200
O  50.36700 27.57500 41.17800
C  50.27700 28.22800 39.85400
H  51.08900 20.10500 43.94600
H  57.48600 19.86700 45.00000
H  57.39900 26.30500 45.91100
H  49.42700 24.45600 43.69100
H  49.41200 21.89600 42.87800
H  49.73200 21.64900 45.83400
H  48.37600 21.54200 44.75100
H  48.83600 23.12600 45.42200
H  49.84500 23.10300 41.16900
H  50.65100 24.67500 41.28200
H  48.73900 25.78600 41.26500
H  47.88000 24.84200 42.23500
H  52.80600 17.38300 42.67200
H  51.71200 17.91800 43.86400
H  52.92300 16.74400 44.34900
H  57.42600 17.70800 46.00000
H  58.03100 18.03000 44.38800
H  57.89300 16.31100 44.79500
H  59.33800 22.25100 44.70300
H  58.90100 24.17700 46.86900
H  58.77200 20.59000 46.88600
H  59.40400 22.04500 47.73600
H  60.35400 21.20600 46.56500
H  59.15400 25.35900 44.19300
H  60.20500 24.08000 44.14700
H  60.62900 25.56900 46.54400
H  60.75100 26.65300 45.14500
H  61.79700 25.23200 45.22400
H  56.72200 28.56700 45.34800
H  55.09200 29.04500 45.87800
H  55.62200 29.34700 44.21900
H  50.53900 27.03300 43.56100
H  49.67800 27.58300 39.21100
H  51.19600 28.39700 39.29300
H  49.68300 29.13300 39.97300
Mg -1.71700 34.83100 26.81300
C  -3.21600 32.93500 29.38500
C  -0.67600 37.08300 29.13200
C  -0.57000 36.69500 24.25900
C  -3.25000 32.65800 24.46400
N  -1.91800 34.99200 28.98700
C  -2.52300 34.07100 29.83300
C  -2.37000 34.52100 31.34900
C  -1.67300 35.88700 31.16700
C  -1.42900 36.00400 29.65400
C  -2.45900 37.04600 31.75000
C  -1.41900 33.51300 32.07000
C  -1.90200 32.88200 33.37300
H  -0.85800 32.79500 34.48900
N  -0.66500 36.61600 26.66500
C  -0.29500 37.39100 27.77100
C  0.44800 38.51900 27.32800
C  0.46500 38.41200 25.87900
C  -0.28800 37.22600 25.49600
C  0.99400 39.59500 28.18000
C  1.13300 39.45400 24.87200
O  1.19000 39.18300 23.64800
C  1.92300 40.61100 25.38000
N  -1.94000 34.78300 24.60400
C  -1.31100 35.63900 23.80100
C  -1.53400 35.24000 22.34900
C  -2.33200 33.88000 22.41600
C  -2.52500 33.75200 23.94700
C  -2.31200 36.38300 21.53200
C  -1.81100 32.54600 21.73600
C  -0.50800 32.08600 22.29400
N  -3.03300 33.21300 26.81400
C  -3.58800 32.44500 25.81600
C  -4.38600 31.37500 26.40600
C  -4.27900 31.52700 27.78600
C  -3.42400 32.58200 28.06100
C  -5.18900 30.32600 25.60000
C  -4.68900 30.92500 29.11400
O  -5.38200 29.99400 29.37300
C  -3.87200 31.81400 30.18800
C  -4.96500 32.23900 31.12900
O  -5.52700 33.35300 31.08000
O  -5.10800 31.31700 32.17300
C  -6.08700 31.59400 33.20000
H  -0.50600 37.88400 29.85400
H  -0.05200 37.13400 23.40300
H  -3.73500 31.97400 23.76500
H  -3.39600 34.57600 31.71100
H  -0.65200 35.96500 31.54200
H  -3.31900 36.60400 32.25300
H  -2.88400 37.58300 30.90200
H  -1.80700 37.60500 32.42000
H  -0.42000 33.89900 32.27300
H  -1.25100 32.69200 31.37300
H  -2.05200 31.82300 33.16600
H  -2.83500 33.30200 33.75200
H  2.06000 39.65500 27.95900
H  0.88400 39.34500 29.23500
H  0.53700 40.54900 27.91900
H  1.14300 41.27200 25.75800
H  2.48000 40.96100 24.51100
H  2.61000 40.28600 26.16100
H  -0.56500 34.90600 21.97900
H  -3.31700 34.14600 22.03300
H  -2.73900 37.01800 22.30800
H  -3.07100 35.87000 20.94100
H  -1.55600 36.93300 20.97200
H  -1.67000 32.65300 20.66100
H  -2.57700 31.78700 21.89700
H  0.26200 32.08000 21.52200
H  -0.54100 31.06300 22.66900
H  -0.15800 32.73600 23.09600
H  -6.04300 30.70500 25.04000
H  -5.55300 29.51200 26.22700
H  -4.47500 29.87400 24.91100
H  -3.13300 31.23700 30.74400
H  -5.76200 32.43400 33.81500
H  -6.13600 30.73600 33.87100
H  -7.05300 31.90700 32.80300

