158

Mg 40.74100 8.15600 29.53500
C  42.21800 9.91600 32.35400
C  38.48000 6.82900 31.77500
C  39.35500 6.40600 27.06400
C  43.58300 8.97300 27.77900
N  40.33400 8.43600 31.75200
C  41.04700 9.27200 32.68500
C  40.41800 9.15200 34.11800
C  39.35600 8.00900 33.94400
C  39.34700 7.74500 32.36800
C  39.62000 6.72400 34.78800
C  39.81000 10.54900 34.58700
C  39.32800 10.43400 36.08000
H  40.05500 11.35400 37.06000
N  39.06500 6.86200 29.37000
C  38.26300 6.52600 30.41200
C  37.17700 5.70600 29.91900
C  37.37800 5.57400 28.49300
C  38.59900 6.27400 28.26000
C  36.06600 5.17600 30.87000
C  36.53600 4.92200 27.42300
O  36.75400 4.91900 26.18200
C  35.25500 4.37200 27.82300
N  41.45300 7.67200 27.73200
C  40.62900 7.02200 26.82700
C  41.33200 6.87700 25.47000
C  42.44400 7.99000 25.57700
C  42.52400 8.22800 27.16100
C  41.95900 5.56500 25.11700
C  42.04100 9.22900 24.69400
C  41.20600 10.36000 25.32100
N  42.55100 9.24400 29.89900
C  43.61600 9.43900 29.11600
C  44.64400 10.18600 29.83500
C  44.19200 10.40700 31.13300
C  42.85200 9.81300 31.14000
C  45.92200 10.47400 29.15600
C  44.47000 10.87600 32.45300
O  45.45400 11.43100 32.94300
C  43.17300 10.55200 33.32400
C  43.59900 9.75600 34.51500
O  44.38700 8.85400 34.52700
O  43.10500 10.34000 35.66500
C  43.56200 9.82700 36.91900
H  37.75500 6.49500 32.52000
H  38.98400 5.92300 26.15800
H  44.41100 9.34900 27.17500
H  41.07800 8.79500 34.90800
H  38.38100 8.37400 34.26600
H  39.62200 5.81600 34.18500
H  38.84000 6.62200 35.54200
H  40.55000 6.81200 35.35100
H  38.86600 10.84600 34.13000
H  40.48200 11.38600 34.39600
H  39.47400 9.42300 36.46000
H  38.25400 10.60700 36.15100
H  35.27300 5.65800 30.29800
H  36.10400 5.38100 31.94000
H  35.88000 4.10400 30.80300
H  34.75200 5.24300 28.24300
H  35.47500 3.66400 28.62200
H  34.67200 3.95900 27.00000
H  40.56400 7.12600 24.73800
H  43.47000 7.75900 25.29200
H  41.68200 4.82400 25.86700
H  43.04300 5.53500 25.22400
H  41.68200 5.41200 24.07400
H  41.47600 8.88100 23.82900
H  42.93000 9.70700 24.28200
H  40.94400 10.26400 26.37400
H  40.25900 10.25800 24.79100
H  41.65600 11.32900 25.10500
H  46.23000 9.62000 28.55300
H  46.66900 10.60500 29.93900
H  45.97000 11.30400 28.45100
H  42.67900 11.45400 33.68400
H  43.88800 8.79300 36.80900
H  42.79900 9.81100 37.69700
H  44.49700 10.31900 37.18900
Mg 47.62800 34.84100 28.33100
C  46.15000 33.02500 30.85900
C  47.70500 37.64900 30.60700
C  48.54600 36.87800 25.79000
C  46.80100 32.37400 26.01300
N  46.86100 35.30200 30.51000
C  46.51600 34.31600 31.36400
C  46.40500 34.87200 32.77100
C  46.61800 36.38700 32.62400
C  47.14200 36.49200 31.16800
C  45.28200 37.19800 32.79100
C  47.51000 34.25100 33.72800
C  47.11300 34.05900 35.25400
H  48.00400 34.83800 36.18100
N  48.17200 36.86100 28.28400
C  48.21600 37.82900 29.32600
C  48.76000 39.07700 28.79700
C  49.07800 38.77800 27.41400
C  48.56000 37.41200 27.10300
C  48.85500 40.33600 29.67700
C  49.67300 39.71300 26.36300
O  49.97700 39.39800 25.25300
C  50.06000 41.19800 26.73800
N  47.69100 34.64700 26.17800
C  48.10900 35.62300 25.37300
C  48.10200 35.18000 23.86900
C  47.54600 33.71500 23.94300
C  47.41200 33.49100 25.51400
C  47.12600 36.12800 23.00400
C  48.39800 32.59100 23.18700
C  49.64300 32.04500 23.91000
N  46.85600 32.98200 28.43200
C  46.49800 32.14800 27.39600
C  45.77100 30.97500 27.94500
C  45.70900 31.28400 29.35300
C  46.28500 32.55600 29.51600
C  45.24400 29.77300 27.19800
C  45.12800 30.79400 30.54700
O  44.60500 29.71000 30.81200
C  45.23300 32.04100 31.56300
C  45.77500 31.62800 32.87200
O  46.82700 31.03500 33.05300
O  44.68700 31.77100 33.76400
C  44.97800 31.25600 35.16300
H  47.82400 38.46100 31.32700
H  48.86000 37.44600 24.91200
H  46.42800 31.62100 25.31600
H  45.38500 34.66900 33.09600
H  47.23100 36.64700 33.48600
H  45.01300 37.34000 33.83800
H  44.43400 36.66100 32.36600
H  45.42300 38.20500 32.39800
H  48.40600 34.87100 33.70600
H  47.85700 33.34200 33.23700
H  47.12900 32.99200 35.47700
H  46.09100 34.27100 35.56900
H  49.59200 40.33100 30.47900
H  47.89500 40.44200 30.18100
H  49.09900 41.30000 29.23000
H  50.56000 41.69600 25.90700
H  50.90200 41.08300 27.42000
H  49.25300 41.77700 27.18700
H  49.10800 35.33300 23.47900
H  46.58700 33.61500 23.43500
H  47.10900 37.00200 23.65600
H  46.14900 35.67100 22.84600
H  47.70800 36.23400 22.08900
H  48.72900 33.00200 22.23300
H  47.76200 31.71000 23.09700
H  49.58000 31.08400 24.42000
H  49.81800 32.76600 24.70800
H  50.53800 31.98700 23.29000
H  44.80700 30.06200 26.24200
H  44.46500 29.42200 27.87600
H  45.97700 28.97100 27.10700
H  44.20000 32.37700 31.65500
H  44.70600 30.21100 35.31400
H  44.56400 31.98200 35.86300
H  46.03600 31.24000 35.42700

