158

Mg 24.59900 -4.83400 46.64700
C  26.29400 -2.06300 45.32000
C  21.84500 -3.98200 44.65500
C  23.29800 -7.90700 47.15600
C  27.61300 -5.99700 48.01800
N  24.22400 -3.22000 45.16400
C  25.02500 -2.16900 44.80400
C  24.32600 -1.26100 43.81000
C  22.79900 -1.58400 44.05500
C  22.94400 -3.05000 44.61700
C  21.95300 -0.67500 45.03000
C  24.81700 -1.58700 42.37300
C  25.36500 -0.52100 41.45300
H  24.85500 -0.60700 39.99400
N  22.76600 -5.74900 46.06700
C  21.75700 -5.18300 45.35300
C  20.71100 -6.10800 45.37200
C  21.11600 -7.28200 46.09800
C  22.44800 -7.04600 46.44600
C  19.39100 -5.82400 44.69800
C  20.18900 -8.51700 46.29400
O  19.08700 -8.61400 45.70000
C  20.55800 -9.78300 47.08800
N  25.30100 -6.75200 47.37400
C  24.59000 -7.86600 47.56600
C  25.25700 -8.81400 48.60100
C  26.73600 -8.33400 48.62000
C  26.59600 -6.95300 47.90500
C  24.62000 -8.95600 50.03300
C  27.72700 -9.26000 47.94800
C  28.70600 -10.00800 48.78900
N  26.60100 -4.15800 46.70800
C  27.67400 -4.70700 47.37600
C  28.79500 -3.69200 47.38200
C  28.34600 -2.65600 46.53500
C  27.01400 -2.98200 46.12800
C  30.08300 -3.77100 48.16300
C  28.68700 -1.33800 45.94600
O  29.72000 -0.67500 46.06100
C  27.37600 -0.90100 45.06400
C  26.86000 0.49900 45.42200
O  27.15300 1.55400 44.87200
O  25.94600 0.32200 46.45400
C  25.30200 1.53600 46.90600
H  21.02200 -3.51300 44.11200
H  22.84400 -8.79400 47.60300
H  28.48800 -6.21500 48.63500
H  24.55400 -0.23900 44.11100
H  22.32800 -1.60800 43.07200
H  21.00200 -0.38900 44.58000
H  22.40100 0.27100 45.33100
H  21.69600 -1.15800 45.97300
H  24.08900 -2.18100 41.82000
H  25.66600 -2.25800 42.50700
H  26.44300 -0.68000 41.47800
H  25.07700 0.47200 41.79700
H  19.20100 -4.77200 44.91200
H  18.54800 -6.38000 45.10900
H  19.36400 -6.05200 43.63300
H  20.75500 -9.43700 48.10300
H  21.42900 -10.32000 46.71300
H  19.66000 -10.39700 47.15300
H  25.16300 -9.80300 48.15300
H  27.13800 -8.27600 49.63100
H  25.10700 -8.36100 50.80600
H  24.35500 -9.96500 50.35000
H  23.74200 -8.33700 49.85200
H  28.34900 -8.62600 47.31600
H  27.22200 -9.90600 47.23000
H  29.68100 -9.52400 48.74000
H  28.75300 -11.04400 48.45200
H  28.45400 -9.92500 49.84600
H  30.89100 -3.16200 47.75700
H  30.35500 -4.78700 48.45100
H  29.88700 -3.23300 49.09100
H  27.58800 -0.78500 44.00200
H  24.78600 2.00000 46.06600
H  25.88300 2.26700 47.47000
H  24.49300 1.30500 47.59800
Mg 25.89600 1.06900 29.71100
C  27.70600 0.76000 32.59400
C  23.15500 1.93200 31.56800
C  24.09300 1.46900 26.84500
C  28.56000 0.12500 27.85200
N  25.46900 1.38600 31.78400
C  26.37400 1.15600 32.79900
C  25.83500 1.47700 34.14500
C  24.27700 1.49500 33.87800
C  24.27900 1.65500 32.32300
C  23.40400 0.32000 34.40300
C  26.39900 2.82700 34.76200
C  27.28600 2.58600 36.08300
H  26.83200 3.27200 37.35800
N  23.89100 1.56100 29.27500
C  22.96400 1.91000 30.18700
C  21.69500 2.13300 29.50300
C  21.89500 1.91200 28.05100
C  23.31100 1.56300 27.99800
C  20.38900 2.54700 30.10700
C  20.99700 2.16800 26.81700
O  21.27900 1.99100 25.62900
C  19.56600 2.77200 27.05500
N  26.21800 0.60500 27.62600
C  25.44100 1.03800 26.64400
C  26.18800 1.23300 25.24900
C  27.59400 0.67500 25.59600
C  27.45800 0.44100 27.12000
C  25.49700 0.62000 24.04600
C  28.78900 1.55100 25.27300
C  28.80900 2.95500 26.05300
N  27.82400 0.34800 30.10100
C  28.79500 0.03800 29.18500
C  29.98400 -0.22600 30.02900
C  29.63700 0.08200 31.38200
C  28.27600 0.43600 31.34000
C  31.33900 -0.60600 29.65300
C  30.08100 0.12200 32.76600
O  31.16100 -0.09400 33.26400
C  28.79200 0.68500 33.60000
C  28.69800 -0.34700 34.62900
O  28.07200 -1.33800 34.44900
O  29.29300 0.08900 35.77400
C  29.04200 -0.77400 36.98400
H  22.33400 2.25000 32.21300
H  23.58400 1.81400 25.94300
H  29.50800 -0.05400 27.33900
H  26.08900 0.68100 34.84500
H  23.69100 2.38400 34.10700
H  23.16500 -0.35300 33.57900
H  22.44300 0.60900 34.82700
H  23.83300 -0.27100 35.21200
H  25.51500 3.43400 34.95700
H  26.98500 3.44800 34.08500
H  28.29700 2.77300 35.72200
H  27.35100 1.54800 36.41000
H  20.59900 2.57000 31.17700
H  19.57700 1.86600 29.85300
H  20.17300 3.56700 29.79100
H  19.05900 3.04700 26.13000
H  19.67800 3.79100 27.42600
H  18.93400 2.23900 27.76600
H  26.29500 2.26000 24.89900
H  27.75700 -0.28600 25.10800
H  26.19100 -0.08300 23.58400
H  25.11900 1.36700 23.34900
H  24.78100 -0.17100 24.27100
H  28.87700 1.83600 24.22500
H  29.77400 1.09600 25.38600
H  28.28700 2.81700 26.99900
H  28.32500 3.70000 25.42200
H  29.80800 3.32500 26.28100
H  31.19200 -1.40700 28.92800
H  31.91800 -1.06000 30.45700
H  31.85500 0.23300 29.18700
H  29.15700 1.63800 33.98400
H  29.05100 -1.82200 36.68700
H  28.17100 -0.46400 37.56100
H  29.88600 -0.59100 37.64900

