158

Mg 24.91500 -4.88600 45.11700
C  26.96200 -2.36500 43.85600
C  22.30800 -3.63300 43.13200
C  23.21100 -7.65900 45.63400
C  27.64000 -6.15700 46.96400
N  24.69500 -3.30300 43.62000
C  25.71300 -2.38000 43.31100
C  25.20200 -1.40600 42.21300
C  23.68300 -1.62200 42.28700
C  23.51800 -2.91900 43.04500
C  22.91900 -0.30900 42.76800
C  25.60700 -1.83800 40.72300
C  25.78000 -0.71100 39.77500
H  25.18900 -0.81000 38.34800
N  22.99000 -5.50200 44.55900
C  22.11000 -4.85600 43.79400
C  20.93200 -5.65600 43.59500
C  21.06900 -6.80700 44.35000
C  22.46100 -6.69700 44.90500
C  19.75400 -5.11100 42.87900
C  19.94800 -7.78300 44.65100
O  18.84000 -7.71100 44.16400
C  20.20700 -8.83500 45.60200
N  25.43100 -6.69700 46.11500
C  24.47100 -7.71400 46.26000
C  24.95100 -8.82600 47.25100
C  26.42100 -8.29600 47.65500
C  26.53900 -7.01300 46.85500
C  24.12500 -9.15800 48.50400
C  27.51700 -9.23900 47.06100
C  28.22300 -10.26200 47.97400
N  26.88000 -4.37200 45.46400
C  27.88600 -4.97400 46.23900
C  29.08400 -4.12300 46.15300
C  28.74500 -3.13500 45.24000
C  27.41900 -3.34200 44.83700
C  30.40300 -4.27600 46.84200
C  29.24100 -1.95300 44.64600
O  30.34800 -1.43100 44.80500
C  28.15900 -1.49100 43.61900
C  27.96200 -0.05200 43.65500
O  27.18100 0.58300 44.34900
O  28.78300 0.53400 42.75000
C  29.03700 1.88400 42.93000
H  21.43300 -3.16600 42.67500
H  22.70700 -8.61900 45.76900
H  28.53800 -6.50700 47.47600
H  25.44800 -0.36500 42.42100
H  23.21000 -1.74300 41.31300
H  22.42300 0.23800 41.96600
H  23.61400 0.43400 43.15900
H  22.24000 -0.50800 43.59600
H  24.91100 -2.56600 40.30600
H  26.50100 -2.45200 40.83900
H  26.80800 -0.35000 39.74100
H  25.25700 0.09300 40.29300
H  20.13600 -4.97300 41.86700
H  19.44000 -4.13600 43.25000
H  18.98600 -5.88100 42.81400
H  20.47600 -8.36600 46.54900
H  20.93500 -9.48200 45.11400
H  19.28500 -9.39400 45.75900
H  24.98600 -9.70200 46.60300
H  26.58300 -8.05200 48.70500
H  23.70500 -10.15800 48.60500
H  23.29900 -8.47700 48.29900
H  24.51800 -8.79700 49.45500
H  28.33900 -8.68900 46.60300
H  27.12200 -9.80000 46.21500
H  27.87400 -10.20700 49.00500
H  29.28000 -10.00300 47.91900
H  27.99100 -11.29200 47.69900
H  30.73000 -5.27200 46.54300
H  30.29200 -4.24500 47.92600
H  31.11000 -3.56900 46.40900
H  28.48800 -1.81600 42.63200
H  30.08700 2.02300 43.18600
H  28.40500 2.43100 43.63000
H  28.90100 2.25100 41.91300
Mg -2.50800 35.39800 26.41000
C  -4.29600 33.99200 29.16600
C  -1.41700 37.74900 28.53000
C  -0.82300 36.83900 23.84000
C  -3.71900 33.00800 24.39700
N  -2.93300 35.82000 28.62000
C  -3.47300 35.05700 29.62000
C  -3.38200 35.67200 30.98600
C  -2.43300 36.87100 30.75300
C  -2.23500 36.82100 29.19600
C  -2.88900 38.15400 31.46100
C  -3.01100 34.63600 32.02700
C  -3.98200 34.62100 33.30500
H  -3.46400 34.19900 34.77000
N  -1.23300 37.06600 26.21500
C  -0.94900 37.88100 27.23400
C  0.04100 38.85900 26.72800
C  0.46800 38.37500 25.43000
C  -0.53100 37.35200 25.08200
C  0.57500 40.05100 27.51400
C  1.56700 38.93800 24.60100
O  1.76100 38.53300 23.47100
C  2.49000 40.00900 25.20600
N  -2.50000 35.13000 24.38600
C  -1.67700 35.78800 23.53500
C  -1.54000 35.09300 22.25400
C  -2.51800 33.81000 22.41600
C  -2.90900 33.96600 23.82600
C  -1.78200 35.97400 21.00700
C  -1.81500 32.46200 22.05200
C  -2.66400 31.38000 21.47900
N  -3.96900 33.95800 26.54600
C  -4.30400 32.99800 25.63500
C  -5.31300 32.12000 26.19900
C  -5.40300 32.51200 27.59500
C  -4.45600 33.58600 27.75000
C  -6.16600 31.03000 25.49600
C  -6.00700 32.13300 28.84600
O  -6.72600 31.18900 29.19200
C  -5.27000 33.08000 29.93000
C  -6.38400 33.91200 30.53700
O  -6.71400 35.07500 30.30300
O  -7.02600 33.22300 31.59200
C  -8.02800 33.99600 32.44300
H  -1.00400 38.50000 29.20600
H  -0.18800 37.25700 23.05500
H  -4.04200 32.19000 23.74900
H  -4.41200 35.96900 31.18500
H  -1.58100 36.47500 31.30500
H  -2.05500 38.52900 32.05400
H  -3.70000 37.81900 32.10800
H  -3.34700 38.88200 30.79200
H  -1.95500 34.69600 32.29200
H  -3.04200 33.69000 31.48600
H  -4.70100 33.83700 33.06900
H  -4.53400 35.56100 33.29400
H  1.64000 40.09700 27.73800
H  0.09100 40.12400 28.48800
H  0.41800 40.97600 26.95900
H  3.33700 40.27100 24.57200
H  2.97700 39.77100 26.15200
H  1.88300 40.90600 25.32700
H  -0.53700 34.68300 22.13300
H  -3.47900 33.85000 21.90300
H  -2.78800 35.77300 20.64000
H  -1.02200 35.93900 20.22600
H  -1.89800 36.99800 21.36300
H  -1.27700 31.94100 22.84400
H  -0.99200 32.58500 21.34800
H  -3.18300 30.85600 22.28100
H  -2.06800 30.75100 20.81800
H  -3.40700 31.79800 20.80000
H  -7.21600 31.32400 25.51200
H  -5.96300 30.09300 26.01500
H  -5.87600 31.07900 24.44700
H  -4.79200 32.54000 30.74700
H  -7.56500 34.75300 33.07600
H  -8.49200 33.24200 33.07800
H  -8.74800 34.46200 31.76900

