158

Mg -1.90700 34.39900 26.66700
C  -3.30500 32.43900 29.32300
C  -0.23200 36.18600 28.98000
C  -1.46900 36.78000 24.29300
C  -3.89100 32.70300 24.43000
N  -1.98000 34.31300 28.92300
C  -2.49500 33.42600 29.79200
C  -2.03500 33.70100 31.21300
C  -1.08600 34.97100 30.99200
C  -1.08900 35.15900 29.52300
C  -1.44000 36.18200 31.82700
C  -1.34100 32.53800 31.96600
C  -1.97200 32.11500 33.36100
H  -0.94700 31.69500 34.37200
N  -0.79200 36.03800 26.61100
C  -0.13500 36.63100 27.67900
C  0.70400 37.75800 27.19700
C  0.24100 38.01300 25.83900
C  -0.75800 36.93200 25.54000
C  1.74800 38.51100 28.16300
C  0.67600 39.05000 24.81100
O  0.13900 39.25100 23.73400
C  1.82600 39.90100 25.17600
N  -2.74800 34.80900 24.69600
C  -2.46500 35.89200 23.93500
C  -2.99200 35.75900 22.46100
C  -3.74800 34.36400 22.50800
C  -3.51400 33.91000 23.97300
C  -3.84400 36.98300 21.93800
C  -3.11300 33.29100 21.49100
C  -1.78000 32.65700 21.93000
N  -3.35800 32.89000 26.77000
C  -3.98200 32.22600 25.77100
C  -4.73000 31.06800 26.32700
C  -4.51200 31.18300 27.72100
C  -3.59500 32.23200 27.96300
C  -5.61200 30.15800 25.57000
C  -4.84700 30.58300 28.99100
O  -5.53000 29.60400 29.15800
C  -4.07400 31.35600 30.09100
C  -5.08300 31.78100 31.13500
O  -5.73600 32.75000 31.03000
O  -4.99300 30.89900 32.15600
C  -5.83400 31.22200 33.35300
H  0.27400 36.73400 29.77700
H  -1.32900 37.52200 23.50500
H  -4.52100 32.19300 23.69800
H  -2.98600 33.94800 31.68500
H  -0.12400 34.54200 31.27500
H  -1.54200 37.08100 31.22000
H  -0.62500 36.37400 32.52500
H  -2.36500 36.08100 32.39500
H  -0.28600 32.78300 32.08900
H  -1.30800 31.58200 31.44300
H  -2.55200 31.19300 33.37000
H  -2.63100 32.91200 33.70600
H  2.76500 38.31900 27.82100
H  1.51700 38.18700 29.17800
H  1.65600 39.59400 28.08500
H  1.44200 40.61300 25.90600
H  2.23200 40.38400 24.28600
H  2.57100 39.20300 25.55800
H  -2.13500 35.81100 21.78900
H  -4.81400 34.38400 22.28100
H  -4.86200 36.71800 21.65400
H  -3.22100 37.41400 21.15400
H  -3.91100 37.71400 22.74400
H  -2.85200 33.68500 20.50900
H  -3.91800 32.57900 21.30600
H  -1.10700 32.96000 21.12700
H  -1.83000 31.57900 22.08400
H  -1.29000 33.07900 22.80700
H  -6.18000 29.63700 26.34100
H  -5.11800 29.42300 24.93400
H  -6.25300 30.60300 24.80800
H  -3.48600 30.55300 30.53400
H  -5.92600 30.35800 34.01100
H  -6.78000 31.65300 33.02500
H  -5.21900 31.94400 33.89000
Mg -10.35400 17.17300 43.48800
C  -6.84200 16.86000 43.10700
C  -10.11900 20.43100 42.36600
C  -13.63500 17.18300 43.15700
C  -10.43900 13.62300 43.83200
N  -8.57400 18.45500 42.71300
C  -7.27800 18.17600 42.73400
C  -6.39800 19.48800 42.35600
C  -7.52400 20.59900 42.45000
C  -8.82500 19.81100 42.47000
C  -7.28400 21.61500 43.60900
C  -5.57300 19.20900 40.97800
C  -5.94100 20.05900 39.76100
H  -5.52500 19.52500 38.46000
N  -11.69300 18.55800 42.97600
C  -11.40700 19.85200 42.51800
C  -12.63500 20.57500 42.24900
C  -13.67800 19.70200 42.55500
C  -13.04000 18.36700 42.92200
C  -12.70800 22.03000 41.86500
C  -15.15300 20.05600 42.52700
O  -15.49900 21.22800 42.31700
C  -16.23600 19.07400 42.80200
N  -11.86200 15.64700 43.48700
C  -13.12300 15.95500 43.38400
C  -13.99500 14.76800 43.77600
C  -13.04800 13.55600 43.71200
C  -11.67400 14.31200 43.64000
C  -14.90900 14.90300 44.98000
C  -13.24200 12.67300 42.45100
C  -13.59900 11.20800 42.76900
N  -8.93200 15.46500 43.59300
C  -9.09400 14.15300 43.73800
C  -7.84200 13.45900 43.68500
C  -6.92600 14.50900 43.48100
C  -7.61600 15.70700 43.38700
C  -7.57000 12.01000 43.77600
C  -5.50600 14.79900 43.29500
O  -4.54200 14.07300 43.17800
C  -5.44500 16.37000 43.13100
C  -4.62600 16.97300 44.29700
O  -3.37600 16.85000 44.35700
O  -5.37700 17.51300 45.27500
C  -4.74800 17.79500 46.57600
H  -10.11400 21.51300 42.21500
H  -14.72400 17.16600 43.07500
H  -10.44500 12.53800 43.95500
H  -5.71700 19.68900 43.18300
H  -7.56000 21.27000 41.59200
H  -8.03400 21.44300 44.38200
H  -7.47900 22.58500 43.15200
H  -6.32800 21.56700 44.12900
H  -5.71700 18.16600 40.69700
H  -4.51800 19.34500 41.21700
H  -5.63000 21.07200 40.01700
H  -7.02800 20.06600 39.84000
H  -13.49400 22.14000 41.11800
H  -11.79200 22.36300 41.37800
H  -13.00700 22.71100 42.66200
H  -16.26700 18.78300 43.85200
H  -16.04100 18.27700 42.08500
H  -17.20600 19.45700 42.48500
H  -14.72900 14.63900 42.98100
H  -13.14900 13.08000 44.68700
H  -14.93500 14.12200 45.74000
H  -15.95100 15.00800 44.67700
H  -14.61800 15.83200 45.46900
H  -12.38500 12.66200 41.77700
H  -14.05700 13.03900 41.82600
H  -14.51700 10.97000 42.23100
H  -13.56400 11.02000 43.84200
H  -12.86100 10.57700 42.27400
H  -6.97200 11.66400 44.61900
H  -7.02300 11.67000 42.89600
H  -8.52300 11.48300 43.72600
H  -4.83000 16.57800 42.25500
H  -5.30900 17.78500 47.51100
H  -4.18200 18.70500 46.38000
H  -4.00700 17.01500 46.74900

