158

Mg 40.66400 9.01600 29.18000
C  42.46100 10.28500 31.86300
C  38.53300 7.64700 31.52000
C  39.05100 7.71500 26.67000
C  43.34800 9.95200 27.13200
N  40.47900 9.13000 31.40500
C  41.34000 9.70600 32.28300
C  40.80200 9.60200 33.70900
C  39.77400 8.45700 33.59500
C  39.56000 8.41500 32.04400
C  40.04700 7.04100 34.14200
C  40.13400 10.91800 34.33600
C  40.34200 11.01100 35.86400
H  40.77800 12.27200 36.49300
N  39.04400 7.78000 29.12200
C  38.27000 7.36800 30.17900
C  37.15300 6.57000 29.68200
C  37.21400 6.65100 28.24700
C  38.44800 7.40800 27.94900
C  36.15600 5.92800 30.64900
C  36.22400 6.08000 27.11000
O  36.42800 6.11000 25.92900
C  34.95300 5.42300 27.53200
N  41.32400 8.63800 27.19600
C  40.33600 8.25100 26.30800
C  40.74900 8.50000 24.84800
C  42.11900 9.16700 25.02100
C  42.31200 9.23700 26.51700
C  40.62700 7.18100 24.02300
C  42.26600 10.47200 24.24200
C  41.70300 11.71400 24.87500
N  42.46100 10.11900 29.36800
C  43.52200 10.30600 28.41400
C  44.52900 11.10300 29.12500
C  44.15500 11.08800 30.47600
C  42.89300 10.51300 30.51800
C  45.76300 11.67900 28.50200
C  44.60700 11.57800 31.69800
O  45.54100 12.23700 32.07200
C  43.48900 11.02500 32.65000
C  44.10200 10.03600 33.59600
O  44.66300 8.95900 33.33500
O  43.96900 10.57300 34.90700
C  44.57200 9.80500 35.92200
H  37.75400 7.29400 32.19800
H  38.39100 7.61200 25.80600
H  44.02100 10.28300 26.33800
H  41.58200 9.21600 34.36600
H  38.85600 8.71400 34.12400
H  40.80900 7.18700 34.90700
H  40.27900 6.28400 33.39300
H  39.22200 6.77900 34.80500
H  39.06300 10.96500 34.14400
H  40.56500 11.78700 33.83800
H  41.09200 10.30700 36.22600
H  39.41700 10.63900 36.30400
H  36.49500 5.70600 31.66100
H  36.04200 4.91100 30.27500
H  35.18700 6.42600 30.69100
H  35.09200 4.67100 28.30800
H  34.39900 5.04200 26.67300
H  34.40400 6.26000 27.96300
H  40.07100 9.17500 24.32600
H  42.80500 8.42600 24.61100
H  41.60100 6.76600 23.76500
H  40.12600 7.37700 23.07500
H  40.08500 6.44900 24.62000
H  41.73800 10.44900 23.28900
H  43.33500 10.60300 24.07800
H  41.37200 11.55900 25.90200
H  40.95000 12.10600 24.19100
H  42.49000 12.46000 24.98900
H  45.41200 12.29100 27.67100
H  46.43400 10.89100 28.15900
H  46.30300 12.21400 29.28300
H  43.06700 11.87300 33.18900
H  45.56600 9.40300 35.72400
H  43.92500 8.99500 36.25900
H  44.67600 10.52500 36.73400
Mg 7.45800 52.92200 41.84400
C  7.43900 49.43600 41.79100
C  10.70000 52.77200 40.48400
C  7.10500 56.14000 41.04400
C  3.98700 52.67700 42.64100
N  8.84000 51.34500 41.20500
C  8.64500 49.96200 41.31500
C  9.94900 49.20000 40.90600
C  10.96500 50.26700 41.08600
C  10.14300 51.55700 40.88800
C  11.74500 50.29400 42.41000
C  9.95800 48.50700 39.49700
C  9.59900 49.26800 38.17500
H  8.25300 48.98000 37.47400
N  8.80100 54.29200 40.94400
C  10.05200 54.04600 40.49200
C  10.56200 55.26900 39.96600
C  9.59800 56.36800 40.23900
C  8.43400 55.66400 40.78200
C  11.99400 55.37700 39.44300
C  9.95800 57.83700 40.10900
O  10.98900 58.15600 39.56800
C  8.95800 58.88300 40.54900
N  5.84100 54.14600 41.80100
C  5.92300 55.45100 41.41300
C  4.42200 56.06600 41.44800
C  3.56700 55.00700 42.10500
C  4.53500 53.88700 42.26000
C  4.41700 57.53200 42.00300
C  2.25500 54.69700 41.37400
C  1.02900 54.55100 42.33400
N  6.11200 51.37100 42.34100
C  4.78700 51.47800 42.75000
C  4.31600 50.15400 43.09700
C  5.31900 49.31500 42.81400
C  6.35900 50.10100 42.27500
C  2.96400 49.86600 43.71500
C  5.68400 47.90100 42.82900
O  5.08700 46.89800 43.24100
C  7.08900 47.91700 42.12900
C  7.00200 46.88700 41.01800
O  6.30200 46.94500 39.97700
O  7.71400 45.71000 41.44900
C  7.59500 44.55300 40.58700
H  11.76700 52.67600 40.27200
H  7.05500 57.17900 40.71200
H  2.92200 52.59500 42.87000
H  10.06900 48.40600 41.64200
H  11.62900 50.28800 40.22200
H  11.37200 49.55000 43.11400
H  11.54000 51.24500 42.90100
H  12.82300 50.20500 42.27100
H  9.41300 47.56500 39.55100
H  10.99100 48.16400 39.43900
H  10.40000 49.07900 37.46000
H  9.45900 50.32900 38.37800
H  11.88200 55.62200 38.38700
H  12.67000 54.53600 39.60300
H  12.48000 56.27100 39.83500
H  8.24400 58.92800 39.72600
H  9.43300 59.86300 40.60500
H  8.47900 58.76200 41.52100
H  4.29400 56.16600 40.37000
H  3.50300 55.47600 43.08700
H  4.45500 58.24200 41.17700
H  5.24800 57.71200 42.68500
H  3.41900 57.73500 42.39000
H  2.28300 53.79200 40.76700
H  2.06200 55.60100 40.79700
H  0.39500 55.42900 42.20600
H  1.46600 54.51900 43.33200
H  0.37600 53.69300 42.17200
H  2.70900 48.81000 43.80500
H  2.21500 50.24900 43.02100
H  2.78500 50.46900 44.60500
H  7.90800 47.53300 42.73700
H  7.72300 44.73900 39.52000
H  6.58600 44.16600 40.73100
H  8.27700 43.76600 40.90900

