158

Mg 1.12600 7.91400 24.99500
C  1.76000 10.02600 27.95200
C  1.41400 5.28100 26.84600
C  0.87200 6.26000 22.21800
C  1.52200 10.97300 23.16900
N  1.52700 7.68000 27.22600
C  1.55600 8.63200 28.27800
C  1.58800 7.94200 29.63000
C  1.62000 6.41000 29.25900
C  1.56300 6.42400 27.65300
C  2.77700 5.56000 29.92600
C  0.36900 8.57200 30.41000
C  0.19500 8.06500 31.79700
H  1.46500 7.79700 32.60000
N  0.98900 6.02400 24.53900
C  1.06800 5.01100 25.46900
C  1.03500 3.72900 24.79200
C  0.92400 3.98200 23.44900
C  0.92600 5.45400 23.37400
C  1.06400 2.49200 25.64300
C  0.91600 2.96400 22.27400
O  0.97400 3.30800 21.09000
C  0.81200 1.46700 22.56400
N  1.21300 8.49100 23.01900
C  1.12200 7.63400 21.99200
C  1.10900 8.29200 20.58000
C  0.72500 9.76800 20.98300
C  1.18400 9.80300 22.42800
C  2.35600 8.03600 19.64500
C  -0.76000 10.08000 20.78700
C  -1.06400 11.19000 19.84500
N  1.50800 10.09700 25.39000
C  1.63600 11.14800 24.57600
C  1.97300 12.35800 25.34300
C  1.97500 11.88900 26.60100
C  1.75900 10.53100 26.60900
C  2.19700 13.71700 24.73800
C  2.25100 12.38900 27.95200
O  2.57300 13.49500 28.41900
C  2.13400 11.13100 28.81800
C  3.31300 10.84200 29.58500
O  4.41800 10.53400 29.09400
O  3.13100 11.36700 30.84400
C  4.27700 11.10800 31.74100
H  1.53000 4.44400 27.53800
H  0.85400 5.71200 21.27400
H  1.64900 11.90700 22.61800
H  2.55300 8.20700 30.06300
H  0.64100 6.13100 29.64800
H  3.31300 4.92100 29.22500
H  2.39200 4.87900 30.68500
H  3.48600 6.12800 30.52700
H  -0.57000 8.53700 29.85800
H  0.42300 9.66100 30.39300
H  -0.34700 7.12200 31.73200
H  -0.38900 8.85000 32.27800
H  2.05500 2.04300 25.57500
H  0.19900 1.92500 25.30000
H  0.99900 2.64200 26.72000
H  -0.00900 1.30800 23.26300
H  1.74100 1.21000 23.07400
H  0.65700 0.89700 21.64900
H  0.22200 7.80400 20.17600
H  1.29600 10.48300 20.39000
H  2.95200 8.93300 19.47400
H  1.94900 7.76400 18.67100
H  2.89500 7.18800 20.06700
H  -1.12100 10.19300 21.81000
H  -1.31700 9.20700 20.44800
H  -1.75900 11.90000 20.29200
H  -1.55700 10.76800 18.96900
H  -0.20800 11.81500 19.58900
H  1.38300 13.99000 24.06700
H  3.16300 13.63800 24.23800
H  2.57400 14.46500 25.43500
H  1.30900 11.34300 29.49900
H  3.94900 11.40600 32.73700
H  5.11000 11.74800 31.44800
H  4.47600 10.03700 31.77700
Mg 8.83700 3.12400 27.05100
C  10.30400 1.67700 30.00700
C  7.02200 5.18500 29.26000
C  7.22200 4.27400 24.32000
C  10.34400 0.66100 25.15800
N  8.49800 3.26000 29.45300
C  9.37700 2.64300 30.38000
C  9.03300 3.29000 31.78300
C  7.90000 4.33600 31.46200
C  7.83100 4.26800 29.96400
C  6.51500 4.39000 32.20500
C  10.39700 3.87000 32.44100
C  10.24600 4.92400 33.49400
H  11.19200 4.78900 34.66300
N  7.33100 4.54100 26.76500
C  6.76600 5.29200 27.81000
C  5.84900 6.18900 27.16800
C  5.93700 6.02300 25.76300
C  6.82300 4.88900 25.53600
C  4.99500 7.22000 27.91400
C  5.43000 6.86200 24.53900
O  5.75900 6.68000 23.35600
C  4.51000 8.03000 24.87000
N  8.89300 2.66900 24.91900
C  8.15600 3.25700 24.05100
C  8.31200 2.60700 22.63500
C  9.38300 1.43400 22.93300
C  9.52500 1.56900 24.42200
C  7.00300 2.02800 22.04500
C  10.79300 1.60400 22.29300
C  11.53200 0.32400 21.85900
N  10.19900 1.63100 27.37800
C  10.74200 0.73700 26.50500
C  11.82700 0.03000 27.16000
C  11.64500 0.32800 28.53800
C  10.63000 1.27000 28.63300
C  12.67300 -1.10400 26.57300
C  12.14600 0.09400 29.92700
O  12.93500 -0.71400 30.22600
C  11.35800 1.00000 30.94600
C  10.89600 0.17100 32.07800
O  10.00400 -0.66400 32.08200
O  11.66300 0.45400 33.19100
C  11.53100 -0.26400 34.40700
H  6.60300 5.99700 29.85800
H  6.75400 4.60600 23.39100
H  10.77800 -0.15900 24.58200
H  8.64500 2.42400 32.31900
H  8.28500 5.33100 31.68200
H  6.25600 3.49300 32.76800
H  5.65900 4.64700 31.58200
H  6.56000 5.13100 33.00300
H  10.81700 4.32000 31.54200
H  10.92000 2.99400 32.82600
H  9.22400 4.88900 33.87000
H  10.32200 5.93300 33.08800
H  5.16900 8.23200 27.54600
H  5.09400 7.25900 28.99900
H  3.99400 6.93800 27.58900
H  5.18700 8.79600 25.24700
H  3.77200 7.78300 25.63400
H  3.91200 8.37500 24.02700
H  8.74200 3.32800 21.94000
H  8.88300 0.50000 22.67700
H  7.00600 0.94600 22.17500
H  6.89000 2.35000 21.01000
H  6.18300 2.50800 22.58000
H  11.44700 2.13100 22.98900
H  10.70700 2.20600 21.38800
H  12.00200 0.66500 20.93600
H  10.76700 -0.44500 21.74600
H  12.28600 0.08500 22.60800
H  12.99000 -0.87100 25.55600
H  12.13200 -2.05000 26.58200
H  13.57300 -1.15500 27.18600
H  12.12100 1.70100 31.28500
H  11.06700 -1.24000 34.26300
H  11.08500 0.19600 35.28900
H  12.56100 -0.43200 34.72200

