158

Mg 35.31100 1.79700 29.95700
C  32.83000 2.84200 32.17700
C  37.54800 1.85700 32.64100
C  37.71800 1.19800 27.83400
C  32.90000 2.10300 27.35700
N  35.23700 2.48300 32.08400
C  34.10000 2.71600 32.80000
C  34.31500 2.85100 34.27100
C  35.89100 2.85800 34.47200
C  36.29300 2.40300 32.92400
C  36.54800 4.29300 34.78400
C  33.69500 1.63100 35.08500
C  33.60700 1.86700 36.60500
H  34.03500 3.22800 37.27500
N  37.32200 1.47500 30.22900
C  38.05100 1.48200 31.36500
C  39.44700 0.95700 31.18600
C  39.53300 0.78200 29.73300
C  38.16400 1.14300 29.17300
C  40.56400 0.89600 32.25900
C  40.56400 0.09700 28.89100
O  40.39000 -0.25300 27.72100
C  41.88300 -0.28700 29.54200
N  35.21500 1.72200 27.94300
C  36.42000 1.34900 27.30700
C  36.08200 1.18700 25.78500
C  34.56400 1.55400 25.65600
C  34.17000 1.85400 27.04400
C  36.98700 2.09100 24.84100
C  33.70700 0.46300 24.92300
C  33.35700 0.75300 23.43500
N  33.19800 2.30800 29.69500
C  32.36100 2.35300 28.63900
C  31.00800 2.63800 29.04900
C  31.10900 2.83900 30.44100
C  32.53600 2.65800 30.78800
C  29.73300 2.84900 28.30600
C  30.40700 3.11200 31.65800
O  29.19200 3.18500 31.82200
C  31.50800 3.18500 32.77300
C  31.42200 4.60200 33.33400
O  31.84900 5.62500 32.78600
O  30.88800 4.48100 34.60300
C  30.64900 5.75300 35.19600
H  38.27100 1.69600 33.44400
H  38.49600 0.86700 27.14200
H  32.16000 2.22100 26.56300
H  33.96800 3.83000 34.60100
H  36.22300 2.15300 35.23500
H  37.29200 4.41300 33.99700
H  37.17800 4.16400 35.66400
H  35.83500 5.10400 34.93300
H  34.42700 0.82300 35.07500
H  32.77200 1.37900 34.56300
H  34.17900 1.03900 37.02200
H  32.57100 1.81500 36.93800
H  40.58500 -0.12100 32.65100
H  40.47900 1.67000 33.02200
H  41.54100 1.16500 31.85800
H  41.76300 -0.91300 30.42600
H  42.42000 0.62600 29.79800
H  42.39500 -0.87000 28.77600
H  36.24400 0.12000 25.63000
H  34.65000 2.47500 25.08000
H  37.53500 1.39700 24.20400
H  37.62600 2.73600 25.44400
H  36.46400 2.76500 24.16200
H  32.82500 0.25300 25.52800
H  34.14400 -0.53500 24.93600
H  33.46300 -0.11900 22.78900
H  33.89000 1.63300 23.07300
H  32.28700 0.95400 23.46700
H  29.20100 1.93200 28.05400
H  30.03100 3.36700 27.39400
H  29.21900 3.66300 28.81700
H  31.18800 2.41300 33.47400
H  31.36600 6.51600 34.89400
H  30.76200 5.52300 36.25600
H  29.62200 6.10700 35.10600
Mg 47.99800 14.62700 28.42400
C  45.89100 14.71700 31.10700
C  50.20000 16.59700 30.29200
C  50.09200 14.89300 25.73900
C  45.54400 13.27600 26.41200
N  48.06300 15.41100 30.55600
C  47.07400 15.34800 31.47000
C  47.48600 15.91600 32.82900
C  48.74600 16.74700 32.44700
C  49.08600 16.21100 31.01200
C  48.50300 18.28400 32.47400
C  47.88400 14.64600 33.72800
C  46.89300 14.51200 35.00000
H  47.60700 14.78800 36.33400
N  49.96100 15.47000 28.15300
C  50.66200 16.24800 29.00000
C  52.03000 16.52300 28.39600
C  52.07900 15.81800 27.12700
C  50.68700 15.32600 26.95100
C  53.08000 17.29800 29.13000
C  53.16900 15.70500 26.00000
O  52.98900 15.25400 24.82500
C  54.48800 16.32200 26.27000
N  47.83400 14.25100 26.37400
C  48.83900 14.42900 25.48700
C  48.33100 14.14000 24.05900
C  46.95100 13.36000 24.27000
C  46.74000 13.62100 25.76000
C  48.43900 15.40300 23.07800
C  46.86700 11.83000 23.93500
C  47.52900 10.87500 25.02900
N  46.09000 14.07800 28.60200
C  45.20700 13.46800 27.75400
C  44.00500 13.22800 28.42600
C  44.22000 13.70400 29.77100
C  45.53400 14.20600 29.82100
C  42.71800 12.69800 27.93400
C  43.53200 13.87500 31.06000
O  42.35800 13.74500 31.46100
C  44.55200 14.62300 31.86900
C  44.05000 15.97000 32.26900
O  43.88200 16.95100 31.50700
O  43.58200 15.97200 33.54800
C  42.93900 17.18700 34.08300
H  50.96900 17.12400 30.86100
H  50.69400 14.89000 24.82800
H  44.75200 12.86300 25.78300
H  46.60500 16.38200 33.27100
H  49.54900 16.65900 33.17900
H  47.45400 18.46400 32.23900
H  49.12200 18.81900 31.75400
H  48.63600 18.44700 33.54400
H  48.90100 14.81500 34.08200
H  47.91800 13.73900 33.12400
H  46.47700 13.50800 34.91000
H  46.04300 15.17300 34.83500
H  53.63100 16.62800 29.78900
H  52.48400 18.01900 29.69000
H  53.69800 17.80600 28.39000
H  54.86000 15.99600 27.24200
H  54.22900 17.37600 26.17300
H  55.24100 16.10900 25.51200
H  48.98400 13.36900 23.65000
H  46.13500 13.79700 23.69300
H  47.96300 16.28000 23.51400
H  48.03100 15.22600 22.08300
H  49.51800 15.53600 22.99900
H  47.32800 11.60700 22.97300
H  45.83000 11.49300 23.95700
H  46.89500 10.83200 25.91500
H  48.54700 11.21200 25.22300
H  47.52400 9.85000 24.65900
H  42.36300 13.17800 27.02100
H  41.97600 13.04400 28.65300
H  42.65800 11.61600 27.81700
H  44.67200 14.06200 32.79600
H  42.97500 18.03900 33.40300
H  43.39200 17.46100 35.03600
H  42.01800 16.74900 34.46800

