158

Mg 46.98800 34.02800 27.05700
C  44.77400 32.90000 29.57600
C  47.49900 36.81300 28.93300
C  48.50500 35.41500 24.31600
C  46.10700 31.26500 25.10400
N  46.25400 34.69400 28.95900
C  45.56600 33.98400 29.88800
C  45.63900 34.63200 31.28700
C  46.26400 36.10000 30.96100
C  46.62800 35.87800 29.53000
C  45.45900 37.38200 31.28100
C  46.61300 33.77500 32.13800
C  47.05000 34.26300 33.50400
H  46.08400 35.19300 34.20300
N  47.91800 35.86500 26.67600
C  48.09600 36.84600 27.62100
C  48.88500 37.94500 27.07100
C  49.13600 37.51400 25.67200
C  48.48200 36.24900 25.49600
C  49.32700 39.23400 27.84500
C  49.77400 38.33200 24.63400
O  49.84100 37.94200 23.48900
C  50.36000 39.75600 24.92300
N  47.06000 33.53400 24.96300
C  47.82800 34.13900 24.06600
C  48.03700 33.38400 22.73500
C  47.39500 32.02300 23.03000
C  46.82400 32.21800 24.50300
C  47.58700 34.10700 21.47500
C  48.27800 30.78700 22.77500
C  49.56900 30.48600 23.59800
N  45.65900 32.41900 27.17900
C  45.50300 31.32300 26.39000
C  44.64200 30.38500 27.03100
C  44.24100 31.00700 28.20400
C  44.92900 32.17500 28.31400
C  44.17100 28.99600 26.50200
C  43.38300 30.93100 29.37100
O  42.63700 29.97300 29.44000
C  43.66900 32.12400 30.28700
C  44.09400 31.49000 31.52700
O  44.77700 30.45900 31.64500
O  43.54300 32.12700 32.63700
C  43.74500 31.38300 33.93100
H  47.73400 37.67600 29.56000
H  49.03900 35.70200 23.40800
H  46.01200 30.38600 24.46400
H  44.60700 34.71500 31.63000
H  47.12100 36.19200 31.62800
H  44.45500 37.11100 31.60900
H  45.39500 37.96300 30.36100
H  45.86800 38.06600 32.02400
H  47.48800 33.80000 31.48900
H  46.21800 32.76900 32.28200
H  48.00800 34.70800 33.23400
H  47.38600 33.49800 34.20300
H  50.37500 38.99600 28.02800
H  48.94500 39.15800 28.86300
H  49.15400 40.24400 27.47300
H  49.45700 40.27200 25.24800
H  50.81700 40.17300 24.02500
H  51.12200 39.65700 25.69600
H  49.11400 33.52700 22.81400
H  46.42500 32.05000 22.53300
H  48.48400 34.62600 21.13900
H  46.84300 34.87400 21.69000
H  47.32000 33.36000 20.72700
H  48.53400 31.09700 21.76100
H  47.65800 29.90900 22.59600
H  50.28600 31.24200 23.27700
H  49.98600 29.49300 23.43300
H  49.19300 30.54100 24.61900
H  44.62500 28.18400 27.07000
H  44.49700 29.09000 25.46600
H  43.11900 28.73800 26.38400
H  42.74200 32.68800 30.39100
H  44.40900 31.90500 34.61900
H  43.84900 30.29900 33.96100
H  42.71900 31.52500 34.27100
Mg 26.49000 50.04300 26.93000
C  24.44900 51.49100 29.46300
C  28.46200 48.82300 29.39700
C  28.74200 49.24300 24.54900
C  24.59700 51.84600 24.58600
N  26.41700 50.14600 29.21200
C  25.47100 50.75000 30.01500
C  25.64100 50.30400 31.55500
C  27.07000 49.56700 31.40900
C  27.35600 49.49900 29.94300
C  28.18300 50.17700 32.27000
C  24.43200 49.48700 32.15500
C  24.00600 49.93200 33.62900
H  25.04300 50.55700 34.52200
N  28.27600 49.09000 26.97500
C  28.93200 48.65900 28.09300
C  30.06400 47.93300 27.66300
C  30.15600 47.95000 26.25500
C  29.07200 48.78700 25.78800
C  31.05500 47.33000 28.59100
C  31.14300 47.28700 25.31300
O  31.02300 47.31900 24.13100
C  32.30600 46.54200 25.81800
N  26.60300 50.47500 24.86100
C  27.67000 49.99600 24.09500
C  27.47800 50.23000 22.58100
C  26.14300 51.15100 22.61600
C  25.72300 51.12900 24.09700
C  28.62700 50.92400 21.93600
C  25.02800 50.43500 21.74100
C  23.96400 49.52400 22.38700
N  24.84100 51.30900 26.93800
C  24.09100 51.88800 25.88400
C  22.88000 52.54300 26.41500
C  23.02500 52.40200 27.75200
C  24.23400 51.74600 28.06600
C  21.74100 53.25400 25.71300
C  22.38800 52.75400 29.00500
O  21.31500 53.33100 29.23700
C  23.29600 52.15300 30.16700
C  23.55900 53.26900 31.09900
O  24.23600 54.25100 30.81300
O  22.84700 53.08200 32.20800
C  22.78700 54.05900 33.24800
H  29.11500 48.33900 30.12600
H  29.37000 49.01900 23.68400
H  23.92800 52.37200 23.90100
H  25.79900 51.22700 32.11200
H  27.03400 48.54100 31.77500
H  28.88300 50.80400 31.71800
H  28.81800 49.34900 32.58400
H  27.66800 50.75400 33.03900
H  24.64900 48.42200 32.23000
H  23.57300 49.60300 31.49500
H  23.44300 49.15300 34.14200
H  23.29500 50.73900 33.45200
H  31.32900 46.30300 28.34800
H  30.77300 47.41400 29.64000
H  31.92000 47.97700 28.44300
H  33.05300 46.39400 25.03800
H  31.89800 45.59500 26.17300
H  32.70100 47.21000 26.58300
H  27.37400 49.26500 22.08500
H  26.28900 52.15800 22.22700
H  29.35100 50.23200 21.50700
H  29.14200 51.60800 22.61100
H  28.20000 51.50000 21.11500
H  25.49400 49.84700 20.95000
H  24.50200 51.20900 21.18300
H  24.28900 49.02600 23.30100
H  23.71700 48.76700 21.64300
H  23.03900 50.02600 22.67100
H  20.82000 53.11500 26.27900
H  21.51100 53.03900 24.67000
H  21.94700 54.31700 25.58100
H  22.64200 51.46100 30.69800
H  23.54500 53.66200 33.92300
H  21.80900 54.11200 33.72500
H  23.20500 55.04200 33.03100

