158

Mg -1.22900 6.25500 26.10900
C  -0.49900 8.64200 28.72200
C  -0.73500 3.74800 28.38800
C  -1.71900 4.30600 23.58300
C  -1.29500 9.13800 23.90700
N  -0.79500 6.24600 28.37800
C  -0.62700 7.30300 29.21000
C  -0.40200 6.88200 30.66200
C  -0.38200 5.33400 30.58500
C  -0.66800 5.05000 29.00100
C  0.89300 4.56600 31.03900
C  -1.41700 7.38300 31.66000
C  -1.10400 7.32700 33.17300
H  0.11000 6.46100 33.78600
N  -1.24000 4.31600 25.96200
C  -1.07100 3.42100 27.02900
C  -1.38800 2.08800 26.48300
C  -1.60200 2.18900 25.08000
C  -1.50100 3.65600 24.78200
C  -1.43600 0.85100 27.37200
C  -2.01000 1.07400 24.02400
O  -2.17600 1.23700 22.79200
C  -2.38000 -0.42000 24.58000
N  -1.42000 6.67600 23.98900
C  -1.79400 5.63300 23.17600
C  -2.18700 6.13100 21.76500
C  -2.10800 7.67600 22.02500
C  -1.55800 7.87500 23.37000
C  -1.30100 5.48000 20.66000
C  -3.47700 8.43100 21.97500
C  -3.48200 9.78800 21.13800
N  -0.91800 8.45500 26.24900
C  -0.91900 9.42200 25.25000
C  -0.46400 10.63400 25.80600
C  -0.30200 10.35200 27.17800
C  -0.58900 9.02900 27.38700
C  -0.29700 11.97700 25.11900
C  -0.01300 10.97100 28.38600
O  0.37100 12.17700 28.51100
C  -0.18500 9.87800 29.49300
C  1.05700 9.80400 30.34400
O  2.13200 9.21600 30.12200
O  0.72100 10.48100 31.57700
C  1.76800 10.50500 32.59300
H  -0.51900 2.89800 29.03800
H  -1.87800 3.52800 22.83300
H  -1.35700 9.97400 23.20800
H  0.56500 7.30300 30.93700
H  -1.23900 4.92800 31.12300
H  1.25600 3.89500 30.25900
H  0.53000 4.00500 31.90000
H  1.71200 5.24500 31.27800
H  -2.41800 7.00300 31.45300
H  -1.55000 8.42300 31.36200
H  -2.00900 6.97800 33.67000
H  -0.91400 8.35000 33.49600
H  -1.40500 1.11500 28.43000
H  -0.51000 0.30500 27.19100
H  -2.29000 0.24400 27.07100
H  -1.65000 -0.69900 25.33900
H  -2.34700 -1.11100 23.73800
H  -3.39100 -0.28300 24.96400
H  -3.21600 5.79500 21.63400
H  -1.46700 8.11500 21.26000
H  -0.60100 4.77800 21.11300
H  -0.69100 6.21700 20.13700
H  -2.02700 4.98000 20.01900
H  -3.84600 8.57100 22.99100
H  -4.34700 7.91200 21.57200
H  -2.46800 9.87400 20.74700
H  -3.75100 10.65800 21.73800
H  -4.11400 9.77800 20.25000
H  -1.23500 12.21200 24.61500
H  0.56200 11.87200 24.45600
H  -0.11500 12.77800 25.83500
H  -1.08100 10.12700 30.06100
H  2.79300 10.36900 32.24800
H  1.43900 9.66700 33.20800
H  1.75000 11.43200 33.16700
Mg -2.00200 33.77200 26.33300
C  -3.48900 32.25700 28.94000
C  -0.30300 35.78900 28.50600
C  -0.41800 35.15600 23.72300
C  -3.83800 31.84500 24.14100
N  -2.06400 34.05200 28.44400
C  -2.58500 33.28700 29.31900
C  -2.35400 33.62500 30.82400
C  -1.49000 34.92000 30.60300
C  -1.29400 34.96100 29.07000
C  -2.16100 36.24600 31.05800
C  -1.75900 32.44600 31.60900
C  -2.43700 32.12900 32.98500
H  -1.61500 31.91300 34.22400
N  -0.60700 35.39200 26.12200
C  0.07500 36.01200 27.15900
C  1.01400 36.96900 26.58900
C  0.92700 36.86100 25.11300
C  -0.05100 35.78800 24.94300
C  1.92400 37.86700 27.36600
C  1.58200 37.70000 23.98200
O  1.63000 37.33600 22.77800
C  2.28600 39.03100 24.39600
N  -2.16500 33.62900 24.25300
C  -1.39700 34.23600 23.40400
C  -1.70500 33.79200 21.95100
C  -2.48500 32.50600 22.17900
C  -2.87300 32.66500 23.63700
C  -2.35100 34.97600 21.18100
C  -1.56000 31.27000 21.94500
C  -2.26100 30.19700 21.07800
N  -3.44100 32.34000 26.43300
C  -4.11900 31.63500 25.45200
C  -4.97800 30.63900 26.14000
C  -4.82400 30.95000 27.51500
C  -3.85700 31.87600 27.61900
C  -5.94400 29.69600 25.41000
C  -5.23800 30.57600 28.81800
O  -6.13900 29.85300 29.20000
C  -4.44200 31.43800 29.83900
C  -5.39800 32.42200 30.52600
O  -5.68500 33.57900 30.18500
O  -5.97300 31.79800 31.61000
C  -6.64100 32.69200 32.47300
H  0.30800 36.41100 29.16400
H  0.28200 35.36200 22.91100
H  -4.22000 31.09900 23.44200
H  -3.29600 33.85500 31.32100
H  -0.58300 34.88500 31.20700
H  -1.57500 36.68500 31.86500
H  -3.13700 36.04600 31.49900
H  -2.21900 36.97800 30.25200
H  -0.69800 32.58000 31.82200
H  -1.69800 31.60300 30.92000
H  -2.99900 31.23300 32.72200
H  -3.18000 32.85400 33.31800
H  1.63700 38.91800 27.34000
H  2.91300 37.69800 26.93900
H  1.98600 37.49300 28.38800
H  2.68800 39.45200 23.47400
H  3.08800 38.97300 25.13200
H  1.44600 39.63900 24.73200
H  -0.77100 33.68200 21.39900
H  -3.37200 32.40800 21.55200
H  -3.36700 34.77100 20.84300
H  -1.81200 35.23300 20.26900
H  -2.39600 35.85600 21.82300
H  -1.39300 30.78500 22.90700
H  -0.60800 31.51400 21.47300
H  -2.09100 29.22000 21.53100
H  -1.93400 30.02200 20.05300
H  -3.33100 30.34300 20.93400
H  -6.17800 30.27900 24.51900
H  -6.76900 29.50400 26.09600
H  -5.53700 28.69900 25.24300
H  -4.05500 30.62500 30.45300
H  -7.53900 33.18100 32.09500
H  -6.10400 33.49000 32.98500
H  -7.11500 32.01600 33.18500

