158

Mg 30.08700 58.90000 38.33700
C  27.44900 56.79600 37.35700
C  32.32900 56.40900 37.79300
C  32.55100 61.18300 38.35300
C  27.70600 61.56100 38.38300
N  29.85900 56.84800 37.57200
C  28.74700 56.17200 37.16900
C  29.04700 54.71600 36.96300
C  30.50400 54.57500 37.59900
C  30.94400 56.02500 37.65600
C  30.70900 53.72100 38.90000
C  28.95000 54.41300 35.42400
C  27.67200 53.65700 34.97400
H  26.78400 54.31100 33.91100
N  32.08600 58.80100 38.11200
C  32.89700 57.67800 37.93100
C  34.34100 58.05200 37.88900
C  34.40500 59.43100 38.12600
C  32.98900 59.87300 38.19900
C  35.41500 57.01800 37.64400
C  35.64400 60.28400 38.25900
O  36.76600 59.77200 38.09100
C  35.64400 61.76100 38.67300
N  30.10100 61.15500 38.17300
C  31.29100 61.81500 38.39500
C  30.98700 63.37700 38.37200
C  29.47300 63.49000 38.46400
C  29.05700 61.97200 38.33400
C  31.89600 64.14600 39.35500
C  28.87800 64.44500 37.42900
C  27.83200 65.45900 37.96400
N  28.03400 59.20200 37.98100
C  27.24300 60.29300 38.12200
C  25.80800 59.93500 38.06200
C  25.84100 58.56300 37.70300
C  27.19600 58.18700 37.67900
C  24.63300 60.80000 38.40100
C  25.03800 57.34400 37.51700
O  23.85500 57.08800 37.54100
C  26.04500 56.22600 37.10200
C  25.72700 54.92300 37.74800
O  26.04100 54.57800 38.89300
O  24.80500 54.34800 36.99800
C  23.97800 53.23900 37.67200
H  33.10600 55.64500 37.86100
H  33.21000 62.04400 38.48900
H  26.98200 62.37200 38.48100
H  28.33400 54.08900 37.49900
H  31.19800 54.15900 36.86900
H  29.76700 53.20000 39.07200
H  30.99800 54.15000 39.85900
H  31.44300 52.97200 38.60400
H  29.79100 53.77600 35.15200
H  29.06600 55.34500 34.87200
H  26.99100 53.29500 35.74400
H  28.04800 52.77300 34.45900
H  35.53700 56.89500 36.56700
H  35.12400 56.14900 38.23400
H  36.31900 57.35700 38.14900
H  36.67700 62.09700 38.76500
H  35.14700 61.75400 39.64400
H  35.08300 62.34900 37.94800
H  31.33800 63.65800 37.37900
H  29.30400 63.87100 39.47200
H  31.32200 64.77700 40.03300
H  32.53400 64.81500 38.77800
H  32.52600 63.50100 39.96700
H  28.32600 63.83200 36.71600
H  29.63500 64.90000 36.79100
H  26.82900 65.07300 37.78100
H  28.09400 66.45600 37.60900
H  28.00900 65.46100 39.04000
H  23.95800 60.33300 39.11700
H  24.20500 60.77200 37.39900
H  24.89000 61.81800 38.69400
H  25.80900 56.03300 36.05500
H  23.00700 53.07700 37.20500
H  23.87600 53.30200 38.75600
H  24.52500 52.30100 37.56900
Mg 16.50300 51.97300 24.33600
C  18.37200 50.78900 27.35600
C  14.01100 52.82900 26.72000
C  14.74000 52.74000 21.85100
C  19.00900 50.58300 22.47700
N  16.20500 51.57600 26.83800
C  17.15000 51.35600 27.76400
C  16.64600 51.55200 29.17500
C  15.16900 52.09900 28.91800
C  15.12900 52.18300 27.39100
C  14.08700 51.08500 29.44200
C  17.53500 52.52200 29.94700
C  17.82300 52.26700 31.41400
H  16.91200 51.35300 32.25700
N  14.69200 52.77500 24.23800
C  13.73200 53.02600 25.29600
C  12.57400 53.61800 24.74700
C  12.73100 53.53400 23.30700
C  14.09700 52.98000 23.10500
C  11.46800 54.21400 25.58600
C  11.77600 54.01600 22.20800
O  11.97900 53.90900 20.99400
C  10.42200 54.57100 22.64900
N  16.67300 51.47100 22.41200
C  15.92200 52.02900 21.51300
C  16.36300 51.74700 20.01700
C  17.79600 51.17600 20.26700
C  17.90000 51.21300 21.79700
C  15.32600 50.84800 19.25500
C  18.95900 51.94100 19.57300
C  19.04100 51.81900 18.09100
N  18.35300 50.95900 24.79600
C  19.18400 50.40200 23.83400
C  20.41900 49.96400 24.50600
C  20.08200 50.01700 25.88100
C  18.79900 50.59400 25.99100
C  21.69700 49.45200 23.94100
C  20.58000 49.70100 27.21400
O  21.62400 49.25100 27.58200
C  19.44200 50.12700 28.21000
C  18.97700 48.96100 29.02300
O  18.21600 48.09200 28.69300
O  19.71400 48.99600 30.23800
C  19.33000 47.94200 31.15700
H  13.28600 53.16300 27.46500
H  14.18800 53.06800 20.96800
H  19.72000 50.13100 21.78300
H  16.67000 50.58100 29.67000
H  15.01800 53.10900 29.29900
H  13.54400 50.58400 28.64100
H  13.40400 51.67000 30.05800
H  14.51300 50.30500 30.07300
H  17.15200 53.54200 29.90500
H  18.49900 52.59000 29.44400
H  18.04300 53.23600 31.86200
H  18.77700 51.74500 31.48000
H  11.57100 53.99400 26.64900
H  10.46200 53.96600 25.24800
H  11.63400 55.27600 25.40700
H  10.59200 55.35200 23.39000
H  9.83300 53.75000 23.05600
H  10.10400 54.98100 21.69100
H  16.37400 52.67500 19.44500
H  17.75100 50.11300 20.03000
H  15.01700 51.24200 18.28700
H  14.41600 50.82000 19.85400
H  15.80300 49.88100 19.10100
H  19.82700 51.47000 20.03300
H  19.07500 52.97200 19.90700
H  18.00100 51.65100 17.80800
H  19.67400 50.97100 17.83000
H  19.43800 52.72700 17.63800
H  21.47100 49.26200 22.89100
H  21.91200 48.46500 24.35000
H  22.57200 50.09500 24.03700
H  19.74000 50.94400 28.86700
H  19.94800 48.03700 32.05000
H  19.55700 46.93800 30.79800
H  18.33900 48.13900 31.56600

