158

Mg 47.34100 25.07800 29.67600
C  48.07600 27.58200 31.99300
C  45.88700 23.29800 32.04600
C  46.66400 22.76300 27.29600
C  49.10300 27.00500 27.16400
N  47.15000 25.27800 31.75900
C  47.35300 26.49800 32.54400
C  46.92300 26.31500 34.03900
C  46.48800 24.74200 34.07200
C  46.52000 24.39800 32.54600
C  47.33300 23.89200 35.09200
C  45.85700 27.33100 34.50600
C  45.94300 27.99800 35.90100
H  46.39700 27.08200 37.07400
N  46.38200 23.28800 29.72200
C  45.81500 22.71500 30.78500
C  45.07400 21.52200 30.46800
C  45.23900 21.36600 29.05700
C  46.07800 22.45600 28.59100
C  44.23300 20.67900 31.41100
C  44.72100 20.27000 28.18000
O  45.03400 20.18900 27.03100
C  43.76900 19.26100 28.75200
N  47.96800 24.85100 27.55900
C  47.57400 23.78700 26.81000
C  48.15700 23.86600 25.33900
C  48.76500 25.32000 25.33400
C  48.62300 25.76100 26.77600
C  49.12700 22.69700 25.04400
C  48.24700 26.39100 24.36900
C  49.24800 27.14900 23.45500
N  48.41300 26.84900 29.50100
C  48.97300 27.57500 28.44300
C  49.49800 28.75300 28.95500
C  49.25000 28.78900 30.35700
C  48.49900 27.65000 30.66600
C  50.15700 29.84400 28.18200
C  49.38600 29.55400 31.58700
O  49.93600 30.68700 31.74200
C  48.51000 28.85900 32.65600
C  49.31400 28.64900 33.88300
O  50.04600 27.66800 34.02800
O  49.10000 29.67400 34.71700
C  49.61500 29.55500 36.08100
H  45.36300 22.69100 32.78700
H  46.35800 22.03500 26.54200
H  49.44200 27.65100 26.35200
H  47.73500 26.47400 34.74900
H  45.42900 24.65600 34.31600
H  48.20300 23.62000 34.49300
H  46.87600 22.91700 35.26300
H  47.66500 24.52700 35.91300
H  44.92800 26.76100 34.49500
H  45.77000 28.21000 33.86800
H  45.07800 28.59200 36.19500
H  46.78000 28.69100 35.82000
H  43.19100 20.77500 31.10700
H  44.32900 21.10300 32.41100
H  44.81400 19.77000 31.56700
H  44.30600 18.76900 29.56300
H  43.63700 18.52000 27.96400
H  42.78000 19.57400 29.08700
H  47.32100 23.93700 24.64300
H  49.85000 25.31400 25.23400
H  49.99600 23.23500 24.66600
H  48.70900 22.09600 24.23600
H  49.26700 22.16600 25.98500
H  47.73800 27.15000 24.96200
H  47.45500 25.97000 23.75000
H  50.28200 26.84900 23.62600
H  49.30200 28.23400 23.54600
H  49.09200 27.04200 22.38200
H  49.65400 30.70700 28.61700
H  49.92400 29.68400 27.12900
H  51.23700 29.97400 28.25100
H  47.64500 29.50300 32.81200
H  49.95000 30.54600 36.39000
H  50.38800 28.79200 35.99100
H  48.81100 29.15900 36.70100
Mg 49.50700 44.60400 43.60900
C  46.22700 45.24400 42.38600
C  49.05500 41.25700 42.64300
C  52.73800 44.11400 43.88600
C  49.86900 48.20600 43.93700
N  47.82200 43.43600 42.67200
C  46.63100 43.92300 42.25800
C  45.76700 42.82000 41.53200
C  46.53800 41.53100 42.01000
C  47.91700 42.09000 42.38600
C  46.01700 40.78400 43.22400
C  45.71400 42.97200 39.97700
C  44.85000 41.90100 39.31200
H  45.50000 41.17900 38.13100
N  50.77100 42.91000 43.31800
C  50.39400 41.65200 42.97700
C  51.53000 40.75200 43.08100
C  52.56300 41.53900 43.52500
C  52.03000 42.91200 43.68900
C  51.40000 39.26100 42.85600
C  54.01900 41.02900 43.77600
O  54.27500 39.82900 43.76600
C  55.14800 41.96100 44.18700
N  51.02500 45.96100 43.73000
C  52.30800 45.48400 43.97800
C  53.34000 46.68200 44.14100
C  52.37300 47.93000 44.17500
C  50.97400 47.35400 43.97900
C  54.14500 46.40100 45.43100
C  52.64300 48.99000 43.04600
C  52.53000 50.47000 43.48800
N  48.30100 46.39200 43.50300
C  48.53700 47.67900 43.71600
C  47.29800 48.43300 43.57100
C  46.37300 47.53700 43.01600
C  47.04400 46.27900 43.01200
C  47.18700 49.92100 43.79400
C  45.02900 47.41700 42.45100
O  44.13100 48.28600 42.36000
C  44.94700 45.99000 41.88500
C  43.66700 45.32400 42.07300
O  42.92900 45.05300 41.14000
O  43.35500 45.12600 43.39200
C  41.94700 44.65100 43.62200
H  48.86300 40.18500 42.55800
H  53.78900 43.95900 44.13900
H  50.09100 49.27100 44.02800
H  44.79700 42.84100 42.02800
H  46.54000 40.79900 41.20300
H  45.72000 39.78400 42.90900
H  45.10400 41.22600 43.62300
H  46.84800 40.59300 43.90300
H  46.71700 42.80300 39.58300
H  45.31900 43.91900 39.61000
H  43.90900 42.38200 39.04400
H  44.56600 41.12800 40.02500
H  52.39100 38.84800 42.67000
H  50.71800 39.00500 42.04500
H  50.91600 38.87700 43.75300
H  56.04000 41.40000 44.47000
H  54.90800 42.37700 45.16500
H  55.38000 42.78000 43.50700
H  53.84000 46.65200 43.17300
H  52.36200 48.34700 45.18200
H  53.52900 45.78200 46.08300
H  54.32600 47.26700 46.06700
H  55.08400 45.96200 45.09400
H  52.01600 48.91800 42.15700
H  53.65900 48.77100 42.71800
H  52.18000 50.61900 44.51000
H  51.75000 50.87300 42.84100
H  53.45200 51.04900 43.44200
H  47.16200 50.38300 42.80700
H  47.96100 50.37500 44.41200
H  46.25400 50.16100 44.30300
H  44.99500 46.08400 40.80000
H  41.18500 45.42700 43.55200
H  41.88700 44.25400 44.63500
H  41.72400 43.87200 42.89300

