158

Mg 23.34700 -5.34700 44.61000
C  24.92100 -2.66100 43.25000
C  20.37900 -4.56800 43.09100
C  22.07200 -8.46300 45.38000
C  26.52300 -6.64500 45.69200
N  22.75100 -3.70900 43.41000
C  23.56500 -2.74500 42.85700
C  22.78300 -1.70900 41.97600
C  21.31700 -2.16600 42.27200
C  21.43500 -3.58100 43.00700
C  20.56800 -1.17200 43.18600
C  23.18000 -1.82500 40.46900
C  23.86100 -0.59300 39.85200
H  25.07900 -0.74100 38.97200
N  21.48400 -6.30900 44.35300
C  20.36000 -5.83100 43.67800
C  19.22700 -6.76100 43.79100
C  19.72200 -7.89900 44.48400
C  21.13700 -7.58600 44.79100
C  17.95100 -6.48200 43.11800
C  18.92300 -9.10300 44.74300
O  17.69900 -9.07900 44.55200
C  19.43600 -10.43100 45.23000
N  24.23300 -7.36000 45.30900
C  23.47000 -8.38200 45.69900
C  24.25600 -9.47700 46.53300
C  25.67900 -8.77500 46.66200
C  25.44500 -7.43600 45.94400
C  23.70200 -10.00400 47.89800
C  26.85300 -9.71300 46.23100
C  28.15500 -9.77400 47.08100
N  25.36200 -4.79500 44.54800
C  26.51300 -5.42400 44.96200
C  27.66500 -4.59400 44.66300
C  27.07100 -3.45400 43.98100
C  25.64400 -3.66800 43.94300
C  29.12300 -4.93200 44.88900
C  27.30300 -2.20600 43.29100
O  28.36200 -1.57100 43.21400
C  25.88400 -1.67300 42.75600
C  25.59300 -0.36200 43.38600
O  24.74000 -0.09900 44.20700
O  26.50300 0.54900 42.84900
C  26.34200 1.90900 43.28100
H  19.41600 -4.26200 42.67500
H  21.66800 -9.43500 45.67100
H  27.54600 -6.98200 45.87300
H  22.97500 -0.72500 42.40500
H  20.67800 -2.19200 41.38900
H  20.95400 -0.15300 43.15400
H  20.47400 -1.50200 44.22100
H  19.56700 -1.03800 42.77800
H  22.36400 -2.20200 39.85300
H  23.75100 -2.74200 40.31800
H  23.97100 0.13300 40.65700
H  23.14300 -0.21800 39.12300
H  17.97000 -6.84100 42.08900
H  17.66600 -5.43500 43.01100
H  17.16000 -6.92300 43.72400
H  18.74300 -11.24800 45.03100
H  19.67100 -10.36300 46.29300
H  20.19800 -10.66400 44.48600
H  24.28900 -10.35400 45.88600
H  25.86400 -8.45500 47.68800
H  22.66000 -9.68600 47.94200
H  24.15900 -9.48000 48.73800
H  23.71400 -11.08200 48.05600
H  27.12600 -9.41600 45.21900
H  26.48600 -10.72200 46.04500
H  28.85600 -9.21600 46.46000
H  28.56700 -10.78100 47.15400
H  27.95300 -9.38300 48.07800
H  29.31500 -5.55500 45.76300
H  29.53800 -3.94700 45.10200
H  29.52800 -5.36700 43.97600
H  25.98300 -1.45300 41.69300
H  25.50100 2.40100 42.79200
H  27.18200 2.47500 42.87500
H  26.27700 2.01100 44.36400
Mg 40.28500 9.77600 29.86500
C  42.21500 11.02100 32.35700
C  37.96200 8.50300 32.13200
C  38.69200 8.07300 27.48100
C  43.03100 10.33600 27.62500
N  40.05300 9.82200 31.96000
C  40.96100 10.50200 32.80900
C  40.37800 10.52400 34.20900
C  39.14300 9.54900 34.11400
C  38.98800 9.29100 32.63600
C  39.33400 8.23600 34.92100
C  40.02700 11.96400 34.80800
C  40.90900 12.37800 35.99100
H  40.29600 12.71100 37.33600
N  38.53900 8.56400 29.80200
C  37.74600 8.09700 30.80400
C  36.69800 7.26600 30.30800
C  36.85400 7.27200 28.87400
C  38.11400 7.88600 28.70600
C  35.82000 6.48700 31.20000
C  35.88100 6.67100 27.94600
O  36.12800 6.56700 26.78700
C  34.51800 6.39700 28.40000
N  40.70800 9.40300 27.82700
C  39.83400 8.71500 27.01600
C  40.33300 8.63000 25.50200
C  41.79100 9.30700 25.61400
C  41.86800 9.74200 27.12300
C  40.47700 7.15700 25.01200
C  41.93900 10.46400 24.57300
C  42.14700 11.86200 25.09100
N  42.18700 10.57000 29.90000
C  43.18700 10.71300 28.95600
C  44.33100 11.41000 29.60300
C  43.90600 11.57800 30.91000
C  42.70200 11.01000 31.05800
C  45.68500 11.68000 29.15000
C  44.36900 12.07500 32.16200
O  45.44700 12.55000 32.51500
C  43.20700 11.88300 33.07700
C  43.80100 11.25600 34.37500
O  44.19900 10.09000 34.44800
O  43.99700 12.11900 35.40300
C  44.41900 11.52100 36.69200
H  37.29200 8.22100 32.94700
H  38.26300 7.49900 26.65700
H  43.92700 10.46300 27.01300
H  41.18000 10.09400 34.80900
H  38.22300 10.01300 34.47000
H  40.19800 8.45100 35.54900
H  39.53900 7.46100 34.18200
H  38.49500 8.02000 35.58200
H  38.97100 12.05500 35.06200
H  40.17500 12.74000 34.05800
H  41.45800 13.25900 35.65900
H  41.74600 11.69700 36.14500
H  35.72200 5.43600 30.92800
H  34.81800 6.91300 31.15000
H  36.17800 6.47200 32.22900
H  33.95500 6.20200 27.48800
H  34.01200 7.21400 28.91400
H  34.54700 5.44500 28.92900
H  39.60300 9.15000 24.88100
H  42.59600 8.60200 25.40700
H  40.31700 6.46800 25.84200
H  41.28100 6.87000 24.33500
H  39.59300 7.08200 24.37800
H  41.08000 10.48200 23.90300
H  42.71800 10.14900 23.87900
H  41.89400 12.64900 24.38000
H  43.21400 12.05200 25.20900
H  41.48800 12.04500 25.94000
H  46.48300 11.63500 29.89100
H  45.66000 12.54700 28.48900
H  45.83900 10.84000 28.47300
H  42.87000 12.86600 33.40600
H  43.82700 10.62400 36.87100
H  44.20300 12.21800 37.50200
H  45.47600 11.30900 36.52600

