158

Mg -1.74800 17.51400 26.96000
C  -2.53300 15.43400 29.84500
C  -2.21800 20.12000 29.06000
C  -1.18900 19.36100 24.36800
C  -2.19700 14.70200 25.00200
N  -2.11300 17.65000 29.30100
C  -2.45000 16.73100 30.26400
C  -2.65700 17.35000 31.63200
C  -2.79400 18.88600 31.21000
C  -2.35900 18.92100 29.74000
C  -4.15800 19.49500 31.63200
C  -1.56000 17.15900 32.70800
C  -2.02700 16.75100 34.15400
H  -1.29900 17.25700 35.40000
N  -1.68300 19.52400 26.75400
C  -1.90400 20.51300 27.71000
C  -1.66100 21.78200 27.18600
C  -1.24800 21.56000 25.81300
C  -1.35900 20.13000 25.57500
C  -1.82600 23.02600 27.99300
C  -0.77300 22.52100 24.75700
O  -0.33300 22.20300 23.61200
C  -0.74200 24.04700 24.98100
N  -1.68200 17.09900 24.98900
C  -1.45000 18.01800 24.06400
C  -1.48200 17.46600 22.60000
C  -1.84900 15.98100 22.83000
C  -1.86600 15.88700 24.39400
C  -2.46000 18.12800 21.71700
C  -0.81800 15.10600 22.15800
C  0.63800 15.25500 22.68800
N  -2.17100 15.46400 27.28300
C  -2.33700 14.45400 26.35700
C  -2.54100 13.20500 27.03800
C  -2.69800 13.58600 28.40800
C  -2.46900 14.94000 28.49600
C  -2.73000 11.86100 26.35100
C  -2.96900 13.01300 29.71800
O  -3.31200 11.89400 30.01600
C  -2.72800 14.19000 30.67600
C  -1.49300 13.84400 31.47600
O  -0.35600 14.03800 31.14000
O  -1.81000 13.22000 32.66400
C  -0.64100 12.57200 33.38000
H  -2.52800 20.99500 29.63600
H  -1.07400 20.00100 23.49100
H  -2.39800 13.77900 24.45400
H  -3.58400 17.00200 32.08700
H  -2.10100 19.59000 31.67100
H  -4.53400 20.12700 30.82700
H  -4.05500 20.20600 32.45200
H  -4.79300 18.66900 31.95300
H  -0.87000 18.00300 32.73200
H  -0.86300 16.39500 32.36400
H  -2.00700 15.66200 34.20800
H  -3.06600 17.08000 34.14500
H  -0.99500 23.27500 28.65300
H  -2.69900 22.98600 28.64500
H  -1.98500 23.96000 27.45400
H  -0.33600 24.16600 25.98600
H  -1.78200 24.26800 24.74200
H  -0.03000 24.61300 24.38200
H  -0.48400 17.46100 22.16300
H  -2.81000 15.61500 22.47100
H  -3.30700 18.31700 22.37700
H  -2.64400 17.57900 20.79400
H  -1.97900 19.06200 21.42600
H  -0.80800 15.26800 21.08100
H  -1.18200 14.08100 22.23600
H  0.65000 16.01300 23.47200
H  1.20400 15.71800 21.87800
H  1.02800 14.35000 23.15400
H  -3.04300 11.10200 27.06800
H  -1.80700 11.49400 25.90100
H  -3.54900 11.93500 25.63500
H  -3.49100 14.27500 31.45000
H  -0.67600 12.78900 34.44800
H  0.38900 12.82900 33.13100
H  -0.74400 11.48900 33.30600
Mg 17.34100 52.57500 26.83300
C  19.63700 51.04600 28.94700
C  15.45200 53.30900 29.67500
C  15.07100 53.87700 24.88500
C  19.11500 51.46200 24.04800
N  17.53100 52.09700 29.05600
C  18.53100 51.50900 29.69300
C  18.33500 51.58100 31.23400
C  16.84400 51.97300 31.35200
C  16.60500 52.54500 29.97100
C  15.79500 50.87100 31.78700
C  19.29900 52.62200 31.85100
C  19.31300 52.69000 33.46400
H  18.24200 51.96900 34.27400
N  15.56200 53.57400 27.26300
C  14.95400 53.81300 28.48200
C  13.76600 54.62200 28.28100
C  13.67700 54.75500 26.81500
C  14.83000 54.02700 26.24300
C  12.77500 55.12800 29.34800
C  12.70100 55.51400 25.96300
O  12.66100 55.57100 24.73700
C  11.70200 56.31100 26.64900
N  17.05600 52.42300 24.79900
C  16.08100 53.18000 24.22500
C  16.16200 53.10100 22.64400
C  17.55800 52.39700 22.41500
C  17.92000 52.08700 23.81200
C  14.98600 52.32600 22.02200
C  18.64900 53.33400 21.88200
C  19.75400 52.80100 21.02400
N  19.00600 51.44500 26.50800
C  19.64100 51.09700 25.32500
C  20.79900 50.29600 25.72900
C  20.82600 50.22800 27.13200
C  19.73900 51.08000 27.52900
C  21.78800 49.64400 24.84100
C  21.58200 49.73700 28.30100
O  22.57900 48.95600 28.43200
C  20.71000 50.12900 29.42800
C  20.26100 48.96100 30.22200
O  19.75800 47.96000 29.73100
O  20.44500 49.25700 31.54300
C  20.19700 48.13500 32.36700
H  14.88700 53.50600 30.58800
H  14.61700 54.51800 24.12700
H  19.79300 51.14000 23.25400
H  18.52500 50.60600 31.68300
H  16.70800 52.84800 31.98700
H  14.97800 51.32200 32.34900
H  16.35000 50.14200 32.37800
H  15.44400 50.41100 30.86300
H  19.04200 53.56000 31.35800
H  20.26800 52.25700 31.51300
H  19.22100 53.76700 33.60700
H  20.33000 52.47100 33.78900
H  12.50900 56.18400 29.30200
H  13.27100 54.95500 30.30400
H  11.87600 54.52200 29.23800
H  10.97600 55.75200 27.23900
H  11.15200 56.97100 25.97600
H  12.26300 57.01200 27.26700
H  16.27400 54.04600 22.11200
H  17.40700 51.50200 21.81200
H  14.75500 51.45200 22.63100
H  15.42600 52.03800 21.06700
H  14.06700 52.89900 21.90000
H  19.17500 53.88500 22.66100
H  18.25000 54.11100 21.22900
H  19.80000 53.38400 20.10500
H  19.58200 51.76600 20.72900
H  20.72000 52.82000 21.52800
H  22.54400 49.12100 25.42600
H  22.24800 50.47400 24.30400
H  21.39700 48.85900 24.19400
H  21.41200 50.69700 30.03800
H  19.19700 48.20100 32.79400
H  20.85100 48.17400 33.23900
H  20.39400 47.14200 31.96300

