158

Mg 48.10800 16.39000 28.87100
C  45.70400 16.07400 31.32100
C  49.99600 18.34800 31.29300
C  50.32000 16.91100 26.61900
C  45.86100 14.88100 26.59900
N  47.81000 17.25800 30.97200
C  46.79500 16.79800 31.77400
C  46.98300 17.22600 33.25700
C  48.09300 18.31300 33.08500
C  48.70900 17.92800 31.68800
C  47.68800 19.78700 33.21800
C  47.35200 16.10500 34.24600
C  47.11700 16.36300 35.77000
H  46.87300 17.89900 36.21300
N  49.97300 17.33900 28.96300
C  50.60400 18.14800 29.98400
C  51.89800 18.46800 29.53300
C  51.99700 18.16600 28.17000
C  50.74200 17.45900 27.85100
C  52.81800 19.23100 30.50000
C  53.21900 18.50700 27.16800
O  53.19600 18.13300 25.99200
C  54.33400 19.38000 27.53800
N  48.03400 15.98300 26.89400
C  49.12800 16.29300 26.16800
C  49.07800 15.56400 24.82600
C  47.71500 14.78200 24.83400
C  47.13800 15.28000 26.19200
C  49.24000 16.48400 23.61900
C  47.76700 13.27000 24.72900
C  47.92100 12.61900 23.32700
N  46.21900 15.57400 28.92100
C  45.40200 15.03900 27.89400
C  44.09200 14.71200 28.43400
C  44.18100 15.08000 29.79000
C  45.50300 15.55800 29.99300
C  42.99900 14.14800 27.69400
C  43.47700 15.06900 31.03300
O  42.35600 14.61100 31.36900
C  44.42400 15.67700 32.05300
C  43.62600 16.80900 32.60500
O  43.36900 17.83400 32.03400
O  43.00900 16.42900 33.80000
C  42.35100 17.49900 34.50600
H  50.54400 18.92000 32.04600
H  51.00400 16.85100 25.77000
H  45.27200 14.38200 25.82700
H  46.04900 17.66000 33.61500
H  48.92600 18.16300 33.77100
H  46.65400 20.05400 33.43500
H  48.18300 20.29100 32.38800
H  48.17200 20.21800 34.09400
H  48.40500 15.85500 34.11700
H  46.78000 15.18600 34.12200
H  47.87900 15.85300 36.35800
H  46.19200 15.81800 35.96100
H  52.78300 20.16700 29.94300
H  53.83700 18.88100 30.66700
H  52.41600 19.61800 31.43700
H  53.90500 20.36100 27.74100
H  55.02600 19.55600 26.71500
H  54.83600 18.91200 28.38500
H  49.84100 14.78700 24.87200
H  47.07500 15.02800 23.98600
H  48.73200 16.08100 22.74200
H  50.30900 16.42700 23.41800
H  48.97100 17.53200 23.75700
H  46.91900 12.73200 25.15200
H  48.66600 13.08300 25.31700
H  48.90600 12.15400 23.28800
H  48.02500 13.43700 22.61500
H  47.21200 11.84800 23.02600
H  42.39300 13.64500 28.44800
H  43.42700 13.41500 27.01000
H  42.37900 14.87100 27.16500
H  44.67500 14.92400 32.80000
H  41.50100 17.97700 34.01800
H  43.10800 18.27100 34.64000
H  42.22200 17.01400 35.47300
Mg -9.95100 17.02200 40.74900
C  -6.59600 16.78400 40.88200
C  -9.51500 20.39900 39.68900
C  -13.34800 17.45000 40.16800
C  -10.28000 13.65000 41.13600
N  -8.28500 18.46200 40.43200
C  -6.97100 18.02600 40.55000
C  -6.00800 19.13500 39.93300
C  -6.93400 20.39300 40.00100
C  -8.31100 19.67700 39.98700
C  -6.82200 21.10100 41.43200
C  -5.54500 18.73500 38.49300
C  -4.07700 18.71300 38.13900
H  -3.58200 17.68600 37.17800
N  -11.29400 18.72800 40.00600
C  -10.89500 19.95800 39.59700
C  -12.03300 20.72600 39.12700
C  -13.14500 20.01800 39.52300
C  -12.65600 18.65800 39.93700
C  -12.05400 22.03500 38.48500
C  -14.57100 20.46100 39.47300
O  -14.88300 21.63300 39.20700
C  -15.66500 19.58000 39.59500
N  -11.50800 15.61300 40.31700
C  -12.84100 16.11000 40.32400
C  -13.80300 14.89400 40.46700
C  -12.76600 13.69900 40.79100
C  -11.41200 14.31000 40.74100
C  -14.86200 15.23100 41.56300
C  -12.81200 12.53900 39.81500
C  -13.83400 11.37600 40.14200
N  -8.68600 15.51200 40.96500
C  -8.94500 14.18500 41.13100
C  -7.72600 13.42600 41.44900
C  -6.66000 14.43200 41.30800
C  -7.36800 15.64100 41.09900
C  -7.64700 11.91600 41.63000
C  -5.24700 14.66400 41.31000
O  -4.33700 13.79500 41.42200
C  -5.11900 16.25800 41.03500
C  -4.43100 16.88200 42.21200
O  -3.58300 17.76300 42.21500
O  -4.92700 16.27800 43.36800
C  -4.29800 16.68700 44.57900
H  -9.32700 21.40000 39.29600
H  -14.43800 17.52300 40.16900
H  -10.37600 12.60000 41.42300
H  -5.15100 19.30300 40.58500
H  -6.83400 21.03500 39.12600
H  -7.80600 21.33400 41.83900
H  -6.39600 22.08200 41.22100
H  -6.18500 20.49500 42.07600
H  -5.96600 19.50600 37.84800
H  -5.96700 17.77700 38.18800
H  -3.48400 18.64600 39.05100
H  -3.75400 19.64400 37.67400
H  -11.14800 22.25800 37.92300
H  -12.22200 22.83900 39.20200
H  -12.90900 21.99400 37.81000
H  -15.57300 18.77200 38.86900
H  -16.61100 20.04400 39.31600
H  -15.86400 19.24200 40.61200
H  -14.37700 14.89200 39.54100
H  -12.93300 13.32400 41.80100
H  -14.63900 16.18200 42.04600
H  -14.77700 14.57500 42.43000
H  -15.80100 15.26400 41.01000
H  -11.87000 12.03100 39.60800
H  -13.04400 12.91800 38.81900
H  -14.73900 11.59800 39.57800
H  -13.93300 11.17400 41.20900
H  -13.47400 10.46900 39.65700
H  -6.69400 11.67000 42.09800
H  -7.51400 11.50900 40.62800
H  -8.53000 11.39600 42.00100
H  -4.54200 16.48100 40.13700
H  -4.68700 17.52700 45.15500
H  -3.22400 16.86500 44.62800
H  -4.55100 15.85300 45.23200

