158

Mg -2.06700 17.13300 25.99000
C  -2.50800 14.88300 28.69900
C  -2.35500 19.68800 28.33800
C  -2.44900 19.25000 23.51800
C  -2.31300 14.42900 23.82000
N  -2.63500 17.18900 28.23400
C  -2.39800 16.21500 29.17800
C  -2.41500 16.76200 30.61200
C  -2.61900 18.31300 30.37000
C  -2.54600 18.42700 28.88000
C  -3.91900 18.86900 30.88500
C  -1.25900 16.24700 31.48300
C  -0.34400 17.07900 32.50200
H  -0.02200 16.47400 33.87000
N  -2.12500 19.21100 25.92500
C  -2.23500 20.06300 27.00000
C  -2.15500 21.46100 26.39200
C  -2.32800 21.34400 25.01300
C  -2.27100 19.91300 24.78300
C  -2.10100 22.69500 27.21800
C  -2.33700 22.37700 23.93400
O  -2.36000 22.08300 22.72300
C  -2.23700 23.82800 24.35000
N  -2.21700 16.83500 23.98500
C  -2.32200 17.91200 23.10800
C  -2.24700 17.40900 21.66000
C  -1.93300 15.88000 21.79800
C  -2.19900 15.68200 23.31800
C  -3.45500 17.66200 20.68400
C  -0.53800 15.44500 21.24400
C  -0.32300 15.58000 19.71700
N  -2.37700 15.06100 26.15800
C  -2.48500 14.07700 25.14600
C  -2.68800 12.81200 25.73300
C  -2.67300 13.09100 27.11300
C  -2.47300 14.45900 27.34300
C  -2.99700 11.53200 25.01300
C  -2.83000 12.40000 28.32200
O  -2.93100 11.20500 28.56900
C  -2.77400 13.60500 29.43200
C  -1.61700 13.29600 30.32100
O  -0.41900 13.18600 30.00900
O  -2.20600 12.90900 31.53600
C  -1.29200 12.24500 32.47200
H  -2.34100 20.59900 28.94000
H  -2.57700 19.82800 22.60000
H  -2.39200 13.66600 23.04300
H  -3.31800 16.40600 31.10800
H  -1.82900 18.91300 30.82300
H  -4.29900 18.35000 31.76500
H  -4.62300 18.90200 30.05300
H  -3.75600 19.90900 31.16600
H  -0.57200 15.81800 30.75300
H  -1.71800 15.40700 32.00400
H  -0.86700 18.02500 32.64300
H  0.64900 17.34900 32.14300
H  -1.17700 23.19800 26.93400
H  -1.96100 22.40300 28.25900
H  -3.07200 23.18700 27.15800
H  -2.59400 24.51000 23.57900
H  -1.19400 24.03900 24.58500
H  -2.96600 23.98000 25.14600
H  -1.40400 17.86600 21.14300
H  -2.66100 15.30800 21.22300
H  -3.77600 18.69900 20.58500
H  -4.36600 17.24800 21.11600
H  -3.38500 17.33800 19.64500
H  -0.38300 14.38100 21.42000
H  0.25000 15.91800 21.83000
H  0.71400 15.88500 19.57400
H  -1.08400 16.24500 19.30900
H  -0.36800 14.59500 19.25200
H  -3.15700 10.88900 25.87900
H  -2.23300 11.16700 24.32700
H  -3.79100 11.68500 24.28200
H  -3.73100 13.54500 29.95000
H  -0.64800 11.50600 31.99600
H  -1.91500 11.92700 33.30800
H  -0.59300 13.02000 32.79000
Mg 30.53200 57.67100 40.09700
C  27.57600 55.77400 39.26100
C  32.40300 54.99100 38.92000
C  33.15900 59.63000 40.18400
C  28.43800 60.52200 40.52700
N  30.03600 55.59900 39.20600
C  28.79000 55.09200 39.01800
C  28.85500 53.72600 38.30400
C  30.41200 53.32500 38.47600
C  31.02600 54.67600 38.96500
C  30.67900 52.25100 39.58500
C  28.15600 53.57400 36.83000
C  29.12700 53.49100 35.64200
H  28.62100 53.92200 34.24100
N  32.52200 57.31100 39.61800
C  33.08300 56.18800 39.22700
C  34.51100 56.44400 39.04100
C  34.75800 57.80200 39.34800
C  33.43200 58.28500 39.80400
C  35.47400 55.40300 38.50700
C  36.15900 58.63100 39.18000
O  37.14800 58.01100 38.77900
C  36.39500 59.95800 39.66800
N  30.77700 59.79700 40.25100
C  31.97800 60.34200 40.41900
C  31.98200 61.84300 40.58600
C  30.45900 62.11700 40.85000
C  29.82600 60.75500 40.49400
C  33.04500 62.46900 41.51800
C  29.85900 63.33500 40.15100
C  29.28300 64.41800 41.03500
N  28.45800 58.07200 39.97200
C  27.77900 59.25700 40.23300
C  26.29400 58.97700 40.23300
C  26.22300 57.66300 39.80400
C  27.50300 57.13400 39.66400
C  25.21500 59.90700 40.53000
C  25.30100 56.61500 39.43000
O  24.07100 56.59700 39.35400
C  26.14500 55.35300 39.11000
C  25.77900 54.18200 39.99800
O  26.33700 53.75400 40.98600
O  24.67400 53.56100 39.43900
C  24.19200 52.39600 40.22500
H  33.00800 54.16300 38.54600
H  34.04800 60.24000 40.35600
H  27.66800 61.26600 40.74200
H  28.35600 52.95600 38.89300
H  30.83400 52.94600 37.54500
H  31.06400 52.67700 40.51100
H  31.35400 51.52400 39.13300
H  29.76500 51.69900 39.80400
H  27.70800 54.55000 36.64800
H  27.55600 52.66700 36.89900
H  29.23700 52.40900 35.56700
H  30.10600 53.92400 35.84700
H  35.33600 55.23500 37.43900
H  35.15400 54.48900 39.00800
H  36.50700 55.57900 38.80900
H  36.14100 59.95300 40.72800
H  35.84700 60.64800 39.02700
H  37.45900 60.18200 39.59000
H  32.14700 62.33800 39.62900
H  30.50000 62.38000 41.90700
H  32.69000 63.08500 42.34400
H  33.65100 63.17100 40.94500
H  33.72500 61.75500 41.98200
H  29.02800 63.01400 39.52200
H  30.56700 63.78100 39.45200
H  29.87800 65.33100 40.99800
H  29.14600 64.14200 42.08000
H  28.24700 64.50900 40.70800
H  25.28000 60.13700 41.59300
H  24.23100 59.54200 40.23400
H  25.50500 60.82800 40.02400
H  26.11000 55.08200 38.05500
H  24.25800 52.48000 41.31000
H  24.70800 51.48900 39.91100
H  23.12900 52.18800 40.10100

