158

Mg 34.68700 3.05700 29.53700
C  32.71400 4.03200 32.27100
C  37.49600 2.77500 31.52900
C  36.41800 2.15400 26.84600
C  31.82900 3.37100 27.60000
N  35.11300 3.51000 31.66900
C  34.07200 3.57200 32.59400
C  34.70500 3.53200 34.02400
C  36.20700 3.03500 33.78900
C  36.29900 3.09300 32.25800
C  37.38400 3.81000 34.41700
C  33.89400 2.59700 34.96000
C  33.86600 2.95100 36.44800
H  34.80400 3.99600 37.11900
N  36.72200 2.70100 29.21000
C  37.66800 2.66000 30.12200
C  38.93900 2.22300 29.50500
C  38.73700 1.98900 28.12500
C  37.24100 2.25300 27.98600
C  40.24300 2.19800 30.27100
C  39.66500 1.58300 26.90900
O  39.29800 1.57800 25.74700
C  41.14800 1.12900 27.09700
N  34.18600 2.63500 27.61700
C  35.09400 2.37900 26.62200
C  34.48600 1.99000 25.30200
C  32.96000 2.22700 25.60600
C  32.95800 2.74600 27.02800
C  34.94800 2.97200 24.21400
C  32.04900 1.03000 25.52600
C  32.41100 0.07500 24.43000
N  32.67500 3.82900 29.72200
C  31.63600 3.83800 28.89100
C  30.45800 4.34900 29.61000
C  30.79800 4.39100 30.95900
C  32.18500 4.03000 30.98000
C  29.15100 4.63300 28.96000
C  30.31300 4.65800 32.29700
O  29.17900 4.93600 32.66100
C  31.48400 4.38900 33.24600
C  31.81800 5.49700 34.07600
O  32.08900 6.62100 33.67000
O  31.61500 5.18100 35.41200
C  31.55800 6.32200 36.35700
H  38.28500 2.62500 32.26900
H  36.93900 1.73600 25.98200
H  30.91900 3.37100 26.99600
H  34.86100 4.53700 34.41700
H  36.34500 2.01700 34.15400
H  38.30900 3.23500 34.39700
H  37.12900 4.01100 35.45800
H  37.63000 4.74600 33.91700
H  34.18600 1.54700 34.95000
H  32.82400 2.65400 34.76000
H  34.15700 2.02900 36.95100
H  32.86600 3.06200 36.86600
H  40.79900 3.13400 30.22300
H  40.91300 1.41600 29.91300
H  40.16900 2.05000 31.34800
H  41.69000 0.98300 26.16300
H  41.22100 0.15900 27.59000
H  41.69000 1.87700 27.67400
H  34.73900 0.94000 25.15400
H  32.63800 3.06500 24.98700
H  35.90800 2.73700 23.75300
H  34.93800 3.95700 24.68100
H  34.09900 2.91100 23.53300
H  31.00200 1.32200 25.44200
H  32.01500 0.41000 26.42200
H  33.08700 -0.66600 24.85800
H  32.84600 0.60700 23.58400
H  31.47300 -0.42500 24.18800
H  29.27500 5.22200 28.05100
H  28.71400 5.31500 29.69000
H  28.49000 3.79900 28.72700
H  31.10500 3.50100 33.75300
H  30.50900 6.55500 36.54200
H  32.15500 7.15700 35.99200
H  31.91800 5.94300 37.31300
Mg -13.31300 15.96800 40.56200
C  -10.52900 13.67600 40.48000
C  -11.19300 18.32500 39.19100
C  -16.01100 18.04200 40.03100
C  -15.33800 13.37400 41.40800
N  -11.11500 15.88000 39.77600
C  -10.20400 14.88800 39.91100
C  -8.77800 15.38300 39.61900
C  -8.98600 16.92700 39.56900
C  -10.57400 17.07900 39.45900
C  -8.50300 17.69200 40.86500
C  -8.20700 14.66100 38.34900
C  -6.77800 15.19800 38.09600
H  -6.43700 15.97300 36.82900
N  -13.53600 17.91200 39.85800
C  -12.54000 18.73000 39.35900
C  -13.14300 20.01200 39.00600
C  -14.51000 19.98100 39.34600
C  -14.72600 18.61600 39.74100
C  -12.32600 21.12900 38.37100
C  -15.44300 21.17300 39.24100
O  -15.00900 22.26300 38.93000
C  -16.88400 21.11500 39.71100
N  -15.34700 15.65700 40.56500
C  -16.27100 16.72300 40.35700
C  -17.69600 16.18900 40.64300
C  -17.44500 14.75200 41.03900
C  -15.95700 14.56600 41.03600
C  -18.63600 17.07700 41.60900
C  -18.29100 13.79200 40.18700
C  -19.62200 13.19600 40.75800
N  -13.09900 13.90500 40.88400
C  -13.95300 12.99400 41.34400
C  -13.40800 11.73200 41.57700
C  -12.01500 12.00800 41.33400
C  -11.88100 13.30500 40.86600
C  -14.00300 10.39100 41.96100
C  -10.72000 11.45800 41.43300
O  -10.40400 10.31800 41.89600
C  -9.70900 12.45000 40.82200
C  -8.74200 12.61700 41.87200
O  -8.99200 12.80200 43.09300
O  -7.52100 12.73900 41.31700
C  -6.43400 13.12700 42.21700
H  -10.51200 19.11800 38.87700
H  -16.85600 18.68600 39.77900
H  -16.12400 12.71900 41.79100
H  -8.25300 15.02500 40.50500
H  -8.50400 17.45200 38.74400
H  -7.70300 17.04000 41.21700
H  -9.21400 17.81600 41.68200
H  -8.09700 18.67400 40.62100
H  -8.81300 14.86500 37.46700
H  -8.26800 13.57500 38.41700
H  -6.08300 14.36300 38.00700
H  -6.42200 15.69400 39.00000
H  -11.31400 20.74700 38.24000
H  -12.20200 21.92000 39.11100
H  -12.80900 21.47500 37.45700
H  -16.88200 20.66600 40.70400
H  -17.51300 20.48400 39.08100
H  -17.32100 22.10300 39.85300
H  -18.28800 16.33300 39.73900
H  -17.77900 14.59700 42.06500
H  -18.14400 17.97400 41.98500
H  -19.03000 16.57500 42.49300
H  -19.46000 17.43700 40.99400
H  -17.50300 13.12400 39.84100
H  -18.49500 14.25500 39.22200
H  -19.52500 12.21400 41.22300
H  -20.23900 13.02800 39.87600
H  -20.11100 13.76400 41.54900
H  -15.08000 10.54800 41.89000
H  -13.72400 10.12800 42.98200
H  -13.73100 9.68500 41.17700
H  -9.18500 12.10900 39.92900
H  -6.51500 14.20100 42.38300
H  -5.48500 12.82000 41.77800
H  -6.50100 12.74500 43.23600

