158

Mg -9.03500 41.15900 42.46100
C  -8.39400 37.84600 41.59800
C  -6.34400 42.22800 40.83900
C  -10.47800 44.26900 42.47600
C  -12.19400 39.91900 43.84800
N  -7.63300 40.18300 41.20200
C  -7.49100 38.76100 41.09600
C  -6.21600 38.53800 40.29100
C  -5.41600 39.85600 40.56100
C  -6.53700 40.82100 40.85800
C  -4.34500 39.88900 41.69200
C  -6.60900 38.23700 38.76400
C  -6.04400 36.89800 38.20400
H  -5.07300 37.08700 37.05900
N  -8.39600 42.97800 41.86500
C  -7.24100 43.22900 41.14100
C  -7.20700 44.64200 40.75800
C  -8.31200 45.27700 41.38700
C  -9.15400 44.19000 41.91200
C  -6.13300 45.34500 39.85000
C  -8.61100 46.79500 41.31200
O  -7.90900 47.55600 40.57800
C  -9.69700 47.38300 42.00700
N  -11.10500 41.94100 42.95100
C  -11.28300 43.29600 42.96000
C  -12.59100 43.65000 43.69000
C  -13.17800 42.29400 44.17900
C  -12.09200 41.28100 43.62000
C  -12.35500 44.78600 44.72600
C  -14.63100 42.11200 43.53300
C  -15.60700 42.76100 44.44100
N  -10.01400 39.35000 42.87700
C  -11.25600 38.99700 43.45100
C  -11.30400 37.52400 43.62800
C  -10.25200 37.11900 42.87500
C  -9.56300 38.20300 42.34900
C  -12.46400 36.68500 44.24900
C  -9.69700 35.87700 42.28700
O  -9.98200 34.71000 42.35200
C  -8.49200 36.36500 41.39900
C  -7.26300 35.66500 41.88300
O  -6.66500 35.91700 42.86800
O  -6.99400 34.62200 41.07200
C  -6.05900 33.52100 41.52100
H  -5.31500 42.53400 40.63900
H  -11.04300 45.19400 42.34200
H  -13.05900 39.48700 44.35500
H  -5.63800 37.75800 40.78700
H  -4.90000 40.08200 39.62800
H  -4.56700 40.79300 42.26000
H  -3.33300 39.94600 41.29000
H  -4.56100 38.98300 42.25700
H  -6.27500 39.11100 38.20400
H  -7.68000 38.34700 38.59600
H  -6.97800 36.42800 37.89500
H  -5.60400 36.31400 39.01200
H  -6.52900 45.84700 38.96700
H  -5.38600 44.58800 39.61500
H  -5.59400 46.02000 40.51600
H  -9.61000 48.46400 42.11700
H  -9.60800 46.99200 43.02100
H  -10.63300 47.07400 41.54200
H  -13.24800 44.14700 42.97600
H  -13.30300 42.19100 45.25700
H  -11.38300 45.27300 44.65200
H  -12.38900 44.27900 45.69000
H  -13.19100 45.48400 44.67000
H  -14.63100 41.02200 43.54300
H  -14.69000 42.49000 42.51300
H  -16.46800 43.07400 43.85000
H  -15.15700 43.53300 45.06500
H  -15.88300 41.96900 45.13600
H  -12.06400 35.73500 44.60200
H  -13.18100 36.29000 43.52900
H  -12.98600 37.30000 44.98200
H  -8.72000 36.00200 40.39600
H  -6.70700 32.80300 42.02300
H  -5.33700 33.90800 42.24000
H  -5.43300 33.04700 40.76500
Mg -9.26600 18.43000 42.54400
C  -5.84600 18.10700 42.65200
C  -8.92800 21.79400 41.59100
C  -12.58700 18.52100 41.62100
C  -9.57700 14.95500 42.72400
N  -7.64900 19.78100 42.03700
C  -6.29500 19.38100 42.16000
C  -5.37900 20.62800 42.10700
C  -6.39200 21.81600 42.16000
C  -7.73700 21.08400 41.86900
C  -6.43200 22.60700 43.48900
C  -4.58100 20.75900 40.76600
C  -5.35800 20.83000 39.44900
H  -4.90700 19.99300 38.25300
N  -10.58500 20.02000 41.83300
C  -10.27100 21.29600 41.50600
C  -11.44800 21.99000 41.06600
C  -12.52600 21.05900 41.10800
C  -11.95400 19.78800 41.55900
C  -11.43600 23.51200 40.69200
C  -13.93900 21.35400 40.54000
O  -14.18700 22.46800 40.03900
C  -15.01600 20.33000 40.41600
N  -10.87600 16.90300 42.16100
C  -12.15300 17.23600 41.92100
C  -13.13300 15.97900 41.91600
C  -12.13600 14.81100 42.36900
C  -10.78600 15.56000 42.53100
C  -14.40700 16.20000 42.75400
C  -12.04600 13.50400 41.47300
C  -12.51600 12.17700 42.19700
N  -8.00400 16.80600 42.66800
C  -8.26800 15.46800 42.88600
C  -7.04300 14.73700 43.12000
C  -6.07300 15.73900 43.12200
C  -6.71900 16.98000 42.87100
C  -6.88900 13.23200 43.29000
C  -4.64900 16.01000 43.18000
O  -3.67200 15.24300 43.19400
C  -4.45600 17.60300 43.03300
C  -3.82900 18.11400 44.25300
O  -2.70400 18.46000 44.38300
O  -4.68600 17.98100 45.32700
C  -4.10600 18.53000 46.62000
H  -8.74400 22.84700 41.36400
H  -13.64000 18.55200 41.33400
H  -9.69500 13.93200 43.09000
H  -4.76000 20.56300 43.00200
H  -6.19400 22.54100 41.37100
H  -5.67900 22.15900 44.13800
H  -7.34700 22.42600 44.05200
H  -6.27600 23.66900 43.29900
H  -3.78600 20.01400 40.72600
H  -4.09000 21.72700 40.85600
H  -5.39800 21.87600 39.14500
H  -6.29700 20.35300 39.73200
H  -11.87100 23.70500 39.71100
H  -10.41500 23.87300 40.81600
H  -12.09100 24.04300 41.38200
H  -15.33600 20.02800 41.41300
H  -14.65200 19.49200 39.82100
H  -15.82300 20.74500 39.81300
H  -13.47000 15.79100 40.89600
H  -12.49400 14.46500 43.33800
H  -14.56700 17.19700 43.16400
H  -14.33900 15.43000 43.52300
H  -15.25200 16.07500 42.07700
H  -10.98500 13.48100 41.22400
H  -12.69700 13.70900 40.62300
H  -12.90100 11.46000 41.47100
H  -13.35100 12.40300 42.86000
H  -11.80600 11.64800 42.83300
H  -6.31500 12.81700 42.46200
H  -7.84700 12.71200 43.30900
H  -6.41900 12.93700 44.22800
H  -3.72400 17.86600 42.26900
H  -3.14100 18.09300 46.87800
H  -4.83100 18.44800 47.43000
H  -3.94600 19.60500 46.53800

