158

Mg 43.76700 5.28700 46.65400
C  41.87600 8.30300 46.46500
C  40.81100 3.62500 46.23100
C  45.51100 2.49900 46.31400
C  46.64800 7.16600 46.66600
N  41.55500 5.91400 46.45000
C  41.01200 7.19600 46.41100
C  39.51800 7.12800 46.21300
C  39.20800 5.56500 46.31500
C  40.62000 4.96000 46.40900
C  38.23000 5.20400 47.53300
C  39.06100 7.71600 44.83400
C  40.14400 7.64300 43.70400
H  39.70000 7.07800 42.30700
N  43.17700 3.26200 46.43600
C  41.97000 2.84000 46.16600
C  42.04600 1.47900 45.88200
C  43.39900 1.06700 45.93400
C  44.08500 2.25800 46.30100
C  40.88200 0.60900 45.64800
C  43.97400 -0.36900 45.64700
O  43.28200 -1.31900 45.36600
C  45.39000 -0.63300 45.70200
N  45.80200 4.84700 46.34000
C  46.31200 3.61800 46.38500
C  47.89000 3.58200 46.35400
C  48.19200 5.13200 46.51800
C  46.85400 5.77500 46.48400
C  48.51600 2.59900 47.42300
C  49.16800 5.63700 45.40700
C  50.53100 6.10800 45.87700
N  44.20200 7.33000 46.59200
C  45.43400 7.93900 46.62000
C  45.25000 9.41900 46.51600
C  43.83200 9.55800 46.56700
C  43.24300 8.28500 46.54800
C  46.24500 10.43100 46.49400
C  42.76400 10.57300 46.58700
O  42.85000 11.80900 46.72600
C  41.42500 9.77100 46.50300
C  40.59700 10.04500 47.74000
O  40.67400 9.41200 48.78200
O  39.53500 10.89400 47.42200
C  38.48100 10.89400 48.42900
H  39.85600 3.13900 46.01800
H  46.17700 1.63900 46.21900
H  47.61500 7.64500 46.83700
H  38.98200 7.62200 47.02400
H  38.78800 5.16100 45.39400
H  38.27000 5.98400 48.29200
H  38.65700 4.30500 47.97800
H  37.22600 4.92000 47.21700
H  38.87400 8.78600 44.91600
H  38.14000 7.18200 44.59900
H  41.05500 7.14200 44.03200
H  40.48700 8.67200 43.58800
H  41.13600 0.12600 44.70300
H  40.01000 1.15600 45.29100
H  40.58800 -0.10900 46.41300
H  45.68500 -1.67600 45.59700
H  45.69800 -0.40900 46.72400
H  45.92300 -0.10000 44.91500
H  48.12500 3.24000 45.34700
H  48.61800 5.34500 47.49800
H  48.96900 1.75100 46.90800
H  47.78400 2.19700 48.12300
H  49.29100 3.13800 47.96700
H  48.69700 6.54200 45.02300
H  49.23200 4.90600 44.60100
H  50.70100 7.18200 45.81300
H  51.38100 5.67200 45.35200
H  50.65300 5.73200 46.89400
H  47.02800 10.04500 45.84100
H  46.66000 10.53300 47.49700
H  45.75400 11.33300 46.12800
H  40.87600 10.16700 45.64800
H  38.68400 10.75400 49.49000
H  37.82500 10.05600 48.19300
H  37.80100 11.73000 48.26400
Mg -1.70900 33.58900 27.29200
C  -3.74500 31.91400 29.60200
C  -0.62400 35.63500 29.80900
C  -0.15800 35.44500 25.01200
C  -3.19600 31.73700 24.68900
N  -2.11500 33.75100 29.46700
C  -2.94000 32.92700 30.19700
C  -2.90600 33.35200 31.66400
C  -2.07600 34.66100 31.62900
C  -1.54700 34.70000 30.21800
C  -2.90700 35.86200 32.09000
C  -2.35500 32.18100 32.53800
C  -3.22800 31.76900 33.69000
H  -2.63300 31.67000 35.10600
N  -0.46900 35.22700 27.43600
C  -0.09000 35.96200 28.53000
C  0.76600 37.04900 28.13300
C  0.93200 36.89400 26.79800
C  0.10200 35.83200 26.33300
C  1.28300 38.15500 29.14600
C  1.80800 37.78000 25.82900
O  2.02700 37.57700 24.65700
C  2.65200 38.89400 26.39700
N  -1.65400 33.57800 25.28200
C  -1.05000 34.52300 24.51000
C  -1.28700 34.36200 22.96100
C  -2.00300 32.98600 22.90200
C  -2.29000 32.70900 24.39200
C  -2.06800 35.47700 22.34600
C  -1.23500 31.89000 22.09000
C  -0.21000 31.07400 22.95400
N  -3.18600 32.09800 27.11400
C  -3.67400 31.40800 25.97500
C  -4.53500 30.35600 26.42400
C  -4.50900 30.53200 27.83700
C  -3.78900 31.62900 28.18600
C  -5.20300 29.37200 25.69500
C  -5.13500 30.02100 29.01500
O  -5.83000 29.04200 29.08300
C  -4.68300 30.93800 30.28900
C  -5.93000 31.55100 30.70400
O  -6.71100 32.21400 30.02800
O  -6.22600 31.20300 31.96200
C  -7.29600 31.76400 32.75400
H  -0.27700 36.37700 30.53200
H  0.24800 36.09700 24.23600
H  -3.52000 31.07200 23.88500
H  -3.93600 33.48400 31.99500
H  -1.30500 34.49800 32.38200
H  -2.54800 36.70800 31.50400
H  -2.80500 36.05100 33.15900
H  -3.97800 35.84500 31.88900
H  -1.40400 32.40600 33.02000
H  -2.13800 31.35800 31.85600
H  -3.54100 30.75700 33.43400
H  -4.14800 32.34000 33.81300
H  2.35300 38.27400 28.97400
H  1.10400 37.98300 30.20800
H  0.67100 39.05100 29.03600
H  2.11400 39.55200 27.07900
H  3.08700 39.46000 25.57400
H  3.46200 38.36200 26.89500
H  -0.33100 34.29000 22.44300
H  -3.01300 33.02600 22.49400
H  -2.73800 35.07800 21.58500
H  -1.37800 36.15600 21.84500
H  -2.58700 35.89700 23.20800
H  -0.70000 32.25700 21.21400
H  -2.00400 31.21900 21.70600
H  0.67900 30.71100 22.44000
H  -0.65500 30.15600 23.33800
H  0.20300 31.76000 23.69400
H  -4.56100 28.90300 24.94900
H  -6.00700 29.83000 25.11900
H  -5.52800 28.58800 26.37900
H  -4.19500 30.30000 31.02600
H  -8.11600 32.23300 32.21000
H  -6.90400 32.56200 33.38500
H  -7.70500 31.04800 33.46600

