158

Mg 1.75600 -2.78000 44.67400
C  5.20900 -2.60800 43.68300
C  1.07300 -0.45500 42.21400
C  -1.47400 -3.72700 44.71100
C  2.54200 -5.89200 46.25100
N  3.05000 -1.67500 43.22300
C  4.42200 -1.66200 42.99900
C  4.89000 -0.56900 41.99300
C  3.47500 0.07000 41.59000
C  2.43400 -0.76000 42.34300
C  3.40700 1.60400 41.95700
C  5.59000 -1.28800 40.67200
C  7.10000 -0.94400 40.31800
H  7.42800 -0.41700 38.91600
N  0.03600 -1.97500 43.85100
C  -0.03600 -1.01200 42.89100
C  -1.41700 -0.64800 42.65300
C  -2.23700 -1.54900 43.48000
C  -1.23100 -2.47800 44.06600
C  -1.83300 0.57300 41.79800
C  -3.68500 -1.46600 43.62800
O  -4.35500 -0.62200 43.10700
C  -4.38500 -2.43500 44.44600
N  0.67400 -4.49200 45.57800
C  -0.66400 -4.59300 45.48300
C  -1.17200 -5.77800 46.21800
C  0.08200 -6.57000 46.56500
C  1.18600 -5.58100 46.19200
C  -2.09800 -5.43600 47.41200
C  0.08400 -7.99300 45.89100
C  0.59200 -9.21100 46.65200
N  3.51800 -3.95300 45.08900
C  3.65700 -5.12700 45.74200
C  5.08000 -5.40100 45.88400
C  5.73400 -4.38800 45.11000
C  4.72800 -3.54800 44.60300
C  5.76300 -6.57300 46.49700
C  7.00900 -3.85400 44.74700
O  8.13900 -4.22000 45.08600
C  6.70100 -2.90600 43.59300
C  7.62100 -1.80200 43.63000
O  8.64300 -1.63900 42.95700
O  7.25100 -0.85500 44.57900
C  8.11500 0.31000 44.53100
H  0.95300 0.38300 41.52400
H  -2.49100 -4.05900 44.49400
H  2.76600 -6.83800 46.74900
H  5.59200 0.15100 42.41500
H  3.32500 -0.08500 40.52100
H  4.42000 2.00400 41.97400
H  2.89600 1.68000 42.91700
H  2.83900 2.05700 41.14500
H  4.95000 -1.16700 39.79800
H  5.52400 -2.35800 40.86900
H  7.69100 -1.83800 40.51500
H  7.42800 -0.24100 41.08500
H  -1.67100 0.22500 40.77800
H  -1.13200 1.37100 42.04300
H  -2.85400 0.92300 41.95400
H  -4.30600 -3.40700 43.96100
H  -5.36600 -2.06900 44.74800
H  -3.91400 -2.43000 45.42900
H  -1.81500 -6.32200 45.52600
H  0.05700 -6.69100 47.64800
H  -2.43700 -6.31800 47.95600
H  -3.02800 -4.94300 47.12800
H  -1.62600 -4.80500 48.16600
H  0.72300 -7.95500 45.00800
H  -0.91800 -8.31300 45.60500
H  0.99500 -8.94900 47.63000
H  1.47000 -9.62500 46.15600
H  -0.17700 -9.97800 46.73600
H  6.81200 -6.49200 46.21300
H  5.29400 -7.49900 46.16500
H  5.82300 -6.51700 47.58400
H  6.90800 -3.43500 42.66300
H  9.00400 -0.13900 44.97200
H  7.75200 1.12200 45.16200
H  8.49000 0.59300 43.54700
Mg 40.48300 9.72000 30.55900
C  42.07700 11.18800 33.20600
C  37.91000 8.76000 32.77900
C  38.87100 8.39500 27.96100
C  43.34100 10.03600 28.54600
N  39.91200 10.13700 32.72500
C  40.74000 10.70500 33.59900
C  40.18300 10.65000 35.11000
C  38.95300 9.72700 34.96800
C  38.87300 9.53400 33.39100
C  39.04400 8.42100 35.88600
C  39.87500 12.10100 35.69300
C  40.69900 12.57100 36.99100
H  39.87200 13.08400 38.15700
N  38.61100 8.64500 30.35600
C  37.72600 8.38200 31.42800
C  36.56600 7.69300 30.81700
C  36.83700 7.43900 29.44400
C  38.15000 8.14100 29.15000
C  35.42600 7.24400 31.75800
C  35.98900 6.75100 28.30900
O  36.15300 6.84700 27.12700
C  34.83600 5.93200 28.79900
N  41.06200 9.35600 28.54000
C  40.13200 8.91300 27.65500
C  40.73700 8.82200 26.21300
C  42.25300 9.01500 26.48800
C  42.23200 9.52300 27.87500
C  40.41300 7.56500 25.29600
C  42.96400 9.83000 25.38900
C  42.87400 11.33700 25.59600
N  42.32700 10.45800 30.78300
C  43.39000 10.50700 29.85100
C  44.37300 11.28300 30.49500
C  43.92500 11.58600 31.78700
C  42.66500 11.03500 31.94200
C  45.71300 11.67600 29.84300
C  44.30700 12.21000 33.10200
O  45.39300 12.74700 33.36200
C  43.11600 11.88700 34.08400
C  43.80100 11.09700 35.15800
O  44.35500 9.99500 35.09100
O  43.94400 11.89600 36.31700
C  44.32500 11.15900 37.51400
H  37.24300 8.31900 33.52300
H  38.27600 8.00500 27.13200
H  44.13400 10.20700 27.81500
H  40.84200 10.14000 35.81300
H  38.05300 10.18400 35.38000
H  39.75700 7.72300 35.44700
H  38.11500 7.85300 35.84200
H  39.24000 8.57300 36.94700
H  38.84400 12.16500 36.04100
H  39.97800 12.81800 34.87800
H  41.35700 13.37500 36.66000
H  41.27400 11.68400 37.25500
H  35.16200 8.05500 32.43600
H  35.72400 6.41700 32.40300
H  34.53000 7.03300 31.17400
H  35.31900 5.21900 29.46800
H  34.43500 5.46100 27.90200
H  34.07400 6.62200 29.16100
H  40.25200 9.59800 25.62000
H  42.76400 8.05900 26.60000
H  39.92300 7.70300 24.33300
H  39.93500 6.82400 25.93700
H  41.38800 7.23700 24.93400
H  42.54600 9.55700 24.41900
H  44.02000 9.58200 25.28600
H  42.05300 11.69800 26.21600
H  42.74300 11.77700 24.60700
H  43.84000 11.68300 25.96200
H  45.51600 12.25000 28.93800
H  46.38700 10.84600 29.63300
H  46.14900 12.39900 30.53300
H  42.73500 12.79500 34.55000
H  43.95600 11.81500 38.30300
H  45.39400 10.97100 37.61300
H  43.77400 10.22000 37.55600

