158

Mg 25.31000 -8.05700 46.85700
C  26.99700 -5.36700 45.33300
C  22.67400 -7.41700 44.60300
C  23.84300 -10.93900 47.67400
C  28.21800 -9.02100 48.42700
N  25.01200 -6.73200 45.06600
C  25.75600 -5.65500 44.67100
C  25.22500 -4.97700 43.43200
C  23.77300 -5.53000 43.34400
C  23.83100 -6.68800 44.35700
C  22.69400 -4.53800 43.60800
C  26.08200 -5.25800 42.06400
C  26.19700 -3.92000 41.23200
H  25.05600 -3.78400 40.26100
N  23.40300 -8.94400 46.35500
C  22.50300 -8.54600 45.44700
C  21.33600 -9.43900 45.44700
C  21.67200 -10.48900 46.27700
C  23.01600 -10.16000 46.81100
C  20.06600 -9.14800 44.73000
C  20.78400 -11.79100 46.53500
O  19.69500 -11.78900 46.05000
C  21.27000 -12.98900 47.16400
N  26.00400 -9.75800 47.77600
C  25.19500 -10.77500 48.15400
C  25.87300 -11.77900 49.08000
C  27.22300 -11.15000 49.31200
C  27.17900 -9.90800 48.42900
C  25.10800 -12.01700 50.47300
C  28.39800 -12.12100 49.23300
C  29.25800 -12.27800 50.50800
N  27.27000 -7.45100 46.82400
C  28.29100 -7.79200 47.68200
C  29.38500 -6.85100 47.55900
C  28.93800 -5.90200 46.57200
C  27.59100 -6.28300 46.23400
C  30.60900 -6.90700 48.29200
C  29.32000 -4.69700 45.90700
O  30.41300 -4.15300 45.78200
C  28.03500 -4.31400 45.02700
C  27.48500 -3.04600 45.46000
O  27.21300 -2.16300 44.65600
O  27.21900 -2.85500 46.79700
C  26.63700 -1.55400 47.16700
H  21.81200 -7.09100 44.01800
H  23.48000 -11.83700 48.17800
H  29.07300 -9.25300 49.06700
H  25.27400 -3.91100 43.65400
H  23.67600 -5.90700 42.32600
H  22.30500 -4.16900 42.66000
H  23.02600 -3.59400 44.04000
H  21.82200 -4.89200 44.15800
H  25.58600 -6.00900 41.44800
H  27.06500 -5.60100 42.38500
H  27.17500 -3.87900 40.75200
H  26.03200 -3.00500 41.79900
H  20.33200 -9.43900 43.71400
H  19.90300 -8.07100 44.77500
H  19.12300 -9.54500 45.10400
H  21.89100 -12.98500 48.05900
H  21.93100 -13.38400 46.39200
H  20.46100 -13.71100 47.27800
H  25.85500 -12.73200 48.55100
H  27.30100 -10.74300 50.32000
H  24.23400 -11.36600 50.47400
H  25.70700 -11.77600 51.35200
H  24.91500 -13.07700 50.64100
H  29.02100 -11.73800 48.42400
H  27.98600 -13.12000 49.08900
H  30.30400 -12.26300 50.20100
H  28.78300 -13.08800 51.06200
H  29.15600 -11.44400 51.20300
H  31.18700 -5.99900 48.12500
H  31.23900 -7.79600 48.24100
H  30.25900 -6.83200 49.32200
H  28.35700 -4.28400 43.98600
H  26.95100 -1.26900 48.17100
H  25.56300 -1.67200 47.31400
H  26.82000 -0.71300 46.49800
Mg 40.43000 8.45400 29.65700
C  42.20500 9.54000 32.30600
C  38.38000 6.70100 31.89500
C  38.89600 7.01500 27.03100
C  42.94300 9.58900 27.47100
N  40.36900 8.15800 31.85700
C  41.08900 8.89500 32.78700
C  40.68000 8.56800 34.23500
C  39.64500 7.43000 34.07200
C  39.48400 7.36400 32.50300
C  40.14500 6.16100 34.75700
C  40.10900 9.89100 34.91300
C  40.91800 10.50500 36.08100
H  40.23800 11.48900 37.11600
N  38.70900 7.19600 29.54000
C  38.01800 6.59600 30.56300
C  36.94000 5.75400 29.99400
C  36.94500 6.12500 28.57800
C  38.23500 6.75700 28.28300
C  36.00100 4.72400 30.66500
C  35.94700 5.75100 27.51100
O  36.16100 5.86700 26.27900
C  34.64700 5.16600 27.88600
N  40.92100 8.27500 27.54600
C  40.11900 7.62500 26.71300
C  40.58600 7.81400 25.26200
C  41.67000 8.94100 25.33100
C  41.87500 8.97700 26.87100
C  41.07600 6.54900 24.58100
C  41.24600 10.27700 24.61800
C  39.93500 11.05100 25.06500
N  42.23900 9.43500 29.74000
C  43.17000 9.85600 28.86400
C  44.17100 10.60500 29.51700
C  43.86600 10.50600 30.82900
C  42.67700 9.75000 30.97600
C  45.25500 11.31800 28.84600
C  44.24800 10.91300 32.20100
O  45.20300 11.58300 32.57500
C  43.22600 10.31300 33.13900
C  44.04400 9.55700 34.17400
O  44.45900 8.39800 34.12400
O  44.05600 10.31400 35.34900
C  44.29900 9.44600 36.47800
H  37.74500 6.19700 32.62700
H  38.44900 6.52200 26.16600
H  43.72600 10.02000 26.84400
H  41.61500 8.30100 34.72700
H  38.72700 7.69900 34.59400
H  41.17600 6.24300 35.10300
H  40.03400 5.29000 34.11200
H  39.49400 5.84500 35.57200
H  39.06700 9.87500 35.23400
H  40.11800 10.68500 34.16600
H  41.70100 11.10600 35.61900
H  41.34100 9.63300 36.57900
H  34.97400 5.07600 30.75400
H  36.21800 4.40200 31.68300
H  35.79800 3.83800 30.06300
H  34.00000 5.04600 27.01700
H  34.23100 5.92500 28.54900
H  34.74500 4.14700 28.26200
H  39.71300 8.18900 24.72700
H  42.61100 8.57900 24.91600
H  41.54400 5.89400 25.31600
H  41.71100 6.94600 23.78900
H  40.27400 6.07200 24.01800
H  41.11500 9.87800 23.61300
H  42.04700 11.01700 24.63500
H  39.21900 10.89700 24.25800
H  40.12700 12.11700 25.18200
H  39.56000 10.64700 26.00600
H  45.02400 11.45900 27.79000
H  46.25200 10.90200 28.98800
H  45.19400 12.33200 29.24200
H  42.86900 11.17300 33.70500
H  43.94400 8.41500 36.47300
H  44.10500 9.93800 37.43000
H  45.37300 9.26900 36.53700

