158

Mg 27.15300 50.01400 26.11000
C  24.95800 51.36300 28.47500
C  29.28100 49.19300 28.54400
C  29.34300 49.26000 23.65500
C  24.91900 51.30500 23.63600
N  27.26400 50.44100 28.25000
C  26.13600 50.83600 28.99200
C  26.30500 50.43500 30.51100
C  27.78700 49.91700 30.49700
C  28.10300 49.74500 29.02400
C  28.90500 50.67800 31.29700
C  25.25400 49.26100 30.91600
C  24.31000 49.67100 32.06000
H  24.32300 48.84800 33.37400
N  29.06400 49.37100 26.10300
C  29.81300 49.01600 27.23400
C  31.11200 48.47900 26.80700
C  31.19600 48.69200 25.41700
C  29.81100 49.17500 25.01000
C  32.12500 47.99400 27.75700
C  32.30400 48.50000 24.46200
O  32.29900 48.92900 23.30200
C  33.57300 47.83000 25.04300
N  27.20800 50.44400 23.94900
C  28.14300 49.82400 23.17700
C  27.90100 49.98000 21.67900
C  26.42300 50.34300 21.68500
C  26.16900 50.79300 23.17700
C  28.75200 50.91300 20.85200
C  25.33300 49.26000 21.12800
C  24.59900 48.42700 22.19700
N  25.29500 51.07200 26.00200
C  24.54600 51.56200 24.94400
C  23.39300 52.34300 25.44400
C  23.48500 52.17500 26.82500
C  24.66100 51.44700 27.08700
C  22.45400 53.18600 24.66000
C  22.90500 52.56900 28.11600
O  21.92300 53.31000 28.34700
C  23.81200 51.91000 29.24200
C  24.27700 53.03400 30.05700
O  25.17500 53.92600 29.77500
O  23.43900 53.13700 31.13600
C  23.86400 54.18800 32.10700
H  29.90400 48.65300 29.26000
H  30.00800 48.98400 22.83400
H  24.29900 51.61900 22.79400
H  26.13800 51.23100 31.23700
H  27.85500 48.90400 30.89400
H  28.59600 51.69500 31.53700
H  29.78500 50.89100 30.69000
H  29.12700 50.04800 32.15900
H  25.85700 48.40700 31.22600
H  24.78000 48.77800 30.06200
H  23.32200 49.52000 31.62500
H  24.26900 50.75600 32.15800
H  33.04000 48.55500 27.56900
H  32.16300 46.91800 27.58300
H  31.78100 48.16100 28.77800
H  34.06500 48.57000 25.67400
H  34.28400 47.59200 24.25200
H  33.34400 46.93500 25.62100
H  28.00800 48.95800 21.31500
H  26.21900 51.21300 21.06100
H  28.25100 51.82700 20.53500
H  29.31100 50.49600 20.01300
H  29.51400 51.11600 21.60500
H  25.85500 48.56500 20.47000
H  24.62700 49.81600 20.51000
H  25.00400 48.36700 23.20700
H  24.58400 47.37800 21.90200
H  23.54500 48.70400 22.23100
H  22.45700 54.23300 24.96100
H  21.45400 52.78700 24.83600
H  22.66600 53.15700 23.59200
H  23.36400 51.11200 29.83200
H  24.89800 54.06400 32.43100
H  23.25500 54.21200 33.01000
H  23.70700 55.13200 31.58500
Mg -1.55100 35.13500 26.06100
C  -2.89300 33.41300 28.70400
C  -0.36100 37.55100 28.42100
C  -0.28300 36.93400 23.63400
C  -3.11800 32.94200 23.88200
N  -1.57500 35.39200 28.35700
C  -2.12800 34.47000 29.15800
C  -1.93000 34.82500 30.68100
C  -1.30700 36.29300 30.55500
C  -1.05200 36.48900 29.01500
C  -2.19000 37.42200 31.15100
C  -1.19100 33.77200 31.53300
C  -1.98400 33.05900 32.71900
H  -1.30600 32.96200 34.06500
N  -0.43700 36.97100 26.04200
C  -0.01500 37.80700 27.05900
C  0.81600 38.75600 26.53300
C  0.79200 38.62300 25.15000
C  0.06900 37.45500 24.89800
C  1.47100 39.76800 27.53600
C  1.52100 39.49500 24.16100
O  1.63900 39.14000 23.05100
C  2.26800 40.72200 24.63000
N  -1.86800 35.12700 24.05000
C  -1.05700 35.85300 23.24500
C  -1.43200 35.62600 21.79700
C  -2.27700 34.28900 21.81500
C  -2.44000 34.09400 23.35500
C  -2.16100 36.77700 21.12500
C  -1.61600 33.12400 20.93800
C  -0.36300 32.46200 21.41700
N  -2.68800 33.43100 26.17100
C  -3.27100 32.66400 25.25900
C  -4.03700 31.60000 25.86900
C  -3.92200 31.81400 27.20800
C  -3.08100 33.01200 27.33900
C  -4.80200 30.57300 25.21500
C  -4.42400 31.49300 28.52200
O  -5.23600 30.63000 28.88400
C  -3.64300 32.39800 29.54500
C  -4.67800 32.98800 30.39900
O  -5.33100 33.99100 30.26400
O  -4.76400 32.16000 31.48200
C  -5.81800 32.50200 32.47900
H  0.03100 38.16700 29.23300
H  0.17400 37.40200 22.76000
H  -3.62100 32.30800 23.14900
H  -2.93700 34.89700 31.09300
H  -0.32700 36.28800 31.03100
H  -2.53600 38.07400 30.34900
H  -1.68800 38.01800 31.91400
H  -3.07700 37.03700 31.65500
H  -0.29100 34.23300 31.93900
H  -0.93000 32.98100 30.83000
H  -2.21600 32.10900 32.23800
H  -2.89600 33.63200 32.88700
H  2.15900 40.52600 27.16200
H  1.86800 39.27800 28.42500
H  0.69700 40.36100 28.02500
H  1.58800 41.36300 25.19000
H  2.77600 41.26200 23.83100
H  3.10100 40.29300 25.18600
H  -0.48500 35.39100 21.31100
H  -3.25800 34.54300 21.41300
H  -2.37700 37.61900 21.78200
H  -3.12900 36.52100 20.69300
H  -1.42800 37.02700 20.35800
H  -1.38800 33.50000 19.94100
H  -2.29000 32.30700 20.67900
H  0.04500 32.93900 22.30800
H  0.34800 32.65700 20.61500
H  -0.47100 31.38700 21.56400
H  -5.70400 30.97500 24.75200
H  -4.99500 29.82900 25.98700
H  -4.10000 30.22200 24.45900
H  -2.96400 31.80600 30.15800
H  -5.33300 32.68100 33.43800
H  -6.40700 31.58700 32.54700
H  -6.52300 33.26400 32.14700

