158

Mg 36.08200 49.66300 25.81700
C  36.01100 47.67700 28.71800
C  34.43300 52.11400 27.31300
C  35.53100 51.07400 22.76600
C  37.73500 46.95300 24.24400
N  35.33000 49.83100 27.77900
C  35.52700 48.97700 28.87900
C  34.97700 49.68100 30.20900
C  34.42100 51.00400 29.66200
C  34.68500 50.95300 28.10100
C  32.89300 51.20300 29.92100
C  36.20200 49.87800 31.19300
C  36.00200 49.41300 32.65200
H  34.57000 49.20800 33.14700
N  35.26200 51.48800 25.14600
C  34.60500 52.37700 25.95000
C  34.13400 53.51100 25.09800
C  34.54100 53.24700 23.78100
C  35.14600 51.92000 23.82400
C  33.31300 54.64200 25.61800
C  34.55600 54.09800 22.55300
O  35.12700 53.78300 21.51600
C  33.85600 55.41700 22.59000
N  36.57700 49.08700 23.83900
C  36.27200 49.89500 22.78100
C  36.93400 49.42800 21.50400
C  37.73800 48.10900 21.90900
C  37.35800 48.07300 23.47500
C  36.05300 49.16200 20.23600
C  39.24500 48.11700 21.56600
C  40.17100 49.18100 22.13800
N  36.73200 47.75500 26.26400
C  37.39200 46.76400 25.52800
C  37.55200 45.57400 26.33800
C  37.06800 45.89500 27.61000
C  36.58500 47.20900 27.51400
C  38.14900 44.35400 25.85200
C  36.79400 45.34700 28.92300
O  36.91700 44.21200 29.32200
C  36.25700 46.54000 29.78000
C  35.06200 46.16600 30.60800
O  33.89700 46.41300 30.36300
O  35.47500 45.66200 31.80300
C  34.56200 45.23200 32.80700
H  33.90900 52.88200 27.88700
H  35.21000 51.52900 21.82700
H  38.31800 46.15100 23.78600
H  34.20500 49.03400 30.62500
H  34.90100 51.87300 30.11200
H  32.66600 52.08700 30.51700
H  32.38100 50.35500 30.37700
H  32.24100 51.27400 29.05100
H  36.42600 50.93800 31.07400
H  37.08300 49.32800 30.86400
H  36.49100 50.11500 33.32700
H  36.45100 48.42300 32.73900
H  33.05800 54.40100 26.65000
H  32.33400 54.86100 25.19100
H  33.85500 55.58800 25.61400
H  34.40000 55.98100 23.34800
H  32.78600 55.37000 22.79100
H  33.90700 56.01700 21.68100
H  37.74300 50.15600 21.44000
H  37.20200 47.28300 21.44200
H  36.28400 48.20300 19.77400
H  36.18100 49.91100 19.45500
H  34.98900 49.13700 20.47400
H  39.30300 48.28900 20.49100
H  39.55700 47.07600 21.65000
H  40.45000 49.73200 21.24000
H  41.03700 48.69200 22.58600
H  39.65600 49.80200 22.87100
H  37.41400 43.78600 25.28300
H  38.61000 43.76500 26.64500
H  38.99700 44.58300 25.20600
H  37.05100 46.86900 30.45000
H  33.54300 45.28800 32.42300
H  34.68600 45.90200 33.65800
H  34.79200 44.21900 33.13600
Mg -12.39100 16.16000 43.15000
C  -9.39400 14.62100 42.14300
C  -11.31000 18.96000 41.60800
C  -15.54000 17.46200 43.53200
C  -13.55300 13.04600 44.10800
N  -10.55600 16.65100 41.92500
C  -9.38900 15.95800 41.76200
C  -8.26400 16.82200 41.23700
C  -8.91000 18.22800 41.37900
C  -10.35600 18.00000 41.63900
C  -8.23300 19.22500 42.30400
C  -7.92800 16.42500 39.73200
C  -6.47000 16.35400 39.51600
H  -5.98800 16.91000 38.19300
N  -13.35100 18.06100 42.65500
C  -12.68500 19.03800 41.98600
C  -13.54500 20.18200 41.86000
C  -14.85400 19.79600 42.42000
C  -14.63000 18.38400 42.89300
C  -13.17600 21.38200 41.03900
C  -16.09800 20.69100 42.37900
O  -16.03000 21.79500 41.91700
C  -17.44700 20.17100 42.86400
N  -14.29200 15.26700 43.54200
C  -15.36400 16.09200 43.79200
C  -16.55800 15.28500 44.46600
C  -15.96700 13.83100 44.60800
C  -14.51300 14.02300 43.99600
C  -17.14900 15.86300 45.77400
C  -16.90400 12.77900 43.88000
C  -16.43700 12.05900 42.63900
N  -11.54100 14.28300 43.43800
C  -12.15500 13.07100 43.79400
C  -11.23600 11.94000 43.58100
C  -10.10000 12.54600 43.03900
C  -10.40400 13.91500 42.87200
C  -11.48200 10.49800 44.00600
C  -8.76800 12.34600 42.56000
O  -8.07100 11.31500 42.61600
C  -8.24600 13.65600 41.96700
C  -7.01200 14.09800 42.67400
O  -6.90100 14.59700 43.81300
O  -5.92900 13.81700 41.83900
C  -4.62300 14.47900 42.08200
H  -10.82500 19.85300 41.20900
H  -16.55300 17.84900 43.65500
H  -13.98600 12.06100 44.29600
H  -7.37300 16.71500 41.85600
H  -8.96800 18.77200 40.43700
H  -7.19600 18.89000 42.31900
H  -8.57400 19.22200 43.33900
H  -8.19900 20.22300 41.86700
H  -8.30900 17.08000 38.94900
H  -8.34800 15.43100 39.57700
H  -6.12900 15.32000 39.58200
H  -5.87800 16.99000 40.17300
H  -12.09200 21.46100 40.95100
H  -13.60200 22.19300 41.62900
H  -13.75600 21.43600 40.11700
H  -17.40900 19.79000 43.88500
H  -17.71100 19.39400 42.14600
H  -18.24200 20.91400 42.93300
H  -17.35700 15.34800 43.72800
H  -15.76800 13.41600 45.59600
H  -16.48000 15.76000 46.62800
H  -18.05400 15.27000 45.90600
H  -17.52200 16.88500 45.70900
H  -17.90900 13.13700 43.66000
H  -17.21100 11.94800 44.51500
H  -15.58000 12.63000 42.28000
H  -17.21500 11.98300 41.87900
H  -16.06000 11.05100 42.81200
H  -10.90700 9.86900 43.32800
H  -12.53900 10.27800 44.15900
H  -10.93700 10.30500 44.93000
H  -7.90600 13.51100 40.94200
H  -4.50700 15.15700 41.23600
H  -3.81600 13.75600 42.19600
H  -4.58200 15.20700 42.89200

