158

Mg -0.15100 6.74300 26.06100
C  1.00800 9.08500 28.53600
C  -0.36100 4.31700 28.56100
C  -1.41900 4.65100 23.82800
C  0.70900 8.97500 23.52500
N  0.12800 6.80400 28.31100
C  0.68000 7.82700 29.12200
C  0.84200 7.39500 30.60600
C  0.73100 5.80600 30.44000
C  0.18300 5.55700 28.98000
C  2.10500 5.06400 30.73800
C  -0.18900 8.28700 31.52600
C  -0.60300 7.53000 32.83800
H  0.34600 7.61700 34.02500
N  -0.98200 4.77700 26.24300
C  -0.89600 3.96200 27.27600
C  -1.70200 2.81100 27.02800
C  -2.06600 2.83800 25.70400
C  -1.47300 4.09400 25.19000
C  -1.95400 1.73300 28.05900
C  -3.04900 1.91100 25.04500
O  -3.40500 2.08300 23.87100
C  -3.55400 0.66700 25.62400
N  -0.15500 6.71900 23.96000
C  -0.86900 5.79700 23.28000
C  -1.04300 6.16700 21.81600
C  -0.27700 7.54500 21.72300
C  0.15000 7.77500 23.14700
C  -0.48700 5.00400 20.90800
C  -1.16600 8.81100 21.18800
C  -0.45400 9.67500 20.14200
N  0.72700 8.57600 26.01400
C  0.91000 9.40700 24.91000
C  1.27100 10.73700 25.40000
C  1.44800 10.62800 26.76100
C  1.01600 9.30400 27.12000
C  1.54500 11.98400 24.47900
C  1.83600 11.31200 28.00200
O  2.28400 12.43600 28.17600
C  1.49600 10.31400 29.19900
C  2.78700 10.13500 29.87300
O  3.69200 9.39400 29.51800
O  2.81300 10.99000 30.97000
C  4.13000 11.23100 31.48500
H  -0.41700 3.53000 29.31600
H  -1.99400 4.04700 23.12400
H  0.90000 9.74000 22.77000
H  1.88100 7.67400 30.77800
H  -0.03300 5.42600 31.11800
H  2.10100 4.62400 31.73500
H  2.95400 5.74500 30.67800
H  2.29800 4.26000 30.02800
H  -1.00800 8.65600 30.90800
H  0.41500 9.14100 31.83300
H  -0.81500 6.46700 32.72300
H  -1.58100 7.94400 33.08600
H  -1.09200 1.59600 28.71100
H  -2.04600 0.75500 27.58700
H  -2.80200 1.93300 28.71300
H  -4.24400 0.21300 24.91300
H  -4.05800 0.79000 26.58300
H  -2.78400 -0.10300 25.67600
H  -2.08700 6.22300 21.50600
H  0.65000 7.42000 21.16400
H  -0.27700 4.10000 21.48000
H  0.45000 5.37000 20.48900
H  -1.12200 4.79800 20.04600
H  -1.46100 9.41300 22.04800
H  -2.02600 8.33500 20.71600
H  -0.98000 9.65600 19.18800
H  0.59700 9.39900 20.05800
H  -0.33500 10.67800 20.55200
H  0.72200 12.46000 23.94600
H  2.20900 11.62800 23.69100
H  2.10800 12.68900 25.09100
H  0.82100 10.86900 29.85100
H  4.92300 10.60900 31.07000
H  4.13000 11.06800 32.56200
H  4.31500 12.26800 31.20400
Mg -4.97700 24.27600 25.90900
C  -3.44400 26.18000 28.48000
C  -6.21600 22.19800 28.42300
C  -6.65100 22.73600 23.60900
C  -3.71200 26.57800 23.64000
N  -4.91600 24.30700 28.12300
C  -4.25100 25.15700 28.91200
C  -4.65700 24.90600 30.36800
C  -5.06400 23.45200 30.38800
C  -5.41400 23.29200 28.87100
C  -4.11600 22.41800 30.92800
C  -5.67800 25.98700 30.87900
C  -5.48400 26.41200 32.29100
H  -4.92000 25.40600 33.31600
N  -6.33900 22.67200 26.07000
C  -6.58300 21.87900 27.11100
C  -7.44600 20.77500 26.67000
C  -7.59800 20.88500 25.22700
C  -6.86300 22.11100 24.91600
C  -7.97800 19.66900 27.66100
C  -8.20900 19.90600 24.20500
O  -8.30900 20.17800 23.02800
C  -8.41600 18.49700 24.77100
N  -5.19700 24.60900 23.90600
C  -6.05400 23.90300 23.15300
C  -6.16900 24.43000 21.72900
C  -5.15400 25.55400 21.70700
C  -4.69900 25.63800 23.16400
C  -5.87300 23.33200 20.64500
C  -5.65300 26.94500 21.19100
C  -4.81400 27.74800 20.23500
N  -3.75600 25.92800 25.91700
C  -3.25200 26.78800 24.94000
C  -2.55300 27.87600 25.49800
C  -2.52100 27.56000 26.86500
C  -3.32300 26.40100 27.10800
C  -1.82200 28.95800 24.85800
C  -2.00500 28.06700 28.10400
O  -1.28000 29.01800 28.44200
C  -2.66400 27.27700 29.18200
C  -1.64500 26.83000 30.21800
O  -0.54700 26.36400 29.95500
O  -2.07000 27.09200 31.49100
C  -1.09900 26.88500 32.57600
H  -6.68200 21.56300 29.18000
H  -7.12900 22.22200 22.77200
H  -3.28800 27.27200 22.91200
H  -3.78400 24.90500 31.02100
H  -5.94600 23.46200 31.02800
H  -3.39400 22.03700 30.20600
H  -4.78400 21.60100 31.20300
H  -3.59300 22.77100 31.81600
H  -6.68500 25.57700 30.80200
H  -5.60700 26.88100 30.25900
H  -6.37900 26.82800 32.75400
H  -4.81100 27.26600 32.21200
H  -8.98000 19.27800 27.48500
H  -8.11800 20.11500 28.64600
H  -7.33900 18.79800 27.80500
H  -7.45800 18.22900 25.21700
H  -8.43700 17.78200 23.94800
H  -9.32200 18.36600 25.36300
H  -7.12800 24.91100 21.53600
H  -4.28000 25.36700 21.08300
H  -5.26800 23.73700 19.83400
H  -6.80400 22.85100 20.34600
H  -5.47100 22.44500 21.13400
H  -6.00700 27.50900 22.05400
H  -6.53400 26.80400 20.56400
H  -4.83600 28.79700 20.53000
H  -5.25200 27.72500 19.23700
H  -3.72700 27.66900 20.18900
H  -0.75600 28.73300 24.88700
H  -1.94000 29.85200 25.47100
H  -2.09700 29.25800 23.84700
H  -3.38100 27.97000 29.62300
H  -0.75700 25.85900 32.71200
H  -1.70700 27.23000 33.41200
H  -0.27700 27.59300 32.67800

