158

Mg 29.54500 58.62800 39.60700
C  26.77300 56.96700 38.59100
C  31.51200 55.88700 38.93600
C  32.34500 60.59000 39.64500
C  27.54200 61.57800 39.93400
N  29.20400 56.74900 38.60600
C  27.98400 56.15600 38.33400
C  28.11600 54.76700 37.88100
C  29.60800 54.39000 38.15500
C  30.16600 55.74400 38.71000
C  30.01400 53.27600 39.20600
C  27.82500 54.86800 36.43500
C  26.79900 53.89900 35.80000
H  25.97900 54.48800 34.62500
N  31.66800 58.24900 39.28300
C  32.23400 57.07200 38.98100
C  33.65600 57.30400 39.01000
C  33.90100 58.66600 39.19400
C  32.62300 59.27600 39.32900
C  34.60300 56.14800 38.86700
C  35.27300 59.28000 39.08300
O  36.24400 58.56900 38.93900
C  35.58200 60.74800 39.20500
N  29.87100 60.82600 39.36200
C  31.13200 61.33800 39.71700
C  31.13200 62.78900 40.21800
C  29.61000 63.16100 40.08900
C  28.94900 61.77700 39.75200
C  31.71600 63.08800 41.64600
C  29.37200 64.18700 38.95900
C  28.47100 65.37300 39.23200
N  27.60600 59.17400 39.42000
C  26.90600 60.34000 39.69800
C  25.48200 60.11600 39.57200
C  25.37700 58.76700 39.16000
C  26.69500 58.27000 39.11800
C  24.32100 61.02500 39.97300
C  24.42400 57.64900 38.86700
O  23.20500 57.53400 39.04300
C  25.34700 56.43800 38.43600
C  25.00900 55.30900 39.31800
O  25.15400 55.36300 40.52300
O  24.43100 54.29000 38.62700
C  24.06500 53.12400 39.38200
H  32.04100 54.93500 39.02000
H  33.22700 61.17300 39.92100
H  26.98200 62.49700 40.11800
H  27.43300 54.24300 38.55000
H  30.09600 54.02400 37.25200
H  29.06200 52.88900 39.56900
H  30.71300 53.69800 39.92800
H  30.58900 52.49100 38.71600
H  28.72700 54.61800 35.87500
H  27.68200 55.87000 36.03000
H  26.15300 53.48900 36.57600
H  27.47400 53.12900 35.42500
H  34.14100 55.38400 39.49200
H  35.61800 56.28400 39.24200
H  34.68800 55.73500 37.86300
H  35.71800 61.10500 40.22600
H  34.91000 61.32000 38.56500
H  36.54500 60.87900 38.71000
H  31.68800 63.33000 39.45200
H  29.10400 63.44400 41.01200
H  32.13200 62.16200 42.04300
H  30.96200 63.52500 42.30000
H  32.52700 63.81700 41.65800
H  28.91200 63.73300 38.08100
H  30.24500 64.69200 38.54500
H  29.10500 66.25700 39.30800
H  28.04600 65.34800 40.23500
H  27.58300 65.41700 38.60200
H  23.65100 60.65200 40.74700
H  23.79100 61.23700 39.04400
H  24.78600 61.94100 40.33800
H  25.09100 56.15300 37.41500
H  23.07500 52.79700 39.06500
H  24.09000 53.18700 40.47000
H  24.73900 52.34100 39.03400
Mg -0.10200 42.75500 26.68700
C  1.63900 42.90100 29.98200
C  -2.76600 41.80900 28.32000
C  -1.16100 42.17400 23.79200
C  3.23600 43.56900 25.29800
N  -0.48100 42.50900 28.91700
C  0.28200 42.73400 30.04100
C  -0.58300 42.66500 31.31900
C  -1.92900 42.00400 30.79400
C  -1.73700 42.09900 29.27100
C  -2.27000 40.60100 31.27400
C  -0.65000 44.09300 31.98300
C  -0.18500 44.05600 33.41400
H  -1.33300 43.82900 34.52300
N  -1.83400 42.20500 26.09900
C  -2.91600 41.86300 26.94800
C  -4.00700 41.45000 26.11100
C  -3.49800 41.45200 24.78800
C  -2.15200 41.99100 24.80700
C  -5.42900 41.16400 26.70600
C  -4.16600 40.83200 23.50300
O  -3.62100 40.95200 22.40000
C  -5.37600 39.94800 23.58400
N  0.92300 42.88300 24.87700
C  0.15500 42.65200 23.77300
C  0.97800 42.72600 22.46600
C  2.28700 43.34500 22.99700
C  2.11700 43.32500 24.52500
C  1.02800 41.34700 21.77700
C  2.62900 44.80500 22.47900
C  2.48300 45.10800 20.95200
N  2.05300 43.17800 27.45100
C  3.20700 43.29400 26.68900
C  4.32300 43.24100 27.62200
C  3.74100 43.03500 28.88900
C  2.37500 43.01300 28.74500
C  5.70800 43.38000 27.19300
C  4.14200 42.76700 30.25700
O  5.26300 42.66600 30.75300
C  2.70800 42.81700 31.07100
C  2.59500 41.63300 31.93200
O  2.71300 40.47800 31.53800
O  2.54100 41.90900 33.24500
C  2.49700 40.76900 34.17500
H  -3.65900 41.43600 28.82600
H  -1.37800 41.96900 22.74200
H  4.19800 43.69100 24.79600
H  -0.09300 42.01600 32.04500
H  -2.83400 42.58600 30.96700
H  -1.67600 40.37300 32.15900
H  -1.99600 39.94700 30.44600
H  -3.33600 40.63800 31.49900
H  -1.69300 44.38300 32.11000
H  -0.13000 44.76600 31.30100
H  0.10000 45.08200 33.64600
H  0.65900 43.38900 33.59100
H  -5.64900 41.84700 27.52600
H  -5.26900 40.19500 27.17900
H  -6.27500 41.15600 26.01900
H  -5.44400 39.23900 22.75900
H  -6.27200 40.56800 23.60300
H  -5.40300 39.27300 24.43900
H  0.44400 43.45600 21.85700
H  3.13200 42.84900 22.51800
H  0.58500 41.42600 20.78400
H  0.45300 40.58500 22.30300
H  2.05600 40.99500 21.69100
H  3.63300 45.10000 22.78400
H  1.90900 45.43700 22.99900
H  3.48700 45.20100 20.53800
H  1.84100 45.97800 20.81300
H  2.15800 44.29300 20.30600
H  6.30200 42.86700 27.94900
H  5.86500 44.45800 27.18900
H  5.80300 42.93000 26.20400
H  2.67800 43.74100 31.64700
H  3.19800 40.03700 33.77200
H  1.52700 40.27900 34.24900
H  2.75100 41.01200 35.20600

