158

Mg 16.48300 -2.97700 28.01300
C  15.89300 -0.92900 30.74300
C  18.26200 -5.04600 30.24700
C  17.71100 -4.76700 25.40100
C  15.36200 -0.49400 25.92700
N  17.02800 -2.94300 30.26100
C  16.54900 -2.08400 31.17700
C  16.90000 -2.49000 32.58900
C  17.65900 -3.78700 32.42800
C  17.74700 -3.89800 30.85200
C  19.09100 -3.96500 33.12700
C  15.66000 -2.73300 33.53000
C  15.67400 -1.93100 34.84600
H  17.03100 -1.58800 35.44600
N  17.64400 -4.76700 27.86600
C  18.28100 -5.47500 28.87200
C  18.82900 -6.59900 28.31900
C  18.78500 -6.48200 26.91200
C  18.03700 -5.29300 26.66400
C  19.40100 -7.56200 29.24200
C  19.51000 -7.38500 25.95800
O  19.44900 -7.22400 24.74100
C  20.31600 -8.51100 26.45100
N  16.59700 -2.60600 26.05100
C  17.11500 -3.49900 25.07700
C  17.10900 -2.90300 23.63600
C  16.20600 -1.65800 23.85700
C  16.01200 -1.56400 25.36900
C  18.51800 -2.45100 23.08000
C  14.87800 -1.56400 22.95300
C  13.61400 -1.99500 23.71100
N  15.47100 -1.21000 28.24200
C  15.12400 -0.25600 27.33500
C  14.47700 0.79600 27.94400
C  14.72800 0.57300 29.30500
C  15.42900 -0.66300 29.44900
C  13.74500 1.96400 27.27000
C  14.62400 1.12900 30.63300
O  14.15300 2.21500 30.95900
C  15.28500 0.17300 31.61100
C  16.32000 0.88100 32.38600
O  17.50800 1.04900 32.13000
O  15.71500 1.50900 33.38200
C  16.47800 2.47100 34.18400
H  18.76000 -5.62800 31.02600
H  17.92800 -5.28700 24.46600
H  15.08500 0.31200 25.24400
H  17.53100 -1.66900 32.92900
H  17.07400 -4.62600 32.80400
H  19.83800 -3.76100 32.36100
H  19.07300 -4.95500 33.58300
H  19.20600 -3.31700 33.99600
H  15.60100 -3.80400 33.72200
H  14.85800 -2.37900 32.88200
H  15.18300 -2.54200 35.60300
H  15.02900 -1.06200 34.71900
H  18.75000 -7.85500 30.06600
H  20.26800 -7.20400 29.79600
H  19.62000 -8.52000 28.76900
H  21.13000 -8.24000 27.12400
H  20.82500 -8.96600 25.60100
H  19.72500 -9.31100 26.89700
H  16.51000 -3.49300 22.94200
H  16.74200 -0.73500 23.63400
H  19.12700 -2.36600 23.98000
H  18.60600 -1.45200 22.65200
H  19.08000 -3.08900 22.40000
H  14.95700 -2.11400 22.01500
H  14.73100 -0.50700 22.73200
H  13.81500 -2.87100 24.32800
H  12.93900 -2.29500 22.91000
H  13.17900 -1.23000 24.35500
H  12.94000 1.65500 26.60400
H  14.48600 2.45800 26.64100
H  13.37500 2.57500 28.09300
H  14.53400 -0.11300 32.34700
H  16.51400 3.49000 33.79900
H  17.52700 2.23000 34.35200
H  16.01300 2.56100 35.16600
Mg 6.93300 53.92500 40.24600
C  6.49900 50.50300 40.39800
C  10.08200 53.62800 39.13000
C  6.96400 57.27300 39.54800
C  3.29700 54.25100 40.88000
N  8.07800 52.32500 39.67700
C  7.77300 50.96000 39.96200
C  9.01400 50.08200 39.72500
C  10.20500 51.12200 39.77100
C  9.41800 52.43000 39.42000
C  10.99500 51.16400 41.11500
C  9.02800 49.10900 38.53300
C  8.97300 49.78700 37.09300
H  7.59800 49.86000 36.48300
N  8.29600 55.26200 39.40400
C  9.52600 54.90500 38.99000
C  10.12400 56.10100 38.44600
C  9.31700 57.21900 38.65200
C  8.11700 56.60400 39.24100
C  11.51200 55.99300 37.87100
C  9.69900 58.63200 38.41800
O  10.83800 58.92000 38.04600
C  8.72400 59.79200 38.63300
N  5.20100 55.46100 40.01000
C  5.72100 56.78300 39.99200
C  4.53200 57.69400 40.26600
C  3.39300 56.77000 40.58100
C  3.99700 55.42200 40.54200
C  4.79400 58.86700 41.31600
C  2.11800 56.95000 39.67800
C  0.83100 57.51000 40.36100
N  5.17700 52.68300 40.62800
C  3.85800 52.91900 41.04500
C  3.27800 51.65100 41.51600
C  4.29400 50.70000 41.22700
C  5.37900 51.35200 40.68000
C  1.94200 51.49600 41.94400
C  4.62800 49.26100 41.20500
O  3.99300 48.34100 41.62100
C  5.99500 49.11700 40.53000
C  5.74000 48.42200 39.26800
O  5.11000 48.89400 38.36000
O  6.08300 47.12000 39.34800
C  5.98200 46.26400 38.14700
H  11.17300 53.63500 39.17300
H  6.99000 58.36400 39.59100
H  2.22900 54.37500 41.06700
H  9.15800 49.40300 40.56500
H  10.83800 50.74700 38.96700
H  12.06900 51.08400 40.94500
H  10.73600 50.28400 41.70400
H  10.76900 52.02700 41.74200
H  8.19100 48.45000 38.76400
H  9.93300 48.50600 38.60000
H  9.71700 49.19700 36.55800
H  9.29400 50.82100 37.21300
H  11.83500 54.98800 37.59700
H  12.12100 56.37500 38.69000
H  11.61000 56.65600 37.01100
H  7.95500 59.57000 37.89300
H  9.02200 60.80800 38.37100
H  8.48000 59.79700 39.69500
H  4.41300 58.30600 39.37200
H  2.98400 56.92300 41.58000
H  5.73200 58.75200 41.86000
H  3.99100 58.81500 42.05100
H  4.76500 59.85300 40.85200
H  1.95800 56.00900 39.15200
H  2.35000 57.70500 38.92600
H  1.05100 57.97500 41.32200
H  0.08400 56.72200 40.45800
H  0.31700 58.30300 39.81700
H  1.30500 50.94300 41.25400
H  1.43800 52.44300 42.13700
H  2.02900 50.85100 42.81900
H  6.65600 48.56800 41.20100
H  6.72400 45.46600 38.18600
H  6.07400 46.81300 37.21000
H  4.98200 45.83100 38.17600

