158

Mg 47.72200 16.63700 29.31900
C  45.87200 16.36300 32.28200
C  49.96300 18.51900 31.02600
C  49.34000 17.28500 26.43000
C  45.04100 15.32900 27.49400
N  47.81700 17.50000 31.37900
C  47.00300 17.13100 32.38100
C  47.58700 17.66400 33.73700
C  48.77700 18.59300 33.29600
C  48.86100 18.26600 31.81300
C  48.60700 20.09100 33.49300
C  48.05700 16.42100 34.65800
C  47.87800 16.73200 36.14300
H  47.53800 18.17300 36.57300
N  49.49500 17.58700 28.85400
C  50.28600 18.27400 29.70800
C  51.57100 18.64700 29.05900
C  51.44900 18.21300 27.67100
C  50.04500 17.67300 27.56700
C  52.79600 19.26900 29.77500
C  52.42200 18.28200 26.51600
O  52.04100 18.08400 25.36500
C  53.87400 18.59700 26.76600
N  47.23400 16.28000 27.23500
C  48.07900 16.67100 26.19900
C  47.37100 16.51500 24.84800
C  46.05800 15.69700 25.25100
C  46.09000 15.82200 26.73900
C  46.94700 17.84100 24.10000
C  45.98700 14.25600 24.64800
C  45.27400 14.00100 23.29300
N  45.81000 16.02700 29.69000
C  44.81500 15.47800 28.88000
C  43.74500 14.94300 29.67900
C  44.13500 15.21000 31.10500
C  45.39200 15.95300 30.98300
C  42.56800 14.14900 29.14900
C  43.73500 15.12000 32.48200
O  42.73100 14.73000 33.01600
C  44.80300 15.86100 33.30100
C  44.12900 16.91000 34.10000
O  43.72400 18.03300 33.70200
O  44.05900 16.50400 35.39900
C  43.01500 17.27000 36.10800
H  50.74300 19.09500 31.52700
H  49.81500 17.48900 25.46800
H  44.24100 15.05000 26.80500
H  46.69600 18.15700 34.12800
H  49.68200 18.28000 33.81700
H  47.90600 20.14700 34.32600
H  48.18100 20.58600 32.62000
H  49.53500 20.62200 33.70200
H  49.11000 16.23900 34.44300
H  47.43900 15.57200 34.36500
H  48.85600 16.48700 36.55700
H  47.18900 15.96200 36.49300
H  52.51000 19.59700 30.77400
H  53.25200 20.02300 29.13300
H  53.48800 18.44200 29.93300
H  54.09500 18.09400 27.70700
H  54.06400 19.65800 26.92800
H  54.41900 18.20200 25.90800
H  47.98300 16.01400 24.09800
H  45.17900 16.24000 24.90400
H  47.13500 18.66600 24.78700
H  45.94500 17.84100 23.67000
H  47.58700 17.95900 23.22600
H  45.34400 13.76400 25.37900
H  47.01100 13.88700 24.60800
H  45.94800 13.40700 22.67600
H  45.09500 14.93300 22.75600
H  44.25600 13.63600 23.43000
H  42.77100 13.62600 28.21500
H  41.86900 14.97800 29.04200
H  42.14100 13.42500 29.84400
H  45.21400 15.15800 34.02600
H  43.33000 18.23000 36.51500
H  42.80700 16.70900 37.01900
H  42.09600 17.18100 35.52900
Mg 48.31200 35.56800 28.21400
C  46.31900 34.14100 30.79500
C  48.83100 38.19000 30.08600
C  49.73300 37.05100 25.53200
C  47.44500 32.80400 26.17000
N  47.87200 35.96000 30.21100
C  47.07700 35.31300 31.13900
C  47.09000 35.96600 32.52700
C  47.49300 37.44300 32.15600
C  48.06600 37.17100 30.67100
C  46.33600 38.44100 32.10300
C  48.08700 35.32400 33.52500
C  47.65900 35.20300 34.97900
H  48.53800 35.84000 36.10700
N  49.26900 37.41700 27.85800
C  49.41200 38.37100 28.84300
C  50.11200 39.48400 28.26600
C  50.45100 39.09000 26.89500
C  49.72500 37.83000 26.69900
C  50.38600 40.78400 28.95300
C  51.26600 39.93900 25.82900
O  51.38800 39.63200 24.67300
C  51.91700 41.26700 26.17000
N  48.66700 34.95500 26.10200
C  49.31900 35.73800 25.24700
C  49.50200 35.01600 23.87900
C  48.95900 33.59800 24.25000
C  48.22300 33.79100 25.54900
C  48.79800 35.72200 22.63700
C  50.01500 32.49000 24.38500
C  50.15800 31.29700 23.39100
N  47.09500 33.77900 28.34400
C  46.79700 32.83000 27.45000
C  45.97400 31.74800 28.13400
C  45.71400 32.29400 29.37200
C  46.44800 33.54800 29.48100
C  45.57000 30.36500 27.65800
C  44.96100 32.09500 30.63900
O  44.18000 31.15600 30.90000
C  45.28800 33.34000 31.53100
C  45.72200 32.90100 32.85400
O  46.79200 32.45600 33.13300
O  44.70100 33.11000 33.78400
C  44.92300 32.54300 35.08800
H  48.86900 39.14900 30.60800
H  50.35700 37.39800 24.70500
H  47.25400 31.94000 25.53000
H  46.07900 35.91900 32.93300
H  48.22500 37.94500 32.78800
H  46.45500 39.24100 32.83500
H  45.36600 37.95600 32.21100
H  46.33000 38.84100 31.09000
H  48.99900 35.91700 33.45400
H  48.27700 34.30700 33.18200
H  47.73500 34.14500 35.23000
H  46.69400 35.67100 35.17400
H  49.71800 41.61500 28.72500
H  51.39800 41.10800 28.71100
H  50.42000 40.48400 30.00000
H  52.28500 41.79300 25.28900
H  52.63400 41.11100 26.97700
H  51.10000 41.93900 26.43300
H  50.56500 35.08900 23.65100
H  48.21800 33.26000 23.52500
H  49.42300 36.42200 22.08400
H  47.92200 36.27600 22.97500
H  48.44300 35.05700 21.84900
H  50.12800 32.16800 25.42100
H  51.01300 32.88600 24.19800
H  50.14800 30.40300 24.01400
H  51.08100 31.24900 22.81300
H  49.34100 31.33000 22.67000
H  46.06400 29.61600 28.27800
H  45.83700 30.29100 26.60400
H  44.49300 30.39700 27.82200
H  44.47500 34.04900 31.68600
H  44.02300 32.00800 35.38900
H  45.13800 33.30300 35.83900
H  45.75500 31.83900 35.09300

