158

Mg 44.36200 3.62100 47.25300
C  42.28200 6.40500 46.93500
C  41.54100 1.65800 46.66300
C  46.40800 0.88700 46.99600
C  47.11600 5.75500 47.23100
N  42.12400 3.98800 46.78200
C  41.52800 5.23700 46.77100
C  40.04000 5.09800 46.80300
C  39.76100 3.48400 46.79900
C  41.18600 2.95700 46.74300
C  38.95300 2.88300 47.99600
C  39.17700 5.81100 45.73200
C  39.47900 5.49700 44.24400
H  39.74200 6.75300 43.36400
N  44.01800 1.59500 46.88900
C  42.84600 0.97000 46.67900
C  42.93800 -0.46500 46.68600
C  44.31700 -0.66600 46.48300
C  45.02500 0.61200 46.76600
C  41.76000 -1.40600 46.65400
C  44.98200 -1.94700 45.98900
O  44.27600 -2.92700 45.79000
C  46.37100 -2.00400 45.51500
N  46.38300 3.30900 47.11400
C  47.02000 2.11800 47.24600
C  48.56200 2.32000 47.41600
C  48.73600 3.85800 47.34800
C  47.31200 4.33700 47.21700
C  49.12900 1.64600 48.67400
C  49.69300 4.42300 46.23800
C  51.24000 4.06600 46.45300
N  44.64100 5.67700 47.12300
C  45.85700 6.40700 47.21500
C  45.49200 7.85400 47.29700
C  44.13900 7.87900 47.25900
C  43.62300 6.55700 47.04000
C  46.55500 8.94200 47.46100
C  43.04300 8.71400 47.40200
O  42.94800 9.88600 47.79900
C  41.78800 7.83100 47.03200
C  40.82700 8.06600 48.15800
O  40.80700 7.55000 49.26200
O  39.90800 8.95300 47.79700
C  38.91800 9.46800 48.78000
H  40.67200 1.00200 46.58100
H  47.06200 0.01900 47.09900
H  47.96700 6.41800 47.40200
H  39.68300 5.42500 47.78000
H  39.22600 3.05100 45.95300
H  38.60400 3.70200 48.62400
H  39.60000 2.36100 48.70200
H  38.19100 2.14800 47.73700
H  39.14700 6.87500 45.96800
H  38.15900 5.49900 45.96800
H  38.59800 5.04900 43.78300
H  40.24000 4.71900 44.19400
H  42.00300 -2.27400 47.26800
H  41.41300 -1.60900 45.64100
H  40.82900 -1.00100 47.04900
H  46.48300 -1.05400 44.99300
H  46.40100 -2.75300 44.72300
H  47.05700 -2.07600 46.35900
H  48.95400 1.85900 46.51000
H  49.00100 4.17600 48.35600
H  48.47400 1.01200 49.27100
H  49.46200 2.41100 49.37600
H  50.04900 1.19200 48.30600
H  49.57600 5.50500 46.17900
H  49.45200 4.02600 45.25200
H  51.85500 4.96200 46.53300
H  51.51100 3.41600 45.62100
H  51.42500 3.51700 47.37600
H  47.10900 8.78700 48.38600
H  46.10900 9.93400 47.38200
H  47.28000 8.93700 46.64700
H  41.36600 8.13400 46.07400
H  38.96200 9.10200 49.80600
H  37.97800 9.07900 48.38800
H  38.91600 10.53200 49.01500
Mg 54.08400 24.52700 44.10200
C  51.05800 26.10600 43.40700
C  52.86400 21.56100 42.78100
C  57.30300 23.20100 43.99600
C  55.37300 27.60400 44.99000
N  52.30900 24.01100 43.05500
C  51.16600 24.76800 42.90700
C  50.08200 23.97200 42.08200
C  50.56500 22.51100 42.35300
C  51.99000 22.69900 42.80200
C  49.79800 21.69900 43.49500
C  49.86400 24.50900 40.62600
C  48.43900 24.55700 40.06400
H  48.03900 23.71900 38.79800
N  54.97300 22.62600 43.50800
C  54.24800 21.52800 43.15800
C  55.11900 20.42000 43.08200
C  56.41200 20.85000 43.46300
C  56.27700 22.30100 43.67100
C  54.66700 19.08900 42.58200
C  57.59400 19.90700 43.49300
O  57.40900 18.66900 43.23800
C  58.98700 20.38400 43.82200
N  56.09000 25.30100 44.40600
C  57.25400 24.59200 44.29300
C  58.43000 25.33700 44.72500
C  57.81800 26.79500 44.94100
C  56.31400 26.54400 44.81600
C  59.05000 24.81400 46.00400
C  58.43600 27.77300 43.94200
C  59.41100 28.74700 44.53900
N  53.40500 26.40300 44.30500
C  54.01200 27.52000 44.76000
C  53.06600 28.58200 44.90700
C  51.86200 28.03900 44.45000
C  52.13500 26.70500 44.01300
C  53.29200 29.87200 45.57100
C  50.42700 28.29800 44.23400
O  49.62300 29.23600 44.45900
C  49.91000 27.10500 43.53400
C  49.55600 27.60800 42.13900
O  50.32800 28.04800 41.29700
O  48.14800 27.80300 42.07200
C  47.77900 28.54600 40.81700
H  52.46400 20.60800 42.43100
H  58.27000 22.78800 44.29200
H  55.75900 28.56100 45.34800
H  49.19200 24.13300 42.69100
H  50.56800 21.98200 41.40000
H  48.96100 22.27400 43.89200
H  50.35200 21.35700 44.36900
H  49.51700 20.75500 43.02900
H  50.34000 23.82800 39.92100
H  50.31600 25.49100 40.48600
H  48.18400 25.59800 39.86400
H  47.65200 24.26400 40.75800
H  53.68500 19.05100 42.10900
H  54.65000 18.41300 43.43600
H  55.38400 18.71200 41.85300
H  59.29600 21.21500 43.18700
H  59.59400 19.48500 43.71700
H  58.95200 20.70200 44.86400
H  59.23300 25.38400 43.99000
H  57.95600 27.15600 45.96000
H  59.87200 25.43200 46.36400
H  59.53200 23.87200 45.74300
H  58.35900 24.67700 46.83600
H  57.61500 28.23800 43.39700
H  58.97400 27.38600 43.07600
H  60.41100 28.32000 44.61100
H  59.05300 28.92900 45.55200
H  59.34900 29.73900 44.09200
H  53.22500 29.55900 46.61300
H  52.37400 30.44000 45.41700
H  54.24500 30.30400 45.26800
H  49.14700 26.58300 44.11300
H  46.71100 28.39100 40.66300
H  48.29000 28.16100 39.93500
H  47.98700 29.59900 41.00600

