158

Mg 44.19500 3.23600 47.64600
C  42.06700 5.83000 46.71500
C  41.58200 1.07000 47.44800
C  46.35000 0.58500 47.86200
C  46.90900 5.43700 47.44000
N  42.01400 3.49000 47.19300
C  41.38300 4.61900 46.77000
C  39.94000 4.30500 46.52700
C  39.79100 2.87000 47.21200
C  41.25400 2.41300 47.23100
C  39.14200 2.78500 48.65700
C  39.65800 4.30900 44.93600
C  38.45300 5.12700 44.47000
H  38.64900 6.22300 43.41500
N  43.90200 1.07300 47.73600
C  42.80800 0.45700 47.58200
C  42.98700 -0.99500 47.68400
C  44.39200 -1.17100 47.73100
C  44.97900 0.23400 47.80100
C  41.87400 -2.01000 47.52800
C  45.10500 -2.56300 47.68100
O  44.49000 -3.59800 47.73300
C  46.53100 -2.65300 47.57500
N  46.32400 3.06800 47.61300
C  46.98200 1.90400 47.85700
C  48.51500 2.02900 48.11300
C  48.64800 3.58700 47.99100
C  47.23300 4.09800 47.65500
C  48.88100 1.34700 49.52000
C  49.68000 4.05500 46.92600
C  50.73400 5.08900 47.21900
N  44.46900 5.15600 47.27000
C  45.64200 5.85000 47.12500
C  45.32900 7.23700 46.81600
C  43.94100 7.33300 46.79600
C  43.42100 6.06500 47.00600
C  46.39800 8.32400 46.76100
C  42.81000 8.20600 46.59400
O  42.74400 9.43100 46.51300
C  41.50100 7.20500 46.49700
C  40.66700 7.61900 47.65800
O  40.42300 6.82700 48.54300
O  40.11400 8.84500 47.55900
C  38.93500 8.95700 48.40400
H  40.77100 0.34200 47.38200
H  47.01500 -0.27200 47.98600
H  47.75700 6.12500 47.46700
H  39.26900 4.98700 47.05000
H  39.26700 2.20300 46.52700
H  39.06100 3.76200 49.13500
H  39.72500 2.15900 49.33200
H  38.16500 2.33200 48.48900
H  39.27700 3.31000 44.72400
H  40.52400 4.47800 44.29500
H  37.96500 5.65200 45.29200
H  37.65200 4.54600 44.01200
H  42.17000 -2.96700 47.09800
H  41.23200 -1.57800 46.76100
H  41.35100 -2.17500 48.47000
H  46.84600 -2.06400 46.71400
H  46.72800 -3.70000 47.34400
H  46.91700 -2.32000 48.53800
H  49.08100 1.54200 47.31900
H  48.92000 4.06600 48.93200
H  49.32600 2.14900 50.11000
H  49.47700 0.43700 49.44300
H  47.97300 1.10100 50.07000
H  49.20900 4.32700 45.98100
H  50.21300 3.14100 46.66600
H  51.73900 4.66600 47.21500
H  50.61900 5.61200 48.16800
H  50.78600 5.78600 46.38200
H  46.97100 8.24800 47.68500
H  45.97800 9.31600 46.93100
H  46.97100 8.22500 45.83900
H  40.99800 7.04300 45.54400
H  38.10500 8.38900 47.98500
H  38.57800 9.98700 48.42700
H  39.17000 8.78400 49.45400
Mg -10.08500 18.41100 41.89700
C  -6.78500 17.66500 41.80200
C  -9.39500 21.74400 41.35000
C  -13.37300 19.01300 41.35600
C  -10.78000 15.04900 42.17800
N  -8.29900 19.46200 41.36700
C  -6.99500 19.00000 41.55100
C  -5.97000 20.07900 41.46700
C  -6.81700 21.39500 41.45900
C  -8.29700 20.83100 41.42200
C  -6.52300 22.38400 42.58200
C  -5.02800 19.88200 40.27100
C  -5.63600 19.11300 39.06500
H  -4.83400 19.21200 37.75800
N  -11.22800 20.14800 41.31100
C  -10.76400 21.40500 41.18400
C  -11.88700 22.31600 40.92500
C  -13.08400 21.55300 40.93400
C  -12.61000 20.18500 41.16700
C  -11.75400 23.76500 40.68100
C  -14.44200 22.13300 40.67000
O  -14.56900 23.32900 40.53200
C  -15.61300 21.18800 40.53800
N  -11.76700 17.25800 41.86300
C  -12.95100 17.71200 41.71200
C  -14.11600 16.69400 41.90400
C  -13.32300 15.39300 41.77500
C  -11.85200 15.89300 41.84200
C  -14.90500 16.92100 43.24400
C  -13.66100 14.50700 40.48400
C  -15.14300 14.10400 40.22800
N  -8.99600 16.66400 42.07100
C  -9.38800 15.34300 42.21600
C  -8.25300 14.45000 42.28700
C  -7.20500 15.39100 42.23900
C  -7.69100 16.67500 41.99800
C  -8.16900 12.98300 42.44000
C  -5.79200 15.48500 42.36500
O  -4.92500 14.60000 42.64200
C  -5.46100 16.94600 42.06100
C  -4.63600 17.52300 43.14100
O  -3.61000 18.09700 43.05500
O  -5.21100 17.20100 44.39500
C  -4.42300 17.51600 45.61600
H  -9.22400 22.81700 41.24600
H  -14.43600 19.05600 41.10800
H  -11.07200 14.01300 41.99200
H  -5.33900 20.01500 42.35400
H  -6.74000 21.90800 40.50000
H  -5.59200 22.18700 43.11200
H  -7.29300 22.50700 43.34400
H  -6.38500 23.29500 41.99900
H  -4.19300 19.32300 40.69200
H  -4.70600 20.84800 39.88100
H  -6.63200 19.53300 38.92300
H  -5.80100 18.07000 39.33600
H  -12.41500 24.16300 39.91100
H  -10.77600 24.07800 40.31800
H  -11.95300 24.35200 41.57800
H  -15.72700 20.76200 41.53400
H  -15.25400 20.48400 39.78700
H  -16.50900 21.59700 40.07000
H  -14.83900 16.92200 41.12100
H  -13.54000 14.89100 42.71900
H  -15.74000 17.57300 42.99000
H  -14.21900 17.39000 43.94800
H  -15.21100 15.95600 43.64700
H  -13.09200 13.58400 40.58900
H  -13.16900 14.97700 39.63200
H  -15.56600 14.53700 39.32100
H  -15.69100 14.49500 41.08500
H  -15.05900 13.02700 40.08700
H  -7.38100 12.37700 41.99200
H  -9.12000 12.53700 42.14700
H  -8.04400 12.90700 43.52000
H  -4.84400 16.93500 41.16200
H  -5.03900 17.98300 46.38500
H  -3.62400 18.20700 45.34600
H  -3.77400 16.75200 46.04500

