158

Mg 34.98700 3.55800 30.42600
C  33.08900 4.56000 32.95300
C  37.81500 3.58900 32.42600
C  37.06200 2.91100 27.70400
C  32.30200 3.91100 28.17600
N  35.38300 3.90500 32.40600
C  34.41000 4.28400 33.31600
C  35.04000 4.44400 34.75000
C  36.53900 4.43100 34.42400
C  36.59900 4.04400 32.93400
C  37.31300 5.72000 34.78300
C  34.51800 3.33400 35.64100
C  33.98100 3.72600 37.05300
H  34.70100 4.95600 37.66900
N  37.08700 3.02100 30.23400
C  38.07400 3.02900 31.14500
C  39.36700 2.56800 30.62700
C  39.12400 2.39500 29.25600
C  37.67900 2.76700 29.01800
C  40.58600 2.32700 31.51000
C  40.14100 2.00300 28.20900
O  39.91100 2.02100 27.02000
C  41.52100 1.60500 28.52000
N  34.71100 3.42800 28.32000
C  35.72400 3.18700 27.40200
C  35.24000 3.24100 25.94700
C  33.68500 3.15700 26.17700
C  33.53600 3.50700 27.64700
C  35.62500 4.55900 25.14800
C  33.09300 1.79200 25.78800
C  31.57100 1.73700 25.43100
N  33.13200 4.18500 30.51200
C  32.13700 4.29800 29.52400
C  30.95800 4.72900 30.16600
C  31.29600 4.99300 31.52900
C  32.61400 4.55400 31.63900
C  29.66500 4.91400 29.46000
C  30.80200 5.36300 32.82900
O  29.73600 5.77000 33.24100
C  31.93900 5.12100 33.82400
C  32.23100 6.47900 34.42000
O  32.75500 7.49200 33.90200
O  31.75900 6.46300 35.67200
C  31.68900 7.78300 36.34300
H  38.64600 3.59800 33.13400
H  37.51700 2.57000 26.77200
H  31.43100 3.88000 27.51700
H  34.69100 5.41300 35.10800
H  37.04500 3.67200 35.02100
H  37.52200 6.41500 33.97000
H  38.24900 5.46900 35.28300
H  36.79000 6.21600 35.60000
H  35.25700 2.53600 35.72000
H  33.74600 2.80800 35.07900
H  34.01100 2.95400 37.82200
H  32.92700 3.93500 36.87100
H  40.49700 1.31000 31.89200
H  40.66500 3.07700 32.29600
H  41.48300 2.45600 30.90500
H  41.99000 2.55000 28.79500
H  42.02500 1.17100 27.65600
H  41.54800 0.89200 29.34500
H  35.76000 2.39900 25.49200
H  33.13400 3.88300 25.57900
H  34.81000 5.11800 24.68800
H  36.37800 4.26400 24.41800
H  36.13500 5.21300 25.85600
H  33.31100 1.11600 26.61500
H  33.60600 1.46500 24.88400
H  31.33600 2.79900 25.35900
H  31.07800 1.28500 26.29200
H  31.38000 1.14000 24.53900
H  29.24300 3.91400 29.35400
H  29.85100 5.45300 28.53100
H  28.99600 5.43900 30.14300
H  31.63100 4.41300 34.59300
H  32.09100 7.53500 37.32600
H  30.65800 8.11300 36.47400
H  32.23800 8.58500 35.85100
Mg 1.96800 41.63000 25.22500
C  2.72200 41.77500 28.71600
C  -1.04800 40.36800 26.10000
C  1.49900 40.84600 21.97200
C  5.16300 42.95600 24.57200
N  1.02300 41.01200 27.18100
C  1.43800 41.24400 28.49100
C  0.33900 41.01600 29.52800
C  -0.81500 40.49500 28.66700
C  -0.28000 40.64700 27.20800
C  -1.30400 39.01600 28.91900
C  -0.01300 42.26200 30.42600
C  0.09500 41.86800 31.88800
H  -0.77100 40.76900 32.50500
N  0.44100 40.79200 24.16800
C  -0.74000 40.37700 24.69500
C  -1.62600 39.88500 23.57800
C  -0.88000 40.10600 22.38600
C  0.43800 40.55800 22.82800
C  -3.02100 39.23300 23.72300
C  -1.29500 39.82600 20.93400
O  -0.65300 40.24600 19.97300
C  -2.54300 39.14900 20.61300
N  3.25900 41.85000 23.47800
C  2.83600 41.36100 22.23600
C  3.81900 41.85300 21.17600
C  4.90400 42.72000 21.96900
C  4.42400 42.48800 23.41900
C  4.47900 40.67500 20.36800
C  4.88700 44.29100 21.47300
C  3.87500 45.26200 22.12300
N  3.64300 42.32700 26.39500
C  4.83400 42.90200 25.94100
C  5.66000 43.19200 27.09000
C  4.81000 42.70600 28.15800
C  3.61500 42.21500 27.72000
C  7.03600 43.72900 27.10900
C  4.89600 42.55100 29.59400
O  5.75700 42.84800 30.40300
C  3.54800 41.82200 29.94600
C  3.78700 40.53200 30.51600
O  4.43600 39.60300 29.94500
O  3.27900 40.43900 31.77500
C  3.47700 39.24100 32.60100
H  -2.00800 39.90100 26.33000
H  1.38600 40.75200 20.89000
H  6.08000 43.50000 24.33700
H  0.70200 40.16100 30.09900
H  -1.67000 41.14200 28.86800
H  -0.83400 38.54500 29.78200
H  -1.06400 38.39700 28.05500
H  -2.38300 39.05900 29.06600
H  -0.96100 42.75600 30.21000
H  0.61000 43.15300 30.33500
H  0.20200 42.79500 32.45200
H  1.07500 41.41200 32.02700
H  -3.73000 39.66800 23.01900
H  -3.32700 39.35500 24.76200
H  -2.99000 38.16000 23.53400
H  -3.41100 39.79400 20.75100
H  -2.61400 38.24400 21.21600
H  -2.43200 38.95900 19.54600
H  3.15600 42.48000 20.58000
H  5.90600 42.31600 21.82100
H  5.48900 40.49300 20.73700
H  4.46500 41.09000 19.36000
H  3.76700 39.86000 20.49800
H  4.73900 44.28600 20.39300
H  5.86000 44.73400 21.68500
H  3.33600 45.58700 21.23300
H  4.35600 46.08000 22.65800
H  3.20300 44.88500 22.89400
H  7.19700 44.15300 26.11800
H  7.74700 42.91100 27.22700
H  7.10300 44.46900 27.90800
H  3.07800 42.51000 30.64900
H  4.29900 39.64500 33.19300
H  3.67500 38.26500 32.15900
H  2.46600 39.14200 32.99700

