158

Mg 35.66600 48.02300 25.50700
C  36.20400 46.20600 28.47700
C  34.08600 50.47700 27.22700
C  35.31800 49.63800 22.62000
C  37.32100 45.47700 23.78700
N  35.25400 48.31200 27.56900
C  35.59600 47.48400 28.63200
C  35.42300 48.13500 29.98600
C  34.49100 49.34300 29.56600
C  34.59200 49.43500 27.99800
C  32.97000 49.35500 29.98000
C  36.72000 48.64900 30.72400
C  36.64800 48.66100 32.27200
H  35.27600 48.52600 32.91200
N  34.99000 49.88400 24.99300
C  34.31900 50.77200 25.84600
C  33.87800 51.92600 25.12900
C  34.17100 51.72600 23.74700
C  34.78500 50.33200 23.67800
C  33.21000 53.08000 25.82800
C  33.87900 52.70500 22.58700
O  34.24500 52.39200 21.49500
C  33.24800 53.96800 22.84500
N  36.25600 47.58300 23.45500
C  36.02900 48.49200 22.49100
C  36.74900 48.08600 21.15600
C  37.57400 46.88400 21.61700
C  37.06200 46.64600 23.02200
C  35.63100 47.88800 20.06600
C  39.13800 47.12800 21.41800
C  39.90900 46.25900 20.45600
N  36.45000 46.17000 25.91100
C  37.04100 45.21700 25.14100
C  37.33100 44.05400 25.85400
C  37.05300 44.39800 27.22600
C  36.52400 45.71200 27.20200
C  38.03000 42.80000 25.36200
C  37.13800 43.94300 28.61500
O  37.58400 42.91400 29.11100
C  36.57900 45.14000 29.46500
C  35.37200 44.72600 30.25800
O  34.22800 44.67000 29.86900
O  35.79400 44.49900 31.57000
C  34.62300 43.96600 32.38600
H  33.39400 51.05000 27.84800
H  35.14600 50.20600 21.70400
H  37.96300 44.77100 23.25500
H  34.85300 47.46300 30.62800
H  34.76700 50.27900 30.05100
H  32.39500 49.07800 29.09700
H  32.59900 50.32500 30.30900
H  32.70800 48.71000 30.81900
H  36.95500 49.65800 30.38600
H  37.56400 47.99300 30.50800
H  37.13600 49.55600 32.65800
H  37.38400 47.91300 32.56400
H  32.29900 53.41200 25.33000
H  33.78200 54.00700 25.82400
H  32.92400 52.82400 26.84800
H  33.13900 54.42200 21.86100
H  33.89100 54.58400 23.47500
H  32.25200 53.84700 23.27000
H  37.35400 48.94300 20.85900
H  37.28900 45.99700 21.05000
H  34.70100 48.38500 20.34000
H  35.51500 46.80600 20.00500
H  35.91500 48.27300 19.08600
H  39.60900 47.01000 22.39400
H  39.36100 48.16700 21.17400
H  40.61300 45.66700 21.04200
H  40.53900 46.89600 19.83400
H  39.24900 45.59100 19.90400
H  37.26800 42.02600 25.26300
H  38.75200 42.50100 26.12100
H  38.53700 43.04200 24.42800
H  37.38700 45.34000 30.16800
H  34.93100 44.16100 33.41300
H  34.42000 42.89700 32.31400
H  33.70800 44.54900 32.28300
Mg 6.03500 54.34400 41.23900
C  3.54700 51.80100 41.01500
C  8.15300 52.26000 39.79300
C  8.15000 56.87900 41.26700
C  3.54900 56.55500 42.40500
N  5.76300 52.37800 40.18500
C  4.70100 51.45700 40.36500
C  5.04600 50.12400 39.74700
C  6.64700 50.17700 39.83700
C  6.86100 51.70700 39.85700
C  7.37300 49.44200 40.98700
C  4.51900 49.84000 38.29700
C  3.89000 48.43700 38.10000
H  4.30300 47.76900 36.77900
N  7.92300 54.47100 40.65900
C  8.66000 53.54500 40.10500
C  10.04700 54.03100 39.84800
C  10.06600 55.46900 40.13200
C  8.71800 55.70300 40.71700
C  11.13700 53.19900 39.16600
C  11.28700 56.45100 40.07900
O  12.34700 56.06800 39.73400
C  11.07900 57.96200 40.36000
N  5.79000 56.52400 41.54800
C  6.81400 57.36100 41.54200
C  6.54200 58.67500 42.15100
C  5.09600 58.66200 42.41600
C  4.75000 57.16800 42.11500
C  7.35400 59.05600 43.39800
C  4.24400 59.77900 41.79000
C  3.69900 59.57800 40.37600
N  4.04200 54.23200 41.67300
C  3.16400 55.18900 42.15000
C  1.85900 54.61500 42.32300
C  2.01100 53.29700 41.96400
C  3.35000 53.08200 41.57200
C  0.63500 55.28900 42.79400
C  1.24200 52.04900 41.87600
O  0.03900 51.76900 42.03800
C  2.45400 51.02300 41.52300
C  1.85400 50.09100 40.60500
O  1.33500 50.30000 39.52400
O  1.87200 48.76600 41.22100
C  1.07400 47.73800 40.62000
H  8.93100 51.53500 39.54400
H  8.90900 57.65700 41.36700
H  2.81900 57.20900 42.88700
H  4.70000 49.32000 40.39700
H  7.09000 49.88500 38.88500
H  8.42500 49.20700 40.82700
H  6.81700 48.52900 41.20100
H  7.43500 50.08100 41.86800
H  5.25600 49.96900 37.50400
H  3.73500 50.55700 38.05400
H  2.80500 48.54200 38.10900
H  4.07900 47.78100 38.94900
H  11.10000 53.44300 38.10500
H  10.98100 52.12900 39.29700
H  12.01700 53.60500 39.66500
H  11.91300 58.49900 39.90900
H  11.00700 58.29600 41.39500
H  10.15700 58.19700 39.82700
H  6.81200 59.37500 41.36000
H  4.83900 58.88800 43.45100
H  7.89600 59.95500 43.10400
H  7.92000 58.33300 43.98600
H  6.71500 59.45100 44.18800
H  4.83900 60.68500 41.67300
H  3.38900 60.06600 42.40200
H  4.04900 60.41500 39.77200
H  2.61200 59.57100 40.29800
H  4.14200 58.66000 39.98900
H  0.81500 56.09600 43.50500
H  0.08000 54.51000 43.31800
H  0.06200 55.74500 41.98700
H  2.71200 50.43900 42.40600
H  0.05100 48.08300 40.46600
H  1.05600 46.96200 41.38500
H  1.52300 47.30000 39.72900

