158

Mg 35.69200 48.28500 25.38600
C  36.38900 46.52100 28.20000
C  34.49400 50.82200 27.33100
C  34.67700 49.94300 22.56900
C  36.83000 45.64300 23.41600
N  35.38500 48.52400 27.53300
C  35.87800 47.73000 28.51000
C  35.67200 48.35700 29.93100
C  34.90500 49.59600 29.60500
C  34.93100 49.69800 28.03000
C  33.39400 49.56300 30.09500
C  37.04900 48.58600 30.63600
C  37.12500 48.23500 32.14000
H  36.01300 48.56100 33.12500
N  34.84600 50.18200 25.02000
C  34.47300 51.07900 25.95100
C  33.96100 52.25600 25.39500
C  33.82400 51.99200 23.99500
C  34.48400 50.67200 23.80100
C  33.51700 53.49300 26.18800
C  33.09600 52.81300 22.91800
O  33.07000 52.39800 21.78500
C  32.28800 54.03500 23.19700
N  35.71500 47.83000 23.32900
C  35.24400 48.66100 22.34900
C  35.68600 48.13200 20.93500
C  36.33400 46.78300 21.22700
C  36.31900 46.76900 22.75400
C  34.51100 47.89300 19.91100
C  37.77300 46.53900 20.58900
C  39.05900 47.16100 21.24100
N  36.42600 46.40700 25.68700
C  36.86600 45.41700 24.80500
C  37.37800 44.31000 25.52100
C  37.17300 44.65400 26.91900
C  36.64500 46.01400 26.93100
C  37.99300 43.00200 24.92300
C  37.39600 44.22300 28.28800
O  37.71100 43.12200 28.72800
C  36.93700 45.44500 29.16600
C  35.79500 44.95200 29.99800
O  34.66700 44.61100 29.62100
O  36.24400 44.92800 31.28200
C  35.30000 44.48000 32.34100
H  34.15200 51.60100 28.01500
H  34.40800 50.58800 21.73000
H  37.39500 44.97600 22.76100
H  35.09100 47.81300 30.67600
H  35.36500 50.42200 30.14700
H  33.20800 50.37500 30.79800
H  33.25500 48.62500 30.63300
H  32.63300 49.73500 29.33400
H  37.40500 49.61400 30.69500
H  37.74200 48.10400 29.94700
H  37.98700 48.82600 32.45000
H  37.34800 47.17500 32.26200
H  33.88400 54.37300 25.66100
H  34.06200 53.60700 27.12500
H  32.44100 53.52800 26.35900
H  31.86800 54.42000 22.26700
H  32.72000 54.85700 23.76800
H  31.43100 53.71900 23.79100
H  36.29500 48.88200 20.42800
H  35.77400 45.91100 20.88800
H  33.65000 47.80600 20.57400
H  34.59100 46.92100 19.42500
H  34.37300 48.72600 19.22200
H  37.75200 46.86100 19.54800
H  37.93600 45.50300 20.29200
H  39.68200 47.69700 20.52600
H  39.69600 46.36600 21.62700
H  38.69700 47.78800 22.05600
H  38.95400 42.78700 25.39100
H  38.09900 43.09600 23.84300
H  37.37100 42.12100 25.08100
H  37.85200 45.66600 29.71600
H  36.01100 44.23700 33.13100
H  34.68000 43.62400 32.07500
H  34.61400 45.24200 32.71100
Mg 26.94800 49.84800 26.40500
C  24.67200 51.05400 28.84000
C  28.72400 48.50500 28.95500
C  29.08800 49.04800 24.04200
C  25.14400 51.67600 24.05300
N  26.66200 49.78100 28.61000
C  25.69300 50.28400 29.37800
C  25.76400 49.73900 30.84600
C  27.22900 49.22800 30.90900
C  27.57400 49.15000 29.36200
C  28.33100 49.94200 31.75900
C  24.58800 48.77600 31.35100
C  23.72500 49.35700 32.56400
H  23.91800 48.49100 33.77300
N  28.63800 48.85000 26.52600
C  29.28200 48.36900 27.63800
C  30.50900 47.77100 27.27500
C  30.63300 47.89600 25.86000
C  29.41100 48.59200 25.39000
C  31.42600 47.11100 28.29700
C  31.72700 47.43700 24.89700
O  31.51100 47.54100 23.69300
C  33.02000 46.84500 25.34300
N  27.10400 50.33600 24.43700
C  28.03400 49.80200 23.55200
C  27.92400 50.32500 22.07300
C  26.60200 51.17800 22.15300
C  26.27100 51.08200 23.65000
C  29.21000 50.96900 21.50700
C  25.34000 50.65700 21.33700
C  24.60800 51.76600 20.55900
N  25.19200 51.12800 26.38700
C  24.60400 51.74900 25.32100
C  23.43000 52.38000 25.75200
C  23.41900 52.15000 27.17800
C  24.52300 51.38300 27.51100
C  22.59800 53.26100 24.89000
C  22.72400 52.35800 28.36300
O  21.75400 53.02800 28.64100
C  23.43900 51.63900 29.48300
C  23.73100 52.48400 30.70800
O  24.66900 53.30600 30.84300
O  22.68300 52.44100 31.54400
C  22.63400 53.41600 32.66000
H  29.29300 48.00800 29.74400
H  29.64600 48.76600 23.14700
H  24.49000 52.20300 23.35500
H  25.87400 50.62000 31.47800
H  27.13900 48.24600 31.37300
H  28.99200 49.20700 32.21700
H  27.87800 50.61400 32.48800
H  28.93100 50.59200 31.12200
H  25.03300 47.78600 31.46000
H  23.80400 48.64400 30.60500
H  22.73900 49.32800 32.10100
H  23.99900 50.35200 32.91400
H  32.31600 47.74000 28.28700
H  31.57900 46.11500 27.88000
H  31.02400 47.07200 29.31000
H  33.57900 46.72100 24.41500
H  32.83600 45.94500 25.92900
H  33.58100 47.49100 26.01800
H  27.79800 49.48000 21.39700
H  26.86400 52.22000 21.97100
H  28.98400 52.00600 21.25800
H  29.73000 50.36700 20.76200
H  29.97400 50.98700 22.28300
H  24.68800 50.15900 22.05500
H  25.73500 49.98300 20.57700
H  23.61900 51.81800 21.01400
H  24.53200 51.42000 19.52800
H  25.06000 52.75600 20.61900
H  22.27500 54.06200 25.55500
H  21.69500 52.71600 24.61700
H  22.96000 53.66600 23.94500
H  22.83100 50.77900 29.76500
H  23.26500 54.29100 32.50400
H  23.07900 52.87200 33.49400
H  21.57800 53.66300 32.77000

