158

Mg 41.18000 9.57400 29.53400
C  43.16800 10.49200 32.27300
C  39.07100 7.84500 31.70600
C  39.62500 8.30900 26.87900
C  43.86500 10.54700 27.41700
N  41.14800 9.18900 31.70300
C  41.96500 9.83000 32.66400
C  41.41400 9.63900 34.12500
C  40.30400 8.55600 33.87600
C  40.14800 8.47800 32.35300
C  40.65300 7.24700 34.59900
C  40.87600 11.02100 34.69900
C  41.73400 11.72000 35.69400
H  40.90500 12.35600 36.80600
N  39.49500 8.43200 29.35600
C  38.82700 7.75900 30.31000
C  37.70500 7.14900 29.68700
C  37.73800 7.41500 28.30400
C  39.02200 8.08900 28.10200
C  36.65700 6.29300 30.36500
C  36.79300 7.01500 27.17500
O  36.95500 7.28000 25.98800
C  35.55400 6.23500 27.50600
N  41.71600 9.34600 27.46800
C  40.87300 8.83800 26.57200
C  41.37600 8.94800 25.13400
C  42.57500 9.85700 25.30800
C  42.77600 9.91200 26.84100
C  41.74600 7.61900 24.47000
C  42.46900 11.20400 24.63600
C  43.55100 11.55800 23.57500
N  43.09100 10.40000 29.76200
C  44.04700 10.68700 28.79800
C  45.23700 11.15300 29.44000
C  44.88900 11.19900 30.80000
C  43.61500 10.64600 30.93700
C  46.55100 11.56000 28.84300
C  45.45600 11.53900 32.10900
O  46.48100 12.12500 32.37000
C  44.23800 11.16100 33.17900
C  44.73100 10.40200 34.37600
O  44.84800 9.18200 34.41800
O  44.92000 11.29200 35.37600
C  45.28800 10.55700 36.61200
H  38.42300 7.25300 32.35600
H  39.22900 7.83400 25.97900
H  44.56400 10.96800 26.69000
H  42.21600 9.24500 34.74800
H  39.29000 8.81800 34.17900
H  41.59000 7.29600 35.15400
H  40.75500 6.45100 33.86200
H  39.79400 7.02500 35.23200
H  39.81500 10.86800 34.89400
H  40.89100 11.73000 33.87100
H  42.29600 12.51000 35.19700
H  42.51500 11.06500 36.07900
H  35.68500 6.78500 30.32900
H  36.98200 6.17700 31.39900
H  36.63500 5.30000 29.91700
H  35.98100 5.24500 27.66900
H  34.88200 6.14700 26.65200
H  34.92500 6.67500 28.27900
H  40.60600 9.44400 24.54400
H  43.51700 9.43100 24.96300
H  41.12900 7.52200 23.57700
H  41.39300 6.88800 25.19800
H  42.79200 7.50500 24.18400
H  42.41500 11.98200 25.39800
H  41.48900 11.20300 24.15900
H  43.12800 11.36500 22.59000
H  44.40900 10.89200 23.67100
H  43.85600 12.60100 23.65800
H  46.54600 12.64400 28.73000
H  46.84200 11.03700 27.93200
H  47.20800 11.38300 29.69400
H  43.77400 12.06300 33.57800
H  46.10800 11.07900 37.10600
H  45.67700 9.55900 36.41300
H  44.45900 10.48900 37.31600
Mg 0.19500 43.84700 26.93600
C  2.62700 43.83500 29.55900
C  -2.12100 43.11800 29.33800
C  -1.89800 43.25400 24.42200
C  2.88100 44.47200 24.66100
N  0.34800 43.63900 29.24300
C  1.34600 43.63000 30.10300
C  0.79300 43.62600 31.56100
C  -0.63700 43.06600 31.36800
C  -0.83400 43.16600 29.89500
C  -1.00800 41.70300 31.94000
C  0.88600 45.02300 32.27700
C  1.41300 44.99800 33.66400
H  0.93000 43.78700 34.53300
N  -1.79000 43.42200 26.87700
C  -2.54200 43.19800 27.97600
C  -3.93400 43.10500 27.50100
C  -3.89700 42.88400 26.04800
C  -2.49100 43.20700 25.73600
C  -5.12900 42.92600 28.44700
C  -5.03400 42.44000 25.21700
O  -4.85100 42.09200 24.06000
C  -6.47500 42.17800 25.72300
N  0.50100 43.90400 24.89300
C  -0.55300 43.60400 24.03300
C  -0.18100 43.62100 22.58200
C  1.25400 44.38400 22.67400
C  1.62800 44.22500 24.14900
C  -0.29800 42.27000 21.88400
C  1.17600 45.95300 22.27800
C  2.03200 46.34600 21.06000
N  2.29900 44.07000 27.05200
C  3.24300 44.28000 26.03600
C  4.56600 44.31100 26.59700
C  4.30300 44.15700 27.98000
C  2.98900 44.09400 28.17900
C  5.82300 44.44900 25.86500
C  4.99500 44.00600 29.26100
O  6.18100 43.90100 29.49000
C  3.94100 43.94900 30.35100
C  4.16000 42.79500 31.27800
O  4.07900 41.64900 30.86600
O  4.65000 43.09600 32.52600
C  4.95900 41.89400 33.36200
H  -2.91000 42.81500 30.02900
H  -2.55500 42.93600 23.60900
H  3.65900 44.74300 23.94400
H  1.43800 42.91000 32.07100
H  -1.32600 43.80400 31.78000
H  -0.50600 40.93800 31.34800
H  -2.09800 41.70600 31.91500
H  -0.61300 41.70600 32.95600
H  -0.06100 45.56000 32.31200
H  1.46800 45.63900 31.59100
H  1.27500 45.91800 34.23300
H  2.47800 44.78000 33.59100
H  -5.85900 43.73500 28.41700
H  -4.82200 42.65200 29.45700
H  -5.60000 42.02000 28.06600
H  -6.42300 41.24200 26.27900
H  -7.07500 42.14900 24.81400
H  -6.90800 42.99100 26.30600
H  -0.90200 44.25300 22.06400
H  1.94700 43.86900 22.00800
H  -0.63200 42.47800 20.86800
H  -0.91900 41.54100 22.40500
H  0.71300 41.93100 21.65800
H  1.49700 46.54100 23.13800
H  0.14800 46.19100 22.00400
H  1.32500 46.78700 20.35600
H  2.50000 45.46800 20.61600
H  2.76000 47.12100 21.29800
H  5.77100 43.95500 24.89500
H  6.68900 44.22300 26.48800
H  5.79200 45.51000 25.61900
H  4.01400 44.83900 30.97600
H  5.84700 41.32800 33.08000
H  4.08700 41.24100 33.35700
H  5.00200 42.25400 34.39000

