158

Mg 30.84400 58.91100 40.50100
C  28.01000 57.06300 39.49400
C  32.77700 56.19200 39.60000
C  33.53400 60.80000 40.96800
C  28.78400 61.66500 40.88300
N  30.42500 56.92200 39.29400
C  29.23700 56.39000 39.19700
C  29.39200 55.05900 38.47900
C  30.85100 54.69500 38.92500
C  31.40200 56.03800 39.31100
C  30.86900 53.68500 40.05500
C  29.20400 55.27100 36.98100
C  27.90900 54.64200 36.41400
H  27.15000 55.33700 35.31800
N  32.89000 58.54100 40.33100
C  33.48700 57.38100 39.96500
C  34.92600 57.55600 39.94900
C  35.16200 58.86900 40.28600
C  33.79900 59.49100 40.54900
C  35.91700 56.51600 39.52600
C  36.45900 59.53600 40.31700
O  37.52800 58.96700 40.11900
C  36.72600 61.01900 40.39500
N  31.12400 60.94200 41.01400
C  32.35200 61.52500 41.13300
C  32.24500 63.02500 41.35200
C  30.71000 63.31200 41.09100
C  30.12800 61.91700 41.02300
C  32.76100 63.44900 42.73000
C  30.47500 64.17300 39.78400
C  29.57200 65.38000 39.96100
N  28.71600 59.33100 40.36100
C  28.10000 60.51300 40.58600
C  26.66500 60.31300 40.42700
C  26.55100 58.95700 40.12100
C  27.85900 58.43200 39.98600
C  25.64400 61.30900 40.52300
C  25.67700 57.83500 39.87900
O  24.45500 57.82100 39.77000
C  26.54300 56.62200 39.36800
C  26.22000 55.44300 40.15300
O  26.76000 54.98900 41.14900
O  25.12100 54.92200 39.54500
C  24.61900 53.60600 40.04200
H  33.41100 55.30200 39.59100
H  34.30800 61.56600 41.05500
H  28.07300 62.49400 40.88200
H  28.71900 54.28400 38.84500
H  31.52400 54.48300 38.09400
H  31.45600 54.17000 40.83500
H  31.46700 52.82800 39.74400
H  29.88900 53.33700 40.38000
H  30.03100 54.78600 36.46200
H  29.17100 56.33200 36.73400
H  27.22100 54.38300 37.21900
H  28.23700 53.67800 36.02400
H  36.47500 55.92200 40.25000
H  36.63100 56.97800 38.84500
H  35.42400 55.69900 39.00000
H  36.52100 61.42600 41.38500
H  36.04200 61.49400 39.69200
H  37.73100 61.30700 40.08500
H  32.87500 63.31200 40.51100
H  30.26400 63.75800 41.98000
H  33.82200 63.22600 42.83500
H  32.16600 62.99200 43.52100
H  32.65500 64.53100 42.64400
H  29.88700 63.63100 39.04300
H  31.41200 64.54000 39.36500
H  28.88100 65.34400 39.11800
H  30.21600 66.25500 39.87100
H  28.90800 65.34100 40.82400
H  25.83700 61.89800 41.41900
H  24.62400 60.93100 40.45200
H  25.75400 61.90900 39.61900
H  26.40000 56.49900 38.29400
H  25.11200 53.30400 40.96600
H  24.75800 52.82500 39.29400
H  23.56900 53.71800 40.31300
Mg 7.24100 53.39800 41.70400
C  6.55900 49.93800 40.86800
C  10.44000 52.88500 40.27200
C  7.73000 56.61000 41.71000
C  3.86100 53.69500 42.63500
N  8.27300 51.63500 40.45000
C  7.82300 50.34200 40.38500
C  8.88600 49.53600 39.69400
C  10.18800 50.32000 39.90300
C  9.61600 51.71300 40.16200
C  11.11900 49.89000 41.08700
C  8.46000 49.46800 38.14100
C  8.76100 48.13100 37.35800
H  7.78200 47.78200 36.27300
N  8.90800 54.59800 41.15400
C  10.09400 54.20800 40.67700
C  10.98400 55.31700 40.61500
C  10.25700 56.38300 41.18100
C  8.93200 55.88100 41.41000
C  12.38100 55.25000 40.08200
C  10.67700 57.86700 41.43400
O  11.76200 58.23500 40.92000
C  9.93500 58.67700 42.32400
N  5.97300 54.88500 42.02600
C  6.39400 56.20000 41.91500
C  5.24900 57.17300 42.20200
C  4.14100 56.23300 42.78000
C  4.63000 54.83300 42.38300
C  5.52700 58.48700 43.06000
C  2.69800 56.54300 42.38300
C  2.11000 56.14500 41.06900
N  5.59600 52.08800 41.88400
C  4.26600 52.36400 42.27100
C  3.53500 51.07500 42.36900
C  4.46200 50.14500 41.84800
C  5.60400 50.75300 41.54000
C  2.11600 50.78900 42.82600
C  4.60000 48.77400 41.36300
O  3.79600 47.83200 41.39400
C  6.02100 48.54000 40.91700
C  5.99200 47.75600 39.64200
O  5.59100 48.08800 38.54100
O  6.28800 46.46500 40.01000
C  6.18700 45.38100 39.05500
H  11.49300 52.66000 40.08900
H  7.84700 57.69300 41.78500
H  2.84900 53.86100 43.01100
H  8.90300 48.49500 40.01600
H  10.74300 50.39600 38.96900
H  10.97800 50.63700 41.86700
H  12.17300 49.80800 40.82100
H  10.79200 48.94000 41.50900
H  8.92700 50.26600 37.56300
H  7.39200 49.68100 38.17700
H  8.86600 47.41400 38.17200
H  9.66800 48.29400 36.77600
H  12.96600 55.42300 40.98500
H  12.65600 55.98700 39.32700
H  12.71500 54.24100 39.84000
H  9.49100 58.12800 43.15500
H  9.15400 59.21700 41.78800
H  10.56700 59.43700 42.78200
H  4.90700 57.46800 41.21000
H  4.08300 56.21900 43.86800
H  5.30100 59.41800 42.54100
H  6.56300 58.52100 43.39600
H  4.85500 58.51300 43.91900
H  2.80400 57.62500 42.45600
H  2.02400 56.28800 43.20200
H  2.06400 56.90600 40.29000
H  1.07700 55.80300 41.14100
H  2.57500 55.28400 40.59000
H  2.04900 50.81700 43.91400
H  1.88000 49.77600 42.49800
H  1.40900 51.52300 42.43900
H  6.42700 47.89200 41.69400
H  5.61700 44.56800 39.50300
H  7.09800 45.09400 38.52900
H  5.59000 45.53000 38.15500

