158

Mg 47.92300 15.13800 27.95600
C  45.50800 14.95300 30.57300
C  49.66800 17.34000 29.81200
C  50.03600 15.46100 25.28600
C  45.49200 13.59700 25.84800
N  47.55200 16.13000 29.86300
C  46.58700 15.79100 30.82900
C  46.87000 16.36500 32.20900
C  47.95000 17.47200 31.79700
C  48.53600 16.84500 30.48300
C  47.39400 19.00800 31.63000
C  47.33700 15.20900 33.08700
C  47.03300 15.45400 34.61700
H  48.20800 15.24600 35.64100
N  49.67500 16.22900 27.60800
C  50.23500 17.05600 28.57900
C  51.49800 17.49300 28.12400
C  51.55800 17.08400 26.77300
C  50.39100 16.17100 26.49400
C  52.34700 18.42500 28.86000
C  52.68600 17.36100 25.80300
O  52.53600 16.95400 24.65500
C  53.92800 18.24900 26.06500
N  47.78200 14.65000 25.85900
C  48.84200 14.76700 25.01100
C  48.43100 14.29100 23.54500
C  47.04900 13.60100 23.78800
C  46.71300 14.06700 25.23200
C  48.25400 15.37800 22.52100
C  47.03500 12.06300 23.77900
C  45.86300 11.34000 23.11300
N  45.98600 14.28400 28.08400
C  45.12300 13.69900 27.19900
C  43.98500 13.12300 27.95400
C  44.17600 13.53100 29.22200
C  45.30200 14.33200 29.29200
C  42.83600 12.29500 27.47500
C  43.63000 13.50100 30.55500
O  42.72500 12.89200 30.93400
C  44.46300 14.40600 31.52400
C  43.58000 15.49000 32.00600
O  42.93700 16.30400 31.32900
O  43.41300 15.37600 33.35600
C  42.59700 16.42200 33.94300
H  50.08000 18.11800 30.45800
H  50.67500 15.52700 24.40300
H  44.66100 13.20500 25.25800
H  46.02000 16.86000 32.67900
H  48.80300 17.51800 32.47500
H  47.27900 19.17600 30.56000
H  48.18700 19.68600 31.94400
H  46.37100 19.16800 31.97300
H  48.42300 15.14500 33.02000
H  47.13600 14.26200 32.58700
H  46.25600 14.71400 34.81200
H  46.72600 16.49700 34.69600
H  52.27700 18.47200 29.94700
H  52.20900 19.45400 28.52900
H  53.38000 18.15200 28.64000
H  53.71600 19.24700 26.45000
H  54.47300 18.32700 25.12400
H  54.42600 17.67800 26.84900
H  49.19600 13.60300 23.18500
H  46.24200 13.96200 23.15000
H  48.59300 16.29900 22.99400
H  47.27900 15.49300 22.04700
H  48.91200 15.20200 21.67000
H  47.25600 11.69500 24.78100
H  47.89000 11.69700 23.21100
H  45.17100 11.97400 22.55800
H  45.21700 10.97100 23.91000
H  46.11900 10.53400 22.42500
H  43.15200 11.90500 26.50700
H  42.05400 13.05400 27.48800
H  42.62900 11.62300 28.30700
H  44.95600 13.89800 32.35300
H  43.15800 17.35500 33.87800
H  42.44900 16.32700 35.01900
H  41.64600 16.45100 33.41200
Mg 15.75100 52.56900 25.11400
C  17.43100 51.39500 27.93000
C  13.21000 53.50800 27.10900
C  14.19800 53.41700 22.32500
C  18.60200 51.40500 23.13700
N  15.47300 52.56200 27.18000
C  16.31300 52.11000 28.15000
C  15.74200 52.46800 29.55100
C  14.30700 52.81500 29.29100
C  14.30100 52.94300 27.73100
C  13.28000 51.75500 29.70500
C  16.66500 53.52700 30.38100
C  17.06900 53.07900 31.77500
H  16.07100 52.46700 32.82700
N  13.90200 53.36400 24.71000
C  13.03500 53.76800 25.68400
C  11.86300 54.38600 25.10400
C  12.18300 54.39200 23.69100
C  13.47500 53.72700 23.49900
C  10.62200 54.79100 25.86600
C  11.43600 54.99800 22.64500
O  11.88000 55.01200 21.49200
C  10.07900 55.67800 22.92800
N  16.44300 52.59900 23.05000
C  15.51400 52.94000 22.08800
C  16.05800 52.66800 20.70400
C  17.51700 52.19400 20.97000
C  17.53200 52.03500 22.48300
C  15.29200 51.50900 19.88200
C  18.68500 53.13300 20.54000
C  19.88600 52.53100 19.77500
N  17.66800 51.59400 25.38300
C  18.61700 51.14200 24.55700
C  19.60400 50.35400 25.29900
C  19.20600 50.48700 26.60900
C  17.99400 51.14700 26.61700
C  20.73700 49.61500 24.64400
C  19.52000 50.12200 28.00400
O  20.50600 49.55300 28.43700
C  18.36700 50.69100 28.92200
C  17.71000 49.71800 29.78500
O  16.73600 49.02000 29.51100
O  18.33300 49.70200 31.03000
C  17.69800 48.86600 32.06000
H  12.40400 53.93100 27.71200
H  13.65700 53.64900 21.40500
H  19.43400 51.01000 22.55100
H  15.87200 51.64200 30.25000
H  14.02600 53.81900 29.61200
H  12.69100 52.13700 30.53800
H  13.73200 50.83900 30.08400
H  12.66800 51.55000 28.82700
H  16.13900 54.47900 30.45400
H  17.58600 53.75100 29.84300
H  17.32300 54.01100 32.28100
H  17.98700 52.51300 31.62000
H  10.36900 55.84900 25.79400
H  10.65300 54.66900 26.94900
H  9.68900 54.30800 25.57400
H  10.41900 56.39100 23.67800
H  9.21600 55.03700 23.10900
H  9.89700 56.21200 21.99600
H  16.01400 53.66500 20.26600
H  17.68700 51.25600 20.44000
H  15.64100 50.52500 20.19400
H  15.28300 51.68600 18.80600
H  14.28100 51.59400 20.28100
H  19.09900 53.72400 21.35700
H  18.19800 53.81100 19.84000
H  19.77500 51.46900 19.55800
H  20.78800 52.71900 20.35800
H  20.01300 53.02900 18.81300
H  21.63500 50.15900 24.93500
H  20.67900 49.47000 23.56600
H  20.82200 48.65200 25.14800
H  18.85800 51.44900 29.53300
H  18.38400 48.02600 32.16800
H  16.71000 48.45700 31.85100
H  17.74300 49.45300 32.97700

