158

Mg 35.65000 2.33700 29.09600
C  33.48600 3.11600 31.68100
C  38.30200 2.49600 31.32500
C  37.77800 2.23100 26.39300
C  32.94500 2.73300 26.80300
N  35.84600 2.73400 31.23600
C  34.79800 2.80500 32.09100
C  35.24100 2.93600 33.48400
C  36.83000 2.94400 33.43600
C  37.03900 2.73900 31.86700
C  37.53100 4.23000 34.03400
C  34.63900 1.74400 34.36800
C  34.48800 2.08900 35.87900
H  34.90600 3.49600 36.46700
N  37.71700 2.25500 28.94300
C  38.64100 2.35900 29.98400
C  39.94800 2.18100 29.44600
C  39.83900 2.08300 28.01300
C  38.39300 2.23700 27.69600
C  41.19000 2.12900 30.30300
C  41.01300 1.94300 27.05200
O  40.81900 1.98300 25.79100
C  42.36000 1.62900 27.50700
N  35.43200 2.37400 27.00800
C  36.40600 2.37300 26.09000
C  35.94100 2.64100 24.65700
C  34.41800 2.38300 24.74200
C  34.19400 2.44200 26.25200
C  36.27100 4.08800 24.07400
C  33.89900 1.10200 24.06300
C  33.24400 1.39700 22.73000
N  33.58700 2.81400 29.15500
C  32.60500 2.96100 28.14500
C  31.39200 3.56800 28.72900
C  31.70000 3.58200 30.13600
C  33.03100 3.15900 30.32500
C  30.11300 3.90600 28.00900
C  31.13500 3.86100 31.52900
O  29.98200 3.96500 31.90700
C  32.28400 3.60800 32.53500
C  32.48000 4.83000 33.27700
O  33.16400 5.83600 33.01500
O  31.67900 4.66700 34.47200
C  31.45600 5.89300 35.27800
H  39.15800 2.35100 31.98800
H  38.49800 2.16400 25.57500
H  32.02800 2.83400 26.22000
H  34.94500 3.87500 33.95200
H  37.21300 2.04900 33.92600
H  38.24800 3.91900 34.79400
H  36.76900 4.93400 34.37000
H  38.17000 4.69000 33.28000
H  35.36700 0.93700 34.27900
H  33.69900 1.42800 33.91600
H  35.05200 1.30500 36.38600
H  33.46300 1.90400 36.20000
H  41.93700 2.84300 29.95500
H  41.52200 1.09200 30.35100
H  41.13600 2.40700 31.35600
H  42.65200 2.45500 28.15600
H  42.91800 1.49100 26.58100
H  42.33700 0.67400 28.03100
H  36.35900 1.88500 23.99200
H  33.82000 3.22100 24.38600
H  36.67400 4.00900 23.06400
H  36.96800 4.49300 24.80800
H  35.40900 4.74200 23.93900
H  33.21700 0.57300 24.72800
H  34.68400 0.36600 23.88900
H  32.17700 1.36900 22.95200
H  33.42000 0.56100 22.05300
H  33.70000 2.31800 22.36600
H  29.65100 2.98700 27.64600
H  30.37300 4.65000 27.25600
H  29.36100 4.30300 28.69000
H  32.02600 2.89200 33.31600
H  31.38900 6.84400 34.75000
H  32.12300 5.89700 36.14000
H  30.48200 5.78900 35.75400
Mg 1.16900 41.40000 26.52300
C  3.49200 42.16100 29.08400
C  -1.10400 40.85100 28.98400
C  -0.97900 41.04700 24.07300
C  3.72100 42.32600 24.17700
N  1.13800 41.65700 28.70200
C  2.15900 42.04600 29.51700
C  1.70200 42.19100 30.95900
C  0.37300 41.45400 31.01100
C  0.08800 41.26700 29.45700
C  0.42800 40.19700 31.87900
C  1.55800 43.72200 31.22100
C  1.09600 44.19400 32.66500
H  1.03300 43.11000 33.73800
N  -0.74900 40.86400 26.53500
C  -1.54400 40.64700 27.61500
C  -2.75600 40.10100 27.13300
C  -2.84300 40.24100 25.77400
C  -1.51300 40.76700 25.35900
C  -3.78800 39.68000 28.16800
C  -3.99600 40.03600 24.85400
O  -3.91000 40.20400 23.64100
C  -5.31500 39.64500 25.43300
N  1.40100 41.67800 24.44600
C  0.33000 41.35300 23.62100
C  0.69900 41.55500 22.12900
C  2.17200 42.08200 22.20400
C  2.46800 42.02000 23.68300
C  0.42000 40.17700 21.39000
C  2.55200 43.44800 21.59700
C  1.91900 44.70900 22.11600
N  3.18100 42.03400 26.59600
C  4.08500 42.34200 25.53600
C  5.43700 42.49900 26.16700
C  5.22400 42.49100 27.56400
C  3.89400 42.15100 27.75000
C  6.62200 42.90200 25.32000
C  5.88100 42.52700 28.83600
O  7.07000 42.66100 29.08100
C  4.68100 42.38900 29.90700
C  4.98100 41.36900 30.97800
O  4.88100 40.19200 30.85400
O  5.20100 41.95800 32.22400
C  4.95800 41.19200 33.46200
H  -1.77700 40.67200 29.82500
H  -1.67000 40.82300 23.25800
H  4.55000 42.49200 23.48500
H  2.40500 41.72900 31.65300
H  -0.41500 42.06800 31.44700
H  1.27200 40.21700 32.56800
H  0.53000 39.32400 31.23400
H  -0.43200 40.05300 32.53200
H  0.67900 44.01900 30.64900
H  2.33000 44.37100 30.80800
H  0.18100 44.77900 32.56800
H  1.80100 44.89700 33.10900
H  -4.16000 38.70000 27.87200
H  -4.49500 40.51000 28.16400
H  -3.41100 39.63000 29.18900
H  -5.87400 40.54400 25.69200
H  -5.28100 38.99600 26.30900
H  -5.78900 39.09000 24.62400
H  0.05900 42.37100 21.79100
H  2.72700 41.20900 21.85900
H  -0.43400 40.25100 20.71700
H  0.16600 39.37200 22.08000
H  1.29700 39.94400 20.78600
H  2.18800 43.47000 20.56900
H  3.63500 43.55500 21.54600
H  1.06200 44.50300 22.75700
H  1.78100 45.49400 21.37400
H  2.62400 45.23700 22.75900
H  6.28500 43.80900 24.81800
H  6.86100 42.07000 24.65800
H  7.41600 43.18500 26.01100
H  4.60800 43.34600 30.42300
H  3.90700 40.93500 33.59300
H  5.38500 41.65600 34.35100
H  5.51100 40.25300 33.47800

