158

Mg 44.67800 4.34500 47.20600
C  42.82400 7.33600 47.30300
C  41.63500 2.67400 47.36300
C  46.33400 1.50700 46.55300
C  47.56400 6.25000 46.45400
N  42.48800 4.97300 47.12800
C  41.95600 6.25000 47.24300
C  40.47400 6.21500 47.15700
C  40.08900 4.70500 47.39700
C  41.47600 4.02800 47.27400
C  39.34700 4.37300 48.79200
C  39.79600 6.83700 45.86600
C  40.44400 6.89400 44.52400
H  39.80100 6.09800 43.37600
N  44.09000 2.36700 47.08200
C  42.77500 1.89200 47.23100
C  42.83500 0.49700 47.05100
C  44.10300 0.13800 46.53700
C  44.91300 1.35200 46.69600
C  41.58300 -0.45800 47.31600
C  44.47800 -1.19300 45.98100
O  43.70900 -2.14000 46.11800
C  45.82200 -1.54400 45.34300
N  46.69900 3.91200 46.53600
C  47.16100 2.64500 46.48000
C  48.67800 2.65900 46.32800
C  49.14500 4.18400 46.35400
C  47.67500 4.84700 46.46000
C  49.50900 1.82300 47.33500
C  50.04700 4.61500 45.16900
C  51.44700 3.94100 45.07000
N  45.19200 6.37400 47.01800
C  46.38200 7.00800 46.76000
C  46.14100 8.49200 46.59300
C  44.78500 8.60700 46.81500
C  44.26200 7.27300 47.08000
C  47.20300 9.55900 46.31200
C  43.74700 9.53800 46.92100
O  43.77400 10.77100 46.86500
C  42.43200 8.80200 47.24600
C  41.78400 9.20800 48.53400
O  41.88800 8.66500 49.60200
O  40.85400 10.20300 48.34300
C  40.11400 10.67100 49.49500
H  40.68400 2.13800 47.33300
H  46.79100 0.51500 46.56300
H  48.37600 6.97700 46.39000
H  40.13700 6.70100 48.07300
H  39.42800 4.34800 46.60800
H  39.04400 5.29100 49.29600
H  39.97600 3.86000 49.51900
H  38.43500 3.84500 48.51500
H  39.61600 7.89500 46.05500
H  38.85200 6.29800 45.78800
H  41.41200 6.46700 44.78600
H  40.71500 7.88600 44.16200
H  41.15200 -0.89400 46.41500
H  40.88700 0.12700 47.91600
H  41.88800 -1.34600 47.86900
H  46.51800 -1.77000 46.15100
H  46.05300 -0.73600 44.64900
H  45.83500 -2.44800 44.73500
H  48.98400 2.25000 45.36500
H  49.66900 4.45100 47.27100
H  48.97200 1.46900 48.21500
H  50.38700 2.30000 47.77100
H  49.95000 0.99900 46.77400
H  50.11400 5.70300 45.15700
H  49.44600 4.57500 44.26000
H  51.56200 3.32400 45.96100
H  52.33500 4.57000 45.11500
H  51.49100 3.31600 44.17800
H  46.79300 10.56800 46.26900
H  47.49400 9.32900 45.28700
H  47.94900 9.58900 47.10700
H  41.72900 9.02600 46.44300
H  40.14700 11.76100 49.49700
H  40.58700 10.50800 50.46300
H  39.05500 10.41800 49.44300
Mg 48.46100 45.37100 42.29900
C  45.14300 45.73900 41.01700
C  48.37900 42.06200 41.29200
C  51.79800 45.48300 42.25200
C  48.39300 48.81500 43.04400
N  46.82900 44.05400 41.42300
C  45.61100 44.44400 40.97400
C  44.94800 43.30500 40.28100
C  45.87500 42.04000 40.70600
C  47.11300 42.71600 41.12600
C  45.34500 41.05600 41.75500
C  44.79300 43.50500 38.73100
C  43.67300 42.69800 38.01200
H  44.11000 41.45900 37.21700
N  49.91900 43.95800 41.88700
C  49.67900 42.69000 41.56000
C  50.93700 41.92500 41.45300
C  51.97900 42.90200 41.74900
C  51.27800 44.15600 42.02300
C  51.09900 40.47700 41.21300
C  53.42700 42.55900 41.87500
O  53.84700 41.41800 41.72600
C  54.42800 43.64900 42.16100
N  49.92500 46.96300 42.52700
C  51.26200 46.71100 42.47300
C  52.06800 47.96700 42.71900
C  50.96700 49.01400 43.20000
C  49.68300 48.22800 42.87800
C  53.26200 47.79400 43.79800
C  51.27400 50.45900 42.71800
C  51.23400 51.50500 43.76600
N  47.04000 46.96300 42.18000
C  47.18300 48.25500 42.51700
C  45.92000 48.91700 42.27500
C  45.05200 47.97100 41.67000
C  45.79300 46.82000 41.65900
C  45.51800 50.31300 42.55700
C  43.81200 47.73400 41.06200
O  42.91600 48.52100 40.77400
C  43.83000 46.28800 40.42000
C  42.48600 45.63300 40.84500
O  41.61500 45.23100 40.11400
O  42.55400 45.35900 42.13000
C  41.30600 44.95900 42.75500
H  48.33600 41.07700 40.82300
H  52.88800 45.52000 42.20900
H  48.39400 49.85800 43.36800
H  43.99300 43.22800 40.80200
H  45.94300 41.46100 39.78500
H  44.49000 41.55700 42.20900
H  46.08300 40.93100 42.54700
H  45.04100 40.09800 41.33200
H  45.72600 43.16900 38.27900
H  44.77600 44.57400 38.52000
H  43.08100 43.31900 37.33900
H  43.02500 42.30100 38.79300
H  51.65100 40.31500 40.28700
H  50.11800 40.00300 41.24700
H  51.67200 39.93200 41.96200
H  54.49100 44.44600 41.42000
H  55.43600 43.29200 42.36900
H  54.07700 44.00600 43.13000
H  52.44900 48.29800 41.75200
H  51.00200 49.01900 44.28900
H  53.40900 46.75200 44.08000
H  53.06300 48.34100 44.72000
H  54.10500 48.14700 43.20400
H  50.67900 50.71300 41.84100
H  52.21500 50.58400 42.18200
H  51.69900 51.16300 44.69100
H  50.22000 51.86300 43.94400
H  51.84900 52.37500 43.53700
H  46.27000 51.02900 42.22300
H  45.50000 50.32900 43.64700
H  44.50600 50.62600 42.30200
H  43.74300 46.35500 39.33600
H  40.41400 45.02900 42.13200
H  41.22400 45.40700 43.74600
H  41.53200 43.90300 42.90600

