158

Mg 40.13200 9.63200 29.71200
C  41.95100 10.61800 32.48800
C  37.97700 7.86500 31.87200
C  38.28900 8.79400 26.93900
C  42.72300 10.81300 27.57700
N  39.99700 9.36600 31.90100
C  40.77900 9.91600 32.85800
C  40.33600 9.45500 34.28000
C  39.38400 8.24200 33.97800
C  39.05600 8.53700 32.50900
C  40.00300 6.82800 34.14400
C  39.80000 10.66200 35.13000
C  40.29800 10.86800 36.64400
H  40.75200 12.17900 37.34200
N  38.36500 8.54100 29.45300
C  37.61100 7.97400 30.48000
C  36.27300 7.49900 29.92000
C  36.41200 7.65500 28.48100
C  37.76400 8.35900 28.24600
C  35.15800 6.86700 30.69300
C  35.49600 7.30300 27.33000
O  35.74900 7.47100 26.16600
C  34.13000 6.72700 27.64800
N  40.58000 9.72800 27.55200
C  39.54800 9.40900 26.62400
C  39.95300 9.82300 25.16400
C  41.31000 10.51600 25.38900
C  41.60100 10.33000 26.91200
C  40.03100 8.63200 24.23900
C  41.50800 11.90500 24.77500
C  40.67400 12.95600 25.31200
N  41.93800 10.55300 29.93600
C  42.92200 10.89200 29.03700
C  44.04400 11.48700 29.69900
C  43.72700 11.43500 31.10300
C  42.40500 10.79700 31.18100
C  45.30900 12.04600 29.09100
C  44.12200 11.78400 32.48600
O  45.11900 12.39200 32.91800
C  42.95500 11.29400 33.40300
C  43.59900 10.37800 34.33200
O  44.22900 9.41000 34.03800
O  43.44600 10.86900 35.64100
C  44.18800 10.12400 36.68100
H  37.42100 7.16100 32.49400
H  37.66200 8.60200 26.06600
H  43.47800 11.30000 26.95700
H  41.19200 9.01600 34.79200
H  38.46700 8.19600 34.56500
H  40.53600 6.75300 35.09200
H  40.61200 6.50800 33.29800
H  39.09600 6.24100 34.28800
H  38.71400 10.57400 35.17000
H  39.91800 11.61100 34.60800
H  41.06100 10.13600 36.90900
H  39.43400 10.56800 37.23800
H  35.39900 6.99600 31.74800
H  35.01400 5.81500 30.44800
H  34.22100 7.41000 30.56900
H  34.34500 5.81100 28.19900
H  33.59700 6.59900 26.70600
H  33.61400 7.48100 28.24200
H  39.10500 10.43400 24.85400
H  42.07000 9.88000 24.93500
H  40.23200 7.70300 24.77300
H  40.90900 8.83900 23.62600
H  39.11100 8.70100 23.65800
H  41.09600 11.75500 23.77700
H  42.54400 12.22600 24.66700
H  40.11400 12.64900 26.19600
H  40.04400 13.35000 24.51400
H  41.41100 13.72700 25.53600
H  46.12900 12.28100 29.76900
H  45.06900 12.91200 28.47300
H  45.70000 11.28400 28.41700
H  42.46000 12.09400 33.95300
H  43.53100 10.22000 37.54500
H  45.17900 10.49000 36.94800
H  44.32100 9.05400 36.51800
Mg 42.66400 42.00700 26.13800
C  42.02800 44.29200 28.83100
C  44.25500 40.07400 28.38100
C  43.54900 40.16100 23.51400
C  41.44000 44.54000 23.95000
N  43.14700 42.28900 28.33700
C  42.72100 43.13600 29.22800
C  43.01800 42.74100 30.67800
C  43.85200 41.41500 30.51400
C  43.78400 41.25700 29.00700
C  45.40700 41.42700 31.07400
C  41.66900 42.54800 31.52400
C  41.55300 43.47000 32.76200
H  40.98800 42.79400 34.00000
N  43.64500 40.23600 26.00900
C  44.11700 39.53500 27.05700
C  44.61900 38.23300 26.55700
C  44.36000 38.25100 25.17900
C  43.76700 39.54800 24.80900
C  45.18900 37.14800 27.46300
C  44.58700 37.12000 24.18100
O  44.16900 37.18800 23.03400
C  45.27500 35.83100 24.65200
N  42.64200 42.35800 24.03400
C  42.94800 41.39300 23.17500
C  42.71200 41.71900 21.69600
C  41.84500 43.02500 21.86000
C  41.96100 43.31900 23.37700
C  44.02600 41.83000 20.86700
C  40.32600 42.77500 21.54400
C  39.64800 41.61300 22.27100
N  41.84900 43.98300 26.30400
C  41.42900 44.88000 25.30000
C  41.03000 46.15400 25.91800
C  41.14900 45.91300 27.31300
C  41.69000 44.62900 27.48900
C  40.68000 47.49500 25.22700
C  40.97100 46.50800 28.61600
O  40.58400 47.61500 28.95400
C  41.55000 45.49000 29.69200
C  42.59300 46.15600 30.45200
O  43.75200 46.14300 30.18300
O  42.08000 46.74200 31.55700
C  42.95800 47.27100 32.53800
H  44.85900 39.39200 28.98300
H  43.98800 39.51800 22.74800
H  40.98200 45.23700 23.24400
H  43.63700 43.50400 31.15000
H  43.44500 40.51000 30.96400
H  46.12600 41.19700 30.28800
H  45.56700 40.71200 31.88100
H  45.62400 42.40100 31.51300
H  41.63100 41.55200 31.96600
H  40.81000 42.72000 30.87500
H  40.89100 44.30100 32.52100
H  42.54500 43.90800 32.86500
H  46.27200 37.04100 27.52000
H  44.80500 36.14100 27.30100
H  44.66900 37.37700 28.39300
H  45.76600 35.46900 23.74900
H  44.59600 35.16700 25.18800
H  46.12900 35.88800 25.32600
H  42.15500 40.92400 21.20100
H  42.28000 43.79300 21.22100
H  44.18100 42.84600 20.50300
H  43.93000 41.16200 20.01100
H  44.91400 41.47200 21.38700
H  40.35200 42.38500 20.52700
H  39.81900 43.73500 21.64100
H  40.31600 41.21300 23.03400
H  39.33600 40.86400 21.54400
H  38.74700 42.04100 22.71000
H  40.04200 47.46600 24.34300
H  41.54400 48.12800 25.02200
H  40.14200 48.12800 25.93300
H  40.69900 45.07900 30.23700
H  43.32400 46.54900 33.26800
H  42.43600 48.07200 33.06100
H  43.74200 47.89400 32.10800

