158

Mg 48.94400 45.81300 42.77000
C  45.61200 46.22800 41.92600
C  48.60100 42.52700 41.83500
C  52.23900 45.62900 42.72500
C  49.11800 49.29200 43.39700
N  47.36800 44.54000 41.96600
C  46.05500 44.94400 41.79700
C  45.23700 43.73800 41.38600
C  46.06100 42.53900 41.89300
C  47.42800 43.21000 41.80200
C  45.73600 42.06000 43.36800
C  45.12500 43.74500 39.81300
C  43.77100 43.34100 39.24400
H  43.33300 44.21400 38.04000
N  50.32000 44.21100 42.35800
C  49.94100 42.94800 41.96600
C  51.15500 42.22400 41.70800
C  52.32200 43.09900 42.03500
C  51.69500 44.37800 42.36800
C  51.24000 40.84300 41.04500
C  53.79200 42.80800 41.87800
O  54.12000 41.62800 41.60600
C  54.88900 43.84800 41.96400
N  50.51800 47.35100 42.73100
C  51.73400 46.94500 42.97700
C  52.64800 48.14400 43.49000
C  51.61900 49.30800 43.64100
C  50.32300 48.67500 43.25200
C  53.47800 47.85900 44.81300
C  51.90600 50.62400 42.84600
C  52.84600 51.62400 43.63700
N  47.61400 47.42100 42.81300
C  47.82800 48.76800 43.08300
C  46.58900 49.49700 42.94700
C  45.63200 48.52300 42.47000
C  46.34900 47.27800 42.42300
C  46.42800 50.94700 43.21300
C  44.24100 48.29300 42.26500
O  43.22800 48.93200 42.41100
C  44.23900 46.78800 41.87200
C  43.20100 46.10500 42.61700
O  42.21700 45.56200 42.07100
O  43.37200 46.17000 43.96600
C  42.56200 45.21900 44.66100
H  48.41200 41.45800 41.71800
H  53.27500 45.57700 43.06700
H  49.19100 50.37400 43.52700
H  44.25300 43.81800 41.84700
H  46.09100 41.68500 41.21500
H  46.62900 42.24600 43.96500
H  45.41900 41.01700 43.40900
H  44.97200 42.76500 43.69700
H  45.72700 42.91000 39.45300
H  45.45300 44.70900 39.42300
H  43.03800 43.36500 40.05000
H  43.84100 42.28300 38.99400
H  51.33000 39.99300 41.72100
H  52.08000 40.72200 40.36100
H  50.48600 40.76200 40.26100
H  54.88100 44.19900 42.99600
H  54.58000 44.72300 41.39300
H  55.85200 43.38100 41.75900
H  53.39100 48.40900 42.73800
H  51.45200 49.46500 44.70700
H  53.17400 48.46000 45.67000
H  54.53200 47.96500 44.55400
H  53.34000 46.80700 45.06100
H  51.02900 51.21900 42.59000
H  52.42200 50.32400 41.93400
H  53.74300 51.82600 43.05200
H  53.11900 51.26900 44.63100
H  52.29900 52.54900 43.82300
H  45.38900 51.16800 42.97100
H  47.11900 51.56200 42.63600
H  46.70400 51.09600 44.25700
H  43.81700 46.61800 40.88100
H  42.45100 44.30000 44.08700
H  41.58500 45.68500 44.78800
H  42.92800 44.98700 45.66100
Mg 17.01700 52.86600 26.64600
C  18.88000 51.35800 28.96500
C  14.96200 53.91400 29.26900
C  14.88200 54.34800 24.40700
C  19.01500 51.86200 24.11200
N  16.80000 52.50000 28.82100
C  17.81800 52.03100 29.56600
C  17.62100 52.29800 31.14500
C  16.15100 52.63700 31.18900
C  15.91100 53.02100 29.69000
C  15.37300 51.47300 31.60800
C  18.59100 53.35700 31.71900
C  18.88600 53.36600 33.30900
H  17.84500 52.53500 34.11400
N  15.12300 53.96900 26.76400
C  14.61300 54.43800 27.97700
C  13.62600 55.44100 27.73400
C  13.49200 55.49500 26.30900
C  14.47500 54.61000 25.72400
C  13.00100 56.20300 28.91800
C  12.52500 56.34700 25.45600
O  12.58600 56.23100 24.28700
C  11.66500 57.43900 25.99700
N  16.86300 52.91200 24.49600
C  15.90200 53.58300 23.83600
C  16.24100 53.64500 22.36700
C  17.67400 53.01400 22.27400
C  17.91200 52.60000 23.72200
C  15.20400 52.92600 21.31900
C  18.70300 54.00800 21.54400
C  19.23600 55.14500 22.41100
N  18.61600 51.77100 26.51300
C  19.42000 51.47600 25.38500
C  20.54900 50.79500 25.85400
C  20.42500 50.74000 27.22400
C  19.17200 51.30600 27.55200
C  21.70000 50.28700 25.06600
C  21.07000 50.25600 28.38600
O  22.05200 49.57700 28.48300
C  20.12600 50.73300 29.66300
C  19.82300 49.59700 30.52500
O  19.42400 48.51300 30.22400
O  20.04500 49.98400 31.81800
C  19.93400 48.94500 32.89000
H  14.38300 54.42100 30.04400
H  14.16900 54.68900 23.65400
H  19.80700 51.53400 23.43500
H  17.69400 51.37700 31.72200
H  16.11300 53.49700 31.85700
H  15.69400 51.02500 32.54800
H  15.49600 50.80600 30.75500
H  14.36700 51.81300 31.85300
H  18.19900 54.30500 31.35200
H  19.59200 53.23600 31.30300
H  18.94800 54.39100 33.67400
H  19.86400 52.99500 33.61700
H  13.58400 57.03000 29.32400
H  12.72500 55.49000 29.69500
H  12.00900 56.57400 28.65800
H  10.87000 56.93600 26.54600
H  11.34900 58.03900 25.14300
H  12.28100 58.04000 26.66600
H  16.15700 54.70400 22.12200
H  17.54000 52.07200 21.74300
H  14.53100 52.21300 21.79400
H  15.77100 52.38100 20.56400
H  14.66200 53.72000 20.80300
H  18.13400 54.53000 20.77500
H  19.56700 53.49600 21.12000
H  18.53000 55.25800 23.23300
H  19.27900 56.12200 21.92900
H  20.22400 54.88400 22.78900
H  21.62000 50.77500 24.09500
H  21.68900 49.20700 24.92400
H  22.60200 50.62000 25.57900
H  20.66500 51.48800 30.23400
H  19.04900 49.20100 33.47100
H  20.82900 49.01900 33.50700
H  19.93500 47.91600 32.52900

