158

Mg -1.41700 17.21800 27.28900
C  -1.97600 14.90500 29.85800
C  -2.14900 19.71300 29.51400
C  -1.13100 19.39000 24.67300
C  -1.46300 14.58900 24.99700
N  -1.98200 17.26800 29.46300
C  -1.99400 16.23500 30.37300
C  -2.30200 16.74900 31.81500
C  -2.47900 18.30200 31.59700
C  -2.21600 18.49500 30.10400
C  -3.88900 18.86800 32.15500
C  -1.27700 16.30800 32.88900
C  -1.01400 17.27600 34.06000
H  -0.36200 16.72100 35.32900
N  -1.55100 19.26600 27.15100
C  -1.83700 20.11300 28.17300
C  -1.94500 21.51900 27.63400
C  -1.53700 21.41400 26.27600
C  -1.36000 19.97500 25.95100
C  -2.15900 22.71900 28.47900
C  -1.44000 22.47700 25.27200
O  -0.97800 22.34200 24.13700
C  -1.94700 23.79900 25.58800
N  -1.27100 16.99500 25.11100
C  -1.09300 18.06000 24.31400
C  -0.76800 17.58000 22.83000
C  -0.70200 16.05900 22.97700
C  -1.13800 15.83900 24.43400
C  -1.90900 17.96000 21.80800
C  0.67600 15.46600 22.51500
C  1.93200 15.96400 23.32400
N  -1.68700 15.20800 27.31500
C  -1.63600 14.26400 26.36300
C  -1.84800 12.98800 26.92400
C  -1.91800 13.23100 28.29500
C  -1.79600 14.55000 28.49900
C  -2.06000 11.62800 26.23400
C  -2.13600 12.47000 29.52100
O  -2.33300 11.28600 29.76600
C  -2.14000 13.58300 30.64300
C  -1.04600 13.26300 31.53900
O  0.14500 13.37300 31.28800
O  -1.58200 12.92300 32.74000
C  -0.61600 12.75900 33.81400
H  -2.36200 20.53800 30.19700
H  -1.03800 20.06600 23.82000
H  -1.33200 13.74900 24.31100
H  -3.27400 16.37500 32.13800
H  -1.67600 18.84200 32.10000
H  -4.27700 18.23300 32.95200
H  -4.53100 18.97200 31.28000
H  -3.82100 19.88700 32.53600
H  -0.30300 16.11500 32.43900
H  -1.72600 15.49200 33.45600
H  -1.96400 17.76400 34.27500
H  -0.32200 18.00300 33.63500
H  -3.23600 22.72800 28.64400
H  -1.79500 23.65100 28.04500
H  -1.74800 22.48200 29.46000
H  -2.23000 24.24100 24.63200
H  -1.13400 24.38600 26.01400
H  -2.81100 23.58400 26.21700
H  0.25800 17.81700 22.54900
H  -1.44700 15.63500 22.30400
H  -1.71900 17.65000 20.78000
H  -2.16100 19.01700 21.89800
H  -2.74700 17.40500 22.22900
H  0.72900 15.49500 21.42600
H  0.55000 14.39900 22.69500
H  1.62800 16.71900 24.04900
H  2.55300 16.44300 22.56700
H  2.43500 15.11000 23.77800
H  -1.26800 11.51300 25.49400
H  -3.04600 11.63400 25.76900
H  -1.95300 10.84300 26.98200
H  -3.10100 13.70600 31.14200
H  -1.29800 12.32900 34.54700
H  -0.21000 13.73100 34.09400
H  0.16000 12.00800 33.66000
Mg 41.59600 41.25800 26.90900
C  40.68300 43.85500 29.32800
C  42.57400 39.31600 29.37900
C  42.35600 39.10400 24.59100
C  41.32600 43.75000 24.50800
N  41.77900 41.64500 29.09300
C  41.23300 42.63500 29.90600
C  41.35300 42.30700 31.40100
C  42.10900 40.93500 31.38200
C  42.17800 40.57800 29.85300
C  43.49000 40.85900 32.09900
C  39.98500 42.29500 32.14000
C  39.78800 43.10700 33.49600
H  39.10800 42.33400 34.66500
N  42.40500 39.44900 26.96900
C  42.64000 38.76400 28.08200
C  42.98700 37.39100 27.75600
C  43.01000 37.34000 26.27700
C  42.53000 38.65200 25.88200
C  43.30900 36.31600 28.74400
C  43.34900 36.22700 25.35900
O  43.26300 36.33700 24.11500
C  43.85400 35.01800 25.92500
N  41.91600 41.47500 24.78200
C  42.04600 40.38900 24.04000
C  41.89300 40.57100 22.56500
C  41.55300 42.06800 22.47800
C  41.58000 42.50000 24.01500
C  43.05500 40.06100 21.67000
C  40.10800 42.55500 21.89700
C  38.89700 41.99800 22.77500
N  40.97400 43.32400 26.87900
C  40.94900 44.15600 25.80200
C  40.50600 45.51200 26.27200
C  40.31900 45.37500 27.63700
C  40.64500 44.07700 27.99500
C  40.30100 46.75700 25.43900
C  39.85400 46.08600 28.81100
O  39.35400 47.18700 28.96200
C  40.09200 45.15800 30.02200
C  41.07000 45.84100 30.90100
O  42.21900 46.22700 30.62000
O  40.49900 45.92100 32.15100
C  41.20900 46.46000 33.25800
H  42.88200 38.69400 30.22200
H  42.23000 38.34600 23.81400
H  41.21900 44.49800 23.71900
H  42.03900 43.00400 31.88100
H  41.59800 40.13200 31.91300
H  44.28300 40.51800 31.43400
H  43.40300 40.12900 32.90500
H  43.75600 41.87100 32.40400
H  39.64400 41.28700 32.37900
H  39.24100 42.76000 31.49300
H  39.05900 43.89600 33.31300
H  40.72700 43.60200 33.74500
H  42.51500 35.60800 28.50700
H  43.23500 36.63500 29.78300
H  44.29800 35.90300 28.54400
H  44.08100 34.27400 25.16100
H  42.97500 34.71800 26.49500
H  44.72800 35.14300 26.56500
H  40.96400 40.02800 22.39000
H  42.41800 42.57900 22.05700
H  43.85300 39.79900 22.36400
H  43.44900 40.84000 21.01800
H  42.99900 39.08100 21.19700
H  40.05600 42.07300 20.92200
H  40.00600 43.64000 21.84900
H  38.21600 42.84800 22.82400
H  39.12500 41.67800 23.79200
H  38.43400 41.20700 22.18500
H  40.52000 46.46200 24.41200
H  40.91900 47.60900 25.72200
H  39.29500 47.15200 25.57800
H  39.17500 44.77700 30.47100
H  42.16400 46.92200 33.00600
H  41.16900 45.60300 33.93000
H  40.66300 47.28600 33.71600

