158

Mg 16.98300 -1.14700 27.69100
C  15.98300 0.63000 30.39700
C  19.09700 -3.21700 29.92700
C  18.62500 -2.49900 25.14600
C  15.35500 1.09700 25.70900
N  17.42100 -1.41500 29.96700
C  16.80600 -0.46500 30.81700
C  17.24900 -0.76700 32.24100
C  18.44800 -1.69000 32.07700
C  18.34200 -2.19600 30.57800
C  19.83800 -1.02900 32.28000
C  16.08700 -1.21900 33.21300
C  16.06100 -0.65900 34.67900
H  17.33900 -0.21900 35.42400
N  18.54600 -2.62000 27.52500
C  19.18700 -3.38000 28.50600
C  19.93500 -4.38900 27.92400
C  19.70600 -4.36300 26.48600
C  18.98700 -3.11000 26.32500
C  20.66100 -5.46600 28.70700
C  20.08500 -5.27000 25.42900
O  19.87200 -5.02800 24.21600
C  20.71600 -6.63000 25.70600
N  16.88400 -0.90600 25.69100
C  17.63200 -1.55100 24.79800
C  17.60200 -0.95500 23.43000
C  16.44600 0.14400 23.56200
C  16.12800 0.12700 25.11400
C  18.95700 -0.43500 22.85300
C  15.20300 -0.13400 22.71700
C  15.11700 0.70700 21.37600
N  15.72000 0.49500 27.92200
C  15.30400 1.38200 27.03200
C  14.71000 2.50300 27.72800
C  14.92500 2.23300 29.04700
C  15.56600 0.97900 29.11500
C  14.07800 3.57600 27.09400
C  14.61100 2.66200 30.36400
O  13.90500 3.61100 30.67800
C  15.37300 1.67000 31.33300
C  16.35500 2.50800 32.02200
O  17.50500 2.68100 31.65200
O  15.86700 2.85500 33.28600
C  16.61700 3.87600 34.00200
H  19.83800 -3.73100 30.54300
H  19.01500 -2.82700 24.18000
H  15.03900 1.93200 25.08100
H  17.61600 0.19100 32.60900
H  18.42200 -2.60100 32.67500
H  20.51800 -1.69700 32.80900
H  19.79500 -0.15100 32.92400
H  20.23300 -0.70200 31.31800
H  16.06200 -2.30800 33.19100
H  15.22100 -0.77600 32.72100
H  15.67300 -1.51300 35.23500
H  15.38700 0.19600 34.73200
H  21.68900 -5.33100 28.37000
H  20.46100 -6.52600 28.54800
H  20.83600 -5.35300 29.77700
H  21.53200 -6.30500 26.35100
H  21.05900 -7.07300 24.77100
H  19.96600 -7.22100 26.23100
H  17.33200 -1.77000 22.75900
H  16.81600 1.15000 23.36300
H  19.64800 -0.41000 23.69600
H  18.88800 0.59200 22.49300
H  19.41300 -1.01000 22.04600
H  14.29800 0.01400 23.30500
H  15.16000 -1.13500 22.28700
H  16.06700 1.17500 21.11700
H  14.40900 1.53500 21.40600
H  14.89800 -0.00900 20.58400
H  13.66500 4.29200 27.80500
H  13.23700 3.08500 26.60400
H  14.69200 4.02600 26.31400
H  14.68600 1.30600 32.09800
H  16.02400 4.51100 34.66100
H  17.17300 4.62100 33.43200
H  17.40300 3.31500 34.50800
Mg 49.81900 46.51200 40.25100
C  46.70200 47.88600 39.32000
C  48.85600 43.61900 38.83200
C  53.05600 45.41100 40.44200
C  50.90200 49.78400 40.91600
N  47.92000 45.83000 39.20300
C  46.78900 46.52000 38.95700
C  45.70100 45.62300 38.36600
C  46.29000 44.14400 38.48900
C  47.75800 44.50900 38.86300
C  45.47800 43.21500 39.46200
C  45.34700 45.95200 36.86500
C  43.78500 45.93000 36.59600
H  43.36500 44.89200 35.60800
N  50.81900 44.76300 39.72300
C  50.20800 43.68800 39.15000
C  51.13900 42.54700 39.10900
C  52.41300 43.07300 39.47800
C  52.13700 44.44900 39.95200
C  50.75200 41.12300 38.60500
C  53.71000 42.27900 39.54500
O  53.75700 41.07600 39.35100
C  54.96100 42.84700 39.99600
N  51.73200 47.49300 40.53800
C  52.90600 46.76800 40.71300
C  54.03000 47.67700 41.05700
C  53.34100 49.08100 41.00200
C  51.90200 48.77600 40.88100
C  54.68000 47.26300 42.39600
C  53.90700 50.02900 39.93500
C  54.67300 51.31700 40.39400
N  48.93100 48.45600 40.37300
C  49.54100 49.66900 40.54900
C  48.49500 50.72000 40.36600
C  47.29700 50.06500 40.02800
C  47.68700 48.71200 39.89700
C  48.78500 52.14100 40.49700
C  45.94300 50.20700 39.70300
O  45.24100 51.21300 39.77000
C  45.47400 48.86400 39.12000
C  44.22300 48.38800 39.77600
O  43.98900 48.48700 40.94900
O  43.36200 47.87700 38.85700
C  42.02000 47.62000 39.33700
H  48.63000 42.67900 38.32400
H  54.09700 45.10900 40.57100
H  51.15700 50.75100 41.35500
H  44.90600 45.79300 39.09200
H  46.29800 43.52700 37.59100
H  46.01200 42.92200 40.36600
H  45.12200 42.31300 38.96400
H  44.62200 43.74000 39.88400
H  45.87700 45.26600 36.20400
H  45.83200 46.91500 36.70700
H  43.48900 46.93300 36.28700
H  43.29300 45.70800 37.54300
H  50.21800 41.13300 37.65500
H  50.27900 40.53700 39.39200
H  51.64200 40.53200 38.38700
H  54.90700 42.92800 41.08200
H  55.14400 43.77000 39.44500
H  55.76900 42.19700 39.66000
H  54.77100 47.65500 40.25800
H  53.46600 49.54500 41.98100
H  54.09300 46.56400 42.99200
H  54.94100 48.16500 42.94900
H  55.66300 46.90400 42.09100
H  53.13700 50.27300 39.20300
H  54.59000 49.41900 39.34300
H  54.15000 52.25300 40.19600
H  55.65500 51.27900 39.92400
H  54.84800 51.23300 41.46600
H  48.43100 52.46000 41.47700
H  48.24800 52.70800 39.73700
H  49.82800 52.45600 40.53800
H  45.37000 48.87400 38.03500
H  41.89300 47.30100 40.37200
H  41.67400 46.75400 38.77300
H  41.38800 48.48000 39.11700

