158

Mg 27.07700 50.12300 26.74500
C  24.99800 51.06700 29.51200
C  29.34700 49.07100 29.15100
C  29.05400 49.49600 24.20800
C  24.74200 51.57500 24.65700
N  27.15800 50.12300 29.12200
C  26.19900 50.60800 30.00500
C  26.65900 50.41900 31.42600
C  28.11200 49.85800 31.33700
C  28.20400 49.62000 29.81500
C  29.28600 50.80500 31.83500
C  25.74200 49.54100 32.39100
C  25.54400 50.18100 33.87700
H  25.44100 49.14600 34.99200
N  28.91400 49.39400 26.69900
C  29.69700 49.03000 27.74400
C  30.84700 48.39800 27.19100
C  30.89700 48.57900 25.79600
C  29.56300 49.12900 25.53900
C  32.04900 47.82700 28.00800
C  32.00500 48.45100 24.81700
O  31.89200 48.63200 23.65100
C  33.34700 48.05300 25.11500
N  27.02700 50.63600 24.76000
C  27.90300 50.17400 23.88500
C  27.58900 50.47200 22.50400
C  26.09400 50.96000 22.56200
C  25.93000 51.09500 24.06600
C  28.53500 51.50800 21.86900
C  25.06100 49.92500 21.93100
C  23.83200 50.38900 21.11700
N  25.23000 51.13300 26.99800
C  24.43300 51.69500 25.99100
C  23.30100 52.34200 26.64500
C  23.47300 52.09300 28.00000
C  24.60200 51.31100 28.18800
C  22.26900 53.12300 25.86700
C  22.84200 52.32400 29.25800
O  21.75700 52.81700 29.45200
C  23.84700 51.67900 30.34100
C  24.20300 52.70200 31.33200
O  25.20400 53.31600 31.36600
O  23.21000 52.72000 32.33000
C  23.52900 53.55300 33.45400
H  30.10400 48.72800 29.85800
H  29.65300 49.15700 23.36000
H  23.88500 51.74700 24.00300
H  26.69300 51.42300 31.84900
H  28.22100 48.96000 31.94600
H  29.94500 51.08800 31.01500
H  29.90400 50.32300 32.59200
H  28.98900 51.72300 32.34100
H  26.21500 48.57300 32.56100
H  24.82100 49.31000 31.85600
H  24.57500 50.67300 33.79100
H  26.12400 51.05100 34.18600
H  31.97000 47.92600 29.09100
H  32.93400 48.45200 27.89000
H  32.14700 46.76200 27.79800
H  33.27700 47.04300 25.52000
H  33.63500 48.76600 25.88700
H  33.97000 47.97400 24.22400
H  27.59700 49.59200 21.86000
H  26.00800 51.85600 21.94700
H  29.50400 51.45700 22.36400
H  28.11500 52.51400 21.88600
H  28.79700 51.13400 20.88000
H  24.67800 49.21300 22.66200
H  25.66200 49.41800 21.17400
H  23.78500 50.02000 20.09200
H  23.72400 51.47300 21.07600
H  22.92000 50.01400 21.58100
H  22.83600 53.71300 25.14700
H  21.75300 53.77800 26.56800
H  21.46500 52.52700 25.43400
H  23.30500 50.86400 30.82000
H  23.63400 54.60100 33.17400
H  24.43100 53.18200 33.94100
H  22.68000 53.60700 34.13600
Mg 17.27000 51.86900 26.86400
C  19.31100 50.23100 29.25400
C  14.87900 52.39400 29.20000
C  15.32100 52.72100 24.37100
C  19.71100 50.59900 24.39600
N  17.08600 51.19900 28.87000
C  18.08500 50.72300 29.67500
C  17.71400 50.79700 31.08300
C  16.17200 51.13100 31.04000
C  15.98800 51.68400 29.63700
C  15.20000 49.92500 31.23500
C  18.58000 52.02800 31.65800
C  19.21500 51.79800 33.07500
H  18.64000 52.45600 34.36100
N  15.38100 52.55500 26.78600
C  14.52100 52.73700 27.83600
C  13.31000 53.44300 27.36200
C  13.53800 53.61000 25.94900
C  14.78900 52.92500 25.65000
C  12.18700 53.68700 28.29100
C  12.51000 54.34400 24.95400
O  12.85400 54.40700 23.76200
C  11.14900 54.94000 25.48500
N  17.50000 51.66600 24.69200
C  16.53600 52.17900 23.90400
C  16.99000 52.14700 22.45700
C  18.55000 51.75400 22.49000
C  18.61400 51.39000 23.96200
C  15.96500 51.30000 21.55300
C  19.47600 52.96200 22.00500
C  20.24900 52.69500 20.71300
N  19.18300 50.78700 26.74700
C  19.97700 50.32900 25.76400
C  21.05600 49.43800 26.31200
C  20.86000 49.50300 27.66300
C  19.74900 50.32600 27.89400
C  22.14400 48.74000 25.54100
C  21.31100 48.88400 28.90700
O  22.24000 48.13700 29.13400
C  20.40100 49.43800 29.99900
C  19.78100 48.13700 30.57800
O  18.87700 47.44300 30.06800
O  20.44100 47.88100 31.74000
C  19.87100 46.84800 32.53800
H  14.11700 52.50400 29.97400
H  14.74900 53.08000 23.51300
H  20.34600 50.01800 23.72300
H  17.82600 49.86900 31.64300
H  15.82800 51.84600 31.78700
H  14.20000 50.30100 31.45100
H  15.44600 49.35600 32.13200
H  15.17700 49.29500 30.34600
H  17.90400 52.87000 31.80800
H  19.37900 52.31500 30.97400
H  20.29300 51.95800 33.05100
H  19.18600 50.74000 33.33700
H  11.28600 53.34700 27.78100
H  12.06400 54.76400 28.41300
H  12.27500 53.17800 29.25100
H  11.48500 55.54000 26.33100
H  10.41200 54.18100 25.74800
H  10.76700 55.47400 24.61500
H  16.96100 53.15800 22.05200
H  18.80600 50.83600 21.96000
H  15.42300 51.94800 20.86500
H  15.19100 50.83800 22.16600
H  16.45900 50.48000 21.03300
H  20.23100 52.94800 22.79100
H  19.04300 53.96300 22.00900
H  20.40800 53.66800 20.24900
H  19.77000 51.97500 20.05000
H  21.23200 52.31700 20.99300
H  21.64700 48.04300 24.86700
H  22.83800 48.31700 26.26600
H  22.74500 49.42900 24.94700
H  20.95300 49.98300 30.76500
H  19.37900 46.07500 31.94600
H  19.30500 47.27400 33.36600
H  20.77900 46.35300 32.88100

