158

Mg 10.23200 46.65300 25.27700
C  8.23300 47.02900 28.22100
C  12.83300 48.15000 27.19300
C  12.11600 46.47200 22.64900
C  7.35900 46.24700 23.55500
N  10.51700 47.39000 27.45100
C  9.59100 47.37500 28.46700
C  10.20000 47.71800 29.78200
C  11.43200 48.51300 29.33100
C  11.66900 48.01300 27.88700
C  11.31700 50.04600 29.45600
C  10.43900 46.43000 30.65900
C  10.77800 46.72900 32.16600
H  10.20900 45.82600 33.24500
N  12.30400 47.06500 24.97900
C  13.14200 47.68400 25.86600
C  14.44700 47.68400 25.29100
C  14.25500 47.19100 23.94300
C  12.86200 46.93300 23.79400
C  15.67900 47.87500 26.17600
C  15.30700 46.89500 22.84000
O  15.01500 46.30500 21.80900
C  16.74900 47.39300 23.09900
N  9.77500 46.55700 23.30700
C  10.71800 46.35600 22.38700
C  10.21100 45.78400 21.00500
C  8.69300 45.78700 21.29500
C  8.59500 46.22600 22.78200
C  10.63400 46.52900 19.66500
C  7.91900 44.42000 20.99900
C  6.61300 44.64300 20.14700
N  8.19500 46.47800 25.70400
C  7.11700 46.32900 24.85300
C  5.87900 46.29600 25.61100
C  6.29200 46.61700 26.86700
C  7.71100 46.68200 26.93900
C  4.49500 46.05200 25.07400
C  5.79200 46.66100 28.26700
O  4.65900 46.53500 28.69800
C  7.07600 46.92700 29.25500
C  7.16300 45.83600 30.25200
O  7.65700 44.71500 30.19300
O  6.37700 46.26100 31.31900
C  6.07500 45.24900 32.26500
H  13.56400 48.68900 27.79900
H  12.56800 46.28300 21.67300
H  6.48600 46.12300 22.91100
H  9.51400 48.27200 30.42300
H  12.26100 48.16500 29.94800
H  10.34000 50.39500 29.78900
H  11.61600 50.44800 28.48800
H  12.05900 50.37900 30.18200
H  11.33600 45.99100 30.22300
H  9.58300 45.77600 30.82500
H  10.33200 47.67800 32.46100
H  11.84100 46.85500 32.37500
H  16.40700 47.11600 25.88900
H  15.49700 47.73900 27.24200
H  16.13600 48.86000 26.07900
H  17.19100 47.73300 22.16200
H  17.31900 46.59200 23.57200
H  16.53700 48.25200 23.73500
H  10.60700 44.79400 20.77800
H  8.18900 46.59600 20.76700
H  11.06300 45.77500 19.00500
H  11.32600 47.27800 20.05000
H  9.80100 47.02100 19.16300
H  7.59000 44.13600 21.99800
H  8.54000 43.67100 20.50700
H  6.57400 45.59500 19.61900
H  5.73200 44.75200 20.77900
H  6.38600 43.94400 19.34200
H  3.83000 46.37300 25.87600
H  4.16500 45.08200 24.70200
H  4.32300 46.73400 24.24100
H  6.82300 47.86000 29.75900
H  5.08500 44.83100 32.08400
H  6.16600 45.73000 33.23900
H  6.74500 44.39900 32.39800
Mg 1.10100 42.05500 25.53200
C  3.49100 41.97200 28.17800
C  -1.27100 41.46500 27.97600
C  -1.24600 42.08700 23.17400
C  3.58300 42.57200 23.37900
N  1.17600 41.69500 27.78600
C  2.19800 41.80400 28.63700
C  1.76900 41.86900 30.11900
C  0.32400 41.24000 29.99500
C  0.02200 41.44100 28.44900
C  0.16800 39.76400 30.59100
C  1.77600 43.29500 30.78600
C  2.14600 43.19700 32.26700
H  0.99800 43.58100 33.13800
N  -1.02300 41.72000 25.58400
C  -1.80100 41.56800 26.68100
C  -3.21600 41.57500 26.29400
C  -3.24200 41.60400 24.84000
C  -1.79600 41.79900 24.45700
C  -4.38800 41.45400 27.27800
C  -4.46600 41.60000 23.97500
O  -4.37000 41.69800 22.77900
C  -5.80800 41.53200 24.55200
N  1.19600 42.12900 23.59500
C  0.08500 42.10900 22.78800
C  0.49600 42.34600 21.34600
C  1.98100 42.85900 21.44900
C  2.36200 42.47300 22.89600
C  0.32800 41.16200 20.39400
C  2.11700 44.43400 21.36200
C  2.63200 44.96500 19.99900
N  3.14200 42.21200 25.68900
C  4.05300 42.51000 24.71000
C  5.42700 42.63100 25.20800
C  5.21600 42.42000 26.61700
C  3.83400 42.22900 26.80500
C  6.67000 42.71400 24.33000
C  5.87700 42.31000 27.90100
O  7.13400 42.35600 28.09100
C  4.74300 42.27000 28.94700
C  4.96300 41.29700 29.97700
O  5.07700 40.08000 29.79400
O  4.88200 41.91000 31.18500
C  5.11900 41.05000 32.36700
H  -1.94600 41.21000 28.79600
H  -2.04100 42.25600 22.44500
H  4.38900 42.65800 22.64700
H  2.44800 41.15700 30.58800
H  -0.43300 41.82500 30.51800
H  0.95700 39.38500 31.23900
H  0.45500 39.07900 29.79400
H  -0.82300 39.58000 31.00600
H  0.78300 43.71900 30.63500
H  2.41800 43.97800 30.22900
H  2.88900 43.97500 32.44400
H  2.57700 42.23500 32.54700
H  -4.89200 42.39500 27.49900
H  -3.96400 41.04700 28.19500
H  -5.11000 40.67300 27.04100
H  -6.50100 41.54600 23.71000
H  -6.06600 42.41600 25.13500
H  -5.94700 40.65400 25.18300
H  -0.08300 43.13500 20.86500
H  2.73200 42.34600 20.84900
H  1.18100 41.01700 19.73100
H  -0.63100 41.24300 19.88300
H  0.31600 40.33200 21.10000
H  2.74300 44.76500 22.19000
H  1.13600 44.88100 21.52200
H  1.83300 45.54600 19.53900
H  3.05400 44.13600 19.43100
H  3.39400 45.70300 20.25200
H  6.56100 43.67200 23.82100
H  6.58700 41.83500 23.69100
H  7.53700 42.64800 24.98700
H  4.72700 43.27200 29.37400
H  6.10700 41.32400 32.73600
H  5.17300 39.98700 32.12900
H  4.37800 41.21100 33.15000

