158

Mg 36.15600 49.56800 24.97500
C  36.13200 47.98500 28.16200
C  34.66900 52.25200 26.51200
C  35.50100 50.77900 21.93900
C  37.12800 46.52900 23.46100
N  35.25900 49.91400 27.08800
C  35.64100 49.27700 28.20700
C  35.38600 50.18400 29.47300
C  34.60500 51.36900 28.87200
C  34.77400 51.14000 27.36700
C  33.11700 51.45100 29.19400
C  36.75500 50.49800 30.16500
C  36.96000 49.88600 31.57800
H  35.64600 49.79200 32.44800
N  35.36300 51.32300 24.31500
C  34.92000 52.36300 25.11200
C  34.65800 53.51200 24.34200
C  34.90000 53.09400 23.00500
C  35.20300 51.64500 23.02100
C  34.10100 54.86500 24.77700
C  34.78000 53.92800 21.69400
O  34.76700 53.41200 20.60900
C  34.64500 55.41300 21.73500
N  36.24700 48.75100 22.92700
C  35.94000 49.48500 21.88300
C  36.46400 48.92300 20.58600
C  36.97500 47.47300 21.01900
C  36.70100 47.52400 22.58200
C  35.59000 48.87500 19.23400
C  38.44700 47.16800 20.67100
C  39.55400 47.85200 21.50300
N  36.58700 47.69100 25.60400
C  37.01000 46.55400 24.89300
C  37.31000 45.46600 25.85900
C  37.02900 46.01700 27.14500
C  36.58400 47.35700 26.94800
C  37.60400 43.99900 25.56500
C  37.05600 45.70100 28.55200
O  37.61200 44.78300 29.14000
C  36.35100 46.97100 29.29700
C  35.10000 46.45100 29.82700
O  33.93200 46.48400 29.48000
O  35.35700 45.86400 31.10300
C  34.19400 45.27400 31.80400
H  34.28300 53.16700 26.96400
H  35.32900 51.20600 20.94900
H  37.57000 45.60800 23.07600
H  34.78000 49.65800 30.21100
H  35.05000 52.34300 29.08000
H  32.69500 50.52300 29.58000
H  32.59900 51.80400 28.30300
H  33.04100 52.17000 30.00900
H  36.86300 51.57700 30.04900
H  37.54400 50.08500 29.53700
H  37.52700 50.64300 32.12000
H  37.54400 48.97800 31.72700
H  34.81000 55.69100 24.72100
H  33.80000 54.76700 25.82100
H  33.19400 54.95800 24.17900
H  33.60700 55.67400 21.94200
H  34.88500 55.78300 20.73800
H  35.50900 55.80600 22.27300
H  37.29200 49.62200 20.47400
H  36.23600 46.73000 20.71800
H  35.49300 47.87900 18.80300
H  36.13100 49.35900 18.42100
H  34.62800 49.38700 19.26500
H  38.67100 47.51000 19.66100
H  38.62700 46.10200 20.81100
H  39.02600 48.37600 22.30000
H  40.01400 48.60800 20.86600
H  40.29400 47.21000 21.98000
H  38.61800 43.96100 25.16700
H  36.93800 43.66300 24.77100
H  37.41900 43.47100 26.50100
H  36.82500 47.34600 30.20400
H  34.66500 44.87100 32.70100
H  33.76000 44.42200 31.28100
H  33.47000 46.06900 31.98000
Mg 0.82500 43.91900 26.23200
C  3.23300 43.90300 28.76300
C  -1.50600 42.90500 28.56300
C  -1.33200 43.66200 23.70200
C  3.45000 44.16100 23.90200
N  0.87000 43.44700 28.45200
C  1.96700 43.60400 29.24400
C  1.59900 43.42400 30.72900
C  0.17500 42.82900 30.52800
C  -0.23400 43.11500 29.11700
C  -0.05900 41.34400 31.00600
C  1.61700 44.84400 31.41700
C  1.54700 44.99600 32.95400
H  1.26600 43.79700 33.89200
N  -1.18900 43.38800 26.17200
C  -1.94100 43.03000 27.19700
C  -3.26300 42.74000 26.72400
C  -3.26200 43.02200 25.30400
C  -1.89500 43.36900 24.99100
C  -4.43000 42.19200 27.49900
C  -4.37800 42.97400 24.24400
O  -4.16900 43.38500 23.11500
C  -5.84300 42.69000 24.57800
N  1.08100 43.91800 24.06900
C  -0.00300 43.81100 23.28200
C  0.44100 43.85900 21.78900
C  1.96900 44.08300 21.90500
C  2.21100 43.98100 23.38200
C  0.01400 42.66600 20.95900
C  2.46700 45.39900 21.14100
C  1.99900 46.73500 21.90700
N  2.90300 44.19400 26.21700
C  3.88500 44.29400 25.25800
C  5.17700 44.43900 25.85600
C  4.96900 44.25800 27.22900
C  3.57100 44.11900 27.42300
C  6.46400 44.38800 25.08500
C  5.64700 44.04500 28.49200
O  6.80100 43.69900 28.70500
C  4.63300 44.13700 29.55600
C  4.92700 43.05700 30.64300
O  5.00600 41.85200 30.35500
O  4.97400 43.63200 31.86500
C  5.27300 42.71300 32.98400
H  -2.25400 42.59000 29.29400
H  -1.94100 43.50500 22.80900
H  4.23800 44.31700 23.16200
H  2.26700 42.70000 31.19700
H  -0.54900 43.34800 31.15500
H  -0.54500 40.64800 30.32300
H  -0.60700 41.36800 31.94700
H  0.86900 40.87000 31.32600
H  0.72000 45.32200 31.02500
H  2.45300 45.45300 31.07400
H  0.83100 45.80700 33.09100
H  2.48600 45.40600 33.32300
H  -5.21200 42.93500 27.34100
H  -4.14600 42.21400 28.55100
H  -4.85500 41.25200 27.14800
H  -6.09100 41.66400 24.84800
H  -6.53500 42.78400 23.74100
H  -6.19500 43.41100 25.31500
H  -0.06800 44.70900 21.33500
H  2.45100 43.17000 21.55400
H  -0.27600 41.99500 21.76700
H  0.77900 42.21800 20.32500
H  -0.88500 42.94400 20.40800
H  2.08500 45.38400 20.12000
H  3.55600 45.39900 21.13100
H  2.27400 47.55700 21.24700
H  2.55900 46.79400 22.84000
H  0.92800 46.93900 21.92900
H  6.32400 44.88800 24.12600
H  6.61800 43.35300 24.77900
H  7.28500 44.92000 25.56700
H  4.64400 45.12100 30.02500
H  5.08600 43.26900 33.90300
H  6.31400 42.39300 32.93600
H  4.62700 41.83600 32.94500

