158

Mg 9.47900 48.31400 25.78000
C  6.91400 49.04300 28.14600
C  11.79800 49.54200 27.95200
C  11.70100 48.07100 23.41300
C  6.95200 47.72200 23.44800
N  9.39700 49.14700 27.75900
C  8.26500 49.04100 28.60000
C  8.69900 48.99000 30.03700
C  10.22700 49.61900 29.98400
C  10.54200 49.46300 28.49100
C  10.36100 51.07800 30.51900
C  8.45400 47.54600 30.64000
C  8.11400 47.58700 32.17300
H  8.63800 46.62400 33.19600
N  11.48300 48.50100 25.77300
C  12.29800 48.98500 26.76500
C  13.69000 48.92200 26.37500
C  13.63100 48.34200 25.04100
C  12.23100 48.28300 24.73400
C  14.90500 49.24700 27.28900
C  14.77900 47.96600 24.06200
O  14.57300 47.48200 22.93600
C  16.17800 48.17900 24.49100
N  9.28300 48.15900 23.58600
C  10.39300 47.98400 22.92400
C  10.11000 47.64200 21.45200
C  8.53600 47.69900 21.38700
C  8.25600 47.77000 22.87100
C  10.77600 48.53600 20.44200
C  7.89300 46.50100 20.59300
C  7.17500 46.77600 19.29900
N  7.35200 48.27900 25.77800
C  6.49700 48.05700 24.70700
C  5.12900 48.26300 25.15100
C  5.28000 48.64400 26.47700
C  6.59700 48.66700 26.83800
C  3.90700 48.04300 24.31300
C  4.55400 49.02500 27.69900
O  3.33100 49.02600 27.83000
C  5.59100 49.28000 28.89800
C  5.09000 48.32800 30.01400
O  4.87700 47.12000 29.93500
O  4.87500 49.10200 31.12200
C  4.08400 48.53000 32.14200
H  12.57300 49.83800 28.66200
H  12.36300 47.75500 22.60400
H  6.20200 47.57700 22.66700
H  8.14800 49.72500 30.62400
H  10.85800 48.97900 30.60100
H  10.74600 51.75800 29.75900
H  11.06100 51.07300 31.35500
H  9.43400 51.54500 30.85400
H  9.36600 46.95100 30.59100
H  7.74700 46.98500 30.02900
H  7.02800 47.65900 32.23700
H  8.31200 48.59900 32.52900
H  14.60100 49.49600 28.30500
H  15.52700 50.05200 26.89700
H  15.57100 48.38500 27.25800
H  16.45900 47.43000 25.23100
H  16.29200 49.19000 24.88100
H  16.89100 48.03600 23.67900
H  10.38800 46.58800 21.44500
H  8.24900 48.65400 20.94600
H  11.34400 49.23300 21.05800
H  10.08600 49.05700 19.77900
H  11.45900 47.93000 19.84600
H  7.24500 45.97800 21.29600
H  8.66400 45.75600 20.39400
H  7.19100 47.79700 18.91800
H  6.12000 46.60200 19.50900
H  7.50800 46.10900 18.50300
H  4.19100 48.16200 23.26700
H  3.17200 48.83000 24.48000
H  3.42300 47.07000 24.39800
H  5.46600 50.33500 29.14400
H  3.61900 47.55700 31.98400
H  3.31100 49.24600 32.42100
H  4.72400 48.53100 33.02500
Mg -2.20100 35.33700 26.37500
C  -3.89800 33.99100 29.08400
C  -1.16200 37.91000 28.48100
C  -0.55400 36.63700 23.68800
C  -3.88100 33.06400 24.26000
N  -2.46700 35.83200 28.59800
C  -3.12600 35.06600 29.49400
C  -2.91900 35.45700 30.98100
C  -2.08100 36.79200 30.74600
C  -1.91300 36.92200 29.17800
C  -2.46700 38.14700 31.43300
C  -2.18900 34.33700 31.88400
C  -1.56100 34.79700 33.18700
H  -2.25200 34.26500 34.43600
N  -0.98900 36.95100 26.08100
C  -0.75800 37.94100 27.07900
C  0.17000 38.89900 26.54000
C  0.47900 38.53800 25.19600
C  -0.39200 37.35700 24.88200
C  0.91300 40.00500 27.36000
C  1.39200 39.22800 24.18100
O  1.53400 38.85600 23.00100
C  2.16900 40.40000 24.56300
N  -2.06300 34.73200 24.25500
C  -1.30600 35.42800 23.38900
C  -1.18000 34.60900 22.12700
C  -2.39300 33.54500 22.18800
C  -2.93100 33.84100 23.64200
C  -1.14200 35.61000 20.88500
C  -2.08000 31.97100 22.00700
C  -2.81800 31.23600 20.88300
N  -3.58600 33.87500 26.53900
C  -4.23200 33.05800 25.59200
C  -5.21300 32.20800 26.26400
C  -5.07100 32.60900 27.61500
C  -4.17200 33.63300 27.73200
C  -6.17200 31.34300 25.58600
C  -5.62300 32.18800 28.98200
O  -6.34000 31.22500 29.21900
C  -4.74000 32.97900 29.93700
C  -5.77800 33.51800 30.90500
O  -6.47400 34.42500 30.74200
O  -5.76800 32.73700 32.02800
C  -6.81200 33.11500 33.03400
H  -0.84300 38.76100 29.08700
H  -0.05100 37.07000 22.82100
H  -4.31200 32.42800 23.48400
H  -3.83100 35.72400 31.51500
H  -1.13200 36.65300 31.26400
H  -1.58600 38.65000 31.83000
H  -3.16900 38.01000 32.25500
H  -3.04200 38.65500 30.65900
H  -1.49100 33.78900 31.25100
H  -2.97400 33.65900 32.22000
H  -1.71300 35.87400 33.11000
H  -0.50000 34.59600 33.33600
H  1.97500 39.81900 27.19800
H  0.86200 39.80500 28.43100
H  0.70100 41.04600 27.11600
H  2.98400 39.94600 25.12800
H  1.67900 41.14400 25.19100
H  2.84700 40.79200 23.80500
H  -0.23600 34.09600 22.30600
H  -3.22200 33.82700 21.54000
H  -1.76900 36.49900 20.95200
H  -1.52800 35.02400 20.05100
H  -0.09900 35.87700 20.71100
H  -2.19500 31.46300 22.96500
H  -1.06000 31.81100 21.65900
H  -3.73900 30.67500 21.04900
H  -2.15000 30.50900 20.42100
H  -3.01800 31.99700 20.12900
H  -6.49700 31.93600 24.73100
H  -6.90700 31.31200 26.38900
H  -5.63300 30.43400 25.31600
H  -4.05900 32.35900 30.52100
H  -6.66900 34.12900 33.40900
H  -6.83000 32.41800 33.87100
H  -7.79700 32.98100 32.58600

