158

Mg 35.50000 2.50100 29.61500
C  33.34200 3.87100 32.13000
C  37.90800 2.39500 31.95900
C  37.67500 1.76400 27.22500
C  33.08700 3.44300 27.28700
N  35.61400 3.11700 31.79700
C  34.59200 3.51300 32.61400
C  35.03400 3.58100 34.06000
C  36.51400 3.36400 33.96900
C  36.71000 2.87900 32.47600
C  37.37600 4.64000 34.19900
C  34.15400 2.53100 34.81600
C  33.66100 2.93100 36.18600
H  34.26800 4.16200 36.90900
N  37.46400 1.99700 29.67700
C  38.27000 1.89200 30.73800
C  39.54900 1.37800 30.33200
C  39.53600 1.27100 28.88800
C  38.15000 1.70600 28.53100
C  40.71900 1.05700 31.30600
C  40.54300 0.72500 27.87500
O  40.33100 0.78500 26.68100
C  41.74400 0.10200 28.38700
N  35.38700 2.55000 27.58400
C  36.38700 2.18300 26.78300
C  35.90500 2.07700 25.30100
C  34.46700 2.60600 25.33100
C  34.26400 2.85700 26.80400
C  36.80700 2.84700 24.38900
C  33.39200 1.49400 25.00700
C  32.06600 1.93600 24.24700
N  33.61900 3.42800 29.58800
C  32.70800 3.69100 28.62600
C  31.50700 4.13300 29.12700
C  31.75100 4.31200 30.49800
C  33.01800 3.85400 30.74100
C  30.30200 4.40400 28.33200
C  31.05800 4.69700 31.69400
O  29.91700 5.10900 31.91100
C  32.08500 4.35900 32.87600
C  32.31000 5.54400 33.71400
O  33.04800 6.44100 33.31500
O  31.52300 5.54500 34.80900
C  31.32600 6.79200 35.51500
H  38.78600 2.31300 32.60300
H  38.27600 1.45700 26.36700
H  32.43000 3.80000 26.49100
H  34.84900 4.56800 34.48400
H  36.77500 2.63100 34.73300
H  36.77800 5.54300 34.32000
H  38.08200 4.82300 33.38900
H  37.87100 4.58700 35.16900
H  34.74600 1.62300 34.92800
H  33.39200 2.06700 34.19100
H  33.77200 2.03900 36.80200
H  32.57200 2.91200 36.23400
H  41.50600 1.76500 31.04700
H  41.15600 0.06400 31.19700
H  40.37500 1.24900 32.32200
H  41.47400 -0.83200 28.87900
H  42.25200 0.72000 29.12700
H  42.47600 -0.10300 27.60500
H  35.90600 1.07000 24.88300
H  34.36900 3.53900 24.77600
H  36.39700 3.84600 24.23800
H  36.84400 2.29200 23.45200
H  37.82600 2.92300 24.76900
H  33.15500 0.90100 25.89000
H  33.90900 0.78200 24.36400
H  31.98100 3.02200 24.28000
H  31.23900 1.59300 24.86900
H  31.94400 1.55700 23.23200
H  30.55500 5.14500 27.57400
H  29.56500 4.96600 28.90600
H  29.92200 3.52200 27.81600
H  31.50000 3.59900 33.39500
H  31.15200 7.59900 34.80300
H  32.20000 7.09300 36.09400
H  30.48200 6.80200 36.20500
Mg -4.99600 25.23700 26.13100
C  -3.36800 26.51200 28.91600
C  -6.69000 23.03300 28.37800
C  -6.14000 23.63700 23.49600
C  -2.80800 27.10800 24.14100
N  -4.98100 24.80200 28.27500
C  -4.35200 25.58800 29.21800
C  -4.72700 25.36000 30.64700
C  -5.50400 23.98700 30.46500
C  -5.74600 23.93700 28.93900
C  -4.80800 22.75500 31.00000
C  -5.58600 26.52400 31.37500
C  -6.04900 26.20900 32.81000
H  -5.24000 25.26500 33.63200
N  -6.32500 23.59700 25.95000
C  -7.01100 22.95600 26.99500
C  -8.03400 22.07400 26.30700
C  -7.91800 22.24100 24.84800
C  -6.79000 23.18300 24.71100
C  -8.91000 21.22900 27.21900
C  -8.72100 21.67000 23.68200
O  -8.44200 21.85100 22.49500
C  -9.91000 20.83700 24.01900
N  -4.57100 25.38700 24.14600
C  -5.09400 24.57600 23.24600
C  -4.43500 24.73900 21.86000
C  -3.70500 26.13700 22.00700
C  -3.67900 26.19900 23.52000
C  -3.58000 23.50000 21.28700
C  -4.33800 27.50700 21.40600
C  -3.43300 28.44800 20.57000
N  -3.42600 26.63100 26.41700
C  -2.60100 27.31900 25.53100
C  -1.60900 28.10100 26.26000
C  -1.96200 27.79500 27.64000
C  -3.01500 26.92400 27.64900
C  -0.54600 28.91200 25.76700
C  -1.45000 28.04100 28.99300
O  -0.59800 28.84700 29.43200
C  -2.47700 27.28700 29.90000
C  -1.68700 26.49700 30.81500
O  -0.95000 25.52400 30.56200
O  -1.73200 27.09300 32.08900
C  -0.66200 26.68800 33.01200
H  -7.31400 22.49500 29.09400
H  -6.45500 23.15000 22.57100
H  -2.21500 27.64800 23.39900
H  -3.95800 25.21800 31.40600
H  -6.45900 24.00800 30.99200
H  -4.41800 22.19300 30.15100
H  -5.60300 22.23800 31.53800
H  -4.01000 23.04600 31.68300
H  -6.56900 26.51200 30.90600
H  -5.21900 27.53900 31.22400
H  -7.08500 25.89000 32.69800
H  -6.07000 27.18700 33.29100
H  -8.66100 20.89200 28.22500
H  -9.23300 20.35900 26.64700
H  -9.74100 21.90800 27.41200
H  -9.67000 19.98000 24.64900
H  -10.34500 20.54700 23.06300
H  -10.52600 21.61600 24.46800
H  -5.37200 24.84300 21.31400
H  -2.65000 26.10600 21.73600
H  -3.83000 23.23400 20.25900
H  -3.57400 22.62900 21.94100
H  -2.53500 23.80800 21.28600
H  -4.67400 28.15500 22.21600
H  -5.24700 27.20500 20.88600
H  -2.83500 27.88400 19.85300
H  -3.02700 29.19800 21.24800
H  -4.15300 28.90200 19.88900
H  -0.95600 29.50200 24.94700
H  0.23200 28.27500 25.34700
H  -0.16400 29.59900 26.52100
H  -3.00400 28.09600 30.40500
H  -0.57000 27.52700 33.70200
H  0.30200 26.61700 32.50800
H  -0.79300 25.69400 33.44000

