158

Mg -1.54600 16.90700 26.08400
C  -1.92700 14.81400 28.85000
C  -1.78300 19.61500 28.14300
C  -1.87400 18.79900 23.24700
C  -1.70300 14.11000 23.91700
N  -1.76400 17.09600 28.24100
C  -1.80800 16.14300 29.21200
C  -2.02200 16.76600 30.58900
C  -1.99500 18.31400 30.26500
C  -1.94700 18.39600 28.79900
C  -3.17400 19.07000 30.84600
C  -1.18900 16.34400 31.76300
C  -0.88100 17.31500 32.86700
H  -0.39000 16.78700 34.18900
N  -1.69300 18.92000 25.73300
C  -1.75300 19.91300 26.70300
C  -1.73900 21.17400 26.04700
C  -1.85100 20.99400 24.65800
C  -1.86300 19.55200 24.48700
C  -1.65600 22.47000 26.83600
C  -2.03100 21.93900 23.53800
O  -2.11400 21.61100 22.34000
C  -2.13000 23.39500 23.84700
N  -1.80500 16.53500 23.88500
C  -1.81900 17.47300 22.96000
C  -1.88800 16.98400 21.46300
C  -1.53100 15.50100 21.73100
C  -1.58000 15.37200 23.29000
C  -3.25000 17.22500 20.77600
C  -0.15400 15.14100 21.21500
C  1.12600 15.85300 21.87600
N  -1.75100 14.96000 26.28500
C  -1.82500 13.94800 25.36000
C  -2.07800 12.62700 26.03500
C  -1.98300 12.93100 27.41200
C  -1.81100 14.35600 27.47600
C  -2.30500 11.33200 25.33100
C  -1.95300 12.36800 28.79800
O  -1.95700 11.19300 29.12100
C  -2.05600 13.56700 29.71000
C  -0.95900 13.29400 30.73900
O  0.23400 13.59900 30.72400
O  -1.50400 12.48500 31.81800
C  -0.51700 11.77300 32.57500
H  -1.79600 20.55400 28.70000
H  -2.00900 19.28500 22.27800
H  -1.80100 13.29900 23.19200
H  -3.06300 16.53200 30.81400
H  -1.02500 18.66500 30.61800
H  -3.82100 19.41600 30.03900
H  -2.80700 19.93100 31.40500
H  -3.72300 18.51800 31.60900
H  -0.16800 16.14500 31.43600
H  -1.63100 15.43000 32.16100
H  -1.76000 17.93000 33.05800
H  -0.15500 18.07000 32.56400
H  -0.78500 23.01500 26.47000
H  -1.54500 22.29000 27.90500
H  -2.45200 23.18100 26.61900
H  -1.28800 23.79500 24.41200
H  -3.12000 23.44400 24.30100
H  -2.24200 23.92300 22.90000
H  -1.10600 17.54300 20.95000
H  -2.26500 14.95700 21.13700
H  -3.92500 17.64100 21.52300
H  -3.72300 16.37000 20.29300
H  -3.09400 18.03200 20.06000
H  -0.13300 15.39500 20.15600
H  0.00200 14.07300 21.36200
H  1.73100 14.98700 22.14600
H  0.73400 16.27100 22.80300
H  1.53400 16.51800 21.11500
H  -1.37300 10.76900 25.37800
H  -2.70800 11.40500 24.32100
H  -3.06600 10.88900 25.97400
H  -3.01800 13.36900 30.18400
H  0.35800 12.39900 32.75000
H  0.00800 10.98700 32.03200
H  -0.90500 11.40700 33.52600
Mg 25.49600 0.68900 29.27800
C  27.14700 0.54200 32.39600
C  22.54800 1.43800 30.92400
C  23.80000 0.56700 26.37300
C  28.28300 -0.35000 27.53600
N  24.96400 0.98900 31.51800
C  25.78000 0.84800 32.60300
C  25.03200 1.27500 33.82600
C  23.54400 1.39600 33.35900
C  23.63100 1.23400 31.83300
C  22.59100 0.30800 33.91300
C  25.59700 2.65000 34.45100
C  26.19500 2.50400 35.88100
H  25.53700 3.31900 37.02800
N  23.50000 0.97700 28.65900
C  22.43700 1.23500 29.49900
C  21.27100 1.20200 28.71900
C  21.69400 1.05300 27.36700
C  23.05500 0.87000 27.39600
C  19.89500 1.27000 29.40400
C  20.71400 1.13900 26.19500
O  20.95400 0.74700 25.04500
C  19.24100 1.61000 26.37200
N  26.06400 0.10900 27.19900
C  25.12600 0.19000 26.29300
C  25.74800 -0.24300 24.92700
C  27.33100 -0.42300 25.18700
C  27.28100 -0.15900 26.66700
C  25.08600 -1.52600 24.32300
C  28.37400 0.41400 24.40200
C  28.00200 1.86200 23.97500
N  27.26200 0.08900 29.80700
C  28.35900 -0.22500 28.97800
C  29.51300 -0.46700 29.86600
C  29.13100 -0.12100 31.17400
C  27.73900 0.18000 31.11100
C  30.92300 -0.71600 29.33300
C  29.52900 -0.06700 32.55500
O  30.62800 -0.33800 33.04400
C  28.28500 0.44100 33.42000
C  28.12300 -0.46000 34.58100
O  27.43000 -1.46800 34.53400
O  28.81300 -0.04700 35.64800
C  28.70500 -0.71800 36.92100
H  21.64600 1.51200 31.53400
H  23.34100 0.51700 25.38300
H  29.25800 -0.67300 27.16500
H  25.14500 0.47700 34.55900
H  23.13200 2.34900 33.68800
H  23.10400 -0.38100 34.58400
H  22.29100 -0.30800 33.06500
H  21.79500 0.79200 34.47900
H  24.73800 3.31400 34.54700
H  26.33100 3.13400 33.80700
H  27.22400 2.86400 35.87100
H  26.24500 1.46100 36.19400
H  19.38200 2.17100 29.06700
H  19.83300 1.31300 30.49100
H  19.27900 0.41100 29.13700
H  18.63000 1.07800 27.10100
H  18.68000 1.58800 25.43700
H  19.22800 2.64600 26.70800
H  25.50800 0.52200 24.18800
H  27.70400 -1.43300 25.01800
H  24.02100 -1.33700 24.45800
H  25.28500 -2.50400 24.75900
H  25.26400 -1.55900 23.24800
H  28.53500 -0.14500 23.48100
H  29.28900 0.35900 24.99200
H  28.76000 2.49300 24.43800
H  27.03800 2.17600 24.37600
H  28.01500 2.12400 22.91700
H  31.13100 -0.06300 28.48600
H  31.03400 -1.77100 29.08400
H  31.58900 -0.50400 30.17000
H  28.53400 1.43800 33.78400
H  27.86600 -1.41300 36.91100
H  28.22600 -0.01300 37.60100
H  29.63100 -1.16200 37.28800

