158

Mg 40.66000 40.91500 26.88800
C  40.15900 43.35400 29.32500
C  41.54500 38.67400 29.31200
C  41.29100 38.80100 24.52500
C  40.07500 43.43100 24.36800
N  41.05900 41.07600 29.08600
C  40.60500 42.13500 29.88400
C  40.64300 41.67600 31.38900
C  41.31300 40.26400 31.34100
C  41.26300 39.93700 29.80300
C  42.82000 40.31400 31.72600
C  39.28800 41.72900 32.12400
C  39.13900 42.62400 33.41300
H  38.39900 42.07100 34.71800
N  41.25500 38.98700 26.86500
C  41.61500 38.23400 27.93600
C  41.97900 36.90100 27.47900
C  41.76900 36.93300 26.13600
C  41.31600 38.26200 25.76100
C  42.50500 35.92300 28.47700
C  41.96400 35.81400 25.22600
O  41.72500 35.86900 24.01400
C  42.59000 34.51300 25.78300
N  40.71800 41.15700 24.71500
C  41.00300 40.04200 24.03100
C  40.84000 40.25300 22.50100
C  40.11100 41.68800 22.49300
C  40.35400 42.14900 23.91200
C  42.12900 40.14500 21.63000
C  38.54500 41.64400 22.14900
C  37.72400 40.46700 22.68500
N  40.16600 42.98500 26.87600
C  39.97500 43.87900 25.74800
C  39.68700 45.22300 26.23200
C  39.74900 45.04200 27.63000
C  40.06900 43.72000 27.91500
C  39.20100 46.41700 25.47600
C  39.53700 45.73000 28.82900
O  39.22100 46.91500 29.05800
C  39.71400 44.60700 30.08200
C  40.57900 45.15900 31.14100
O  41.79500 45.15500 31.07200
O  39.83500 45.52900 32.20000
C  40.47500 46.21400 33.37400
H  41.68400 37.88800 30.05700
H  41.54800 38.06400 23.76200
H  39.82600 44.25100 23.69100
H  41.28300 42.33900 31.97100
H  40.83500 39.48000 31.92800
H  43.15400 41.31700 31.99400
H  43.60900 40.01000 31.03800
H  42.91900 39.61400 32.55500
H  38.96000 40.75000 32.47400
H  38.54400 42.13600 31.43900
H  38.37000 43.34600 33.13800
H  40.08900 43.11400 33.62600
H  42.31400 34.88100 28.22000
H  42.25100 36.02600 29.53200
H  43.57800 36.09500 28.39400
H  42.79200 33.91800 24.89300
H  41.86100 34.09200 26.47600
H  43.54700 34.70000 26.27100
H  40.10900 39.55100 22.10000
H  40.57500 42.36600 21.77600
H  41.81000 39.38500 20.91600
H  43.00900 39.77400 22.15500
H  42.23600 41.04500 21.02500
H  38.44600 41.59000 21.06500
H  38.09000 42.59100 22.43900
H  36.86300 40.92600 23.17000
H  38.28500 39.94000 23.45600
H  37.45600 39.73000 21.92700
H  38.38200 46.36000 24.75900
H  40.11700 46.68800 24.95100
H  38.89400 47.22300 26.14300
H  38.68700 44.47300 30.42300
H  40.65300 45.51100 34.18800
H  39.80900 46.96900 33.79000
H  41.46500 46.63700 33.20700
Mg -0.72700 34.56600 26.65600
C  -3.05500 32.88600 28.83700
C  -0.02400 36.65700 29.29700
C  0.89100 36.56400 24.55400
C  -1.87300 32.56000 24.06700
N  -1.47800 34.71300 28.89600
C  -2.36500 33.91100 29.56400
C  -2.38600 34.37200 31.04200
C  -1.58800 35.67500 30.96600
C  -0.90300 35.65600 29.61300
C  -2.39200 36.85600 31.13400
C  -1.92200 33.24100 32.07600
C  -3.01100 33.05100 33.12600
H  -3.14900 34.14300 34.22300
N  0.42000 36.24800 26.92300
C  0.63700 36.92800 28.09900
C  1.52000 38.00100 27.89100
C  1.90600 37.96900 26.48100
C  1.03600 36.93700 25.89400
C  1.91900 38.90000 29.06800
C  2.79100 38.83300 25.66000
O  2.90400 38.76800 24.46800
C  3.51200 39.96000 26.35100
N  -0.46200 34.54100 24.56800
C  0.22600 35.51000 23.90100
C  0.27000 35.16100 22.37200
C  -0.33900 33.72900 22.29500
C  -0.98200 33.56400 23.74000
C  -0.56700 36.24400 21.53400
C  0.62800 32.52200 22.06400
C  1.69300 32.25600 23.18400
N  -2.15200 32.99700 26.39100
C  -2.53200 32.32500 25.26500
C  -3.61700 31.52100 25.56000
C  -3.80800 31.61200 26.96600
C  -2.90100 32.51400 27.44800
C  -4.48100 30.77800 24.60400
C  -4.66800 31.16400 28.05400
O  -5.61500 30.35200 28.15600
C  -4.10100 31.92000 29.35500
C  -5.21900 32.58900 29.95200
O  -5.72900 33.61900 29.51700
O  -5.58900 31.88200 31.09300
C  -6.71000 32.51600 31.81400
H  0.24800 37.30500 30.13300
H  1.35700 37.20900 23.80600
H  -2.09600 31.82600 23.29000
H  -3.43500 34.53500 31.28900
H  -0.85300 35.73000 31.76900
H  -2.43200 37.46500 30.23100
H  -2.02500 37.37800 32.01700
H  -3.41800 36.60700 31.40900
H  -1.03300 33.48900 32.65700
H  -1.77400 32.35300 31.46100
H  -2.69600 32.12100 33.60000
H  -4.04300 32.99700 32.77900
H  1.71000 39.86300 28.60300
H  2.95700 38.84300 29.39400
H  1.32400 38.86900 29.98100
H  2.66100 40.55400 26.68700
H  4.32300 40.35500 25.73900
H  4.11800 39.62800 27.19400
H  1.34900 35.18000 22.22100
H  -1.14600 33.61900 21.57000
H  -1.27300 36.73500 22.20300
H  -1.29300 35.79800 20.85500
H  0.03400 36.97500 20.99300
H  1.17200 32.84900 21.17800
H  0.05100 31.62400 21.84200
H  1.50500 31.49700 23.94300
H  1.94400 33.21600 23.63600
H  2.61700 31.82700 22.79700
H  -5.29500 30.22300 25.07100
H  -3.86200 30.13500 23.97900
H  -4.97800 31.53900 24.00200
H  -3.72200 31.25100 30.12800
H  -6.38400 33.37300 32.40300
H  -7.09900 31.89300 32.61900
H  -7.62000 32.68400 31.23800

