158

Mg 29.92000 58.53000 39.11400
C  27.14500 56.58100 38.12100
C  32.00600 55.92100 38.24800
C  32.54200 60.64000 39.03500
C  27.72100 61.29700 39.32400
N  29.61100 56.55700 38.25000
C  28.42900 55.95600 37.86000
C  28.74000 54.57800 37.24000
C  30.19400 54.34500 37.59500
C  30.64400 55.67600 38.07600
C  30.43600 53.19500 38.61400
C  28.49700 54.60500 35.68400
C  27.44400 53.73600 35.00200
H  26.62900 54.31000 33.87500
N  32.04500 58.36000 38.83400
C  32.66600 57.15100 38.51000
C  34.04700 57.43500 38.23000
C  34.30200 58.79500 38.62900
C  32.94500 59.35000 38.79900
C  35.15200 56.43000 37.83300
C  35.63600 59.49000 38.74600
O  36.65200 59.01600 38.28700
C  35.69800 60.80000 39.44300
N  30.09100 60.66400 39.12200
C  31.31000 61.29100 39.15100
C  31.20500 62.72900 39.10800
C  29.71300 63.05700 39.45000
C  29.12000 61.62200 39.20400
C  32.17600 63.43800 40.09100
C  29.01400 64.22700 38.53900
C  29.13100 65.60400 39.26800
N  27.85100 58.95700 38.88700
C  27.10500 60.09600 39.12800
C  25.67300 59.77100 39.08300
C  25.63800 58.42700 38.64600
C  26.93600 57.95500 38.55900
C  24.53000 60.69200 39.13500
C  24.81300 57.33400 38.22600
O  23.60400 57.23300 38.19300
C  25.75500 56.04700 37.93800
C  25.44100 54.91000 38.85200
O  25.33300 54.98500 40.08800
O  25.33800 53.77300 38.15400
C  25.09000 52.52800 38.90500
H  32.58600 55.05800 37.91200
H  33.33700 61.38400 38.96100
H  27.04400 62.15400 39.29200
H  28.02300 53.85300 37.62400
H  30.81300 54.08000 36.73800
H  31.37300 52.67900 38.40400
H  29.59800 52.50000 38.66000
H  30.53600 53.65500 39.59700
H  29.39000 54.28400 35.14700
H  28.42900 55.64900 35.37800
H  26.69300 53.30400 35.66400
H  27.92500 52.89900 34.49600
H  35.59500 56.70200 36.87500
H  35.00300 55.35100 37.82600
H  35.91600 56.63800 38.58200
H  36.64200 60.95600 39.96400
H  34.94800 60.91000 40.22700
H  35.51600 61.56500 38.68800
H  31.42500 63.09600 38.10600
H  29.43600 63.37900 40.45400
H  33.07000 62.94700 40.47400
H  31.75700 64.04800 40.89100
H  32.77000 64.12000 39.48300
H  28.05200 64.01600 38.07100
H  29.71900 64.36200 37.71900
H  29.68100 66.28700 38.62100
H  29.64700 65.50100 40.22300
H  28.21100 66.15000 39.47800
H  23.93600 60.68700 38.22100
H  24.85500 61.71000 39.35100
H  23.71600 60.36700 39.78200
H  25.57100 55.70400 36.92000
H  24.41500 52.05200 38.19400
H  24.66200 52.70100 39.89200
H  26.06900 52.05100 38.95700
Mg -0.64500 44.11800 26.80900
C  1.63000 44.11700 29.43900
C  -3.09100 42.92500 28.98100
C  -2.82500 43.74700 24.18300
C  1.86400 44.82000 24.61800
N  -0.68900 43.59500 28.98900
C  0.30000 43.88600 29.87600
C  -0.17900 43.57900 31.25400
C  -1.56400 42.89500 31.02400
C  -1.86100 43.12000 29.56900
C  -1.64400 41.33000 31.40200
C  -0.28300 44.90100 32.14000
C  0.00200 44.78300 33.60000
H  0.15700 43.47500 34.24700
N  -2.70100 43.52800 26.65000
C  -3.46800 43.02500 27.59500
C  -4.71600 42.57300 27.04100
C  -4.73400 42.92700 25.64300
C  -3.36300 43.44600 25.42500
C  -5.73100 41.78700 27.93800
C  -5.80700 42.68500 24.57500
O  -5.67700 42.93200 23.39900
C  -7.09900 42.16200 25.06000
N  -0.51500 44.36200 24.68200
C  -1.51100 44.24800 23.84300
C  -1.11700 44.54800 22.36600
C  0.23500 45.24400 22.62900
C  0.57200 44.78300 24.05900
C  -1.15500 43.21900 21.44600
C  0.19200 46.76800 22.67500
C  1.34700 47.41900 21.92600
N  1.47000 44.45300 26.96300
C  2.29600 44.68900 25.96200
C  3.64400 44.74000 26.54400
C  3.47900 44.57100 27.93400
C  2.12100 44.38200 28.08500
C  4.95800 44.86400 25.83800
C  4.12800 44.44200 29.22300
O  5.29600 44.56400 29.58900
C  2.95900 44.09200 30.23900
C  3.19800 42.73400 30.74800
O  3.16200 41.72100 30.06400
O  3.56400 42.75400 32.05800
C  3.76100 41.40400 32.63800
H  -3.80600 42.52600 29.70300
H  -3.50500 43.56100 23.35000
H  2.67200 45.03400 23.91500
H  0.54500 42.87200 31.66000
H  -2.30400 43.46100 31.59000
H  -0.83700 41.01600 32.06500
H  -1.57000 40.67400 30.53500
H  -2.49900 41.18900 32.06400
H  -1.28300 45.31500 32.01400
H  0.39500 45.67400 31.77900
H  -0.80000 45.37800 34.03700
H  0.94600 45.30900 33.74400
H  -6.78600 41.98300 27.74500
H  -5.64500 42.15600 28.96000
H  -5.60800 40.71000 28.04300
H  -7.63400 41.89100 24.15000
H  -7.62700 42.93000 25.62500
H  -7.02300 41.28300 25.70000
H  -1.71200 45.34000 21.91100
H  0.89500 44.75300 21.91400
H  -0.19000 42.92600 21.03300
H  -1.91600 43.45200 20.70100
H  -1.55300 42.37700 22.01200
H  0.16800 47.08700 23.71700
H  -0.72700 47.15500 22.23500
H  2.08500 46.66000 21.66800
H  1.85200 48.20100 22.49300
H  0.83700 47.89600 21.08800
H  5.00400 43.97700 25.20600
H  5.84300 44.87200 26.47600
H  4.90200 45.74700 25.20200
H  2.90500 44.78100 31.08200
H  2.92300 41.01000 33.21200
H  4.56100 41.32000 33.37300
H  4.12400 40.68700 31.90200

