158

Mg 3.06200 -2.23000 44.04100
C  6.24000 -0.71300 43.72300
C  1.82800 0.21100 41.86500
C  0.30700 -3.92700 43.76400
C  4.78900 -5.02300 45.38000
N  4.01700 -0.54000 42.84300
C  5.24300 -0.02100 43.03100
C  5.41900 1.36100 42.40800
C  3.93300 1.67600 42.07300
C  3.19000 0.33900 42.32300
C  3.29500 2.81600 42.97200
C  6.42600 1.40300 41.18500
C  6.49500 0.16400 40.16000
H  5.88700 0.51700 38.77900
N  1.20100 -1.87800 43.12800
C  0.89600 -0.80400 42.32200
C  -0.45700 -0.99300 41.81000
C  -0.92600 -2.23000 42.26400
C  0.14400 -2.71200 43.18300
C  -1.07900 0.00900 40.86700
C  -2.31100 -2.81000 41.95000
O  -3.07400 -2.26300 41.22700
C  -2.77500 -4.24200 42.48300
N  2.56700 -4.12500 44.66900
C  1.32200 -4.62900 44.48900
C  1.12500 -6.04100 45.19400
C  2.60300 -6.41300 45.52000
C  3.36200 -5.11200 45.16400
C  0.15000 -5.99300 46.40900
C  3.23800 -7.66500 44.89700
C  3.83100 -8.66100 45.89200
N  5.13100 -2.72300 44.61900
C  5.65900 -3.96300 45.05100
C  7.02100 -3.85700 45.27300
C  7.31300 -2.57000 44.86100
C  6.15100 -1.91400 44.35800
C  7.92200 -4.95100 45.83000
C  8.37000 -1.64100 44.61200
O  9.55200 -1.61900 44.90500
C  7.77400 -0.37000 43.86500
C  8.09600 0.96600 44.54100
O  8.81500 1.88000 44.04100
O  7.70300 0.95000 45.84000
C  8.03800 2.09300 46.65300
H  1.45000 0.98900 41.19900
H  -0.55800 -4.59300 43.80100
H  5.28300 -5.89600 45.81300
H  5.73600 2.21200 43.01100
H  3.79700 1.93300 41.02300
H  2.65600 2.24600 43.64700
H  2.81300 3.60400 42.39400
H  3.97000 3.33200 43.65500
H  7.38200 1.80300 41.52300
H  6.06400 2.24700 40.59600
H  5.82100 -0.56900 40.60400
H  7.47200 -0.30200 40.03600
H  -1.75500 0.68300 41.39400
H  -1.50700 -0.48200 39.99300
H  -0.28100 0.57800 40.39000
H  -2.02000 -4.89800 42.04900
H  -3.74100 -4.54700 42.08100
H  -2.87700 -4.31800 43.56500
H  0.78900 -6.78900 44.47500
H  2.71000 -6.39300 46.60400
H  -0.63600 -6.74200 46.31000
H  -0.30300 -5.01700 46.58300
H  0.63900 -6.13700 47.37200
H  4.11200 -7.41700 44.29600
H  2.59300 -8.19800 44.19800
H  3.17700 -9.52100 46.03200
H  4.03500 -8.28300 46.89400
H  4.82100 -9.04700 45.64900
H  7.71600 -5.82600 45.21400
H  7.64100 -5.26400 46.83600
H  8.95900 -4.65500 45.99000
H  8.26400 -0.20500 42.90600
H  7.62100 1.84900 47.63000
H  7.51200 2.97100 46.27900
H  9.10700 2.29600 46.70700
Mg 43.99100 3.42300 47.47700
C  41.62900 5.93300 46.83200
C  41.53200 1.08200 47.16200
C  46.32600 1.04100 47.17300
C  46.51700 5.87200 47.10500
N  41.85600 3.54900 47.08200
C  41.08000 4.66900 46.91000
C  39.56500 4.25400 46.84500
C  39.58900 2.75100 47.24400
C  41.07700 2.42700 47.07600
C  39.08300 2.43100 48.66000
C  38.96900 4.35800 45.35600
C  37.83100 5.37200 45.22400
H  38.15500 6.59900 44.37100
N  43.96500 1.26200 47.30300
C  42.84300 0.48900 47.25800
C  43.23300 -0.94200 47.23900
C  44.65800 -0.95500 47.37400
C  45.02800 0.47800 47.18700
C  42.25900 -2.11300 47.30200
C  45.58000 -2.18800 47.62600
O  45.05000 -3.29600 47.75800
C  47.04800 -2.05000 47.87400
N  46.08300 3.44200 47.29900
C  46.80800 2.30000 47.11100
C  48.31900 2.55500 47.00400
C  48.39400 4.10000 47.12700
C  46.92100 4.53800 47.25100
C  49.19400 1.60400 47.94500
C  49.30800 4.87000 46.20500
C  50.66700 5.34900 46.82400
N  44.14000 5.54700 47.18200
C  45.20200 6.36000 47.13900
C  44.77600 7.72600 47.09300
C  43.35200 7.58200 46.90900
C  43.02500 6.24100 47.01600
C  45.53400 9.09900 47.11000
C  42.17400 8.35900 46.80400
O  42.01800 9.56500 46.78600
C  40.99100 7.31000 46.69500
C  40.05100 7.58100 47.84600
O  40.23900 7.25000 49.01100
O  38.97800 8.20500 47.41200
C  37.86400 8.40100 48.44300
H  40.72900 0.34200 47.14600
H  47.14600 0.32500 47.09000
H  47.23300 6.69500 47.05500
H  38.87900 4.75000 47.53100
H  39.07400 2.11600 46.52200
H  38.65200 3.31500 49.13000
H  39.97900 2.31200 49.26900
H  38.49900 1.52000 48.52500
H  38.54200 3.46100 44.91000
H  39.75000 4.56200 44.62300
H  37.59300 5.75900 46.21500
H  36.88300 4.88600 44.99400
H  42.58400 -2.84800 46.56600
H  41.28600 -1.76700 46.95200
H  42.22700 -2.62100 48.26600
H  47.50700 -1.77700 46.92400
H  47.44100 -2.98200 48.27900
H  47.19000 -1.30300 48.65500
H  48.66000 2.26100 46.01200
H  48.82200 4.18300 48.12600
H  48.58200 1.09100 48.68700
H  50.02600 2.16900 48.36600
H  49.72000 0.93400 47.26400
H  48.79200 5.66800 45.67100
H  49.59700 4.10600 45.48300
H  51.58600 4.92400 46.41900
H  50.58200 5.05400 47.87000
H  50.72800 6.43100 46.70900
H  46.55800 9.05200 46.73900
H  45.67400 9.47500 48.12300
H  44.90400 9.68800 46.44300
H  40.51200 7.35900 45.71700
H  36.99400 8.98500 48.14500
H  38.31200 8.85500 49.32700
H  37.51900 7.38200 48.61900

