158

Mg 9.94000 47.42300 26.76800
C  7.90100 47.47900 29.62100
C  12.33100 49.08900 28.41500
C  11.66300 47.17400 23.97000
C  6.96800 46.61900 24.86400
N  9.99500 48.27400 28.75200
C  9.21300 48.04700 29.82600
C  9.84600 48.44000 31.20400
C  11.05300 49.30100 30.61800
C  11.18900 48.81200 29.18500
C  10.84800 50.83400 30.80300
C  10.30900 47.17200 31.94800
C  9.86300 47.09100 33.38800
H  9.87300 45.81900 34.15300
N  11.77700 47.96900 26.31600
C  12.70300 48.67600 27.12100
C  13.95900 48.68800 26.45200
C  13.81600 47.94000 25.25000
C  12.34300 47.72600 25.13200
C  15.26700 49.12100 27.09100
C  14.81800 47.51900 24.17300
O  14.54600 47.02900 23.08700
C  16.24100 47.78200 24.45600
N  9.32700 47.17100 24.68700
C  10.29200 46.94100 23.77500
C  9.73100 46.44100 22.48900
C  8.17500 46.34200 22.64900
C  8.09600 46.72900 24.20100
C  10.07300 47.28600 21.20200
C  7.63000 44.98200 22.35200
C  6.11400 44.88800 21.90800
N  7.80900 47.14800 27.08300
C  6.76800 46.76500 26.27200
C  5.55900 46.60300 27.03700
C  6.00900 46.71100 28.42400
C  7.34800 47.17800 28.37500
C  4.21900 46.22200 26.47300
C  5.55100 46.64500 29.77800
O  4.42800 46.39600 30.23100
C  6.83200 47.04000 30.64100
C  7.14100 45.81600 31.48200
O  7.99700 44.99700 31.17100
O  6.36100 45.76000 32.62900
C  6.47800 44.64800 33.49900
H  13.03100 49.72200 28.96400
H  12.23700 47.09100 23.04400
H  6.06600 46.45200 24.27300
H  9.18700 49.02400 31.84600
H  12.00700 49.09500 31.10400
H  10.13700 51.20600 31.54100
H  10.66300 51.29700 29.83300
H  11.81300 51.18000 31.17200
H  11.39900 47.20800 31.92300
H  10.04900 46.27600 31.38500
H  8.80600 47.28500 33.20400
H  10.23200 47.97000 33.91600
H  15.69000 48.18000 27.44200
H  14.95500 49.77700 27.90400
H  16.03500 49.68400 26.56100
H  16.78900 47.66000 23.52200
H  16.56900 47.14900 25.28000
H  16.40300 48.81700 24.75700
H  10.16700 45.44600 22.40500
H  7.70400 47.14200 22.07700
H  10.81000 48.02300 21.52100
H  9.23400 47.82000 20.75400
H  10.59700 46.69700 20.44900
H  7.78800 44.43800 23.28300
H  8.31100 44.51200 21.64300
H  5.59500 44.47800 22.77500
H  5.98800 44.18800 21.08300
H  5.59000 45.80800 21.64700
H  3.63300 47.09400 26.18300
H  3.66500 45.77700 27.30000
H  4.36100 45.59900 25.59000
H  6.60800 47.76900 31.42000
H  7.43700 44.13300 33.43800
H  5.72100 43.87400 33.37500
H  6.45000 45.15400 34.46300
Mg -12.33300 17.25400 40.79700
C  -9.54900 15.21700 40.10800
C  -10.72000 19.83700 39.53900
C  -15.40900 18.75900 40.54600
C  -14.08100 14.17700 41.61300
N  -10.28600 17.53600 40.05500
C  -9.33700 16.55200 39.83500
C  -7.99100 17.19000 39.44300
C  -8.39300 18.70200 39.28700
C  -9.86200 18.76000 39.70700
C  -7.34800 19.58700 39.97700
C  -7.40600 16.56500 38.19100
C  -5.88100 16.16300 38.10700
H  -5.16000 16.60100 36.86700
N  -12.93900 19.14500 40.26100
C  -12.13000 20.08900 39.75100
C  -12.89700 21.25600 39.36700
C  -14.29600 20.93800 39.66300
C  -14.26400 19.54300 40.20200
C  -12.17300 22.52700 38.85500
C  -15.45500 21.92000 39.46800
O  -15.19500 23.04500 39.10700
C  -16.84200 21.56600 39.75500
N  -14.46400 16.53400 41.00400
C  -15.49200 17.39300 40.94200
C  -16.80500 16.82400 41.46700
C  -16.42000 15.39700 41.93200
C  -14.86500 15.36200 41.49500
C  -17.50600 17.74600 42.59900
C  -17.35600 14.25400 41.29600
C  -17.96900 13.42300 42.31700
N  -11.92700 15.11800 41.01400
C  -12.72400 14.03300 41.33700
C  -11.92300 12.82700 41.33700
C  -10.67400 13.21400 40.84600
C  -10.71100 14.59700 40.67800
C  -12.34200 11.43100 41.64300
C  -9.34500 12.74100 40.39400
O  -8.86500 11.60400 40.35100
C  -8.55400 14.04100 39.95800
C  -7.46000 14.32600 40.89600
O  -7.50600 14.65900 42.06300
O  -6.33400 13.75500 40.33700
C  -5.04800 13.83200 41.05100
H  -10.09700 20.62600 39.11300
H  -16.40800 19.16000 40.36000
H  -14.60500 13.27400 41.93100
H  -7.27500 16.98700 40.24000
H  -8.25500 19.07100 38.27100
H  -7.80700 20.57400 40.03600
H  -6.36300 19.51400 39.51600
H  -7.27800 19.14800 40.97200
H  -7.61500 17.28600 37.40100
H  -7.89600 15.61400 37.98200
H  -5.79400 15.09500 38.30500
H  -5.38700 16.64500 38.95000
H  -12.46300 22.59900 37.80700
H  -11.08400 22.52300 38.89600
H  -12.54300 23.39200 39.40500
H  -17.56000 22.35100 39.52100
H  -16.87400 21.28400 40.80800
H  -17.10600 20.74100 39.09300
H  -17.48600 16.76700 40.61700
H  -16.47200 15.28600 43.01500
H  -18.48300 18.11500 42.28700
H  -16.95800 18.61900 42.95300
H  -17.63900 17.25100 43.56100
H  -16.75800 13.56100 40.70300
H  -18.06300 14.73300 40.61900
H  -19.03200 13.30800 42.10600
H  -17.96700 13.91300 43.29100
H  -17.49000 12.44700 42.40600
H  -13.04300 11.36000 42.47500
H  -11.54200 10.71100 41.81800
H  -12.82800 11.14200 40.71100
H  -8.16900 13.79900 38.96800
H  -4.93400 12.92300 41.64200
H  -4.98800 14.72100 41.67800
H  -4.27000 13.82200 40.28800

