158

Mg 29.26100 57.73300 41.31800
C  26.70300 55.70700 40.26100
C  31.46400 55.53900 40.16900
C  31.72700 60.15800 41.67700
C  26.89300 60.28300 42.13900
N  29.06500 55.78600 40.42800
C  27.93900 55.14600 40.04600
C  28.23600 53.83400 39.30000
C  29.79000 53.66100 39.71600
C  30.19600 55.07500 40.10200
C  29.98600 52.70500 40.99100
C  28.01600 53.79100 37.83100
C  28.49000 55.00600 37.01600
H  27.75300 55.25000 35.59000
N  31.27600 57.77300 40.92800
C  32.02400 56.73000 40.46800
C  33.44500 57.09500 40.45100
C  33.55600 58.41900 40.91500
C  32.13900 58.85100 41.18400
C  34.49500 56.08200 40.06000
C  34.90900 59.18100 41.11100
O  35.99500 58.70400 40.79600
C  34.98700 60.52800 41.68600
N  29.33100 59.95500 41.81900
C  30.45400 60.66000 42.01700
C  30.09700 62.11700 42.33200
C  28.57500 62.12200 42.56000
C  28.25400 60.62700 42.31400
C  30.93000 62.67000 43.54000
C  27.76200 63.13000 41.68900
C  26.58100 63.74900 42.44100
N  27.22600 57.99000 41.27400
C  26.41300 59.03500 41.65300
C  25.05800 58.55400 41.57300
C  25.14100 57.32800 41.02000
C  26.45700 57.00000 40.80200
C  23.82700 59.29700 41.94000
C  24.30900 56.22100 40.51200
O  23.11200 56.11200 40.40900
C  25.28400 55.12900 40.00300
C  24.98000 53.89500 40.88400
O  25.23600 53.88100 42.09400
O  24.64300 52.76400 40.17600
C  24.62000 51.50900 40.97000
H  32.22000 54.76400 40.03000
H  32.53400 60.86700 41.87400
H  26.05200 60.97100 42.24300
H  27.65900 53.03200 39.76000
H  30.35400 53.17900 38.91800
H  29.15300 52.07000 41.29100
H  30.40700 53.29300 41.80700
H  30.81200 52.05500 40.70100
H  26.95600 53.64800 37.62100
H  28.64400 53.02400 37.37800
H  29.56400 54.89900 36.86300
H  28.23500 55.85400 37.65200
H  34.13400 55.52200 39.19700
H  34.64400 55.35400 40.85800
H  35.44400 56.51200 39.74100
H  34.55300 61.27200 41.01800
H  35.98600 60.83800 41.99300
H  34.37200 60.62400 42.58000
H  30.28100 62.66200 41.40600
H  28.34900 62.32600 43.60700
H  31.52300 61.92300 44.06900
H  30.46600 63.24600 44.34100
H  31.60000 63.38500 43.06400
H  27.44300 62.65200 40.76300
H  28.45600 63.93600 41.45200
H  25.64500 63.25500 42.18200
H  26.45200 64.82500 42.32300
H  26.69100 63.63000 43.51900
H  23.83600 60.16000 41.27500
H  24.01500 59.70900 42.93100
H  22.93900 58.66600 41.89900
H  25.12000 54.88900 38.95200
H  24.14100 51.63300 41.94100
H  25.62400 51.11000 41.11400
H  24.04800 50.75300 40.43100
Mg 17.13700 50.67700 26.30600
C  18.75600 49.50800 29.14900
C  14.58000 51.93300 28.18800
C  15.56100 51.81900 23.40100
C  19.69700 49.31600 24.24200
N  16.77800 50.74500 28.38200
C  17.60800 50.36200 29.42000
C  17.01000 50.79500 30.83800
C  15.52600 51.07900 30.42800
C  15.61000 51.29600 28.86200
C  14.47700 50.01100 30.92700
C  17.85200 51.82700 31.55500
C  18.20200 51.56200 33.04500
H  17.21900 50.84900 33.98300
N  15.33200 51.67600 25.85000
C  14.45900 52.20100 26.79100
C  13.47800 53.07700 26.10500
C  13.83500 53.10900 24.75500
C  14.94900 52.11100 24.65900
C  12.38200 53.76500 26.89600
C  13.35400 54.01800 23.53400
O  13.71200 53.87900 22.33900
C  12.38700 55.24600 23.87600
N  17.55100 50.57000 24.17900
C  16.74900 51.07700 23.16400
C  17.19700 50.53200 21.78200
C  18.68100 50.26400 22.07900
C  18.70400 50.06500 23.56200
C  16.29900 49.33200 21.29600
C  19.72900 51.25700 21.55900
C  19.87600 52.57600 22.30200
N  18.88200 49.61000 26.53200
C  19.85000 49.10400 25.63000
C  20.96900 48.50800 26.41100
C  20.52300 48.52800 27.76900
C  19.31500 49.26700 27.81800
C  22.20900 47.75000 25.84900
C  20.91500 48.15500 29.11000
O  21.86200 47.50500 29.60900
C  19.80100 48.84700 30.04500
C  19.16600 47.88300 31.01900
O  18.27900 47.04300 30.75200
O  19.78700 48.00300 32.27200
C  19.39100 47.16400 33.31800
H  13.92500 52.42500 28.90900
H  15.01600 51.96600 22.46600
H  20.50900 48.86300 23.67000
H  17.12400 49.94200 31.50700
H  15.24000 52.08300 30.73900
H  15.05300 49.25100 31.45500
H  13.79400 49.69700 30.13800
H  13.82500 50.51200 31.64200
H  17.22200 52.71600 31.52200
H  18.70800 51.96300 30.89400
H  18.35100 52.58800 33.38200
H  19.21700 51.18600 33.17600
H  11.51100 53.91100 26.25600
H  12.72400 54.76900 27.14900
H  12.02300 53.20800 27.76100
H  11.30800 55.08800 23.87200
H  12.59900 56.03100 23.14900
H  12.61600 55.82600 24.77000
H  17.13800 51.33200 21.04400
H  18.92800 49.32600 21.58200
H  16.87200 48.45600 20.99500
H  15.61500 49.71700 20.53900
H  15.63400 49.01400 22.09900
H  19.54600 51.59200 20.53800
H  20.68800 50.73900 21.57300
H  19.18000 52.54900 23.14100
H  19.65200 53.39700 21.62100
H  20.88000 52.75200 22.68700
H  21.95900 47.48700 24.82100
H  22.45300 46.77800 26.27700
H  23.02800 48.45200 26.01000
H  20.41900 49.54000 30.61500
H  19.49900 47.70600 34.25800
H  19.98800 46.27100 33.13500
H  18.33000 46.95000 33.44600

