158

Mg 47.23000 16.20800 28.67000
C  45.25000 16.30200 31.50700
C  49.59200 18.01700 30.40300
C  48.81900 16.71000 25.77600
C  44.55700 14.78300 26.91300
N  47.31900 17.16400 30.59800
C  46.51600 16.86200 31.65500
C  47.06300 17.28700 33.00400
C  48.32500 18.11700 32.49900
C  48.39900 17.83800 31.04500
C  48.21500 19.64200 32.94700
C  47.50500 16.07000 33.91200
C  47.29400 16.16800 35.42900
H  46.83300 17.56200 36.09000
N  49.02000 17.04700 28.16600
C  49.90000 17.71500 29.04400
C  51.15900 17.97500 28.39300
C  50.86000 17.83000 27.02300
C  49.52800 17.22400 26.92200
C  52.36600 18.44200 29.04300
C  51.73000 18.34500 25.81800
O  51.43900 18.10000 24.66100
C  53.02100 19.16000 26.00500
N  46.66800 15.91100 26.53100
C  47.58100 16.10500 25.53400
C  47.14400 15.49000 24.26100
C  45.74300 14.81400 24.64600
C  45.65800 15.14000 26.13200
C  47.03800 16.51400 23.03000
C  45.70200 13.22700 24.53800
C  45.00500 12.69000 23.28200
N  45.35200 15.58000 29.09200
C  44.36200 14.97200 28.30100
C  43.26200 14.63500 29.10000
C  43.52100 15.16800 30.36500
C  44.78500 15.77500 30.30400
C  42.00400 13.91700 28.68200
C  42.94700 15.26400 31.70600
O  41.96700 14.88200 32.23600
C  44.13400 16.03400 32.51900
C  43.45700 17.11200 33.33500
O  43.39300 18.29400 33.06100
O  42.88100 16.60500 34.44300
C  42.30700 17.53000 35.39000
H  50.31600 18.57000 31.00600
H  49.35100 16.80600 24.82700
H  43.72400 14.29400 26.40300
H  46.22600 17.72500 33.54800
H  49.25900 17.73500 32.91200
H  47.30200 19.86000 33.50200
H  48.50600 20.28600 32.11700
H  48.95600 19.66500 33.74600
H  48.56500 15.87700 33.74800
H  46.96300 15.20000 33.54000
H  48.16200 15.92100 36.04000
H  46.59900 15.38100 35.72200
H  53.16100 17.84100 28.60000
H  52.28500 18.13800 30.08600
H  52.60500 19.50300 28.96800
H  52.93200 20.15200 26.44800
H  53.46600 19.23200 25.01300
H  53.68600 18.47400 26.52900
H  47.90500 14.75300 24.00400
H  44.81000 15.18400 24.22300
H  46.03900 16.91800 22.86000
H  47.36400 16.09800 22.07700
H  47.52500 17.44200 23.32900
H  45.19200 12.78200 25.39100
H  46.69400 12.77700 24.55900
H  44.00600 12.37400 23.58300
H  45.55400 11.81300 22.93900
H  44.93000 13.41700 22.47400
H  41.24700 14.51200 29.19200
H  42.03900 12.86000 28.94700
H  41.83600 13.96900 27.60700
H  44.50100 15.32600 33.26300
H  41.56400 18.10800 34.84100
H  43.10500 18.18900 35.73100
H  41.83000 16.97300 36.19700
Mg 26.99300 50.10500 25.47400
C  25.12200 51.38600 28.07300
C  29.45100 49.16900 27.71400
C  28.94600 49.29200 22.87400
C  24.71300 51.64400 23.22600
N  27.28000 50.36900 27.70000
C  26.31100 50.84400 28.54900
C  26.78900 50.54600 30.06900
C  28.21600 49.96300 29.82400
C  28.31100 49.75700 28.32200
C  29.37800 50.86100 30.38600
C  25.82900 49.53500 30.82600
C  25.23500 49.87500 32.17400
H  25.96000 50.74600 33.28100
N  28.88700 49.29200 25.28000
C  29.73600 48.91900 26.33100
C  30.93800 48.42100 25.79100
C  30.87800 48.62600 24.37300
C  29.47900 49.16200 24.12600
C  32.10800 47.87800 26.72900
C  31.95300 48.46500 23.31900
O  31.75600 48.68400 22.11600
C  33.26300 47.88700 23.76000
N  26.79900 50.41000 23.42900
C  27.73200 49.92500 22.60800
C  27.21700 50.01300 21.12600
C  25.87900 50.68700 21.15100
C  25.76200 50.94500 22.65600
C  28.27800 50.68000 20.14200
C  24.59000 49.82100 20.71200
C  23.95100 50.29800 19.39800
N  25.21700 51.28600 25.57400
C  24.37000 51.79500 24.61000
C  23.32600 52.43600 25.22500
C  23.54900 52.26600 26.58200
C  24.74200 51.55500 26.76400
C  22.04700 52.89200 24.48400
C  22.98500 52.57200 27.93200
O  22.00100 53.19800 28.28700
C  23.93200 51.93700 28.87700
C  24.17400 52.96600 29.91100
O  25.06600 53.82600 29.94800
O  23.21900 52.82800 30.91100
C  23.29500 53.75000 32.01100
H  30.10900 48.77200 28.49000
H  29.39400 48.92500 21.94800
H  24.08100 52.19000 22.52300
H  26.77500 51.47500 30.63900
H  28.35100 48.96600 30.24500
H  29.82400 50.25700 31.17600
H  29.01300 51.81300 30.76900
H  30.19100 51.14800 29.71900
H  26.28000 48.56000 30.64400
H  25.00700 49.66600 30.12200
H  25.03800 48.91700 32.65500
H  24.35700 50.51300 32.07100
H  32.86200 48.66200 26.65500
H  32.47600 46.94200 26.30800
H  31.81700 47.89100 27.77900
H  33.68200 48.71500 24.33100
H  33.85900 47.66800 22.87400
H  33.10900 46.94900 24.29400
H  27.15700 48.95800 20.86200
H  25.92000 51.71300 20.78500
H  27.88100 51.57900 19.67000
H  28.47000 50.01100 19.30300
H  29.24600 50.84700 20.61500
H  23.89700 49.65200 21.53600
H  24.98300 48.83900 20.44800
H  24.45400 51.21300 19.08600
H  22.86700 50.30000 19.51000
H  24.21800 49.65100 18.56200
H  21.36900 53.04900 25.32400
H  21.53400 52.24300 23.77500
H  22.43000 53.79600 24.01000
H  23.34300 51.17400 29.38600
H  24.15400 53.36000 32.55700
H  22.44300 53.66000 32.68500
H  23.49900 54.75600 31.64400

