158

Mg 26.39400 50.11900 26.71100
C  24.36500 51.38700 29.29100
C  28.58500 48.98700 29.13500
C  28.62900 49.22600 24.21900
C  24.38900 51.55100 24.39100
N  26.40800 50.26800 29.00200
C  25.34400 50.60600 29.81300
C  25.57100 50.06400 31.23200
C  27.04200 49.50800 31.17300
C  27.38300 49.58400 29.69300
C  28.06400 50.22800 32.02900
C  24.54800 49.09600 31.68000
C  24.02900 49.29500 33.10900
H  24.94500 49.01000 34.28000
N  28.33100 49.33800 26.68600
C  29.05000 48.91900 27.77600
C  30.35800 48.44700 27.35700
C  30.39000 48.42300 25.94900
C  29.06900 48.97400 25.57900
C  31.45500 48.19100 28.32000
C  31.50700 48.00300 25.00600
O  31.49100 48.18400 23.78900
C  32.68100 47.35900 25.54700
N  26.53200 50.35400 24.61800
C  27.48100 49.92400 23.80100
C  27.12700 50.17300 22.31500
C  25.72600 50.74500 22.41200
C  25.49200 50.86100 23.91000
C  28.19100 51.04900 21.61400
C  24.58500 49.97700 21.58600
C  23.94500 50.79500 20.48400
N  24.79500 51.22400 26.76500
C  24.11200 51.83000 25.75400
C  23.04700 52.64400 26.29100
C  23.09200 52.43300 27.66300
C  24.17100 51.60200 27.93000
C  22.17000 53.43100 25.36500
C  22.44200 52.75100 28.93100
O  21.41000 53.38700 29.17600
C  23.26800 52.06200 30.05300
C  23.57300 53.16800 31.03700
O  24.60200 53.79100 31.05200
O  22.56500 53.23500 31.92300
C  22.91800 54.13500 33.04000
H  29.24900 48.50300 29.85400
H  29.22200 48.97100 23.33900
H  23.65900 52.01100 23.72200
H  25.51200 50.97400 31.82900
H  26.99400 48.48800 31.55500
H  28.85600 50.75200 31.49300
H  28.61300 49.48200 32.60400
H  27.55800 50.85900 32.76000
H  25.01300 48.11000 31.69300
H  23.63100 49.17800 31.09700
H  23.18600 48.61900 33.25200
H  23.74800 50.34800 33.14000
H  31.62300 47.11800 28.41200
H  31.18600 48.40900 29.35400
H  32.27300 48.81800 27.96600
H  33.41900 48.13800 25.73800
H  33.02100 46.65600 24.78600
H  32.32800 46.70400 26.34400
H  27.00000 49.26400 21.72700
H  25.80200 51.80600 22.17400
H  28.97100 51.16400 22.36700
H  27.84600 52.02400 21.26900
H  28.55600 50.42500 20.79800
H  23.85700 49.71200 22.35200
H  24.98600 49.11300 21.05700
H  22.91900 50.82700 20.85100
H  24.11200 50.34100 19.50700
H  24.35300 51.80500 20.44500
H  21.51400 52.74900 24.82500
H  22.66900 54.09200 24.65600
H  21.58500 54.00800 26.08200
H  22.65100 51.34800 30.59800
H  22.86600 55.16400 32.68500
H  23.92800 54.00100 33.42800
H  22.25800 53.82000 33.84900
Mg 0.84600 42.38000 25.21700
C  2.08900 43.05000 28.47300
C  -2.13100 41.38700 26.68800
C  -0.12500 41.65000 22.20500
C  4.20200 42.91700 24.08300
N  0.11200 42.23900 27.26500
C  0.72300 42.69800 28.45200
C  -0.11400 42.42000 29.66400
C  -1.49000 41.84500 29.06400
C  -1.16400 41.85700 27.55900
C  -1.92800 40.41400 29.53800
C  -0.25600 43.67800 30.48000
C  0.25200 43.70600 31.92400
H  -0.70400 43.10200 32.95600
N  -0.88200 41.66200 24.51200
C  -1.98100 41.23400 25.28300
C  -2.92900 40.66000 24.36000
C  -2.39100 40.85300 23.01600
C  -1.09900 41.42200 23.21500
C  -4.23400 40.20300 24.76900
C  -3.01700 40.55700 21.55700
O  -2.46700 40.90100 20.51400
C  -4.29000 39.81200 21.45600
N  1.89200 42.38700 23.51000
C  1.26100 41.93000 22.35400
C  2.20100 41.75700 21.12400
C  3.57400 42.19700 21.73400
C  3.20400 42.57400 23.17300
C  2.04400 40.20500 20.63600
C  4.29200 43.30100 21.06600
C  3.69600 44.74400 21.28900
N  2.77800 43.02900 26.05800
C  4.01700 43.16700 25.48900
C  4.99800 43.49200 26.45200
C  4.24600 43.41600 27.60000
C  2.94200 43.15800 27.36300
C  6.47600 43.58100 26.26600
C  4.40000 43.41700 28.96900
O  5.46000 43.53400 29.54300
C  3.00200 43.16000 29.70000
C  3.18800 41.92200 30.51400
O  2.84900 40.75200 30.26500
O  3.88600 42.20700 31.62800
C  3.87800 41.13300 32.57900
H  -3.04900 41.00200 27.13800
H  -0.39300 41.36300 21.18600
H  5.15400 43.08600 23.57600
H  0.42100 41.70200 30.28500
H  -2.34500 42.51500 29.15800
H  -2.20700 39.75500 28.71500
H  -2.77700 40.45500 30.22000
H  -1.16400 40.06400 30.23200
H  -1.30600 43.95500 30.57200
H  0.39400 44.44400 30.05800
H  0.55600 44.71200 32.21400
H  1.17000 43.15000 32.11700
H  -4.31200 40.24100 25.85500
H  -4.26600 39.13000 24.57900
H  -5.02000 40.81800 24.33000
H  -4.27600 39.52500 20.40400
H  -5.08000 40.51700 21.71500
H  -4.25000 38.94700 22.11800
H  1.89400 42.52800 20.41700
H  4.07200 41.22900 21.68500
H  2.97600 39.63900 20.66700
H  1.83300 40.16000 19.56800
H  1.31500 39.74500 21.30400
H  4.21900 43.16600 19.98700
H  5.36100 43.39300 21.25900
H  3.24700 45.07800 20.35400
H  4.51300 45.37900 21.63100
H  2.94500 44.69300 22.07800
H  6.66600 44.10000 25.32600
H  6.83100 42.57900 26.02400
H  6.92300 44.06500 27.13400
H  2.86700 44.04100 30.32700
H  4.46200 41.50500 33.42100
H  4.38600 40.31400 32.07100
H  2.83500 40.99000 32.86500

