158

Mg 40.81300 10.30200 30.42700
C  42.71300 11.65600 33.21800
C  38.60300 9.09500 32.71500
C  39.10100 9.01500 27.93900
C  43.37800 11.16700 28.37700
N  40.74800 10.32300 32.76100
C  41.53100 11.06400 33.67700
C  40.87800 10.97600 35.03800
C  39.58700 10.07700 34.89100
C  39.67500 9.74600 33.35600
C  39.46300 8.73500 35.64800
C  40.63500 12.34200 35.67200
C  39.66800 12.45000 36.91000
H  39.85800 13.44500 37.98800
N  39.14300 9.27500 30.32900
C  38.34300 8.84700 31.37100
C  37.16400 8.17800 30.87000
C  37.18600 8.21500 29.43600
C  38.52400 8.83500 29.17900
C  36.14200 7.56700 31.81300
C  36.16200 7.70600 28.36400
O  36.30100 7.90000 27.16500
C  34.85500 7.03800 28.80500
N  41.25500 9.97200 28.45900
C  40.33000 9.55000 27.52700
C  40.81200 9.55800 26.09900
C  42.27500 10.28100 26.31300
C  42.34000 10.42700 27.86900
C  40.79200 8.20300 25.32400
C  42.32700 11.56400 25.54100
C  41.58000 12.82800 25.95800
N  42.62600 11.23400 30.66200
C  43.62300 11.46800 29.72900
C  44.69200 12.19900 30.30800
C  44.36000 12.29900 31.64200
C  43.11800 11.63300 31.81600
C  45.98000 12.64700 29.67400
C  44.84300 12.78500 32.85600
O  45.92100 13.29100 33.08400
C  43.76600 12.49600 33.99700
C  44.39900 11.71400 35.02000
O  44.77600 10.59200 34.79100
O  44.49100 12.41100 36.22800
C  44.92000 11.55000 37.35700
H  37.77700 8.78000 33.35700
H  38.59500 8.59000 27.06900
H  44.10000 11.47900 27.61900
H  41.54800 10.48900 35.74700
H  38.64500 10.61600 34.99500
H  39.15100 7.91000 35.00900
H  38.57600 8.79000 36.27900
H  40.29100 8.38800 36.26600
H  40.35200 13.03500 34.87900
H  41.53900 12.78100 36.09400
H  39.49100 11.47000 37.35200
H  38.77000 12.66200 36.33000
H  35.84900 8.20900 32.64400
H  36.62300 6.80000 32.42000
H  35.28700 7.16300 31.27100
H  34.26900 7.76000 29.37400
H  35.08900 6.16200 29.40900
H  34.26100 6.80800 27.92000
H  40.22100 10.27000 25.52200
H  43.10700 9.66500 25.97200
H  41.69200 8.00100 24.74300
H  39.86400 8.22200 24.75300
H  40.70800 7.37000 26.02100
H  41.90100 11.36400 24.55700
H  43.40500 11.62200 25.39200
H  41.09400 12.78300 26.93300
H  40.76500 12.99800 25.25600
H  42.17700 13.73400 25.85300
H  46.04200 12.11300 28.72600
H  46.72300 12.33500 30.40700
H  45.85600 13.72000 29.52200
H  43.35600 13.44300 34.34800
H  44.43400 11.85700 38.28300
H  45.99600 11.40000 37.45500
H  44.59700 10.51900 37.21000
Mg 49.75000 46.57000 42.40400
C  46.42400 46.98900 41.76700
C  49.39800 43.37100 40.66000
C  53.13500 46.14200 42.39500
C  50.15200 49.80300 43.33600
N  48.13800 45.36900 41.16200
C  46.88000 45.84000 41.07800
C  46.09900 45.01300 40.14100
C  46.98000 43.72400 39.86700
C  48.26900 44.17700 40.53600
C  46.32000 42.49400 40.48900
C  45.69800 45.71900 38.83500
C  44.11300 45.73700 38.54800
H  43.71000 45.66300 37.08300
N  51.03900 45.03800 41.77100
C  50.64800 43.76000 41.16800
C  51.77000 42.84600 41.34400
C  52.93300 43.66200 41.69600
C  52.39400 45.09000 41.95900
C  51.66600 41.33500 41.06300
C  54.35100 43.07000 41.76700
O  54.57800 41.83200 41.67300
C  55.51100 43.96000 41.97200
N  51.44300 47.77800 42.80000
C  52.74500 47.39600 42.77700
C  53.69700 48.57100 43.11700
C  52.66200 49.72300 43.52800
C  51.30400 49.06800 43.24800
C  54.78500 48.18600 44.23900
C  52.84300 51.03700 42.72800
C  52.72300 52.33900 43.61800
N  48.58200 48.11200 42.63300
C  48.86500 49.41600 43.05400
C  47.58200 50.10200 43.17100
C  46.67000 49.09300 42.79200
C  47.29400 47.96900 42.37000
C  47.25600 51.44600 43.75100
C  45.29000 48.96900 42.62300
O  44.35300 49.67500 42.92400
C  45.07800 47.62200 41.93100
C  44.14100 46.70400 42.76400
O  44.27400 46.32700 43.90100
O  43.15300 46.24600 41.95800
C  42.18200 45.36000 42.61000
H  49.27900 42.38300 40.21000
H  54.16600 45.92800 42.68400
H  50.28500 50.86300 43.56100
H  45.16300 44.73200 40.62300
H  47.16800 43.59400 38.80100
H  45.63800 42.63100 41.32800
H  47.13200 41.93600 40.95400
H  45.84800 41.92500 39.68800
H  46.37900 45.38500 38.05200
H  46.00600 46.74300 39.04900
H  43.73300 46.67500 38.95500
H  43.54200 45.06100 39.18500
H  50.64600 40.95100 41.10500
H  52.37600 40.76500 41.66200
H  51.94900 41.29200 40.01100
H  55.52100 44.28600 43.01200
H  55.55100 44.75300 41.22500
H  56.47700 43.46000 41.89000
H  54.20500 48.78300 42.17600
H  52.63800 49.84000 44.61100
H  54.99500 47.11600 44.25200
H  54.56100 48.58500 45.22800
H  55.70700 48.76500 44.18300
H  52.13100 51.13100 41.90800
H  53.86500 51.10900 42.35600
H  53.51800 52.31600 44.36300
H  51.81800 52.54300 44.19100
H  52.83200 53.13100 42.87700
H  46.70600 52.13600 43.11200
H  48.15500 51.86300 44.20600
H  46.54400 51.24300 44.55100
H  44.75300 47.65200 40.89100
H  41.30000 45.40500 41.97200
H  42.00800 45.78500 43.59900
H  42.61800 44.37200 42.75600

