158

Mg -2.41300 17.05200 26.07700
C  -2.90200 14.76500 28.83900
C  -2.90300 19.57500 28.26800
C  -2.48700 18.92200 23.41400
C  -2.65600 14.06200 23.98900
N  -2.97600 17.14700 28.30600
C  -2.97300 16.15300 29.25200
C  -3.13900 16.73600 30.66600
C  -3.18000 18.27100 30.45000
C  -3.01800 18.38100 28.89700
C  -4.55400 18.87800 30.87600
C  -1.96800 16.45800 31.68300
C  -1.81000 17.24000 33.01100
H  -2.00100 16.49500 34.26000
N  -2.55900 18.97900 25.89400
C  -2.67600 19.88500 26.87800
C  -2.53800 21.22400 26.29100
C  -2.44800 21.06200 24.92800
C  -2.45300 19.59700 24.68300
C  -2.52600 22.51500 27.16200
C  -2.21500 22.09600 23.75000
O  -2.19900 21.93200 22.56400
C  -2.08400 23.47300 24.21800
N  -2.44000 16.58100 23.97200
C  -2.38900 17.55300 23.07500
C  -2.32500 16.95900 21.67800
C  -2.20900 15.47700 21.92400
C  -2.42700 15.33900 23.42500
C  -3.57900 17.35400 20.79600
C  -0.89800 14.84400 21.38300
C  0.33700 14.98900 22.26200
N  -2.73700 14.80100 26.22800
C  -2.87400 13.80300 25.29600
C  -2.99600 12.52000 26.04200
C  -3.02400 12.80900 27.40100
C  -2.82300 14.20700 27.48900
C  -2.98900 11.10600 25.39800
C  -3.12900 12.25000 28.72600
O  -3.19700 11.10500 29.10600
C  -3.03800 13.51100 29.72800
C  -1.86900 13.26900 30.61900
O  -0.76700 13.77200 30.37700
O  -2.28800 12.49800 31.65100
C  -1.33700 12.11500 32.68700
H  -3.05500 20.46400 28.88500
H  -2.48200 19.48100 22.47600
H  -2.77200 13.19400 23.33700
H  -4.12500 16.47600 31.05000
H  -2.32200 18.80700 30.85400
H  -4.23300 19.71900 31.49000
H  -5.22300 18.26200 31.47700
H  -5.20300 19.28000 30.09800
H  -1.05200 16.64000 31.12200
H  -2.08300 15.41400 31.97600
H  -2.52400 18.06200 32.96500
H  -0.82700 17.69800 32.90600
H  -2.41700 22.26200 28.21700
H  -3.42300 23.08000 26.91200
H  -1.62000 23.08800 26.96400
H  -2.89000 23.75400 24.89600
H  -2.16300 24.13100 23.35200
H  -1.11600 23.54300 24.71300
H  -1.44400 17.33900 21.16200
H  -3.00100 14.87800 21.47400
H  -4.16900 18.20800 21.12900
H  -4.40400 16.64900 20.89800
H  -3.16900 17.35400 19.78600
H  -0.59400 15.31600 20.44900
H  -1.10400 13.78200 21.25100
H  0.00200 15.30700 23.24900
H  1.02700 15.74500 21.88700
H  0.84300 14.03300 22.39000
H  -4.01800 10.88500 25.11500
H  -2.63600 10.40100 26.15000
H  -2.21300 11.08100 24.63300
H  -3.94000 13.54300 30.33800
H  -1.66700 11.24500 33.25300
H  -1.11900 12.92000 33.38900
H  -0.35200 11.80100 32.34100
Mg -4.93900 25.15000 25.82600
C  -3.17300 26.68700 28.53900
C  -6.15900 22.95200 28.17700
C  -6.58500 23.67400 23.34900
C  -3.43600 27.40600 23.68600
N  -4.85700 25.00900 28.14400
C  -4.04400 25.72000 28.98200
C  -4.40400 25.39400 30.41600
C  -5.13500 24.00600 30.30300
C  -5.31800 23.93600 28.74900
C  -4.44600 22.81700 31.00600
C  -5.12900 26.50100 31.15200
C  -4.74000 26.80900 32.68500
H  -4.47700 25.47400 33.39400
N  -6.15300 23.47000 25.74900
C  -6.51800 22.74800 26.83200
C  -7.47100 21.74900 26.36200
C  -7.68000 21.95200 24.93700
C  -6.81700 23.07100 24.61300
C  -8.08100 20.64300 27.24200
C  -8.48600 21.20500 23.93700
O  -8.38600 21.39400 22.72200
C  -9.24100 20.02600 24.33800
N  -4.75500 25.34200 23.78400
C  -5.63800 24.66000 22.98400
C  -5.70800 25.26200 21.52700
C  -4.71000 26.45100 21.61600
C  -4.27200 26.40200 23.11000
C  -5.37500 24.28000 20.37800
C  -5.25200 27.89200 21.37400
C  -6.20600 28.20500 20.12900
N  -3.52100 26.68400 26.02900
C  -3.04200 27.49500 25.00300
C  -2.08400 28.42400 25.63600
C  -2.14300 28.12400 26.95900
C  -3.01700 27.11100 27.22200
C  -1.28200 29.48800 24.94600
C  -1.63200 28.50700 28.30300
O  -0.88900 29.43200 28.59800
C  -2.30000 27.58300 29.34100
C  -1.27000 26.79900 30.10000
O  -0.35700 26.15600 29.60000
O  -1.37300 26.86200 31.45700
C  -0.44100 26.08700 32.27700
H  -6.64500 22.32300 28.92500
H  -7.23200 23.24400 22.58100
H  -2.93900 28.11300 23.01800
H  -3.44800 25.34300 30.93600
H  -6.10800 24.01800 30.79300
H  -5.13500 22.32600 31.69300
H  -3.48700 22.97500 31.50000
H  -4.23300 22.02200 30.29100
H  -6.19100 26.26600 31.08700
H  -4.94400 27.49200 30.73700
H  -5.61800 27.27900 33.12900
H  -3.89900 27.48500 32.83900
H  -9.17000 20.65500 27.20300
H  -7.91900 20.78900 28.31000
H  -7.69600 19.68300 26.89800
H  -8.47300 19.36500 24.73900
H  -9.61000 19.50000 23.45700
H  -9.96700 20.29700 25.10400
H  -6.72500 25.61200 21.34700
H  -3.86600 26.15700 20.99100
H  -4.62700 23.62200 20.82000
H  -4.99900 24.70100 19.44500
H  -6.16500 23.57800 20.11400
H  -4.38100 28.52200 21.19800
H  -5.81700 28.41500 22.14600
H  -6.39700 27.29000 19.56800
H  -5.67800 28.86900 19.44500
H  -7.14900 28.67200 20.41300
H  -1.89700 29.92700 24.16000
H  -0.45000 29.03800 24.40600
H  -0.89900 30.31800 25.54000
H  -2.82100 28.23900 30.03700
H  0.48300 26.66400 32.33100
H  -0.14700 25.15000 31.80500
H  -0.75000 25.90000 33.30500

