158

Mg 39.73100 9.47100 28.68100
C  41.86600 10.24000 31.37300
C  37.76300 7.68300 30.95400
C  37.87400 8.59200 26.02400
C  42.16300 10.55600 26.54600
N  39.84900 8.91600 30.96700
C  40.76300 9.49500 31.82000
C  40.25500 9.20700 33.20900
C  39.28400 7.98800 32.96300
C  38.85400 8.24700 31.56300
C  40.02500 6.64700 33.13400
C  39.57400 10.50500 33.79600
C  39.47400 10.72800 35.25200
H  40.03900 11.99300 35.83900
N  38.03700 8.40800 28.48800
C  37.41800 7.69500 29.50600
C  36.35600 6.94800 28.91800
C  36.28900 7.26000 27.56900
C  37.44000 8.07000 27.30400
C  35.43700 6.04400 29.76600
C  35.29800 6.87600 26.50700
O  35.48000 7.10100 25.28100
C  34.00800 6.06000 26.87400
N  39.89900 9.62200 26.60700
C  39.02500 9.19800 25.67700
C  39.44800 9.36500 24.21400
C  40.75700 10.29300 24.48000
C  40.98800 10.11300 25.95800
C  39.68200 8.13600 23.36300
C  40.55700 11.72000 24.05000
C  39.15000 12.42400 24.22500
N  41.63300 10.23000 28.88500
C  42.54400 10.65000 27.92800
C  43.67600 11.38900 28.52500
C  43.34400 11.28400 29.90100
C  42.20300 10.44700 30.03400
C  44.87500 12.00100 27.87700
C  43.82800 11.71500 31.19700
O  44.77800 12.48800 31.43800
C  42.90800 11.01000 32.19100
C  43.63400 10.23000 33.28900
O  44.70900 9.67600 33.20500
O  42.92300 10.28300 34.46400
C  43.46800 9.67000 35.73500
H  37.10200 7.11400 31.61100
H  37.23800 8.34800 25.17000
H  42.89000 11.05200 25.90000
H  41.04400 8.98300 33.92700
H  38.41600 7.99200 33.62200
H  40.91600 6.69300 33.76000
H  40.29700 6.27000 32.14800
H  39.35100 5.89100 33.53700
H  38.57400 10.59200 33.37200
H  40.09900 11.24000 33.18700
H  39.86500 9.93900 35.89400
H  38.39200 10.82200 35.34700
H  35.89800 5.65400 30.67400
H  35.10700 5.09300 29.34600
H  34.54400 6.60300 30.04600
H  34.31100 5.11600 27.32700
H  33.36200 5.92600 26.00700
H  33.55900 6.70700 27.62700
H  38.72300 9.93700 23.63500
H  41.59000 9.92700 23.88000
H  39.35100 7.22200 23.85500
H  40.69100 8.03700 22.96200
H  38.96100 8.26700 22.55500
H  40.62100 11.77300 22.96400
H  41.29500 12.34500 24.55100
H  38.76700 12.51800 23.20900
H  39.20000 13.45800 24.56500
H  38.38300 11.89100 24.78800
H  44.76400 12.25900 26.82400
H  45.66100 11.25500 27.99600
H  45.19700 12.88200 28.43300
H  42.37100 11.72200 32.81800
H  44.19300 8.88000 35.54100
H  42.64700 9.14100 36.21700
H  43.77500 10.51200 36.35500
Mg -11.06800 16.87400 41.27700
C  -7.58600 16.17600 41.86900
C  -10.14200 20.18000 41.10800
C  -14.16400 17.58300 40.27700
C  -11.66100 13.43900 41.06900
N  -8.99100 17.97000 41.28800
C  -7.77000 17.48800 41.48500
C  -6.74100 18.54600 41.34400
C  -7.63300 19.83600 41.67200
C  -9.03000 19.33500 41.30400
C  -7.52400 20.31000 43.13000
C  -6.25100 18.54000 39.82900
C  -5.00900 17.77300 39.47700
H  -5.05800 16.36900 38.82100
N  -12.05100 18.64200 40.73100
C  -11.43600 19.86800 40.63100
C  -12.44000 20.80300 40.07800
C  -13.66400 20.08300 39.93000
C  -13.36500 18.69500 40.34200
C  -12.03600 22.21400 39.75900
C  -14.92700 20.71700 39.33100
O  -15.01000 21.89900 39.07500
C  -16.23900 19.96500 39.18300
N  -12.64900 15.69800 40.77600
C  -13.84800 16.24100 40.54800
C  -14.98300 15.17700 40.73300
C  -14.21000 13.77700 40.73800
C  -12.70800 14.34600 40.84500
C  -15.75600 15.45300 42.01300
C  -14.41700 12.89400 39.46200
C  -14.76600 11.42700 39.66000
N  -9.86400 15.09600 41.55600
C  -10.27700 13.77000 41.46700
C  -9.14300 12.94600 41.74800
C  -8.10000 13.85500 42.07000
C  -8.56900 15.14400 41.78100
C  -9.17300 11.46100 41.85700
C  -6.78600 13.97200 42.50500
O  -6.03400 13.05100 42.79100
C  -6.38600 15.55900 42.51400
C  -6.34300 16.01500 43.96400
O  -7.24800 16.59600 44.52800
O  -5.15400 15.72800 44.54600
C  -4.94200 16.18400 45.90400
H  -9.94100 21.25000 41.19000
H  -15.22100 17.63500 40.00700
H  -11.81900 12.36100 41.00500
H  -5.83200 18.41700 41.93200
H  -7.61800 20.59500 40.89000
H  -6.69500 19.83000 43.64900
H  -8.43300 20.27500 43.73000
H  -7.32700 21.36900 42.96700
H  -6.08300 19.52600 39.39400
H  -6.95400 17.99300 39.20100
H  -4.51800 17.66700 40.44500
H  -4.31900 18.38700 38.89900
H  -11.56600 22.20300 38.77500
H  -11.39400 22.65400 40.52100
H  -12.82800 22.96300 39.75600
H  -16.11700 19.01500 38.66400
H  -16.72300 20.64300 38.48000
H  -16.67500 19.79300 40.16700
H  -15.62200 15.30300 39.85800
H  -14.44200 13.28800 41.68400
H  -16.29800 14.59200 42.40500
H  -16.60800 16.05600 41.70100
H  -15.22100 15.97400 42.80700
H  -13.49200 13.01900 38.89900
H  -15.22800 13.27800 38.84400
H  -13.93000 10.78200 39.39100
H  -15.59100 11.11500 39.01900
H  -15.13900 11.11800 40.63700
H  -8.37100 11.25600 42.56500
H  -9.00500 10.85500 40.96600
H  -10.11100 11.24900 42.37100
H  -5.37000 15.78600 42.19200
H  -4.43000 17.14600 45.94600
H  -4.21100 15.48100 46.30100
H  -5.82000 16.23000 46.54800

