158

Mg 49.20100 46.60900 42.90000
C  46.06100 47.35100 41.69000
C  49.20400 43.67200 41.00700
C  52.69500 46.28800 43.18300
C  49.60800 50.06900 44.01800
N  47.84700 45.66800 41.50400
C  46.60100 46.17100 41.14500
C  45.90600 45.22300 40.12700
C  46.84400 43.93100 40.10100
C  48.02300 44.42400 40.96600
C  46.31700 42.56400 40.56600
C  45.93200 45.90300 38.69300
C  44.54700 46.05500 37.98500
H  44.27100 45.58200 36.56000
N  50.68300 45.12100 42.39600
C  50.42200 43.96100 41.66400
C  51.62600 43.23000 41.57000
C  52.68600 43.87200 42.23200
C  52.05200 45.16400 42.61900
C  51.59500 41.90100 41.03100
C  54.02900 43.34900 42.43500
O  54.42000 42.23400 42.09500
C  55.09100 44.14900 42.90800
N  50.86300 47.96400 43.54300
C  52.22800 47.58800 43.58000
C  53.05000 48.71200 44.08100
C  52.07800 49.82300 44.46400
C  50.75900 49.22900 44.00900
C  53.99800 48.27900 45.27400
C  52.31700 51.27400 43.68700
C  52.34500 52.52200 44.54500
N  47.99600 48.33100 43.03900
C  48.32100 49.66500 43.44100
C  47.11400 50.54400 43.19000
C  46.19500 49.59100 42.66400
C  46.83400 48.36200 42.41800
C  47.10900 52.09600 43.37500
C  44.86900 49.48600 42.17800
O  43.94000 50.30000 42.04900
C  44.80300 48.10400 41.42800
C  43.64300 47.32900 42.00300
O  43.36600 47.24800 43.21000
O  42.95300 46.64800 41.00800
C  41.98300 45.68800 41.47900
H  49.17600 42.80800 40.33900
H  53.78500 46.29000 43.25600
H  49.75500 51.00900 44.55400
H  44.96700 44.97000 40.61800
H  47.25500 43.74600 39.10900
H  46.07600 41.95800 39.69200
H  45.34600 42.70200 41.04200
H  47.06500 42.03400 41.15400
H  46.55500 45.48000 37.90500
H  46.27200 46.91900 38.89100
H  44.19300 47.08500 38.01300
H  43.86100 45.40800 38.53200
H  52.52100 41.47800 40.64000
H  50.96500 41.96500 40.14400
H  51.20300 41.17700 41.74500
H  54.99000 44.18000 43.99300
H  55.04800 45.08000 42.34300
H  56.04600 43.64500 42.75700
H  53.62300 49.03100 43.21100
H  51.95000 49.87900 45.54500
H  53.73000 47.23700 45.44800
H  53.79300 48.88500 46.15600
H  55.06900 48.34600 45.08300
H  51.61900 51.32100 42.85100
H  53.28700 51.22200 43.19300
H  51.38600 52.47800 45.06100
H  52.34200 53.39700 43.89500
H  53.24600 52.43100 45.15100
H  47.44500 52.27600 44.39700
H  46.06200 52.32700 43.17800
H  47.83600 52.65100 42.78200
H  44.69100 48.36500 40.37600
H  42.46200 44.87000 42.01500
H  41.44600 45.26200 40.63200
H  41.34300 46.11700 42.24900
Mg 48.79900 35.65900 28.00500
C  46.81500 33.93900 30.41600
C  48.49100 38.49900 30.04200
C  50.36700 37.35800 25.65900
C  48.12400 33.06000 25.83200
N  47.85000 36.16900 30.00900
C  47.22900 35.22300 30.86000
C  47.12400 35.78700 32.26700
C  47.27800 37.28300 32.06400
C  47.95800 37.35400 30.62100
C  46.07200 38.18300 32.17100
C  48.10700 35.09500 33.25300
C  47.60600 34.82400 34.68400
H  48.00800 35.90200 35.65900
N  49.55300 37.69000 27.97500
C  49.17400 38.64700 28.80400
C  49.92600 39.80600 28.41300
C  50.44900 39.59000 27.06200
C  50.18700 38.15000 26.86100
C  49.96200 41.06700 29.20700
C  51.17100 40.53400 26.01700
O  51.57000 40.05400 24.96400
C  51.34500 41.94400 26.34000
N  49.13100 35.35900 26.06100
C  49.91200 36.11900 25.32400
C  50.24500 35.59000 23.89600
C  49.54600 34.16900 24.09000
C  48.96000 34.11800 25.45100
C  49.70800 36.40500 22.72200
C  50.35400 32.89800 23.78800
C  49.71500 31.96100 22.76900
N  47.72600 33.82100 28.05800
C  47.53700 32.86300 27.07200
C  46.72200 31.74600 27.55300
C  46.43500 32.15700 28.87200
C  47.01800 33.39100 29.13600
C  46.33500 30.46900 26.80000
C  45.68200 31.69000 30.06800
O  45.02100 30.72400 30.37000
C  45.94300 32.82500 31.12400
C  46.59800 32.21700 32.31500
O  47.74800 31.87800 32.25400
O  45.71600 32.07800 33.32600
C  46.30300 31.64000 34.61900
H  48.52400 39.42000 30.62700
H  50.93100 37.78900 24.82900
H  48.00100 32.35200 25.01000
H  46.10300 35.61500 32.60800
H  47.97600 37.64600 32.81900
H  46.15800 38.78100 33.07700
H  45.18500 37.58100 32.36700
H  45.85800 38.79800 31.29700
H  49.01000 35.70600 33.25100
H  48.41300 34.12200 32.86800
H  48.07700 33.86900 34.91500
H  46.52600 34.67500 34.68200
H  50.92400 41.25400 29.68500
H  49.25100 41.28100 30.00500
H  49.75000 41.83600 28.46400
H  50.35200 42.37700 26.21800
H  51.90700 42.24800 25.45700
H  51.84200 42.01000 27.30800
H  51.29200 35.47700 23.61200
H  48.69200 34.07700 23.41900
H  50.49800 36.39800 21.97100
H  49.51800 37.43500 23.02400
H  48.79300 36.01900 22.27400
H  50.43500 32.28300 24.68500
H  51.37900 33.20200 23.57600
H  49.71700 32.43600 21.78800
H  48.75900 31.56300 23.11100
H  50.26900 31.07200 22.46900
H  46.23900 29.61400 27.46900
H  47.04000 30.16100 26.02700
H  45.47000 30.68100 26.17200
H  44.98200 33.16600 31.51000
H  45.53200 30.89600 34.82000
H  46.18800 32.42700 35.36500
H  47.31800 31.24700 34.55600

