158

Mg 42.19900 41.12600 25.97000
C  41.35600 43.41400 28.39900
C  42.95900 38.89600 28.44600
C  42.82700 38.87800 23.52800
C  41.57000 43.55100 23.44700
N  42.21800 41.17100 28.05900
C  41.82500 42.20700 28.86400
C  41.78300 41.93200 30.37600
C  42.37900 40.45500 30.32000
C  42.54200 40.15800 28.83600
C  43.72700 40.39200 31.16600
C  40.35600 42.08600 31.11000
C  40.13000 41.05000 32.28400
H  39.19200 41.54000 33.42200
N  42.96500 39.11300 25.98900
C  43.20000 38.37100 27.13200
C  43.58800 37.01200 26.66100
C  43.42700 36.99300 25.27500
C  43.05100 38.34800 24.84100
C  43.83400 35.85100 27.65200
C  43.74000 35.94100 24.26000
O  43.46700 36.03800 23.06200
C  44.37000 34.67500 24.74000
N  42.54100 41.33100 23.71300
C  42.55100 40.14600 23.00900
C  42.45200 40.43000 21.46500
C  41.77800 41.86000 21.55000
C  41.98400 42.30800 22.93900
C  43.81500 40.24000 20.76100
C  40.35700 42.11500 20.97500
C  40.34400 43.21600 19.83800
N  41.51500 43.14800 25.87400
C  41.41600 44.01400 24.83100
C  40.90700 45.26300 25.38000
C  40.94100 45.10100 26.80500
C  41.27600 43.75300 27.00200
C  40.54700 46.48500 24.61800
C  40.69600 45.81800 27.99600
O  40.30100 47.01600 28.19100
C  40.89400 44.67300 29.11200
C  41.95700 45.22500 30.01600
O  43.14800 45.47500 29.82200
O  41.34400 45.45900 31.20900
C  42.10900 45.99300 32.37000
H  43.05900 38.10600 29.19400
H  42.95900 38.16600 22.71000
H  41.32600 44.21900 22.61800
H  42.35300 42.70100 30.89600
H  41.67800 39.67700 30.62300
H  43.66000 39.68100 31.98900
H  43.94700 41.32800 31.67900
H  44.59400 40.12400 30.56300
H  39.56900 41.94400 30.36900
H  40.30100 43.09600 31.51500
H  41.08200 40.70600 32.68800
H  39.57500 40.23000 31.82800
H  43.56200 36.25600 28.62700
H  44.89500 35.60200 27.68300
H  43.11100 35.05500 27.47800
H  44.68400 34.10900 23.86200
H  43.59900 34.16100 25.31300
H  45.25600 34.90000 25.33300
H  41.65700 39.81700 21.04100
H  42.46000 42.45300 20.94100
H  44.66400 39.94900 21.37900
H  44.10400 41.11300 20.17600
H  43.60700 39.36700 20.14300
H  39.72300 42.42100 21.80700
H  39.94300 41.21400 20.52200
H  39.55200 43.93400 20.05300
H  40.06600 42.87800 18.84000
H  41.28700 43.75200 19.73000
H  39.72400 46.98500 25.12900
H  40.35000 46.15100 23.59900
H  41.41600 47.13800 24.53400
H  39.99000 44.37900 29.64500
H  43.17000 46.19200 32.22500
H  42.03200 45.25200 33.16600
H  41.80200 46.95700 32.77400
Mg 9.88000 47.68800 25.51700
C  7.84700 47.93000 28.49700
C  12.44300 48.77300 27.23600
C  11.63400 47.35900 22.71100
C  6.83400 47.28300 23.73800
N  9.99600 48.31500 27.60200
C  9.22200 48.27000 28.68600
C  9.83500 48.69100 30.05400
C  11.20800 49.21000 29.49900
C  11.23500 48.72600 28.02400
C  11.57900 50.70200 29.67600
C  9.96900 47.49200 31.08600
C  9.53300 47.81100 32.46900
H  9.62600 46.60500 33.45600
N  11.85800 47.98300 25.02600
C  12.77500 48.35900 25.95000
C  14.07600 48.20500 25.34700
C  13.88000 47.87800 23.95100
C  12.39700 47.74800 23.81800
C  15.32600 48.51500 26.07300
C  14.89500 47.59600 22.83600
O  14.59000 47.34600 21.69500
C  16.37000 47.52600 23.10900
N  9.28300 47.42900 23.56200
C  10.24000 47.18000 22.54100
C  9.64000 46.49500 21.24700
C  8.15500 46.51600 21.73500
C  8.09800 47.15700 23.11600
C  9.82700 47.37900 19.90100
C  7.41600 45.11100 21.67300
C  7.79200 44.20500 22.80400
N  7.74400 47.41400 26.03000
C  6.64400 47.37400 25.16400
C  5.40400 47.35600 25.94800
C  5.86200 47.52000 27.32400
C  7.26800 47.62600 27.26600
C  4.07500 47.18300 25.30000
C  5.45500 47.59500 28.74100
O  4.33800 47.40700 29.22400
C  6.73600 47.85300 29.49800
C  6.77200 46.62700 30.24900
O  7.29700 45.55900 29.95400
O  6.25100 46.90500 31.49200
C  6.18700 45.85600 32.54600
H  13.18800 49.17000 27.92900
H  12.22100 47.23700 21.79800
H  5.96100 47.13200 23.09900
H  9.16100 49.49100 30.35800
H  12.03600 48.62200 29.89500
H  12.40800 50.74700 30.38300
H  10.75600 51.33600 30.00500
H  12.02400 50.99600 28.72600
H  11.03500 47.27100 31.13800
H  9.45100 46.62300 30.68200
H  8.45100 47.94500 32.49700
H  10.04200 48.71700 32.79800
H  15.20400 48.35400 27.14400
H  15.68200 49.53600 25.93600
H  16.12000 47.84600 25.74100
H  16.46100 46.70900 23.82400
H  16.66400 48.50200 23.49500
H  16.86000 47.28800 22.16500
H  10.11700 45.53600 21.04400
H  7.53200 47.15800 21.11200
H  8.93000 47.84300 19.49000
H  10.29300 46.89600 19.04200
H  10.42600 48.25400 20.14800
H  7.84500 44.57000 20.83000
H  6.36200 45.20400 21.41400
H  8.50100 44.59700 23.53400
H  8.32800 43.35000 22.39200
H  6.89800 43.87400 23.33200
H  3.91000 46.32900 24.64300
H  3.82100 48.08200 24.73800
H  3.30900 46.97100 26.04600
H  6.62900 48.82300 29.98300
H  5.48700 45.12400 32.14200
H  5.69400 46.31900 33.40100
H  7.14300 45.41400 32.82700

