158

Mg 8.03100 3.24700 27.83400
C  9.56300 1.60400 30.44000
C  6.30600 5.19600 30.12300
C  6.32300 4.72300 25.18900
C  9.31200 0.86200 25.65400
N  7.80800 3.18900 29.99700
C  8.70700 2.63200 30.84700
C  8.55000 3.24600 32.28300
C  7.27400 4.15200 32.21700
C  7.15700 4.21700 30.66300
C  5.98200 3.61200 32.95300
C  9.86700 3.83500 32.97100
C  10.42500 3.16400 34.16400
H  10.96100 4.01500 35.26800
N  6.52000 4.69800 27.65600
C  6.01100 5.47200 28.73000
C  5.30700 6.57200 28.14600
C  5.34300 6.45200 26.73200
C  6.04600 5.24400 26.46300
C  4.60100 7.46500 29.18700
C  4.73100 7.41700 25.75100
O  4.92200 7.19300 24.54400
C  4.06900 8.66400 26.25200
N  7.76200 2.74900 25.74000
C  7.07500 3.51500 24.87700
C  7.20500 2.93200 23.39500
C  8.06200 1.57400 23.65000
C  8.44200 1.74200 25.10400
C  5.86800 2.75500 22.67000
C  9.29200 1.47600 22.62500
C  9.49000 0.14400 21.97100
N  9.34500 1.56300 27.97800
C  9.73800 0.67100 27.03200
C  10.60900 -0.23900 27.67700
C  10.68800 0.06900 29.06500
C  9.79900 1.17700 29.12900
C  11.25000 -1.35300 26.87800
C  11.15500 -0.35000 30.36000
O  11.93700 -1.23500 30.70300
C  10.39100 0.63400 31.26900
C  9.55300 -0.00200 32.28100
O  8.48100 -0.65100 32.09800
O  10.09700 0.08000 33.54400
C  9.15700 -0.29200 34.65000
H  5.93500 5.84700 30.91700
H  6.02200 5.23800 24.27400
H  9.63100 0.07500 24.96700
H  8.33300 2.34700 32.86100
H  7.38700 5.20200 32.48600
H  5.30200 3.20500 32.20500
H  5.56000 4.36200 33.62100
H  6.26500 2.73600 33.53700
H  9.46100 4.78900 33.31000
H  10.73500 3.99200 32.33100
H  11.18800 2.42100 33.92900
H  9.66100 2.50700 34.58000
H  5.29900 8.10000 29.73400
H  4.16500 6.84400 29.97000
H  3.85900 8.17200 28.81600
H  4.76700 9.30800 26.78800
H  3.17300 8.42900 26.82600
H  3.71700 9.16300 25.35000
H  7.74700 3.67500 22.81000
H  7.44700 0.67600 23.60500
H  5.78800 3.34300 21.75600
H  5.09500 3.10300 23.35700
H  5.62100 1.70800 22.49800
H  10.15800 1.61500 23.27200
H  9.27600 2.22500 21.83400
H  8.68700 -0.55100 22.21700
H  10.44300 -0.13600 22.42000
H  9.48700 0.20500 20.88300
H  11.84800 -0.91000 26.08200
H  10.63900 -2.16300 26.47900
H  11.94700 -1.85000 27.55200
H  11.15700 1.10300 31.88700
H  8.74600 -1.28300 34.45700
H  8.48800 0.56200 34.74900
H  9.83100 -0.40600 35.49900
Mg 35.00000 3.55100 29.56500
C  32.56200 4.25800 32.12400
C  37.27600 2.98300 32.00300
C  37.10900 2.81100 27.18300
C  32.31100 4.10800 27.18200
N  34.96700 3.76000 31.78900
C  33.86400 3.96500 32.60500
C  34.30300 3.99100 34.13500
C  35.87000 3.70200 33.99000
C  36.07500 3.47400 32.48800
C  36.90200 4.71700 34.64000
C  33.48800 2.89600 34.92300
C  32.89600 3.47400 36.23500
H  33.76200 4.44500 37.03700
N  36.90800 2.92200 29.58900
C  37.68800 2.63200 30.68600
C  38.93800 1.98500 30.28900
C  38.91500 2.08300 28.80400
C  37.62400 2.65200 28.51500
C  40.05400 1.50600 31.20800
C  39.95600 1.60000 27.77100
O  39.76900 1.61500 26.56000
C  41.31900 1.11800 28.27200
N  34.69700 3.53300 27.41100
C  35.81000 3.08800 26.70000
C  35.41600 2.96800 25.23000
C  33.86900 3.21800 25.24700
C  33.57000 3.65800 26.67500
C  36.21600 3.96200 24.30200
C  32.97500 1.95400 24.89600
C  31.70100 2.42400 24.12900
N  32.89600 4.22800 29.60000
C  31.96300 4.35400 28.51500
C  30.71800 4.66200 29.09400
C  30.90400 4.65600 30.53400
C  32.24500 4.40300 30.78400
C  29.34900 4.78300 28.42600
C  30.21600 4.82200 31.79600
O  29.10000 5.08000 31.98000
C  31.33900 4.71800 32.95800
C  31.52200 6.03000 33.63600
O  31.97800 7.00300 33.06300
O  30.98600 6.07800 34.85800
C  30.92300 7.32700 35.61200
H  37.89000 2.53400 32.78700
H  37.67300 2.39900 26.34400
H  31.53900 4.22100 26.41900
H  34.16300 4.98000 34.57100
H  36.11300 2.74000 34.44000
H  37.45800 4.31300 35.48600
H  36.41900 5.58100 35.09700
H  37.72600 4.95600 33.96700
H  34.12300 2.03600 35.13400
H  32.65600 2.61100 34.27900
H  32.86500 2.57800 36.85500
H  31.88700 3.86700 36.10800
H  40.54400 0.57000 30.93900
H  39.66200 1.38800 32.21800
H  40.86300 2.22800 31.31600
H  41.63100 1.70700 29.13400
H  42.06200 1.06100 27.47600
H  41.03900 0.10700 28.57000
H  35.57600 1.92700 24.95000
H  33.82900 4.13700 24.66200
H  36.63400 4.76600 24.90800
H  35.49600 4.40200 23.61200
H  37.04100 3.48400 23.77500
H  32.67200 1.34700 25.74900
H  33.51200 1.33200 24.18100
H  31.63300 2.09300 23.09300
H  31.55300 3.50300 24.12800
H  30.81700 1.99900 24.60400
H  29.46300 5.46500 27.58300
H  28.63900 5.22500 29.12500
H  29.09300 3.75500 28.17200
H  30.98600 4.10100 33.78500
H  30.27300 7.16500 36.47200
H  30.31400 8.04200 35.05900
H  31.90600 7.56300 36.01900

