158

Mg 24.93300 -7.64200 47.71600
C  27.24800 -5.38200 46.27200
C  22.65900 -6.30500 45.22900
C  22.83300 -10.14000 48.43500
C  27.49600 -8.99200 49.47400
N  25.08100 -6.17700 45.83600
C  26.09500 -5.33900 45.52000
C  25.75000 -4.35800 44.31800
C  24.21200 -4.56600 44.11000
C  23.96000 -5.74300 45.16800
C  23.33800 -3.34500 44.43400
C  26.59000 -4.55700 43.07500
C  27.35000 -3.35700 42.48500
H  26.98200 -2.83300 41.11700
N  22.99700 -8.10800 47.08000
C  22.23900 -7.38800 46.10300
C  20.93000 -8.00500 46.16000
C  20.95500 -9.12000 47.08200
C  22.27100 -9.18700 47.63200
C  19.86800 -7.64700 45.18400
C  19.73600 -10.02600 47.27400
O  18.63700 -9.94800 46.69900
C  19.77200 -11.21900 48.12600
N  25.16100 -9.47400 48.56700
C  24.15900 -10.28100 48.93800
C  24.65000 -11.39600 49.79700
C  26.06700 -10.92000 50.21000
C  26.29000 -9.68700 49.39600
C  23.73100 -11.75100 50.95800
C  27.16600 -11.96900 50.24900
C  27.92600 -12.25300 51.62000
N  26.94000 -7.24500 48.03800
C  27.83200 -7.85000 48.87600
C  29.02600 -7.01300 49.00400
C  28.90700 -6.10300 47.89700
C  27.57700 -6.20300 47.43400
C  30.21400 -7.34200 49.82100
C  29.57900 -5.10800 46.99400
O  30.76700 -4.71900 46.93100
C  28.49800 -4.48300 46.04600
C  28.27500 -3.12200 46.56400
O  27.54200 -2.77400 47.51300
O  28.69100 -2.21200 45.57800
C  28.00600 -0.89000 45.70900
H  21.91100 -6.01700 44.48700
H  22.23200 -10.89300 48.94800
H  28.16600 -9.39400 50.23700
H  26.03200 -3.36500 44.66900
H  23.90200 -5.04400 43.18100
H  22.81500 -3.53300 45.37200
H  22.68100 -3.22100 43.57300
H  23.98000 -2.47700 44.59100
H  26.02800 -5.02400 42.26700
H  27.25600 -5.37800 43.33800
H  28.41100 -3.60400 42.52100
H  27.25900 -2.48900 43.13700
H  19.83600 -6.60000 44.88000
H  18.84900 -7.87800 45.49200
H  20.06400 -8.27300 44.31300
H  20.59800 -11.90200 47.92300
H  18.85200 -11.79500 48.02200
H  19.79600 -10.90400 49.16900
H  24.54200 -12.29600 49.19300
H  26.04000 -10.37600 51.15400
H  24.26900 -12.17200 51.80700
H  22.95600 -12.42800 50.59800
H  23.26900 -10.82800 51.30700
H  27.91000 -11.80100 49.47000
H  26.74600 -12.94000 49.98500
H  28.99100 -12.25700 51.38800
H  27.59000 -13.22200 51.98900
H  27.69800 -11.47500 52.34800
H  30.86400 -7.89300 49.14100
H  29.94400 -7.92300 50.70200
H  30.82100 -6.48400 50.11000
H  28.81700 -4.51800 45.00400
H  28.50600 -0.34800 46.51100
H  26.93300 -0.94900 45.89100
H  28.04700 -0.37000 44.75200
Mg 30.00100 58.31400 40.66000
C  27.07700 56.64900 39.41200
C  31.94900 55.83000 39.63300
C  32.49100 60.40500 40.92000
C  27.79100 61.14800 41.16900
N  29.48100 56.54100 39.48100
C  28.31200 55.95500 39.16900
C  28.62600 54.52000 38.62700
C  30.06400 54.19200 39.30400
C  30.56500 55.70300 39.45100
C  30.03800 53.32000 40.64900
C  28.50200 54.54100 37.12600
C  27.32100 53.92300 36.42200
H  26.43700 54.81400 35.47500
N  32.02100 58.08000 40.49900
C  32.65600 56.94100 40.09100
C  34.08200 57.15800 40.03400
C  34.24500 58.55800 40.37600
C  32.91100 59.11000 40.58200
C  35.05700 56.15200 39.49900
C  35.59300 59.23200 40.41400
O  36.57900 58.59900 40.04800
C  35.78200 60.69900 40.73800
N  30.05500 60.47800 41.19700
C  31.26300 61.06400 41.20300
C  31.17600 62.54700 41.33300
C  29.65800 62.77800 41.59400
C  29.13400 61.38500 41.26900
C  32.11700 63.19600 42.42300
C  29.04900 63.93900 40.74700
C  28.71200 65.17200 41.60400
N  27.84000 58.81900 40.45400
C  27.16100 59.96300 40.76000
C  25.81600 59.79300 40.60400
C  25.74200 58.52200 40.01200
C  26.96500 57.90900 39.95500
C  24.74400 60.73300 40.88100
C  24.82500 57.54800 39.56800
O  23.61700 57.62600 39.48500
C  25.66000 56.27600 39.05600
C  25.05600 55.16900 39.87500
O  25.14600 55.01100 41.09200
O  24.44400 54.32100 38.98800
C  23.51000 53.30900 39.60600
H  32.57700 55.00400 39.29100
H  33.37000 61.03000 40.74900
H  27.31100 62.12600 41.25500
H  27.94000 53.72200 38.91100
H  30.67000 53.65200 38.57600
H  30.24100 54.06300 41.42100
H  30.82100 52.56500 40.57700
H  29.03300 52.92500 40.79800
H  29.31100 53.89100 36.79500
H  28.74900 55.51500 36.70200
H  26.64700 53.61600 37.22200
H  27.55200 52.97000 35.94700
H  35.57700 56.31700 38.55500
H  34.65400 55.14000 39.55100
H  35.89800 55.91800 40.15300
H  35.35400 60.82900 41.73200
H  35.37700 61.38800 39.99700
H  36.85700 60.88200 40.73500
H  31.39700 63.00700 40.37000
H  29.42900 62.97000 42.64200
H  32.88400 62.46100 42.66600
H  31.50400 63.28500 43.32000
H  32.60100 64.13300 42.15200
H  28.17100 63.68700 40.15200
H  29.74500 64.31700 39.99900
H  29.54500 65.87200 41.54400
H  28.79100 64.80800 42.62900
H  27.75700 65.62000 41.33100
H  23.85100 60.13800 41.07200
H  24.57800 61.29700 39.96300
H  24.99800 61.39000 41.71300
H  25.58500 56.09000 37.98500
H  23.70700 53.01800 40.63800
H  23.59200 52.43700 38.95700
H  22.49000 53.66900 39.47400

