158

Mg 2.18400 8.20200 27.10800
C  2.30500 10.02200 30.09900
C  2.03100 5.31700 29.16700
C  2.27700 6.34000 24.29500
C  2.96200 11.14700 25.36100
N  2.19900 7.74300 29.42400
C  2.09800 8.67600 30.36500
C  1.71200 8.06200 31.70900
C  1.90800 6.51000 31.38700
C  2.07000 6.44900 29.93100
C  3.13300 5.81900 32.05300
C  0.32500 8.36900 32.30800
C  0.06300 8.04000 33.79700
H  1.22800 7.55500 34.74500
N  2.06400 6.07900 26.89000
C  2.05400 5.09400 27.80100
C  2.03400 3.86400 27.05700
C  2.09800 4.10300 25.66000
C  2.13900 5.54100 25.53100
C  1.93700 2.46900 27.75900
C  2.15200 3.15000 24.47500
O  2.30700 3.44800 23.31400
C  1.91800 1.68300 24.72100
N  2.49000 8.71100 25.11700
C  2.44100 7.70700 24.15600
C  2.79700 8.42500 22.79100
C  2.85300 9.96000 23.16000
C  2.80400 9.97000 24.63700
C  4.03300 7.87800 22.05100
C  1.87600 10.89400 22.49200
C  0.38500 10.88900 22.83100
N  2.47900 10.26000 27.57600
C  2.84300 11.34500 26.72000
C  2.86400 12.53100 27.56100
C  2.72400 12.07200 28.91200
C  2.50400 10.66000 28.84100
C  3.12500 13.87900 27.19300
C  2.71300 12.45400 30.27200
O  2.90000 13.58800 30.73000
C  2.41500 11.20100 31.08000
C  3.40900 11.01900 32.15200
O  4.52300 10.50900 32.07900
O  2.91300 11.50800 33.30300
C  3.71400 11.44300 34.50800
H  1.91100 4.41200 29.76600
H  2.17400 5.73300 23.39400
H  3.16100 12.05600 24.79000
H  2.53700 8.34600 32.36200
H  1.04200 5.89600 31.63500
H  3.66200 6.46500 32.75400
H  3.80900 5.42700 31.29300
H  2.76700 4.96200 32.61700
H  -0.30000 7.61900 31.82200
H  -0.05000 9.36900 32.09100
H  -0.74800 7.31800 33.88400
H  -0.41000 8.96000 34.13900
H  2.73700 1.74300 27.61200
H  0.98900 1.98400 27.52600
H  1.93100 2.71700 28.82000
H  2.66500 1.20600 25.35500
H  1.67700 1.10300 23.83000
H  0.95600 1.55200 25.21700
H  1.89900 8.43000 22.17300
H  3.82400 10.25500 22.76200
H  4.62400 7.39300 22.82700
H  4.61700 8.66400 21.57100
H  3.77600 7.13200 21.29900
H  1.87200 10.68800 21.42200
H  2.18600 11.93500 22.58800
H  -0.16900 10.64600 21.92500
H  0.11200 11.86900 23.22300
H  0.15600 10.15900 23.60700
H  3.21500 14.52800 28.06400
H  2.39000 14.28800 26.49900
H  4.01500 13.89400 26.56400
H  1.44600 11.19500 31.58000
H  4.27800 10.51300 34.57600
H  3.03700 11.59800 35.34800
H  4.44300 12.24800 34.41100
Mg 41.03700 40.70400 26.64800
C  40.77000 43.13100 29.18700
C  42.59200 38.67200 28.82700
C  41.32400 38.62200 24.07700
C  40.32500 43.31300 24.32900
N  41.55500 40.80600 28.80400
C  41.17000 41.81600 29.68600
C  41.33200 41.48300 31.09700
C  41.97700 40.04700 30.96700
C  42.02100 39.76500 29.43400
C  43.16100 39.85300 31.90300
C  39.97300 41.53900 31.82300
C  39.86100 42.49100 32.98400
H  39.23300 41.96700 34.23600
N  42.02400 38.95800 26.44400
C  42.59000 38.23400 27.45100
C  42.90400 36.91800 26.99400
C  42.45100 36.86100 25.59800
C  41.94400 38.19200 25.28300
C  43.42100 35.89200 27.98600
C  42.53900 35.64200 24.54700
O  42.33400 35.77300 23.31300
C  42.91500 34.28000 25.06400
N  40.74400 40.98700 24.54200
C  40.88100 39.87900 23.68500
C  40.56600 40.19800 22.27900
C  40.64500 41.79700 22.33300
C  40.55300 42.07100 23.79800
C  41.38500 39.56600 21.16500
C  39.51600 42.58000 21.60700
C  39.84900 43.72100 20.64000
N  40.47900 42.75400 26.68700
C  40.25100 43.70700 25.65600
C  40.07300 45.02600 26.16800
C  40.18200 44.79000 27.62400
C  40.58400 43.42700 27.81000
C  39.70600 46.27200 25.47400
C  39.92000 45.40500 28.88900
O  39.61000 46.57300 29.12300
C  40.36000 44.38400 29.94400
C  41.36800 44.90900 30.78000
O  42.50400 45.05300 30.34200
O  40.87500 45.33700 31.99100
C  41.76300 46.01800 32.95300
H  42.95100 37.93000 29.54300
H  41.27100 37.88700 23.27100
H  40.22700 44.11500 23.59500
H  42.07300 42.12400 31.57300
H  41.30500 39.23700 31.25100
H  44.14000 39.87300 31.42400
H  42.95100 38.89500 32.38000
H  43.17200 40.48300 32.79200
H  39.76900 40.56200 32.26300
H  39.17800 41.89600 31.16900
H  39.22200 43.34400 32.75200
H  40.89200 42.77100 33.19800
H  44.31500 36.40500 28.33900
H  43.86800 35.05300 27.45200
H  42.78500 35.70200 28.85100
H  42.55100 33.41100 24.51500
H  42.37400 34.15400 26.00200
H  43.98800 34.17200 25.21900
H  39.53800 39.87700 22.10800
H  41.64700 42.12600 22.05900
H  42.13700 38.92100 21.62100
H  42.02100 40.28500 20.64800
H  40.81800 39.07200 20.37700
H  38.70900 42.83100 22.29500
H  39.03600 41.83700 20.97000
H  39.36000 43.57600 19.67700
H  40.88600 43.65100 20.31200
H  39.40400 44.59700 21.11100
H  40.51600 46.77800 24.94800
H  39.30300 46.95100 26.22400
H  38.91000 46.02600 24.77200
H  39.44100 44.26100 30.51700
H  41.35200 47.01500 33.11500
H  42.77300 45.98500 32.54300
H  41.81600 45.58300 33.95100

