158

Mg 1.98800 -0.90600 44.69500
C  5.22800 0.13100 43.79700
C  0.75700 1.83900 43.11800
C  -1.01600 -2.04700 45.40000
C  3.48400 -4.07600 45.66600
N  2.90600 0.67400 43.36500
C  4.25400 0.95700 43.27900
C  4.44700 2.19900 42.34800
C  3.00300 2.86700 42.36300
C  2.15100 1.70200 42.95700
C  2.92000 4.10300 43.25700
C  4.84200 1.71300 40.94100
C  6.12500 2.32800 40.32300
H  6.10400 2.84100 38.83500
N  0.07400 -0.16800 44.34600
C  -0.20300 0.96000 43.68600
C  -1.60800 1.12200 43.64800
C  -2.19800 0.00200 44.29700
C  -1.07200 -0.77000 44.74000
C  -2.33200 2.19900 42.78400
C  -3.67200 -0.32900 44.24800
O  -4.51000 0.36300 43.66600
C  -4.14400 -1.63200 44.94100
N  1.33500 -2.75500 45.38300
C  -0.00800 -2.92300 45.69500
C  -0.29100 -4.31800 46.23100
C  1.10200 -5.02100 46.25300
C  2.09500 -3.92000 45.76400
C  -1.23700 -4.37900 47.45000
C  1.19800 -6.38300 45.37300
C  1.75300 -6.29800 43.93000
N  3.97100 -1.84500 44.74600
C  4.39800 -3.10500 45.18800
C  5.82600 -3.15200 45.04900
C  6.21300 -1.85300 44.55800
C  5.02900 -1.15600 44.32300
C  6.70900 -4.26500 45.37600
C  7.37300 -1.05700 44.23100
O  8.52700 -1.33400 44.17700
C  6.75200 0.26600 43.71400
C  7.16300 1.38100 44.56000
O  6.62900 1.75600 45.60800
O  8.38400 1.94300 43.98200
C  8.89500 3.16900 44.66000
H  0.41500 2.78400 42.69200
H  -1.92200 -2.51900 45.78700
H  3.78000 -5.05000 46.06300
H  5.24700 2.81200 42.76200
H  2.65700 3.20300 41.38500
H  2.93100 4.92000 42.53600
H  3.88000 4.13700 43.77100
H  2.02900 3.96800 43.86900
H  4.04800 1.77700 40.19800
H  5.12200 0.67100 41.10200
H  6.95100 1.62700 40.44000
H  6.17900 3.20200 40.97100
H  -2.93100 1.70100 42.02200
H  -1.59200 2.89100 42.38100
H  -3.13100 2.76000 43.26800
H  -5.18600 -1.76600 44.65200
H  -4.00600 -1.50400 46.01400
H  -3.66100 -2.52300 44.53900
H  -0.81900 -4.74400 45.37800
H  1.34300 -5.30900 47.27600
H  -2.28600 -4.37000 47.15500
H  -0.91000 -3.59100 48.12800
H  -1.05600 -5.37000 47.86600
H  0.20400 -6.82900 45.37600
H  1.81600 -7.09200 45.92300
H  1.14000 -6.91100 43.26900
H  2.82000 -6.50300 43.84200
H  1.61600 -5.30100 43.51100
H  7.71900 -3.93200 45.13900
H  6.54900 -5.18000 44.80600
H  6.60900 -4.56800 46.41800
H  7.20000 0.36300 42.72500
H  8.20500 3.99700 44.49600
H  9.73000 3.51600 44.05200
H  9.26200 3.02500 45.67600
Mg 26.86800 49.73700 26.98300
C  24.79200 50.84400 29.50200
C  29.25300 48.94300 29.30800
C  29.01300 49.03600 24.39800
C  24.67400 51.24100 24.56700
N  27.02200 49.83500 29.13800
C  25.94200 50.13500 29.98100
C  26.23300 49.98600 31.51800
C  27.80200 49.52300 31.39400
C  28.05000 49.41600 29.88400
C  28.92800 50.43400 32.06900
C  25.27100 48.94400 32.08700
C  24.60700 49.45900 33.44600
H  24.43300 48.49800 34.60300
N  28.79200 48.90300 26.87900
C  29.60700 48.58400 27.95600
C  30.81700 48.07700 27.42700
C  30.81400 48.21600 26.02500
C  29.45100 48.66400 25.67100
C  31.94000 47.61000 28.34700
C  31.88100 47.94300 25.03900
O  31.75300 48.02600 23.81600
C  33.22700 47.56600 25.54900
N  26.85500 50.04700 24.79600
C  27.87000 49.67300 23.99600
C  27.44000 49.90100 22.46600
C  25.99700 50.47400 22.56600
C  25.81600 50.59400 24.07300
C  28.46200 50.64800 21.50900
C  24.85800 49.69200 21.83200
C  24.62900 48.28600 22.38400
N  25.14000 50.88700 27.02100
C  24.31500 51.45900 25.97200
C  23.22800 52.13900 26.51800
C  23.38400 51.91800 27.87600
C  24.44400 51.07500 28.12000
C  22.25600 52.95500 25.77300
C  22.81500 52.21700 29.18600
O  21.84300 52.90400 29.37800
C  23.63000 51.57300 30.28200
C  24.01200 52.56000 31.27500
O  24.93800 53.36200 31.19400
O  23.13600 52.47100 32.35600
C  23.37600 53.43400 33.43700
H  29.96700 48.64000 30.07700
H  29.58300 48.64900 23.55100
H  23.93700 51.62000 23.85700
H  26.18900 50.96500 31.99600
H  27.96800 48.58500 31.92300
H  29.55800 50.92300 31.32700
H  29.56400 49.77700 32.66200
H  28.40800 51.14500 32.71200
H  25.78900 48.06200 32.46500
H  24.54500 48.68500 31.31600
H  23.64500 49.91600 33.21100
H  25.19700 50.27900 33.85500
H  32.90200 48.08700 28.16000
H  32.14700 46.54200 28.27700
H  31.61700 47.73100 29.38100
H  33.99900 47.41100 24.79500
H  33.07300 46.63100 26.08700
H  33.56300 48.30900 26.27200
H  27.40600 48.92400 21.98200
H  26.00600 51.53300 22.30600
H  28.04100 51.38400 20.82400
H  28.91300 49.94800 20.80600
H  29.23500 51.20500 22.03800
H  25.06000 49.54500 20.77100
H  23.96300 50.30700 21.92900
H  25.33600 48.05900 23.18200
H  24.73800 47.46100 21.68100
H  23.61600 48.24700 22.78500
H  21.32800 52.40800 25.94100
H  22.38200 53.07400 24.69700
H  22.18700 53.91600 26.28300
H  22.95600 50.80700 30.66400
H  23.47000 54.48800 33.17400
H  24.30300 53.06500 33.87700
H  22.57400 53.37400 34.17300

