158

Mg 47.06700 24.70100 28.71200
C  47.64000 27.01900 31.24500
C  45.99300 22.44700 31.15500
C  46.51400 22.44000 26.38500
C  48.69600 26.69600 26.37800
N  46.84100 24.75900 31.01200
C  47.06700 25.81400 31.80700
C  46.69100 25.49300 33.28500
C  46.32600 23.98300 33.24000
C  46.38500 23.67900 31.73000
C  47.17000 23.10100 34.17200
C  45.53800 26.43100 33.71400
C  45.92800 27.27000 34.94000
H  46.55000 26.54500 36.28000
N  46.25900 22.80800 28.77900
C  45.85100 22.05600 29.86000
C  45.24500 20.77300 29.38200
C  45.43200 20.74800 27.97600
C  46.00000 22.04400 27.60600
C  44.90400 19.64300 30.26500
C  45.18900 19.55000 26.98600
O  45.41600 19.58800 25.82100
C  44.80200 18.15700 27.44400
N  47.53100 24.60900 26.59700
C  47.24200 23.46000 25.93100
C  47.61400 23.64000 24.47900
C  48.35500 25.01300 24.51800
C  48.30400 25.43600 25.91900
C  48.33900 22.48000 23.71700
C  47.77900 26.13600 23.56700
C  46.35800 26.74300 23.88700
N  47.95800 26.47000 28.73200
C  48.57400 27.24800 27.70800
C  48.98200 28.53800 28.28700
C  48.72900 28.44000 29.64600
C  48.03400 27.19800 29.87700
C  49.66700 29.64000 27.50400
C  48.85700 29.15900 30.91100
O  49.36300 30.24200 31.22600
C  48.15000 28.27500 31.92900
C  49.22700 27.88900 32.96900
O  50.00600 26.90300 32.80600
O  49.16800 28.70200 34.08600
C  49.97300 28.18300 35.25400
H  45.67900 21.75800 31.94200
H  46.31400 21.73400 25.57700
H  49.27300 27.27200 25.65100
H  47.67200 25.66300 33.72800
H  45.31500 23.60200 33.38300
H  47.69700 22.22600 33.79100
H  46.46800 22.76200 34.93400
H  47.89500 23.75600 34.65400
H  44.50100 26.09600 33.71900
H  45.46800 27.16700 32.91300
H  44.95600 27.71800 35.14600
H  46.54500 28.12900 34.67800
H  45.62000 18.85000 30.05200
H  43.84500 19.40400 30.16200
H  45.12600 19.84300 31.31300
H  44.66200 17.43400 26.64000
H  43.85400 18.18900 27.98000
H  45.59200 17.77400 28.09000
H  46.69600 23.90100 23.95200
H  49.39400 24.91800 24.20100
H  49.14500 22.88600 23.10600
H  47.64900 22.01200 23.01600
H  48.77600 21.80800 24.45600
H  47.65700 25.63500 22.60700
H  48.58400 26.86700 23.48900
H  45.87900 26.51900 24.84000
H  45.73200 26.55300 23.01500
H  46.41800 27.82800 23.80900
H  50.70200 29.76300 27.82500
H  49.14500 30.55500 27.78300
H  49.59700 29.49800 26.42500
H  47.43900 28.88100 32.49000
H  49.58100 27.21600 35.56700
H  50.13200 28.95200 36.01000
H  50.95300 27.88900 34.87700
Mg -11.90300 38.99800 41.87400
C  -9.88000 36.14500 41.22400
C  -9.45100 41.03500 40.61700
C  -14.17100 41.51500 42.02800
C  -14.49400 36.68600 42.69400
N  -9.93600 38.62400 40.91100
C  -9.30700 37.39700 40.80200
C  -7.97000 37.61300 40.10300
C  -7.73000 39.13900 40.07100
C  -9.12500 39.69100 40.55100
C  -6.50900 39.77000 40.73600
C  -7.71600 36.74100 38.78400
C  -6.50700 35.72600 38.74500
H  -5.53500 35.99100 37.67100
N  -11.77000 41.06200 41.47700
C  -10.64100 41.72500 40.90700
C  -10.93300 43.12700 40.92900
C  -12.32900 43.28000 41.15700
C  -12.85400 41.94500 41.58900
C  -9.97600 44.17000 40.38500
C  -13.04200 44.61700 41.10500
O  -12.44900 45.65200 40.85800
C  -14.56400 44.72300 41.39000
N  -14.04600 39.05700 42.18600
C  -14.65400 40.20900 42.34200
C  -16.08900 40.03000 42.90900
C  -16.22000 38.52000 43.03800
C  -14.82300 38.05400 42.61100
C  -16.30700 40.95200 44.13400
C  -17.42500 37.96400 42.14100
C  -18.72200 37.43600 42.90300
N  -12.21900 36.86300 41.90500
C  -13.30900 36.10900 42.31400
C  -12.95300 34.75400 42.31600
C  -11.61500 34.70900 41.93000
C  -11.19600 36.00000 41.68600
C  -13.84200 33.66300 42.81500
C  -10.47800 33.87000 41.66600
O  -10.30500 32.64800 41.74100
C  -9.28400 34.83200 41.20200
C  -8.19300 34.65100 42.20800
O  -8.29000 34.80800 43.41800
O  -7.12200 34.05100 41.61000
C  -5.97300 33.99500 42.44900
H  -8.70500 41.65300 40.11400
H  -14.90600 42.31100 42.16400
H  -15.28400 36.06700 43.12600
H  -7.26600 37.17300 40.80900
H  -7.69500 39.32400 38.99700
H  -5.69900 39.09200 41.00300
H  -6.75700 40.24200 41.68600
H  -6.09300 40.61400 40.18500
H  -7.72700 37.36000 37.88600
H  -8.56200 36.06100 38.68400
H  -6.90300 34.72700 38.56200
H  -6.03000 35.76700 39.72400
H  -8.94500 43.84700 40.52900
H  -10.12900 45.15800 40.81800
H  -10.18800 44.22600 39.31700
H  -14.96000 43.87000 40.83800
H  -14.81000 45.66400 40.89900
H  -14.85500 44.82400 42.43600
H  -16.83200 40.31500 42.16400
H  -16.39700 38.37300 44.10300
H  -15.39700 41.43500 44.48800
H  -16.70400 40.33400 44.94000
H  -16.99300 41.79700 44.07600
H  -17.07500 37.10500 41.56900
H  -17.76100 38.60800 41.32800
H  -19.56500 37.94900 42.43800
H  -18.71600 37.65200 43.97100
H  -18.94800 36.38500 42.72600
H  -14.46300 33.97800 43.65400
H  -13.21700 32.78900 43.00200
H  -14.55000 33.45800 42.01300
H  -8.90200 34.46800 40.24800
H  -5.23000 34.63100 41.96700
H  -5.60000 32.97200 42.50600
H  -6.00200 34.24100 43.51000

