158

Mg 23.82200 -5.61900 44.96100
C  26.11900 -3.26200 43.28400
C  21.44700 -4.78400 42.55400
C  21.96600 -8.15200 45.96600
C  26.60700 -6.81200 46.67200
N  23.79700 -4.13900 43.13600
C  24.82700 -3.18800 42.76100
C  24.29400 -2.26800 41.66300
C  22.73500 -2.64400 41.67900
C  22.64400 -4.01800 42.36700
C  21.88900 -1.52300 42.27400
C  25.05200 -2.42200 40.34400
C  25.72500 -1.15600 39.76400
H  25.33000 -0.77400 38.35700
N  21.96800 -6.28400 44.47600
C  21.13800 -5.73500 43.51900
C  19.83500 -6.33300 43.64400
C  19.90400 -7.29900 44.68600
C  21.30800 -7.29200 45.07800
C  18.67100 -5.79600 42.83200
C  18.72600 -8.06100 45.24100
O  17.70700 -7.90100 44.60300
C  18.73900 -9.00300 46.36300
N  24.24300 -7.14700 46.27600
C  23.21700 -8.09700 46.49400
C  23.87100 -9.27200 47.25800
C  25.19200 -8.64100 47.82700
C  25.39900 -7.51700 46.84000
C  22.94900 -9.88000 48.34300
C  26.33100 -9.69000 47.82500
C  26.89900 -9.86100 49.26800
N  25.86200 -5.08900 45.10600
C  26.90100 -5.67700 45.85000
C  28.11800 -5.01000 45.62800
C  27.83100 -4.00100 44.65200
C  26.49400 -4.18700 44.24500
C  29.38300 -5.30700 46.38900
C  28.46200 -2.92500 43.98200
O  29.56600 -2.37300 44.06000
C  27.33600 -2.35600 43.08100
C  27.07800 -0.97000 43.50400
O  26.65700 -0.65500 44.57700
O  27.22900 -0.07500 42.42100
C  26.84200 1.27800 42.78100
H  20.62100 -4.47500 41.91000
H  21.35100 -9.03500 46.15300
H  27.51900 -7.11600 47.18900
H  24.50700 -1.26800 42.04000
H  22.27700 -2.92200 40.73000
H  22.32200 -0.52900 42.16600
H  21.62300 -1.69000 43.31800
H  20.99000 -1.61100 41.66500
H  24.35300 -2.71200 39.56000
H  25.71900 -3.28400 40.33300
H  26.80800 -1.15500 39.88500
H  25.38600 -0.24700 40.26100
H  18.99800 -5.85100 41.79400
H  18.39600 -4.75400 42.99400
H  17.75500 -6.38600 42.84400
H  19.28600 -8.53300 47.18000
H  19.22700 -9.93700 46.08300
H  17.71700 -9.18300 46.69600
H  24.09300 -10.10800 46.59500
H  24.94700 -8.10000 48.74200
H  22.88100 -10.84900 47.84800
H  21.93500 -9.49000 48.43800
H  23.47800 -9.94100 49.29400
H  27.26500 -9.56300 47.27800
H  25.89500 -10.64900 47.54400
H  27.98700 -9.83500 49.32000
H  26.56900 -10.83900 49.61900
H  26.41300 -9.08000 49.85300
H  29.98600 -5.98900 45.79000
H  29.07300 -5.76800 47.32700
H  29.96100 -4.39500 46.53600
H  27.77100 -2.29200 42.08400
H  25.80800 1.24500 43.12500
H  26.92300 1.90500 41.89300
H  27.40400 1.75400 43.58400
Mg 41.02200 8.95100 29.37600
C  42.81500 10.07000 32.11700
C  38.39400 7.94500 31.44700
C  39.33900 7.69800 26.72000
C  43.82700 9.62700 27.41900
N  40.71900 8.95400 31.56500
C  41.52300 9.61600 32.45600
C  40.77600 9.66300 33.76600
C  39.48300 8.82500 33.58600
C  39.46400 8.55600 32.07200
C  39.52200 7.47000 34.39800
C  40.49100 11.09400 34.27500
C  39.90800 11.11200 35.71500
H  40.77800 11.72900 36.70800
N  39.16500 7.89800 29.12200
C  38.14200 7.69600 30.09000
C  36.93300 7.09000 29.53800
C  37.15900 7.07000 28.09600
C  38.64800 7.54500 27.90900
C  35.70600 6.67400 30.41100
C  36.12700 6.68800 26.95700
O  36.47300 6.54800 25.77900
C  34.74500 6.51600 27.29200
N  41.54500 8.50100 27.41100
C  40.68500 8.08400 26.49100
C  41.31600 7.99000 25.07100
C  42.56800 8.99900 25.28800
C  42.66700 9.04800 26.81500
C  41.62600 6.60700 24.53700
C  42.48800 10.40000 24.70400
C  43.43100 10.78400 23.53500
N  42.90800 9.78000 29.63000
C  43.99700 9.90500 28.74500
C  45.13500 10.49200 29.40900
C  44.61100 10.65200 30.72400
C  43.34300 10.10800 30.79800
C  46.45300 10.96500 28.75100
C  45.01100 11.07500 32.02000
O  45.97600 11.71100 32.36900
C  43.86300 10.74600 32.93900
C  44.28300 9.90900 34.10100
O  44.96800 8.88700 34.12100
O  43.82700 10.40000 35.26300
C  44.23300 9.64900 36.49700
H  37.58400 7.73200 32.14700
H  38.83000 7.35500 25.81700
H  44.59600 9.88300 26.68700
H  41.52000 9.17100 34.39300
H  38.53600 9.32700 33.78800
H  39.96800 6.70500 33.76200
H  38.46600 7.40900 34.66200
H  40.01500 7.59100 35.36300
H  39.67200 11.47400 33.66500
H  41.39500 11.69000 34.15800
H  39.59100 10.09100 35.92600
H  39.03600 11.76300 35.78500
H  34.73200 6.87400 29.96400
H  35.67400 6.99400 31.45300
H  35.71200 5.59200 30.28400
H  34.62100 5.65300 27.94700
H  34.18700 6.31100 26.37900
H  34.41500 7.49800 27.63000
H  40.58900 8.45000 24.40200
H  43.49200 8.52600 24.95600
H  42.69900 6.42200 24.58200
H  41.17900 6.57600 23.54300
H  41.09400 5.82700 25.08200
H  42.50500 11.21800 25.42500
H  41.53000 10.55600 24.20800
H  43.60900 9.81600 23.06600
H  44.36100 11.12300 23.99200
H  43.02200 11.60500 22.94700
H  46.28600 12.03000 28.59400
H  46.72500 10.42400 27.84500
H  47.26800 10.69200 29.42100
H  43.36200 11.60200 33.39200
H  44.36400 8.60500 36.21300
H  43.43800 9.85800 37.21400
H  45.16200 10.01000 36.93800

