158

Mg 0.18900 7.35300 26.02500
C  1.32600 9.21400 28.90200
C  0.49600 4.48300 28.03800
C  -0.44400 5.51500 23.46600
C  0.64000 10.25000 24.10100
N  0.74900 6.92500 28.17600
C  1.02000 7.85300 29.11600
C  1.16400 7.21300 30.49900
C  1.35700 5.70900 30.12700
C  0.69500 5.68800 28.69800
C  2.83800 5.30300 30.32500
C  -0.05100 7.61200 31.43700
C  0.16700 7.77900 32.94100
H  1.41000 7.07800 33.48300
N  0.00300 5.28000 25.80800
C  0.27000 4.22700 26.67300
C  0.14500 2.94600 25.99800
C  -0.18000 3.27800 24.62900
C  -0.25000 4.73600 24.61800
C  0.15100 1.59700 26.85700
C  -0.50300 2.34700 23.44500
O  -1.01200 2.69800 22.35700
C  -0.41800 0.89400 23.66300
N  0.01900 7.87300 24.03000
C  -0.33800 6.90300 23.15400
C  -0.53900 7.50000 21.75800
C  -0.20300 9.02000 21.90800
C  0.23300 9.07300 23.42200
C  0.14300 6.93800 20.51400
C  -1.26500 10.02400 21.45000
C  -0.91000 10.85900 20.21200
N  0.68000 9.39500 26.39800
C  0.74200 10.42400 25.49500
C  1.19700 11.65000 26.17300
C  1.50800 11.23400 27.48100
C  1.12000 9.86700 27.59900
C  1.30700 13.07800 25.63000
C  1.99800 11.63800 28.75200
O  2.50900 12.68700 29.07300
C  1.78600 10.42600 29.73600
C  2.91600 10.29700 30.73200
O  3.91900 9.59900 30.57900
O  2.73800 11.15600 31.81000
C  3.85300 11.17000 32.77900
H  0.80000 3.65600 28.68200
H  -0.64800 4.92800 22.56800
H  0.70900 11.15300 23.49000
H  2.11100 7.50200 30.95400
H  0.65000 5.21000 30.79000
H  3.43400 6.20500 30.46200
H  3.21900 4.67400 29.52100
H  2.92200 4.74500 31.25800
H  -0.80700 6.83300 31.34700
H  -0.53900 8.56100 31.21700
H  -0.70100 7.43500 33.50300
H  0.40900 8.83200 33.09000
H  0.69800 1.68400 27.79600
H  0.35200 0.82100 26.11700
H  -0.84100 1.23700 27.12700
H  -1.10300 0.58400 24.45200
H  0.63900 0.74400 23.88300
H  -0.74600 0.35100 22.77600
H  -1.62000 7.35500 21.76200
H  0.78800 9.16800 21.47800
H  0.55000 7.63800 19.78400
H  -0.72000 6.43800 20.07300
H  1.06300 6.38000 20.68600
H  -1.34600 10.67000 22.32500
H  -2.17900 9.52700 21.12500
H  0.08700 10.59500 19.86000
H  -1.11900 11.91600 20.38100
H  -1.56900 10.40900 19.47000
H  1.45200 13.11900 24.55000
H  2.09900 13.67900 26.07600
H  0.37300 13.52300 25.97200
H  0.98900 10.80700 30.37500
H  3.99300 12.23700 32.95500
H  4.75700 10.60800 32.54500
H  3.34800 10.85100 33.69100
Mg 44.46300 3.69600 48.11800
C  42.39600 6.42400 47.54700
C  41.83700 1.61300 46.97000
C  46.54600 0.96800 48.10100
C  47.15400 5.89500 48.14500
N  42.38300 4.04100 47.18500
C  41.73900 5.22900 47.18500
C  40.22100 5.01700 46.71700
C  40.03400 3.47100 46.75700
C  41.51700 3.02900 46.95700
C  39.15700 2.94800 47.92300
C  39.84700 5.58900 45.38800
C  38.55400 6.45000 45.51000
H  37.62200 6.38600 44.30900
N  44.18600 1.62300 47.76400
C  43.04100 0.97100 47.32600
C  43.26900 -0.47200 47.36400
C  44.63800 -0.69200 47.71100
C  45.17800 0.66900 47.92300
C  42.12600 -1.49700 46.97400
C  45.29000 -2.08800 47.89900
O  44.65900 -3.08900 47.62500
C  46.68600 -2.23300 48.21000
N  46.53200 3.45200 48.04700
C  47.10100 2.23200 48.18200
C  48.64000 2.38500 48.26200
C  48.85400 3.93700 48.15000
C  47.37700 4.46100 48.20400
C  49.44200 1.75800 49.55300
C  49.67900 4.36000 46.94400
C  51.20900 4.35500 47.12500
N  44.72000 5.79100 48.06900
C  45.88800 6.53100 48.06000
C  45.53600 7.89800 47.89000
C  44.13500 7.94200 47.86400
C  43.70900 6.63200 47.86000
C  46.56600 9.02500 47.89500
C  42.90200 8.78800 47.73400
O  42.89300 10.02100 47.58900
C  41.73400 7.80700 47.56400
C  40.68900 7.95800 48.62700
O  40.49300 7.27100 49.60800
O  39.75800 8.90600 48.21000
C  38.79000 9.33600 49.22800
H  41.00100 0.98700 46.65200
H  47.31300 0.20700 48.26300
H  47.99500 6.56200 48.34500
H  39.70000 5.52500 47.52900
H  39.62600 3.06500 45.83200
H  38.69500 3.74100 48.51200
H  39.68100 2.27300 48.60000
H  38.35500 2.33000 47.52000
H  39.68800 4.77700 44.67800
H  40.72900 6.15000 45.07900
H  38.78300 7.51500 45.52300
H  37.92100 6.25700 46.37700
H  42.44700 -2.28200 46.28900
H  41.30300 -1.02700 46.43500
H  41.89100 -2.00800 47.90800
H  47.40200 -1.84400 47.48700
H  46.97800 -3.26900 48.38300
H  46.85400 -1.65200 49.11700
H  49.04600 1.92700 47.36000
H  49.33500 4.24600 49.07800
H  48.96900 0.92300 50.07100
H  49.85400 2.56600 50.15700
H  50.25500 1.27700 49.00900
H  49.46600 5.39600 46.67700
H  49.38500 3.70800 46.12200
H  51.62700 5.27100 46.70800
H  51.59100 3.51300 46.54900
H  51.59500 4.22200 48.13500
H  46.71200 9.50200 48.86500
H  46.23400 9.73600 47.13900
H  47.56000 8.68000 47.61300
H  41.32400 8.00000 46.57200
H  37.85800 9.75700 48.85000
H  39.21200 10.02400 49.96100
H  38.36800 8.48200 49.75900

