158

Mg -2.72800 17.44200 27.67800
C  -2.92100 15.38400 30.42100
C  -3.36400 20.08500 29.65000
C  -2.55400 19.33300 24.83200
C  -2.69100 14.56900 25.58500
N  -3.31200 17.62200 29.93600
C  -3.15600 16.70200 30.83300
C  -3.63900 17.28900 32.24300
C  -3.67800 18.81800 31.93600
C  -3.35900 18.87200 30.43400
C  -4.95400 19.53600 32.26600
C  -2.56900 17.06600 33.35500
C  -2.44100 18.04900 34.63100
H  -2.03700 17.33300 35.91600
N  -2.98700 19.43300 27.35500
C  -3.24300 20.34800 28.32600
C  -3.07900 21.64400 27.66100
C  -2.83900 21.50500 26.25200
C  -2.73700 20.02200 26.10200
C  -3.31500 22.82600 28.46300
C  -2.59500 22.47700 25.21400
O  -2.19200 22.19200 24.09200
C  -2.70000 23.94200 25.54700
N  -2.63500 17.05900 25.50700
C  -2.58800 17.96500 24.60400
C  -2.70200 17.41000 23.17000
C  -2.61200 15.90000 23.35000
C  -2.67600 15.80500 24.87000
C  -4.06100 17.72300 22.46900
C  -1.28200 15.30800 22.76200
C  0.09100 15.35900 23.58500
N  -2.78600 15.41500 27.95000
C  -2.72400 14.34000 26.97900
C  -2.64800 13.12900 27.71900
C  -2.82200 13.48400 29.00900
C  -2.85500 14.89100 29.14400
C  -2.63400 11.68500 27.17700
C  -3.01000 12.94500 30.35000
O  -3.15600 11.78500 30.68700
C  -2.98800 14.14400 31.32000
C  -1.76400 13.99700 32.14600
O  -0.71300 14.46300 31.86800
O  -2.09600 13.31700 33.27200
C  -1.11600 13.33800 34.30400
H  -3.42000 20.91600 30.35600
H  -2.65400 20.00400 23.97600
H  -2.77000 13.64900 25.00300
H  -4.61100 16.90300 32.55200
H  -2.84300 19.28700 32.45700
H  -4.80800 20.34500 32.98100
H  -5.47600 18.73100 32.78400
H  -5.47000 19.84400 31.35600
H  -1.62300 17.07800 32.81500
H  -2.70200 16.02100 33.63500
H  -3.40100 18.50100 34.88200
H  -1.53900 18.64300 34.48500
H  -2.70900 22.88100 29.36700
H  -4.39200 22.80900 28.62800
H  -3.00100 23.69000 27.87700
H  -1.81400 24.31900 26.05700
H  -3.72200 23.95800 25.92600
H  -2.72900 24.42000 24.56800
H  -1.92800 17.69200 22.45600
H  -3.52700 15.41000 23.01600
H  -4.54400 18.42800 23.14600
H  -4.79700 16.97200 22.18400
H  -3.84300 18.38400 21.63000
H  -1.02700 15.85300 21.85400
H  -1.40800 14.24700 22.54600
H  -0.04000 15.22800 24.65900
H  0.44200 16.37800 23.42000
H  0.79300 14.59700 23.24800
H  -1.74600 11.63800 26.54700
H  -3.57300 11.52200 26.64700
H  -2.71600 10.94400 27.97300
H  -3.88700 14.14200 31.93700
H  -0.98600 14.25200 34.88300
H  -0.17900 13.04600 33.83000
H  -1.34300 12.46800 34.92100
Mg 16.65000 -0.33900 28.26200
C  15.59400 1.76100 30.97300
C  18.51800 -2.10400 30.53600
C  18.16000 -1.88700 25.78700
C  15.26200 2.04600 26.08200
N  16.94500 -0.27100 30.56400
C  16.35000 0.68800 31.41100
C  16.70300 0.35300 32.90600
C  17.84400 -0.74300 32.63700
C  17.76700 -1.08900 31.15400
C  19.35200 -0.46000 33.05000
C  15.57700 -0.03200 33.91000
C  15.58200 0.74000 35.23400
H  16.95500 1.15400 35.84400
N  17.89000 -1.96500 28.18400
C  18.63600 -2.56500 29.17800
C  19.44800 -3.65000 28.64900
C  19.14000 -3.72800 27.29800
C  18.33100 -2.49200 26.99000
C  20.40000 -4.57000 29.41500
C  19.48600 -4.73600 26.27500
O  18.96900 -4.78700 25.13300
C  20.38800 -6.03900 26.59700
N  16.58400 -0.08100 26.21500
C  17.36600 -0.79900 25.38900
C  17.32800 -0.33300 23.91500
C  16.25700 0.90000 24.03300
C  15.97400 0.94900 25.57400
C  18.81200 0.17000 23.49500
C  14.98000 0.67800 23.17800
C  14.34300 1.91000 22.46200
N  15.58200 1.50700 28.40800
C  15.04100 2.32400 27.43700
C  14.26800 3.35900 28.03700
C  14.46000 3.22700 29.44400
C  15.28100 2.05400 29.63700
C  13.47000 4.45700 27.36600
C  14.14900 3.70600 30.80300
O  13.54600 4.65200 31.15700
C  14.81200 2.71000 31.82000
C  15.77700 3.49600 32.52600
O  16.88800 3.83500 32.22600
O  15.15200 3.87500 33.70000
C  15.87700 4.86600 34.53200
H  19.18500 -2.72600 31.13600
H  18.71700 -2.40200 25.00100
H  14.76700 2.74200 25.40100
H  17.10400 1.29900 33.26800
H  17.54000 -1.64300 33.17000
H  19.52000 0.48600 33.56600
H  20.01400 -0.47200 32.18400
H  19.73000 -1.31500 33.61100
H  15.84600 -1.04600 34.20700
H  14.60100 -0.12900 33.43500
H  15.20700 0.01800 35.95800
H  14.92000 1.60500 35.25000
H  19.90300 -5.48500 29.73500
H  20.67700 -4.10300 30.36000
H  21.32800 -4.81400 28.89700
H  19.99300 -6.53200 27.48500
H  21.37300 -5.62900 26.82100
H  20.35600 -6.79300 25.81000
H  16.99800 -1.20200 23.34600
H  16.72200 1.85200 23.77900
H  19.50300 0.38200 24.31000
H  18.70100 1.10500 22.94600
H  19.25400 -0.60800 22.87300
H  14.24100 0.29100 23.88000
H  15.21200 0.03800 22.32700
H  14.90900 2.74500 22.87500
H  13.29200 2.06400 22.70700
H  14.48200 1.87100 21.38200
H  12.40000 4.26800 27.29000
H  13.92200 4.68200 26.40000
H  13.55800 5.40200 27.90000
H  14.06100 2.31300 32.50300
H  16.45900 5.66300 34.06900
H  16.52500 4.53600 35.34400
H  15.08500 5.42000 35.03700

