158

Mg -1.84900 17.13600 27.80100
C  -2.29300 14.96300 30.53700
C  -2.25500 19.73100 30.04400
C  -1.78000 19.38100 25.22100
C  -2.06100 14.46000 25.71300
N  -2.00400 17.35400 30.05700
C  -2.25200 16.31900 30.97000
C  -2.45400 16.85000 32.43200
C  -2.37700 18.40400 32.16800
C  -2.21900 18.49000 30.65900
C  -3.57500 19.25300 32.74900
C  -1.38300 16.23500 33.44400
C  -0.69300 17.09400 34.47100
H  -0.29100 16.56200 35.82300
N  -1.97100 19.23600 27.67900
C  -2.02000 20.13100 28.71100
C  -1.90500 21.45900 28.22000
C  -1.68700 21.42300 26.84000
C  -1.88500 19.95700 26.49800
C  -1.98400 22.69200 29.12000
C  -1.46600 22.55600 25.83800
O  -1.36900 22.28000 24.67500
C  -1.30700 24.01000 26.21600
N  -1.89100 16.94300 25.79600
C  -1.88500 18.01800 24.90200
C  -2.08700 17.59500 23.42900
C  -2.16100 15.98700 23.63100
C  -2.04500 15.78200 25.15500
C  -3.33200 18.14700 22.62400
C  -1.18600 15.10700 22.79400
C  0.23500 14.86700 23.31900
N  -1.91600 15.15700 27.97800
C  -2.00500 14.18200 27.07600
C  -2.12000 12.85500 27.64600
C  -2.15000 13.08200 29.02400
C  -2.12400 14.52100 29.18600
C  -2.26200 11.55600 26.87200
C  -2.37100 12.41100 30.25000
O  -2.52300 11.26500 30.50300
C  -2.50700 13.68000 31.33100
C  -1.35800 13.22400 32.22600
O  -0.15400 13.40800 31.99100
O  -1.75600 12.58800 33.37100
C  -0.73200 12.52700 34.41200
H  -2.47400 20.51100 30.77700
H  -1.88300 20.09500 24.40200
H  -2.04700 13.60900 25.02900
H  -3.44200 16.47600 32.70300
H  -1.51200 18.89000 32.62000
H  -3.22500 19.93100 33.52800
H  -4.13200 18.45300 33.23600
H  -4.06300 19.77000 31.92300
H  -0.64400 15.79200 32.77600
H  -1.98300 15.44700 33.90000
H  -1.26300 17.99100 34.71100
H  0.16900 17.51300 33.95200
H  -2.88800 23.22700 28.83200
H  -1.02800 23.20700 29.02300
H  -2.14200 22.46800 30.17500
H  -0.95500 24.57200 25.35000
H  -0.64400 23.97400 27.08100
H  -2.30300 24.30100 26.54800
H  -1.19300 17.84500 22.85800
H  -3.16900 15.59500 23.49800
H  -4.15500 17.43400 22.56700
H  -2.94100 18.41900 21.64400
H  -3.61000 19.00200 23.24000
H  -0.96600 15.72700 21.92500
H  -1.68000 14.24200 22.35100
H  0.83400 15.67200 22.89300
H  0.47300 13.85000 23.00900
H  0.41100 14.97700 24.38900
H  -1.62700 11.48200 25.98900
H  -3.32300 11.48900 26.63100
H  -2.11400 10.73200 27.56900
H  -3.38500 13.64900 31.97600
H  -0.24100 11.56400 34.27400
H  -1.33600 12.60400 35.31600
H  0.07700 13.24900 34.52000
Mg 48.21400 46.24700 42.69900
C  44.98300 46.86000 41.51400
C  48.08800 43.13900 41.17100
C  51.53800 46.06100 42.96400
C  48.31000 49.83600 43.31800
N  46.77000 45.16800 41.31500
C  45.47400 45.61300 41.16900
C  44.63000 44.54100 40.49900
C  45.49500 43.29000 40.68500
C  46.87600 43.94200 41.02700
C  44.95700 42.21800 41.65100
C  44.32900 45.00200 39.00200
C  43.01100 44.40700 38.56200
H  43.11600 43.49700 37.21400
N  49.62100 44.81600 42.15700
C  49.35100 43.56400 41.60400
C  50.56700 42.75700 41.67800
C  51.55800 43.56100 42.10800
C  50.95100 44.92500 42.42800
C  50.56800 41.32300 41.23000
C  53.04300 43.06700 42.24300
O  53.48300 42.00600 41.82700
C  53.97500 43.91100 42.99700
N  49.70600 47.75000 42.92600
C  51.00900 47.36600 43.16700
C  51.89400 48.62100 43.51700
C  50.87400 49.78100 43.50200
C  49.56900 49.11900 43.22100
C  52.72200 48.52600 44.83800
C  51.30900 51.00500 42.56700
C  51.63000 52.31000 43.21500
N  46.89500 47.90900 42.77200
C  47.03900 49.25300 43.10900
C  45.83300 49.91700 43.09000
C  44.95000 48.98100 42.55400
C  45.63700 47.79400 42.25100
C  45.59500 51.35600 43.69800
C  43.62400 48.79400 42.08800
O  42.60600 49.46100 42.12600
C  43.54100 47.38900 41.40600
C  42.54800 46.61500 42.14500
O  42.71700 45.91900 43.15300
O  41.43700 46.71400 41.41200
C  40.35600 45.78700 41.85500
H  47.94800 42.06400 41.04200
H  52.57700 46.02200 43.29600
H  48.31000 50.90600 43.53300
H  43.70700 44.43500 41.06700
H  45.57200 42.80100 39.71400
H  44.76000 41.37500 40.98800
H  44.05800 42.61200 42.12400
H  45.75600 41.96800 42.34800
H  45.14800 44.70800 38.34500
H  44.25000 46.08600 39.09300
H  42.31100 45.23800 38.48100
H  42.62400 43.70600 39.30200
H  50.73100 41.31900 40.15200
H  49.68500 40.76800 41.54700
H  51.39000 40.74800 41.65700
H  54.22100 44.81900 42.44800
H  54.93000 43.39400 43.09500
H  53.53300 43.99300 43.99000
H  52.65800 48.74200 42.74900
H  50.75600 50.16600 44.51400
H  52.55500 47.47700 45.08100
H  52.29400 49.04900 45.69400
H  53.76900 48.78700 44.68400
H  50.54300 51.28300 41.84300
H  52.25200 50.77700 42.07100
H  51.46600 52.28400 44.29200
H  50.98800 53.08200 42.79000
H  52.66600 52.52900 42.95800
H  44.89900 51.74400 42.95500
H  46.46800 52.00600 43.76100
H  45.02500 51.23800 44.61900
H  43.15500 47.53300 40.39700
H  39.53700 45.72200 41.13800
H  39.92400 46.05500 42.81900
H  40.80300 44.79300 41.85200

