158

Mg 40.67600 8.69200 29.30700
C  42.38300 9.88700 32.06800
C  38.63200 6.93500 31.44300
C  38.97800 7.38200 26.59600
C  43.01600 10.12900 27.14900
N  40.54700 8.40300 31.55200
C  41.27800 9.07600 32.44200
C  40.70800 9.01200 33.87900
C  39.63500 7.88800 33.67800
C  39.53400 7.73700 32.12400
C  39.79600 6.67300 34.56200
C  40.36800 10.31500 34.62200
C  39.25600 10.29600 35.66300
H  39.46500 11.22600 36.82000
N  39.11900 7.32700 29.02800
C  38.41300 6.69700 30.07300
C  37.41100 5.83400 29.49600
C  37.48100 5.94400 28.08900
C  38.62300 6.84000 27.80700
C  36.52500 4.94700 30.28900
C  36.58200 5.33100 27.05100
O  36.75100 5.55100 25.87300
C  35.45300 4.47900 27.33700
N  40.99900 8.61300 27.16100
C  40.05500 8.20600 26.24200
C  40.35000 8.66900 24.87900
C  41.65900 9.55100 25.07100
C  41.89700 9.51800 26.63400
C  40.51000 7.54600 23.77800
C  41.56200 10.90400 24.36400
C  40.39100 11.82000 24.82100
N  42.34900 9.72500 29.52500
C  43.21000 10.25900 28.57200
C  44.29900 10.97900 29.28900
C  43.91300 10.91000 30.64700
C  42.75300 10.10300 30.73200
C  45.32500 11.73000 28.49500
C  44.29500 11.38400 31.93400
O  45.18600 12.13400 32.28300
C  43.28400 10.77600 32.92000
C  44.08200 10.10700 34.10700
O  44.66400 9.00400 34.09000
O  44.12700 11.02600 35.20400
C  44.55900 10.41700 36.54300
H  37.93100 6.49400 32.15600
H  38.39900 7.01000 25.74900
H  43.60400 10.73300 26.45400
H  41.62900 8.69500 34.36700
H  38.62200 8.23400 33.88500
H  40.58200 6.81800 35.30300
H  40.06900 5.77400 34.01000
H  38.84000 6.58700 35.08000
H  40.02700 11.08000 33.92400
H  41.25000 10.74800 35.09400
H  39.10700 9.30800 36.09800
H  38.40800 10.64900 35.07600
H  35.53800 5.40700 30.26900
H  36.83300 4.92900 31.33400
H  36.39400 3.93400 29.90800
H  34.71800 4.87800 28.03600
H  35.73500 3.48400 27.68100
H  34.98400 4.20300 26.39200
H  39.49500 9.20700 24.47100
H  42.50900 9.02600 24.63700
H  41.23800 7.80900 23.01000
H  39.64000 7.31000 23.16500
H  40.94800 6.62500 24.16300
H  41.53400 10.70200 23.29300
H  42.49200 11.43900 24.56100
H  39.69800 11.35000 25.51900
H  39.91700 12.07700 23.87400
H  40.80700 12.71100 25.29200
H  44.87600 12.21500 27.62800
H  46.15600 11.06000 28.27500
H  45.62500 12.44900 29.25800
H  42.63600 11.54500 33.33900
H  44.44400 9.33600 36.62400
H  43.88400 10.74400 37.33400
H  45.54400 10.74200 36.87900
Mg 47.21900 25.09500 29.00800
C  47.98500 27.43600 31.48900
C  46.05800 22.90900 31.47900
C  46.45900 22.87700 26.57800
C  48.64500 27.15800 26.68100
N  47.14900 25.16800 31.25200
C  47.26700 26.32900 31.99700
C  46.71200 26.18600 33.42700
C  46.25300 24.64100 33.42400
C  46.46900 24.20600 31.93100
C  47.04100 23.73100 34.46800
C  45.51500 27.23000 33.68100
C  45.47800 27.99600 35.01600
H  45.05700 27.07200 36.20800
N  46.26500 23.23600 29.01500
C  45.95500 22.45700 30.12700
C  45.43400 21.16400 29.69100
C  45.50100 21.17900 28.26400
C  46.02600 22.49800 27.85000
C  44.79000 20.16900 30.63100
C  45.02400 20.14200 27.26700
O  45.04400 20.37900 26.04100
C  44.59900 18.81300 27.72000
N  47.53600 25.02300 26.91600
C  47.08800 24.02000 26.12200
C  47.56300 24.17700 24.73000
C  47.92400 25.70200 24.68300
C  48.07900 25.99100 26.16800
C  48.58200 23.14900 24.16900
C  46.81000 26.57700 23.96900
C  47.31800 27.96200 23.68500
N  48.26700 26.77400 29.08200
C  48.80500 27.52900 28.00800
C  49.37400 28.70600 28.50600
C  49.03700 28.74500 29.88600
C  48.39700 27.53800 30.17000
C  49.93700 29.81500 27.76300
C  49.05400 29.55200 31.12400
O  49.46800 30.70300 31.26100
C  48.47200 28.63000 32.24100
C  49.52700 28.58000 33.29800
O  50.25100 27.65900 33.61400
O  49.50300 29.73700 34.04000
C  50.15800 29.53100 35.34900
H  45.66900 22.24900 32.25700
H  46.51900 22.07400 25.84100
H  49.17600 27.83500 26.00900
H  47.48800 26.27900 34.18600
H  45.18400 24.55000 33.61600
H  47.95800 23.34200 34.02700
H  46.48200 22.82600 34.70800
H  47.26400 24.27800 35.38400
H  44.61300 26.62200 33.60800
H  45.54500 27.97300 32.88400
H  44.73900 28.79200 34.92900
H  46.48700 28.37700 35.17400
H  43.71000 20.05100 30.53900
H  44.91800 20.46500 31.67200
H  45.36100 19.27900 30.36800
H  45.17400 18.32000 28.50300
H  44.64500 18.18600 26.83000
H  43.60400 19.03000 28.10800
H  46.65600 24.06400 24.13600
H  48.88500 25.84800 24.18900
H  49.00500 22.46700 24.90500
H  49.38700 23.70800 23.69000
H  48.17700 22.47600 23.41300
H  45.90100 26.66900 24.56300
H  46.49800 26.09100 23.04400
H  46.64600 28.27500 22.88500
H  48.33500 27.91800 23.29700
H  47.30000 28.65500 24.52600
H  50.77700 29.57100 27.11300
H  50.26600 30.61700 28.42400
H  49.10800 30.05600 27.09700
H  47.70800 29.25000 32.70900
H  50.12800 30.42700 35.96800
H  51.23600 29.48200 35.19500
H  49.82700 28.75700 36.04100

