158

Mg 2.05100 -2.05900 44.81300
C  5.23100 -1.04700 43.99300
C  0.75600 0.46300 42.72200
C  -1.08900 -3.24900 45.18900
C  3.39100 -4.84000 46.36500
N  2.86700 -0.54100 43.45200
C  4.25500 -0.28600 43.27900
C  4.57700 0.90200 42.32600
C  3.10000 1.37000 41.98700
C  2.17100 0.33800 42.71700
C  2.84100 2.82500 42.41600
C  5.47200 0.32500 41.19100
C  6.75100 1.14700 40.93100
H  7.31500 1.09100 39.50400
N  0.11200 -1.41600 44.06300
C  -0.21000 -0.38300 43.28000
C  -1.68600 -0.26400 43.17400
C  -2.24500 -1.23300 43.99700
C  -1.03900 -2.04800 44.43900
C  -2.46200 0.82600 42.39900
C  -3.81000 -1.34200 44.42600
O  -4.68700 -0.60100 43.99400
C  -4.30000 -2.33600 45.36200
N  1.32800 -3.81900 45.50500
C  -0.07500 -4.03100 45.68500
C  -0.34400 -5.39200 46.28000
C  1.07600 -5.69900 46.87900
C  2.01200 -4.77000 46.14600
C  -1.54900 -5.66100 47.11400
C  1.25800 -7.25100 46.79300
C  0.97100 -8.07900 48.09000
N  3.94800 -2.86400 45.17700
C  4.39200 -3.94300 45.86800
C  5.90300 -3.88700 46.00600
C  6.16100 -2.74600 45.30500
C  5.03800 -2.20500 44.75300
C  6.79400 -4.76400 46.82500
C  7.29200 -1.90500 44.96200
O  8.46900 -1.99300 45.20600
C  6.74000 -0.70300 44.19100
C  6.92000 0.60200 44.94600
O  6.29400 0.95300 45.93300
O  7.89500 1.39700 44.42200
C  8.19500 2.69100 45.05900
H  0.43500 1.31100 42.11400
H  -2.14700 -3.51600 45.22500
H  3.86600 -5.72600 46.79200
H  5.00000 1.77600 42.82200
H  2.88100 1.22700 40.92900
H  3.52800 3.40100 41.79700
H  3.15200 3.00800 43.44400
H  1.81500 3.18600 42.34700
H  4.86500 0.49500 40.30200
H  5.67900 -0.74000 41.30000
H  7.49600 0.66600 41.56400
H  6.63000 2.17300 41.27800
H  -1.90500 1.50000 41.74800
H  -3.01200 1.57400 42.97100
H  -3.20000 0.31100 41.78400
H  -4.27900 -3.31700 44.88700
H  -5.30200 -2.06900 45.69900
H  -3.76500 -2.48500 46.30000
H  -0.57300 -6.06900 45.45600
H  1.06800 -5.48600 47.94800
H  -2.12600 -6.43200 46.60300
H  -2.14900 -4.77500 47.31900
H  -1.33700 -6.06200 48.10500
H  2.29400 -7.41200 46.49500
H  0.59900 -7.74900 46.08200
H  0.13800 -8.75000 47.87700
H  0.76600 -7.45400 48.95900
H  1.87000 -8.61500 48.39300
H  7.15200 -5.67100 46.33600
H  6.20200 -5.08800 47.68100
H  7.62600 -4.15800 47.18200
H  7.20900 -0.72400 43.20800
H  7.42900 3.34700 44.64700
H  9.18500 2.96900 44.69900
H  8.20100 2.72200 46.14900
Mg 10.32800 46.74700 24.71900
C  8.07200 47.14000 27.43100
C  12.76100 48.31200 26.51800
C  12.29200 46.58800 21.97100
C  7.53100 45.81200 22.77200
N  10.36800 47.73500 26.58300
C  9.40200 47.63300 27.65700
C  9.96700 47.98600 28.99400
C  11.34400 48.73500 28.53500
C  11.51600 48.30500 27.09200
C  11.14700 50.25700 28.64600
C  10.26600 46.72000 29.86400
C  10.09900 47.10100 31.39400
H  9.85900 45.89300 32.34100
N  12.35100 47.18300 24.34800
C  13.19700 47.74900 25.28700
C  14.50700 47.66200 24.80900
C  14.38600 47.16700 23.49600
C  12.97900 46.98500 23.16700
C  15.70000 47.92400 25.69600
C  15.51700 46.84400 22.50900
O  15.29100 46.47800 21.37400
C  16.96100 46.78900 22.83000
N  9.88900 46.36700 22.70600
C  10.90300 46.37200 21.77400
C  10.42800 45.91600 20.41700
C  8.98200 45.41700 20.70700
C  8.76800 45.80600 22.16800
C  10.51000 46.93500 19.30700
C  8.74300 43.92100 20.46500
C  9.47700 43.01600 21.54200
N  8.22400 46.42400 25.04300
C  7.22200 46.13500 24.14500
C  5.88600 46.33700 24.73700
C  6.16600 46.57900 26.12000
C  7.58100 46.68000 26.20700
C  4.57900 46.17600 24.08200
C  5.67600 46.76300 27.43700
O  4.52900 46.57300 27.89000
C  6.89300 47.06800 28.42400
C  7.03000 45.92600 29.34200
O  7.50200 44.84200 29.05600
O  6.46700 46.41600 30.51100
C  6.47800 45.53400 31.65500
H  13.63200 48.63400 27.09100
H  12.94400 46.31800 21.13600
H  6.71900 45.86800 22.04400
H  9.12000 48.54500 29.39300
H  12.11800 48.46400 29.25300
H  10.37800 50.80800 28.10400
H  12.13200 50.66600 28.42200
H  10.94000 50.47100 29.69400
H  11.32900 46.49400 29.78600
H  9.68100 45.83000 29.63000
H  9.15100 47.60700 31.57900
H  10.86200 47.77900 31.77600
H  15.56500 47.57100 26.71900
H  16.05700 48.95300 25.66900
H  16.51000 47.30200 25.31300
H  17.03700 45.90100 23.45800
H  17.08300 47.78300 23.26000
H  17.64000 46.80800 21.97700
H  11.13200 45.15700 20.07800
H  8.30800 46.02700 20.10600
H  11.26700 47.69800 19.48600
H  9.52800 47.35400 19.08500
H  10.82200 46.36400 18.43300
H  9.10100 43.63400 19.47700
H  7.65700 43.83100 20.48200
H  8.73500 42.51700 22.16500
H  10.21600 43.54400 22.14400
H  10.16100 42.31700 21.06000
H  3.86800 46.91400 24.45400
H  4.35100 45.14400 24.34900
H  4.64400 46.41100 23.01900
H  6.75500 47.97500 29.01300
H  6.90500 46.19500 32.41000
H  7.11800 44.66600 31.49900
H  5.47200 45.25200 31.96800

