158

Mg 31.05000 59.56100 38.45000
C  28.01200 58.07800 37.42900
C  32.73900 57.09100 36.97800
C  33.80700 61.48700 38.70400
C  29.05800 62.66000 38.78900
N  30.42100 57.77500 37.36900
C  29.20100 57.37900 37.02800
C  29.18800 56.04600 36.32500
C  30.69200 55.62600 36.41300
C  31.37900 56.82500 37.04900
C  30.95300 54.26800 37.21700
C  28.62800 56.18700 34.87000
C  27.41300 55.28100 34.49100
H  26.28300 55.98200 33.72700
N  33.06400 59.14800 38.09000
C  33.55400 58.10500 37.46900
C  35.02600 58.24800 37.26900
C  35.41400 59.57200 37.75200
C  34.07100 60.17000 38.22100
C  35.87500 57.17300 36.60300
C  36.78300 60.07100 37.76500
O  37.68000 59.45600 37.22800
C  37.10900 61.37400 38.39900
N  31.37700 61.68700 38.61600
C  32.65200 62.20200 38.75900
C  32.62800 63.74300 38.93800
C  31.17700 64.12800 38.62300
C  30.47300 62.75000 38.77200
C  33.32700 64.32700 40.15600
C  30.80800 64.80100 37.29100
C  30.01200 66.05200 37.46200
N  28.95400 60.19800 38.40600
C  28.39300 61.44700 38.61100
C  26.92500 61.26800 38.46800
C  26.78600 59.91900 38.12000
C  28.02800 59.29400 38.01600
C  25.93800 62.36000 38.68500
C  25.70900 59.02400 37.69700
O  24.50800 59.28200 37.54600
C  26.48800 57.71800 37.27800
C  26.10300 56.58800 38.18300
O  26.69800 56.42200 39.24800
O  25.07000 55.70800 37.77400
C  24.81600 54.56600 38.65700
H  33.26100 56.20200 36.61800
H  34.68100 62.14100 38.68900
H  28.51500 63.60800 38.78700
H  28.54300 55.39400 36.91300
H  31.11500 55.44700 35.42500
H  30.14200 53.56500 37.02900
H  30.98100 54.45600 38.29000
H  31.82200 53.71300 36.86300
H  29.38400 55.92000 34.13000
H  28.46200 57.26400 34.82600
H  26.96900 54.83800 35.38300
H  27.80900 54.46200 33.89000
H  35.25800 56.29500 36.40800
H  36.55800 56.94100 37.42100
H  36.37300 57.39400 35.65900
H  38.18200 61.43100 38.58200
H  36.65700 61.43700 39.38900
H  36.84800 62.19500 37.73200
H  33.16700 63.93200 38.01000
H  30.79600 64.68600 39.47900
H  33.75300 65.28800 39.86800
H  34.11900 63.69700 40.56000
H  32.65200 64.52600 40.98800
H  30.26300 64.10300 36.65500
H  31.67300 65.13300 36.71700
H  28.97300 65.92800 37.15600
H  30.29700 66.82400 36.74800
H  29.95400 66.45800 38.47200
H  26.33600 63.33300 38.97400
H  25.20600 61.99900 39.40800
H  25.43300 62.59200 37.74700
H  26.12700 57.53600 36.26600
H  24.04900 54.73300 39.41300
H  25.67400 54.21300 39.23000
H  24.42100 53.75000 38.05200
Mg 16.14000 51.36900 24.82300
C  18.23100 50.60500 27.54100
C  13.54300 51.44000 26.86600
C  14.32700 51.68800 22.17900
C  19.11900 50.88100 22.74700
N  15.95600 51.08700 26.98200
C  16.92900 50.91100 27.92700
C  16.40600 51.18700 29.33400
C  14.82100 51.42100 29.14700
C  14.73300 51.33200 27.56600
C  13.91300 50.37500 29.90900
C  17.09600 52.39600 30.07800
C  16.99400 52.43700 31.63500
H  16.17100 51.42000 32.37600
N  14.18400 51.33000 24.51400
C  13.26600 51.40800 25.46700
C  11.99700 51.25900 24.85600
C  12.14900 51.45200 23.44400
C  13.56800 51.47200 23.29300
C  10.76500 51.28200 25.62200
C  11.02700 51.56900 22.37300
O  11.38300 51.70400 21.19100
C  9.56600 51.49300 22.72800
N  16.66900 51.23300 22.74400
C  15.67300 51.66500 21.90400
C  16.28300 52.09600 20.62200
C  17.83600 51.99300 20.83600
C  17.93000 51.33400 22.15700
C  15.71800 51.32900 19.38200
C  18.64400 53.29300 20.87100
C  18.93600 53.84800 19.47400
N  18.20800 50.84500 25.03200
C  19.26100 50.60300 24.12500
C  20.43600 50.12900 24.80200
C  20.07000 50.06000 26.09900
C  18.75300 50.55200 26.22200
C  21.69300 49.80400 24.19800
C  20.60700 49.79200 27.52000
O  21.64500 49.34200 27.98500
C  19.38200 50.19200 28.43000
C  19.00200 49.10300 29.37000
O  18.64600 48.00200 28.96900
O  19.38700 49.35300 30.69000
C  19.26000 48.29100 31.72300
H  12.70300 51.41100 27.56200
H  13.72300 51.90400 21.29600
H  19.96900 50.81400 22.06400
H  16.48800 50.25100 29.88700
H  14.42300 52.40000 29.41500
H  13.42000 50.92900 30.70800
H  14.48600 49.55400 30.34000
H  13.07200 49.95800 29.35400
H  16.80700 53.35200 29.64100
H  18.16600 52.34400 29.87500
H  16.58900 53.38400 31.99200
H  17.97900 52.25400 32.06300
H  10.11800 50.59000 25.08300
H  10.34200 52.27500 25.46300
H  10.86500 51.00300 26.67100
H  9.29600 50.57400 23.24800
H  9.03800 51.58000 21.77800
H  9.29100 52.32500 23.37600
H  16.07000 53.15600 20.48600
H  18.28200 51.26400 20.15800
H  15.28300 50.41500 19.78700
H  16.44400 51.08400 18.60700
H  14.96700 52.05900 19.08100
H  19.57600 53.14200 21.41500
H  18.09400 54.06400 21.40900
H  18.45300 54.82500 19.46300
H  18.47700 53.25500 18.68400
H  20.01900 53.87700 19.35200
H  22.56900 49.89400 24.84100
H  21.94400 50.40300 23.32200
H  21.60500 48.75900 23.89800
H  19.78300 51.00500 29.03500
H  18.34900 48.50500 32.28100
H  20.08000 48.45600 32.42200
H  19.32000 47.22300 31.51200

