158

Mg 48.58200 44.60800 43.19400
C  45.10000 44.26100 42.98500
C  48.79000 40.98600 43.01900
C  51.92300 44.95600 42.92700
C  48.17700 48.05800 42.68700
N  47.06600 42.93400 43.04500
C  45.70300 42.98300 43.09700
C  44.98900 41.60200 43.01800
C  46.21100 40.66000 43.41600
C  47.45800 41.52900 43.11900
C  46.15000 40.17500 44.90600
C  44.25200 41.27000 41.72200
C  45.16500 41.50600 40.43500
H  45.50800 40.26400 39.50300
N  50.19400 43.14500 42.97800
C  50.07000 41.73900 42.93300
C  51.43300 41.22900 42.91900
C  52.38000 42.32000 42.98400
C  51.56000 43.54600 43.02300
C  51.59800 39.75600 42.72900
C  53.89500 42.18800 42.99300
O  54.40500 41.10200 43.09100
C  54.70300 43.35400 42.66100
N  49.88100 46.28500 42.76300
C  51.20100 46.16100 42.86800
C  51.95400 47.43900 42.45000
C  50.71500 48.44400 42.64800
C  49.48800 47.60500 42.70600
C  53.16300 47.92300 43.29700
C  50.62800 49.56000 41.54600
C  51.93100 50.23200 41.03300
N  47.03400 45.97600 43.03100
C  46.99400 47.32400 42.85900
C  45.60200 47.84000 42.81300
C  44.82400 46.66500 42.83600
C  45.73000 45.54200 43.03100
C  45.19800 49.21300 42.67400
C  43.52000 46.19400 42.72800
O  42.50300 46.82000 42.64700
C  43.57200 44.61300 42.91600
C  42.69700 44.12000 44.09500
O  41.78500 43.36500 44.04700
O  43.09600 44.69600 45.24200
C  42.44000 44.13000 46.48300
H  48.78500 39.89900 43.12100
H  52.98500 45.13000 42.74100
H  47.94300 49.12400 42.73800
H  44.38200 41.63000 43.92200
H  46.17100 39.79300 42.75700
H  46.82600 40.79800 45.49300
H  46.55500 39.16300 44.92600
H  45.13300 40.18700 45.29800
H  43.36400 41.89500 41.63100
H  43.90900 40.24600 41.86600
H  46.12500 41.83800 40.82900
H  44.74800 42.27900 39.79000
H  51.00000 39.53600 41.84500
H  51.17800 39.26200 43.60600
H  52.61000 39.40600 42.53000
H  54.25600 43.85700 41.80400
H  55.72600 43.04300 42.44900
H  54.78900 43.90800 43.59600
H  52.20900 47.54200 41.39500
H  50.84600 48.97800 43.58900
H  53.32800 47.08600 43.97700
H  53.18400 48.89000 43.80000
H  54.10000 47.97400 42.74200
H  49.98400 50.38800 41.84300
H  50.18500 49.10800 40.65900
H  52.80000 49.78800 41.51900
H  51.94000 51.27500 41.34900
H  52.14700 50.21600 39.96500
H  45.22600 49.58100 41.64800
H  45.73000 49.89700 43.33600
H  44.15900 49.34400 42.97800
H  43.15600 44.13300 42.02900
H  42.60700 43.05400 46.53500
H  41.35200 44.11100 46.42000
H  42.80800 44.73900 47.30800
Mg -10.41600 40.21000 42.42500
C  -9.45400 36.98400 41.51100
C  -7.60600 41.34700 40.56700
C  -11.58000 43.35700 42.47100
C  -13.50100 38.94500 43.30400
N  -8.85700 39.26200 40.92200
C  -8.59500 37.89900 40.95100
C  -7.28700 37.57100 40.18400
C  -6.53300 39.00900 40.19200
C  -7.75900 39.92600 40.61300
C  -5.29300 39.20400 41.15100
C  -7.59000 37.04100 38.76800
C  -6.82800 35.84000 38.15000
H  -5.75400 36.13300 37.13900
N  -9.61500 42.06400 41.74800
C  -8.48100 42.29400 41.02300
C  -8.24500 43.77700 41.02000
C  -9.35000 44.40400 41.66900
C  -10.23900 43.27600 41.97800
C  -7.10900 44.40200 40.26800
C  -9.53300 45.93100 41.84500
O  -8.81700 46.80400 41.35100
C  -10.62400 46.41900 42.63100
N  -12.34400 41.06900 42.83500
C  -12.58100 42.33000 42.86600
C  -14.09000 42.55500 43.16500
C  -14.53400 41.16500 43.73200
C  -13.41400 40.32400 43.20800
C  -14.49600 43.80600 44.09800
C  -16.01200 40.76500 43.32600
C  -16.90000 40.27200 44.48500
N  -11.32200 38.29500 42.53900
C  -12.55000 37.93400 42.97800
C  -12.65100 36.50600 42.97600
C  -11.53800 36.04600 42.35800
C  -10.70200 37.22600 42.13900
C  -13.78100 35.64300 43.49900
C  -10.76400 34.93200 41.78400
O  -11.06100 33.73500 41.72700
C  -9.38400 35.49100 41.21800
C  -8.25900 34.78300 41.91100
O  -7.77400 35.09800 42.98400
O  -7.84000 33.72400 41.20100
C  -6.77600 32.86300 41.71600
H  -6.73500 41.66900 39.99200
H  -12.10300 44.31500 42.47300
H  -14.45800 38.46700 43.52500
H  -6.57700 36.93200 40.71000
H  -6.23300 39.25600 39.17300
H  -4.58300 38.45200 40.80300
H  -5.61300 38.96700 42.16500
H  -5.02800 40.25900 41.08000
H  -7.45200 37.88600 38.09300
H  -8.65600 36.81800 38.72100
H  -7.54300 35.19300 37.64100
H  -6.35200 35.36200 39.00600
H  -7.25600 44.48700 39.19100
H  -6.19800 43.81200 40.37000
H  -6.85200 45.37200 40.69400
H  -10.72800 45.80500 43.52500
H  -11.55900 46.32700 42.07800
H  -10.45000 47.45000 42.93800
H  -14.52200 42.59500 42.16500
H  -14.33900 41.12300 44.80400
H  -13.64400 44.47300 44.23200
H  -14.72300 43.55400 45.13400
H  -15.31700 44.29600 43.57600
H  -15.98600 40.03200 42.52000
H  -16.59100 41.63900 43.02700
H  -16.29400 40.01600 45.35400
H  -17.36400 39.35000 44.13400
H  -17.67100 41.02600 44.64900
H  -14.20600 35.96400 44.45000
H  -13.42900 34.61400 43.56800
H  -14.57300 35.69100 42.75200
H  -9.49400 35.20900 40.17100
H  -7.09800 32.15100 42.47600
H  -6.03500 33.46200 42.24600
H  -6.20400 32.42900 40.89700

