158

Mg 0.17700 -2.57200 44.39500
C  3.68900 -2.23200 44.30300
C  -0.02800 0.24100 42.48700
C  -3.06000 -3.21900 44.11100
C  0.61900 -5.69500 45.85200
N  1.78400 -1.20000 43.35100
C  3.09800 -1.16500 43.53000
C  3.76700 0.02200 42.75500
C  2.50600 0.88100 42.41500
C  1.32000 -0.08800 42.73000
C  2.39300 2.18700 43.18700
C  4.64400 -0.43100 41.55100
C  5.62400 0.61500 40.97100
H  5.25500 1.09800 39.60500
N  -1.26100 -1.60800 43.43000
C  -1.20000 -0.46600 42.72500
C  -2.51000 -0.03000 42.31700
C  -3.41700 -1.08700 42.62000
C  -2.59400 -2.01400 43.49200
C  -2.69100 1.07900 41.33200
C  -4.77200 -1.17600 42.05500
O  -5.26000 -0.32300 41.31000
C  -5.53900 -2.42400 42.24900
N  -1.06800 -4.10100 45.00400
C  -2.36300 -4.15100 44.82400
C  -3.03200 -5.43800 45.23400
C  -1.85300 -6.27900 45.80500
C  -0.68000 -5.32200 45.48500
C  -4.23800 -5.28100 46.19000
C  -1.77400 -7.76600 45.28500
C  -1.55900 -8.87400 46.33600
N  1.74500 -3.69300 45.07300
C  1.75400 -4.92800 45.67000
C  3.15400 -5.29400 45.94400
C  3.89400 -4.21600 45.42200
C  3.02000 -3.31800 44.82200
C  3.65100 -6.43900 46.66200
C  5.28500 -3.70600 45.28700
O  6.34600 -4.12500 45.74500
C  5.15900 -2.52200 44.35000
C  5.98500 -1.34900 44.85500
O  5.74400 -0.59300 45.76800
O  7.03800 -1.07400 43.90800
C  8.02000 -0.05000 44.29400
H  -0.14000 1.19100 41.96000
H  -4.11600 -3.48600 44.18700
H  0.74800 -6.65800 46.35000
H  4.38400 0.54100 43.48800
H  2.53700 1.32900 41.42200
H  3.33600 2.69600 43.38600
H  1.77500 2.15400 44.08400
H  1.95800 2.91800 42.50600
H  3.91700 -0.63000 40.76400
H  5.23600 -1.29000 41.86600
H  6.60700 0.14500 40.97800
H  5.72800 1.42900 41.68800
H  -2.33500 0.79800 40.34100
H  -2.18000 1.98800 41.64900
H  -3.72000 1.40700 41.18300
H  -4.94900 -3.30400 41.99300
H  -6.35700 -2.33800 41.53300
H  -5.94500 -2.32000 43.25600
H  -3.26700 -5.94500 44.29800
H  -1.96100 -6.48100 46.87100
H  -4.01100 -5.59800 47.20800
H  -4.88200 -6.03800 45.74200
H  -4.55100 -4.24200 46.29100
H  -0.94500 -7.76300 44.57700
H  -2.70900 -8.04500 44.80000
H  -0.59000 -9.35900 46.22300
H  -2.26700 -9.68800 46.17600
H  -1.58800 -8.50600 47.36100
H  3.12800 -6.56700 47.60900
H  4.70000 -6.22400 46.86800
H  3.48800 -7.33600 46.06400
H  5.48600 -3.02800 43.44200
H  7.42600 0.64100 44.89300
H  8.33600 0.47800 43.39400
H  8.79100 -0.57500 44.85700
Mg -12.59100 16.80400 41.34200
C  -9.76800 14.81400 40.81600
C  -10.91000 19.43700 39.97600
C  -15.34000 18.50000 41.26100
C  -14.32100 13.75600 42.13600
N  -10.51500 17.15400 40.46200
C  -9.58900 16.11700 40.37300
C  -8.32300 16.69000 39.78200
C  -8.59000 18.25500 39.52600
C  -10.09500 18.32500 39.99000
C  -7.78000 19.29000 40.32100
C  -7.92400 15.93700 38.46100
C  -6.51800 15.28600 38.38100
H  -5.69100 15.64200 37.12200
N  -13.07200 18.75900 40.79700
C  -12.20000 19.68300 40.29000
C  -12.91300 20.95300 39.97500
C  -14.27800 20.75400 40.40500
C  -14.30800 19.30200 40.83700
C  -12.24900 22.08300 39.35300
C  -15.43000 21.69900 40.49900
O  -15.37300 22.83600 40.08000
C  -16.69200 21.35200 41.15000
N  -14.61200 16.09900 41.47000
C  -15.59300 17.14700 41.55000
C  -16.96900 16.58900 41.91200
C  -16.49000 15.11400 42.37400
C  -15.09500 14.93500 41.90500
C  -17.70800 17.44700 42.95800
C  -17.48000 14.00600 41.90200
C  -18.36200 13.23900 42.93700
N  -12.18900 14.73500 41.48900
C  -12.98400 13.62500 41.76300
C  -12.19300 12.46300 41.69300
C  -10.89100 12.83400 41.30700
C  -10.95800 14.21100 41.19800
C  -12.54200 11.07000 41.99300
C  -9.54200 12.29700 41.07200
O  -8.99500 11.18200 41.32000
C  -8.76100 13.65800 40.73800
C  -7.62500 13.83500 41.79900
O  -7.72900 13.77000 43.02500
O  -6.41200 14.17000 41.19100
C  -5.18300 14.28900 42.06000
H  -10.36700 20.30500 39.59400
H  -16.29400 19.02800 41.19800
H  -14.77500 12.82100 42.47000
H  -7.59200 16.74200 40.58900
H  -8.53500 18.46600 38.45800
H  -7.26000 19.87400 39.56100
H  -7.04400 18.86400 41.00200
H  -8.36000 20.00000 40.91000
H  -8.07600 16.62100 37.62700
H  -8.68600 15.19900 38.21000
H  -6.55700 14.19700 38.38800
H  -5.91100 15.55500 39.24500
H  -11.63300 21.85100 38.48400
H  -11.41100 22.37800 39.98400
H  -12.78300 23.01400 39.16500
H  -16.57300 20.87400 42.12300
H  -17.28600 20.69700 40.51300
H  -17.25700 22.27500 41.28400
H  -17.49200 16.52700 40.95700
H  -16.73400 15.17900 43.43400
H  -18.01500 16.79900 43.77900
H  -18.60500 17.87700 42.51300
H  -17.02100 18.22200 43.29700
H  -16.82700 13.37800 41.29600
H  -18.20000 14.49100 41.24400
H  -18.20200 12.19100 42.68600
H  -19.37500 13.63300 42.86200
H  -17.96700 13.44000 43.93300
H  -13.29600 10.81500 41.24800
H  -13.01700 11.08200 42.97300
H  -11.77300 10.30300 41.89800
H  -8.23100 13.50900 39.79800
H  -4.63900 13.35100 42.17600
H  -5.40700 14.68600 43.05000
H  -4.48100 15.01800 41.65600

