158

Mg 47.02000 16.71300 28.23200
C  45.24000 16.15500 31.19500
C  48.97700 18.94100 29.98200
C  48.69900 17.40200 25.33300
C  44.64400 14.98700 26.44600
N  47.02200 17.48400 30.36900
C  46.32400 17.00300 31.38000
C  46.87600 17.49000 32.75000
C  48.11300 18.42200 32.22900
C  48.00400 18.26700 30.76100
C  48.06100 19.85600 32.67300
C  47.33700 16.38300 33.66000
C  46.97200 16.47000 35.15200
H  47.55300 17.65700 35.94100
N  48.59500 17.97500 27.66100
C  49.24600 18.86900 28.55600
C  50.08100 19.76700 27.84600
C  50.02500 19.30300 26.53700
C  49.14600 18.16200 26.44300
C  50.98400 20.84900 28.46900
C  50.88100 19.83500 25.29100
O  50.68600 19.32900 24.13200
C  51.89600 20.91100 25.40000
N  46.89800 16.04300 26.25500
C  47.74200 16.42500 25.27500
C  47.16700 15.89200 23.94600
C  45.92300 15.05100 24.31500
C  45.77000 15.41000 25.77700
C  46.88200 16.85800 22.76200
C  46.01300 13.53700 24.01600
C  46.22800 12.95300 22.60900
N  45.26900 15.71000 28.64000
C  44.37400 15.08600 27.85900
C  43.23700 14.65600 28.66700
C  43.59800 15.03300 29.97400
C  44.85100 15.67900 29.90600
C  42.04200 13.92100 28.23900
C  43.08900 15.01600 31.32700
O  42.02700 14.56300 31.76200
C  44.16000 15.80600 32.21500
C  43.55200 17.02200 32.91000
O  42.91900 17.85800 32.29300
O  43.73100 16.97600 34.26500
C  43.03400 18.02600 34.98500
H  49.59700 19.63200 30.55700
H  49.10800 17.60200 24.34000
H  43.81200 14.56500 25.87800
H  46.11200 18.18500 33.09900
H  49.08100 18.06400 32.57900
H  48.90100 19.94800 33.36100
H  47.21000 20.00400 33.33700
H  48.13700 20.63400 31.91300
H  48.42100 16.26700 33.65500
H  47.01700 15.43700 33.22300
H  47.02100 15.47000 35.58100
H  45.90900 16.71000 35.17000
H  50.87000 21.70200 27.80000
H  52.01300 20.52000 28.61400
H  50.62000 21.11800 29.46000
H  51.29900 21.80100 25.59800
H  52.55300 20.85000 24.53200
H  52.52700 20.63700 26.24600
H  47.89600 15.14200 23.63900
H  45.01900 15.52900 23.93800
H  47.42400 17.77800 22.97900
H  45.83700 17.09900 22.56400
H  47.34800 16.48000 21.85200
H  45.11300 13.18100 24.51800
H  46.73700 13.10500 24.70700
H  47.06100 12.25500 22.51800
H  46.59800 13.65700 21.86300
H  45.28300 12.53200 22.26700
H  42.26700 13.66300 27.20400
H  41.25000 14.66800 28.18600
H  41.88300 13.07800 28.91100
H  44.54200 15.13400 32.98300
H  43.21600 18.99500 34.52100
H  43.43200 18.04900 35.99900
H  41.96400 17.91700 35.16500
Mg -5.54500 24.66600 26.16500
C  -4.26700 26.31700 29.11200
C  -7.90700 23.20000 28.01200
C  -6.39200 23.07400 23.37100
C  -3.15300 26.59500 24.39300
N  -5.96500 24.63000 28.30400
C  -5.35200 25.40200 29.32500
C  -6.10300 25.18900 30.67300
C  -7.22600 24.11700 30.29700
C  -7.05100 24.02800 28.75100
C  -7.00300 22.67400 31.01000
C  -6.89600 26.46200 31.20100
C  -6.78900 26.64700 32.79700
H  -6.16400 25.50600 33.59900
N  -6.90800 23.26600 25.74600
C  -7.84700 22.81600 26.63600
C  -8.73100 21.92000 25.98500
C  -8.30400 21.85300 24.65300
C  -7.14600 22.76800 24.52100
C  -9.89800 21.27500 26.70100
C  -8.81200 20.93200 23.59600
O  -8.24300 20.89100 22.50200
C  -9.87700 19.87100 23.86600
N  -4.94400 24.89300 24.17700
C  -5.41400 24.02200 23.18800
C  -4.60000 24.28400 21.97200
C  -3.89300 25.67700 22.17800
C  -3.94400 25.71300 23.68800
C  -3.66100 23.07300 21.65500
C  -4.67500 26.86400 21.57500
C  -3.98800 27.61300 20.40000
N  -3.89700 25.96700 26.61300
C  -3.07700 26.65400 25.77000
C  -2.31600 27.64000 26.45500
C  -2.73200 27.43900 27.79100
C  -3.63000 26.44400 27.87400
C  -1.31200 28.60700 25.88200
C  -2.44600 27.97100 29.04900
O  -1.60200 28.76500 29.47900
C  -3.46900 27.29400 29.96100
C  -2.72500 26.59900 31.10500
O  -2.13000 25.59700 31.02500
O  -2.77700 27.47300 32.14900
C  -2.10200 27.00600 33.34600
H  -8.71900 22.81000 28.63000
H  -6.66100 22.40200 22.55300
H  -2.55200 27.23900 23.74600
H  -5.31000 24.71700 31.25400
H  -8.24600 24.48200 30.42400
H  -7.92400 22.40800 31.53000
H  -6.17000 22.60200 31.70900
H  -6.75700 21.89000 30.29500
H  -7.94500 26.44000 30.90500
H  -6.56600 27.33400 30.63600
H  -7.79800 26.90400 33.11700
H  -6.16500 27.49800 33.07200
H  -10.69400 21.38000 25.96300
H  -10.13600 21.73300 27.66100
H  -9.76700 20.20700 26.87000
H  -10.80900 20.41600 24.01300
H  -9.46200 19.36300 24.73600
H  -9.90000 19.18000 23.02300
H  -5.30000 24.45200 21.15300
H  -2.86000 25.62800 21.83400
H  -3.86900 22.26400 22.35600
H  -2.65000 23.40400 21.89000
H  -3.82800 22.66900 20.65700
H  -4.79300 27.69800 22.26600
H  -5.64700 26.55600 21.19000
H  -3.58900 28.55900 20.76800
H  -4.74500 27.70600 19.62200
H  -3.22300 26.92800 20.03600
H  -0.73100 28.97100 26.72900
H  -1.85500 29.41200 25.38600
H  -0.68700 28.10800 25.14100
H  -4.16600 27.90700 30.53200
H  -1.37900 27.75100 33.67700
H  -1.67700 26.00400 33.39500
H  -2.80000 27.09100 34.17900

