158

Mg 41.97100 41.15000 26.63300
C  41.04000 43.46000 28.91300
C  42.92600 39.09100 29.07700
C  42.86700 38.81000 24.26400
C  41.74400 43.50700 24.10000
N  41.90400 41.23000 28.73800
C  41.48400 42.27400 29.47300
C  41.59700 42.02600 30.91900
C  42.39100 40.66500 30.97200
C  42.50400 40.32500 29.48100
C  43.71100 40.51000 31.69900
C  40.21100 42.13600 31.65800
C  40.24800 41.48700 33.09000
H  39.70900 42.36700 34.29300
N  42.56700 39.16600 26.65500
C  42.91900 38.51600 27.79700
C  43.39700 37.10300 27.50200
C  43.27900 36.99700 26.05900
C  42.87200 38.35800 25.61700
C  43.64500 36.03300 28.59500
C  43.49100 35.67500 25.23700
O  43.61100 35.71300 24.00100
C  43.52400 34.29700 25.83000
N  42.46800 41.17600 24.42300
C  42.66000 40.05000 23.68300
C  42.49200 40.34200 22.11100
C  42.02600 41.83800 22.14900
C  42.10100 42.22900 23.62200
C  43.76700 39.98700 21.32100
C  40.58000 41.95500 21.60200
C  39.55000 41.25900 22.46000
N  41.45200 43.12400 26.48600
C  41.39200 43.95500 25.38200
C  40.76400 45.19600 25.87400
C  40.66900 45.08500 27.25200
C  41.11000 43.75900 27.58100
C  40.53900 46.45100 25.11900
C  40.42800 45.78600 28.43900
O  40.07000 47.01800 28.46600
C  40.54500 44.81200 29.59800
C  41.59200 45.29600 30.62500
O  42.69200 45.76200 30.43800
O  40.93200 45.41700 31.87900
C  41.74400 45.85100 33.03600
H  43.42300 38.56300 29.89400
H  43.02200 38.07500 23.47100
H  41.47300 44.14800 23.25900
H  42.23600 42.83600 31.26900
H  41.79700 39.87800 31.43800
H  43.96700 39.47700 31.93500
H  43.55800 41.00100 32.66000
H  44.49000 40.98800 31.10500
H  39.42900 41.73400 31.01500
H  39.93600 43.17100 31.86500
H  41.28200 41.23700 33.32500
H  39.71700 40.53500 33.13300
H  43.62200 36.48100 29.58900
H  44.69300 35.74500 28.51100
H  43.13900 35.08300 28.42200
H  44.39500 34.15200 26.46900
H  43.62300 33.51800 25.07300
H  42.50300 34.27200 26.21200
H  41.65200 39.79000 21.68900
H  42.77600 42.52600 21.75900
H  44.47600 39.62300 22.06500
H  44.08600 40.90800 20.83300
H  43.57000 39.29100 20.50600
H  40.52700 41.44100 20.64200
H  40.33900 43.00100 21.41300
H  39.32200 41.93400 23.28600
H  39.86300 40.29800 22.86800
H  38.65800 40.97400 21.90300
H  41.41700 47.08400 24.99200
H  39.88700 46.96600 25.82500
H  40.08000 46.23800 24.15400
H  39.63100 44.72700 30.18600
H  42.79500 45.60400 32.88600
H  41.31400 45.39000 33.92500
H  41.70200 46.93800 33.10900
Mg 30.62600 59.23600 39.52300
C  27.75400 57.52300 38.56400
C  32.54900 56.65200 38.37200
C  33.31500 61.16300 39.88600
C  28.52300 62.02100 40.15300
N  30.20800 57.41600 38.42100
C  28.92900 56.90900 38.04100
C  29.12400 55.64500 37.16200
C  30.66300 55.23800 37.35700
C  31.20000 56.44300 38.18200
C  30.88700 53.75200 38.04800
C  28.60700 55.73000 35.64200
C  27.70700 54.55000 35.23000
H  26.44400 54.93300 34.40800
N  32.69600 58.86800 39.20900
C  33.29000 57.75600 38.77800
C  34.72400 57.94700 38.71300
C  35.02100 59.21800 39.15100
C  33.67600 59.82400 39.44400
C  35.64900 56.83100 38.25200
C  36.40200 59.80700 39.37400
O  37.38900 59.08600 39.02400
C  36.69900 61.17800 39.94100
N  30.79600 61.24900 39.98900
C  32.09000 61.81700 40.13400
C  32.05000 63.31700 40.54100
C  30.54700 63.64400 40.37500
C  29.85900 62.24500 40.18300
C  32.66500 63.60100 41.95800
C  30.21600 64.55300 39.16900
C  29.68300 65.95000 39.53000
N  28.54400 59.70500 39.53600
C  27.78300 60.83900 39.88500
C  26.35700 60.50800 39.71700
C  26.34700 59.22300 39.25500
C  27.64000 58.77200 39.13300
C  25.12700 61.42400 39.91200
C  25.42700 58.22600 38.85500
O  24.21500 58.21200 38.74600
C  26.33000 57.05000 38.35600
C  25.96700 55.79800 39.00800
O  26.26000 55.36000 40.10600
O  25.10400 55.09000 38.19200
C  24.70600 53.76100 38.67600
H  33.17300 55.85600 37.96100
H  34.14800 61.86400 39.98100
H  27.87500 62.88700 40.30900
H  28.63200 54.77100 37.58800
H  31.20400 55.15800 36.41400
H  31.00200 53.02200 37.24600
H  30.02400 53.56600 38.68700
H  31.81200 53.83000 38.61900
H  29.43500 55.80500 34.93800
H  28.05200 56.64200 35.42200
H  27.37200 54.21400 36.21100
H  28.21600 53.77000 34.66300
H  36.64000 57.14300 37.92200
H  35.18500 56.29800 37.42300
H  35.86200 56.09900 39.03200
H  37.78800 61.20200 39.92100
H  36.42900 61.27900 40.99300
H  36.26400 61.94400 39.30000
H  32.64200 63.96700 39.89600
H  30.03100 64.06800 41.23700
H  33.06000 62.66900 42.36400
H  31.93400 64.03500 42.64000
H  33.43100 64.35700 41.78500
H  29.46300 64.08200 38.53700
H  31.09600 64.64600 38.53400
H  30.22000 66.74400 39.01100
H  29.87400 66.08000 40.59500
H  28.60400 65.97900 39.37900
H  24.16500 60.97900 39.65700
H  25.29700 62.34600 39.35600
H  25.05700 61.72000 40.95900
H  26.23900 56.88000 37.28300
H  24.27600 53.02500 37.99600
H  23.89600 54.10800 39.31800
H  25.39700 53.17200 39.27900

