158

Mg 15.89000 51.08800 25.43900
C  17.62200 49.96300 28.33000
C  13.24300 52.05600 27.57000
C  14.30400 52.12700 22.79100
C  18.65500 50.18400 23.63500
N  15.57500 50.99400 27.74900
C  16.48400 50.61300 28.70700
C  15.95000 50.94700 30.05400
C  14.38400 51.23500 29.76400
C  14.42900 51.49100 28.26600
C  13.47900 49.99300 30.10200
C  16.67300 52.32700 30.54100
C  16.93400 52.49700 32.07000
H  16.14300 51.49800 32.91000
N  14.03600 52.04000 25.23300
C  13.07300 52.28400 26.23700
C  11.86400 52.85600 25.49600
C  12.14400 52.84800 24.10100
C  13.57400 52.32800 24.02400
C  10.59000 53.10500 26.30600
C  11.29000 53.34000 22.94700
O  11.78800 53.44400 21.84300
C  9.91500 53.71600 23.23200
N  16.33200 50.94600 23.54500
C  15.51700 51.47900 22.60800
C  16.21800 51.57100 21.17600
C  17.65800 51.07400 21.57700
C  17.58100 50.80300 22.99300
C  15.49400 50.68600 20.15900
C  18.77600 52.05900 21.13300
C  19.07000 52.12600 19.55000
N  17.70300 50.14300 25.81500
C  18.72100 49.82900 24.94500
C  19.81900 49.22300 25.66500
C  19.47600 49.26700 27.05500
C  18.10200 49.70700 27.05000
C  21.10100 48.54800 25.08000
C  19.82200 48.80300 28.41200
O  20.79600 48.27100 28.82800
C  18.65200 49.35500 29.26800
C  18.07300 48.36300 30.28400
O  17.02800 47.73300 30.13000
O  18.86600 48.37800 31.35100
C  18.46700 47.49700 32.49000
H  12.50600 52.31900 28.33100
H  13.68700 52.28800 21.90400
H  19.58200 50.09500 23.06600
H  15.93700 50.17900 30.82800
H  13.92000 52.04000 30.33500
H  13.07900 50.12700 31.10700
H  14.02400 49.05000 30.15600
H  12.67400 49.83000 29.38500
H  15.98900 53.12200 30.24400
H  17.58300 52.41700 29.94700
H  16.51500 53.47100 32.32300
H  17.98900 52.29500 32.25500
H  9.74900 52.61700 25.81300
H  10.36900 54.16600 26.42300
H  10.68300 52.72900 27.32500
H  9.28800 52.83800 23.38300
H  9.43900 53.98100 22.28800
H  9.75000 54.51800 23.95200
H  16.24600 52.62900 20.91400
H  17.98200 50.15200 21.09500
H  16.17600 49.89500 19.84700
H  15.30200 51.34900 19.31600
H  14.53000 50.24000 20.40600
H  19.75300 51.87200 21.57900
H  18.45400 53.08000 21.33800
H  20.15600 52.18500 19.47500
H  18.56000 53.01400 19.17500
H  18.76400 51.22000 19.02600
H  21.73500 49.32200 24.64600
H  20.71700 47.91900 24.27700
H  21.55700 47.91600 25.84200
H  19.05100 50.24400 29.75700
H  19.19400 46.75100 32.81000
H  17.70100 46.75100 32.27700
H  18.14800 48.11800 33.32700
Mg -0.08400 43.27700 25.07300
C  2.34900 42.30000 27.60100
C  -2.51400 42.39300 27.36600
C  -2.26200 43.76700 22.77900
C  2.63500 43.73700 22.87700
N  -0.09600 42.48200 27.29400
C  1.01700 42.23100 28.07500
C  0.60600 41.95700 29.49200
C  -0.96000 41.66000 29.33400
C  -1.23100 42.23200 27.92400
C  -1.31200 40.16900 29.56200
C  1.08700 43.04700 30.56900
C  0.24700 43.34700 31.76900
H  -0.30200 42.18500 32.67900
N  -2.15900 43.18500 25.04600
C  -2.97500 42.75200 26.04700
C  -4.37300 42.97100 25.57300
C  -4.31300 43.39300 24.21500
C  -2.85800 43.44800 23.93000
C  -5.59000 42.67700 26.42700
C  -5.41300 43.76300 23.25000
O  -5.19700 44.15100 22.08600
C  -6.78300 43.74700 23.75500
N  0.21200 43.70200 23.07700
C  -0.90400 43.94700 22.37200
C  -0.51000 44.40300 21.00000
C  1.07300 44.38200 20.99700
C  1.36000 43.90300 22.38400
C  -1.23100 43.64600 19.78400
C  1.73800 45.78200 20.81700
C  1.66400 46.28400 19.37400
N  2.07300 43.03700 25.10200
C  3.00600 43.35700 24.16800
C  4.35900 43.08700 24.65000
C  4.15400 42.70800 26.01600
C  2.75900 42.79700 26.28700
C  5.63100 43.19800 23.90200
C  4.83500 42.33200 27.29400
O  5.99500 42.13300 27.58300
C  3.66700 42.16100 28.34800
C  3.97800 40.90900 29.02900
O  3.71300 39.80700 28.66400
O  4.51400 41.25400 30.20600
C  4.70500 40.10700 31.09800
H  -3.21100 41.94800 28.07800
H  -2.92700 44.16800 22.01100
H  3.53800 43.92700 22.29300
H  1.13300 41.05700 29.80800
H  -1.59900 42.21600 30.02000
H  -1.71600 39.87200 28.59400
H  -2.01600 40.10000 30.39100
H  -0.46500 39.51600 29.77400
H  1.37100 43.93500 30.00500
H  2.09100 42.77600 30.89600
H  -0.53500 44.02800 31.43200
H  0.84000 43.96100 32.44700
H  -6.10300 43.63500 26.50300
H  -5.24900 42.40500 27.42600
H  -6.28500 41.96900 25.97500
H  -7.06600 44.55800 24.42700
H  -7.00400 42.73300 24.08600
H  -7.49500 43.77900 22.93000
H  -0.82300 45.44600 20.94400
H  1.48000 43.67500 20.27400
H  -1.37600 44.28200 18.91000
H  -2.06600 43.11300 20.23800
H  -0.48500 42.87800 19.57600
H  2.77000 45.76900 21.16700
H  1.34000 46.61100 21.40200
H  0.81200 45.83000 18.86800
H  2.62100 46.05000 18.90700
H  1.43300 47.35000 19.37100
H  5.80800 44.22500 23.58200
H  5.41400 42.57400 23.03500
H  6.54300 42.73700 24.28100
H  3.75600 42.98600 29.05400
H  5.04400 39.23200 30.54300
H  3.84400 39.88400 31.72800
H  5.58500 40.17400 31.73700

