158

Mg 1.39800 -0.71300 43.04800
C  4.92400 0.09500 42.69800
C  0.79300 2.14500 41.33000
C  -1.75300 -1.89500 42.62000
C  2.44400 -3.88300 44.24600
N  2.74200 0.83100 42.03500
C  4.05900 1.05600 42.14500
C  4.45500 2.33200 41.40800
C  3.11500 3.11300 41.15000
C  2.15700 1.96000 41.51700
C  2.90900 4.36600 41.99400
C  5.25600 1.98100 40.08200
C  6.70200 2.55500 39.85000
H  6.91000 3.19500 38.42000
N  -0.32200 0.09600 42.21100
C  -0.29600 1.23900 41.46500
C  -1.64600 1.49700 41.10500
C  -2.44000 0.34100 41.49900
C  -1.52900 -0.55600 42.12500
C  -2.02200 2.85000 40.51900
C  -3.88200 0.12200 41.20700
O  -4.63800 0.90800 40.57300
C  -4.72000 -1.03000 41.65000
N  0.45000 -2.63000 43.46900
C  -0.88800 -2.84400 43.23700
C  -1.35900 -4.20300 43.83800
C  0.07300 -4.96300 44.12600
C  1.06900 -3.77800 43.95600
C  -2.13600 -4.03100 45.19000
C  0.50900 -6.15300 43.13800
C  0.85800 -7.47400 43.85700
N  3.24900 -1.71600 43.48000
C  3.49700 -2.95200 44.02100
C  4.92100 -3.18800 44.11400
C  5.51700 -1.98600 43.65800
C  4.45300 -1.12000 43.27400
C  5.57400 -4.42300 44.66400
C  6.76300 -1.25700 43.51100
O  7.90800 -1.58500 43.81100
C  6.39400 0.12100 42.84000
C  6.97300 1.20300 43.71200
O  6.49000 1.49500 44.80700
O  8.08200 1.88400 43.15200
C  8.67700 2.99700 43.93200
H  0.48300 3.14500 41.02000
H  -2.79200 -2.23300 42.64600
H  2.69100 -4.91100 44.52100
H  5.13200 2.90400 42.04200
H  2.87100 3.49500 40.15900
H  3.88600 4.61200 42.41200
H  2.06600 4.23200 42.67200
H  2.60400 5.17800 41.33500
H  4.58600 2.25700 39.26800
H  5.36000 0.89600 40.04900
H  7.47600 1.79500 39.95400
H  6.76400 3.35700 40.58500
H  -2.31400 3.56400 41.28800
H  -2.90100 2.80500 39.87600
H  -1.23700 3.31900 39.92600
H  -5.76500 -0.72600 41.70800
H  -4.46100 -1.11900 42.70500
H  -4.53900 -1.98700 41.15900
H  -1.85600 -4.82300 43.09200
H  0.20900 -5.31000 45.15000
H  -3.01200 -4.67600 45.13100
H  -2.35500 -2.96400 45.22800
H  -1.49000 -4.41000 45.98200
H  1.31500 -5.81100 42.48900
H  -0.35500 -6.26900 42.48300
H  -0.00400 -8.12900 43.72600
H  1.06100 -7.19200 44.89000
H  1.75900 -7.83300 43.35900
H  5.44500 -5.33900 44.08700
H  5.11300 -4.55000 45.64300
H  6.63000 -4.25500 44.87500
H  6.92800 0.33100 41.91400
H  8.79700 2.71800 44.97900
H  8.02300 3.86800 43.90500
H  9.72000 3.18300 43.67500
Mg 8.89900 3.19600 27.42500
C  10.44000 1.59900 30.19900
C  7.52100 5.48300 29.61700
C  7.49300 4.66900 24.80500
C  10.39200 0.86600 25.27400
N  8.95800 3.47800 29.69400
C  9.69900 2.75400 30.61200
C  9.49900 3.24900 32.02500
C  8.51500 4.38700 31.78200
C  8.29700 4.50700 30.31300
C  7.15800 4.17800 32.50500
C  10.78500 3.67200 32.77300
C  10.68200 4.67100 33.94100
H  11.53000 4.31300 35.18400
N  7.64800 4.81800 27.24400
C  7.20700 5.67200 28.21300
C  6.35300 6.68400 27.67700
C  6.33800 6.39700 26.31300
C  7.18800 5.23100 26.06600
C  5.76100 7.79900 28.50500
C  5.67300 7.21800 25.25600
O  5.59100 6.80800 24.09300
C  4.95000 8.45900 25.48700
N  9.01500 2.79700 25.31200
C  8.24100 3.53300 24.49400
C  8.52800 3.04600 22.98400
C  9.58200 1.93500 23.10500
C  9.66800 1.85100 24.62700
C  7.30300 2.67100 22.20700
C  10.97100 2.30000 22.37600
C  11.91800 1.13900 22.14300
N  10.11500 1.53300 27.60900
C  10.64900 0.69800 26.65400
C  11.40800 -0.33400 27.32300
C  11.35700 0.02400 28.69000
C  10.58400 1.15300 28.81800
C  12.15400 -1.45500 26.69200
C  11.71600 -0.44400 30.04600
O  12.24000 -1.48500 30.41400
C  11.24600 0.60600 31.01600
C  10.54500 0.05800 32.16800
O  9.50100 -0.56600 32.11000
O  11.23000 0.27000 33.37400
C  10.58300 -0.21400 34.60700
H  7.15800 6.26500 30.28700
H  7.05200 5.11100 23.91000
H  10.93400 0.08200 24.74100
H  8.97000 2.43800 32.52600
H  8.94700 5.29900 32.19500
H  6.40500 3.94000 31.75300
H  6.77000 5.11600 32.90100
H  7.31000 3.41800 33.27100
H  11.27900 4.14200 31.92300
H  11.38900 2.84500 33.14500
H  9.65200 4.87900 34.23000
H  11.15900 5.54100 33.49000
H  6.31800 8.71200 28.29200
H  5.57200 7.68000 29.57100
H  4.77100 8.02600 28.11000
H  4.59100 8.83600 24.52900
H  5.62000 9.20100 25.92100
H  4.07100 8.34400 26.12100
H  9.00900 3.86800 22.45400
H  9.28300 0.98000 22.67200
H  7.30600 3.30800 21.32200
H  6.41700 2.65800 22.84200
H  7.50100 1.65500 21.86600
H  11.41700 2.93500 23.14200
H  10.72500 2.86000 21.47300
H  11.54700 0.12100 22.26200
H  12.76700 1.12600 22.82600
H  12.32500 1.21400 21.13400
H  11.48900 -2.07900 26.09500
H  12.66100 -2.16000 27.35000
H  12.86800 -1.09300 25.95200
H  12.06400 1.22100 31.38900
H  10.91400 0.55200 35.30800
H  10.98300 -1.15300 34.98900
H  9.49400 -0.19900 34.65000

