158

Mg 41.44400 8.79900 30.11200
C  43.30900 10.13800 32.76800
C  39.11300 7.65400 32.49000
C  39.51000 7.67100 27.57600
C  43.96900 9.62600 27.89700
N  41.24700 8.74900 32.34400
C  42.12100 9.43700 33.22800
C  41.68600 9.29800 34.69700
C  40.42800 8.46800 34.57000
C  40.25200 8.24300 33.06100
C  40.39800 7.09900 35.45800
C  41.46800 10.71700 35.33500
C  40.39600 10.90500 36.36500
H  40.77400 11.99800 37.32800
N  39.50800 8.05600 30.00300
C  38.69300 7.54100 31.07000
C  37.48600 6.99200 30.59500
C  37.56700 7.15000 29.14400
C  38.88700 7.59800 28.82300
C  36.38000 6.28700 31.42500
C  36.49900 6.88100 28.09500
O  36.63000 6.94300 26.87800
C  35.11300 6.63200 28.54900
N  41.72500 8.53000 27.95600
C  40.83100 7.93000 27.13500
C  41.43500 7.91200 25.70900
C  42.69900 8.82100 25.76900
C  42.86400 8.90800 27.30700
C  41.65600 6.45000 25.23700
C  42.54700 10.20500 25.07000
C  41.27400 10.94800 25.39300
N  43.26400 9.58800 30.22700
C  44.23600 9.87300 29.27200
C  45.19500 10.77300 29.81700
C  44.89700 10.86500 31.14400
C  43.73300 10.14600 31.40000
C  46.38500 11.32000 29.01200
C  45.28500 11.60800 32.37200
O  46.15800 12.42200 32.52100
C  44.38100 11.06700 33.46800
C  45.17300 10.39000 34.47500
O  45.80100 9.37100 34.41500
O  45.11600 11.10500 35.61500
C  46.02400 10.80400 36.65900
H  38.24800 7.43900 33.12100
H  38.91100 7.27000 26.75600
H  44.71400 9.95700 27.17100
H  42.49700 8.87800 35.29200
H  39.57900 9.05300 34.92400
H  39.96400 7.37000 36.42000
H  41.39500 6.72700 35.69200
H  39.89800 6.29900 34.91300
H  41.31100 11.42500 34.52200
H  42.41300 10.95100 35.82500
H  40.18300 9.95100 36.84700
H  39.50200 11.24200 35.84000
H  36.75700 6.08700 32.42800
H  36.21600 5.30200 30.98800
H  35.42100 6.80300 31.47600
H  35.06500 5.63800 28.99200
H  34.29000 6.78500 27.85100
H  34.86600 7.40800 29.27400
H  40.72400 8.29200 24.97500
H  43.57400 8.37100 25.29900
H  40.86800 5.83100 25.66600
H  42.60500 6.02300 25.56200
H  41.50600 6.41000 24.15800
H  42.78100 10.17500 24.00500
H  43.33100 10.87500 25.42100
H  40.77100 10.41400 26.19900
H  40.67600 11.03100 24.48600
H  41.48400 11.92000 25.84000
H  46.79200 12.20300 29.50400
H  46.09100 11.53300 27.98400
H  47.15300 10.56900 28.82900
H  43.97500 12.02500 33.79000
H  45.57100 10.16900 37.42100
H  46.46300 11.62600 37.22400
H  46.91800 10.27600 36.32800
Mg 9.12200 47.92500 26.25300
C  7.14700 48.01300 29.26300
C  11.72500 49.20200 28.01800
C  10.66900 47.97700 23.40100
C  5.95100 47.30600 24.49800
N  9.35100 48.68300 28.43200
C  8.49100 48.43100 29.51300
C  9.13300 49.02000 30.86700
C  10.60500 49.39900 30.34700
C  10.59900 49.15100 28.84500
C  11.19900 50.74100 30.90500
C  9.20000 48.00000 32.02200
C  8.53300 48.46000 33.41300
H  8.39200 47.39600 34.49400
N  10.94700 48.38700 25.82700
C  11.92700 49.00200 26.65500
C  13.16500 48.98800 25.92100
C  12.99500 48.55400 24.64600
C  11.47300 48.32300 24.55700
C  14.49700 49.31800 26.60800
C  13.96800 48.30600 23.48100
O  13.63800 47.71900 22.43800
C  15.42700 48.79400 23.66300
N  8.34200 47.88400 24.08900
C  9.28400 47.75200 23.18500
C  8.61300 47.38200 21.82400
C  7.16300 47.05200 22.21700
C  7.05900 47.47700 23.69300
C  8.74700 48.52800 20.81400
C  6.76500 45.63900 21.85400
C  7.60500 44.47800 22.49300
N  6.99600 47.71600 26.65700
C  5.83400 47.47300 25.86300
C  4.69100 47.38300 26.72200
C  5.13100 47.50300 27.99100
C  6.59100 47.75800 27.95400
C  3.33800 47.06200 26.20600
C  4.70300 47.60600 29.38100
O  3.58600 47.48400 29.83400
C  6.01900 47.76700 30.22300
C  6.34400 46.65000 31.07400
O  6.99500 45.68700 30.73400
O  5.61200 46.61700 32.25900
C  5.55000 45.31800 32.99900
H  12.58600 49.41200 28.65600
H  11.22600 47.99600 22.46200
H  5.03400 47.01300 23.98200
H  8.55800 49.86800 31.23800
H  11.23800 48.56200 30.63900
H  11.42200 51.32200 30.01000
H  12.14900 50.63100 31.43000
H  10.44400 51.29800 31.46000
H  10.21400 47.68100 32.26300
H  8.73100 47.06400 31.71900
H  7.53700 48.87300 33.24700
H  9.22400 49.16100 33.88100
H  14.92700 50.15800 26.06200
H  15.03500 48.37100 26.60700
H  14.39300 49.66400 27.63700
H  16.00900 48.71100 22.74500
H  15.83900 48.31300 24.55000
H  15.62800 49.82900 23.93800
H  9.26300 46.56700 21.50700
H  6.51700 47.75200 21.68800
H  8.33100 49.41400 21.29500
H  8.15900 48.35200 19.91300
H  9.80100 48.63800 20.56200
H  6.79100 45.58700 20.76500
H  5.71900 45.40600 22.05300
H  8.23400 44.89900 23.27700
H  8.14100 43.94100 21.71000
H  6.97400 43.70600 22.93300
H  2.79000 47.95800 25.91600
H  2.70300 46.61600 26.97100
H  3.41600 46.28400 25.44700
H  6.11500 48.72800 30.72900
H  5.73700 45.60800 34.03300
H  6.32300 44.59000 32.75400
H  4.57500 44.87600 32.79100

