158

Mg 23.95400 -5.55400 45.19000
C  25.92000 -3.04000 43.61700
C  21.27300 -4.24900 43.38500
C  22.42600 -8.50300 45.72100
C  27.00000 -6.68200 46.58600
N  23.70500 -3.96600 43.53600
C  24.60600 -2.97200 43.18200
C  24.01700 -2.03800 42.18900
C  22.48400 -2.14000 42.49700
C  22.49000 -3.55900 43.16800
C  21.84200 -1.08700 43.44200
C  24.46500 -2.45400 40.72300
C  25.21300 -1.43900 39.75500
H  24.86500 -1.44100 38.25800
N  22.12700 -6.25300 44.73200
C  21.09100 -5.51900 44.01200
C  19.89800 -6.38100 43.91900
C  20.15300 -7.61900 44.60900
C  21.65100 -7.52300 45.02600
C  18.68900 -5.96600 43.21100
C  19.25200 -8.76200 44.89100
O  18.07300 -8.68900 44.52200
C  19.72000 -10.05700 45.45600
N  24.63400 -7.28700 46.15800
C  23.81400 -8.40900 46.17500
C  24.49700 -9.48600 47.05800
C  25.86200 -8.79100 47.50200
C  25.90700 -7.57900 46.64300
C  23.65100 -9.96700 48.23500
C  27.10700 -9.79600 47.47400
C  27.73300 -10.07600 48.87100
N  25.96900 -4.92700 45.29300
C  27.04200 -5.46400 45.84500
C  28.21700 -4.57400 45.76400
C  27.82500 -3.64900 44.85000
C  26.42900 -3.92300 44.59300
C  29.45700 -4.61400 46.53100
C  28.33200 -2.50500 44.07500
O  29.44800 -2.02100 44.01900
C  27.08900 -2.09100 43.13100
C  26.76500 -0.59500 43.33900
O  26.06200 -0.15000 44.22600
O  27.30900 0.07000 42.23400
C  27.11700 1.54500 42.08200
H  20.36900 -3.72800 43.06000
H  22.05400 -9.50800 45.93200
H  27.83300 -6.99000 47.22100
H  24.32000 -1.01100 42.39000
H  21.87600 -2.21500 41.59500
H  22.63100 -0.37300 43.67900
H  21.44600 -1.53400 44.35300
H  21.03000 -0.64800 42.86100
H  23.64100 -2.88200 40.15100
H  25.01600 -3.37800 40.90000
H  26.27600 -1.63400 39.89500
H  25.13600 -0.43900 40.18100
H  17.97000 -5.52700 43.90300
H  18.15100 -6.83600 42.83400
H  18.83200 -5.35800 42.31900
H  18.89200 -10.74500 45.62200
H  20.00800 -9.91500 46.49700
H  20.33000 -10.64000 44.76400
H  24.74700 -10.21000 46.28300
H  25.71200 -8.46800 48.53300
H  22.87000 -9.20900 48.29600
H  24.01100 -10.05200 49.26000
H  23.06300 -10.85000 47.98800
H  27.83100 -9.37600 46.77600
H  26.80900 -10.75100 47.03900
H  28.75900 -9.73100 48.73800
H  27.56200 -11.13600 49.06200
H  27.30800 -9.46400 49.66600
H  29.79700 -5.64800 46.59400
H  29.34800 -4.33900 47.58000
H  30.12700 -3.93200 46.00700
H  27.30900 -2.32200 42.08900
H  26.10300 1.78200 42.40200
H  27.05200 1.76500 41.01600
H  27.72300 2.16500 42.74300
Mg 29.93400 58.72600 40.44900
C  26.89000 57.00000 39.78900
C  31.63900 56.15200 39.13700
C  32.61000 60.77100 40.45300
C  27.97700 61.53700 41.44000
N  29.30000 56.81400 39.51700
C  28.03000 56.35400 39.28900
C  28.05200 55.00200 38.59000
C  29.61200 54.57900 38.57500
C  30.26600 55.94400 39.11700
C  30.02400 53.27500 39.42100
C  27.36000 55.00500 37.18100
C  27.49600 56.19700 36.24700
H  28.09800 55.94100 34.79700
N  31.85900 58.43800 40.03700
C  32.41900 57.31300 39.57100
C  33.80300 57.33100 39.49900
C  34.14700 58.69200 39.86900
C  32.87600 59.39700 40.22900
C  34.74200 56.16700 39.13900
C  35.59800 59.20500 39.80000
O  36.54100 58.50300 39.38900
C  35.84600 60.64200 40.24100
N  30.23200 60.85700 40.85700
C  31.47300 61.43200 40.79900
C  31.50900 62.92200 41.22000
C  30.02400 63.11200 41.66600
C  29.34200 61.75200 41.32100
C  32.54800 63.04500 42.42600
C  29.41400 64.39900 40.91200
C  28.69100 65.43500 41.70500
N  27.86800 59.24400 40.56700
C  27.22900 60.40100 41.05800
C  25.82000 60.23600 40.99600
C  25.57000 58.87200 40.69600
C  26.88400 58.33100 40.37300
C  24.82400 61.26600 41.37600
C  24.53600 57.84900 40.45300
O  23.35000 57.87300 40.47300
C  25.36700 56.57200 39.81600
C  25.11900 55.28500 40.69100
O  25.03900 55.23500 41.91700
O  25.01000 54.14300 39.81900
C  24.88100 52.87100 40.54200
H  32.11700 55.28800 38.67000
H  33.43700 61.47500 40.33500
H  27.36600 62.38100 41.76500
H  27.50100 54.30700 39.22400
H  29.93900 54.39400 37.55200
H  29.06500 52.93700 39.81300
H  30.76800 53.37000 40.21300
H  30.56500 52.53100 38.83600
H  26.29600 54.78200 37.25600
H  27.63200 54.08500 36.66300
H  28.08700 57.01900 36.65000
H  26.51100 56.66300 36.19500
H  35.40200 55.81900 39.93400
H  35.43900 56.51700 38.37700
H  34.29600 55.37100 38.54300
H  35.26600 61.19600 39.50200
H  36.88100 60.98100 40.28900
H  35.42400 60.74800 41.24000
H  31.83100 63.53600 40.37900
H  29.98800 63.29600 42.74000
H  32.80700 62.03800 42.75100
H  32.04500 63.50600 43.27600
H  33.37400 63.66900 42.08400
H  28.72400 63.98300 40.17800
H  30.13400 64.96000 40.31700
H  27.62600 65.43400 41.47100
H  29.09600 66.43900 41.57500
H  28.70700 65.20700 42.77100
H  24.77300 61.83100 40.44500
H  25.03300 61.88000 42.25200
H  23.81300 60.87300 41.48500
H  24.99100 56.27800 38.83600
H  25.84900 52.37300 40.47600
H  24.23800 52.28000 39.88900
H  24.44600 53.01600 41.53000

