158

Mg 43.09000 42.67000 26.57800
C  41.97000 44.92000 29.08500
C  44.06600 40.54000 28.85700
C  44.61600 41.00300 24.06500
C  42.13600 45.05900 24.10900
N  42.88600 42.77400 28.81400
C  42.50000 43.72000 29.61000
C  42.45600 43.24800 31.04300
C  43.16100 41.96600 30.91600
C  43.33900 41.65800 29.42800
C  44.48300 41.99600 31.75500
C  41.02800 43.12300 31.74000
C  40.72100 44.04700 32.93500
H  40.19800 43.45800 34.26200
N  44.16000 40.95100 26.46700
C  44.46000 40.15400 27.56300
C  45.26400 39.03200 27.09600
C  45.49300 39.20000 25.70900
C  44.76600 40.45100 25.29300
C  45.85600 38.00300 28.08700
C  46.37400 38.36700 24.84900
O  46.51800 38.61900 23.63600
C  47.29000 37.22000 25.45900
N  43.39800 43.02300 24.44500
C  44.01700 42.11900 23.62300
C  43.86800 42.49100 22.13700
C  42.93700 43.69200 22.14500
C  42.85700 43.99000 23.63100
C  45.27000 42.73100 21.49700
C  41.53400 43.44700 21.53600
C  40.54100 42.60700 22.35500
N  42.34900 44.64300 26.56100
C  42.05100 45.53500 25.44600
C  41.31700 46.67400 25.96200
C  41.22800 46.52700 27.36700
C  41.89700 45.26400 27.70900
C  40.80400 47.77100 25.15300
C  40.78700 47.09800 28.63800
O  40.18800 48.14100 28.87200
C  41.27600 46.02500 29.76900
C  42.21400 46.81200 30.69100
O  43.36200 47.16400 30.40600
O  41.56200 47.13300 31.87800
C  42.35200 47.58500 32.96200
H  44.48500 39.92800 29.65800
H  44.89300 40.31100 23.26600
H  41.68800 45.72300 23.36700
H  43.01900 44.05800 31.50700
H  42.55000 41.15400 31.30800
H  44.48200 42.74300 32.55000
H  45.25400 42.26200 31.03200
H  44.68800 41.04300 32.24100
H  40.74900 42.10200 31.99600
H  40.34100 43.35000 30.92500
H  39.94600 44.64500 32.45500
H  41.48700 44.82000 32.99500
H  45.34700 37.88500 29.04300
H  46.89400 38.22500 28.33200
H  45.92000 37.00100 27.66300
H  48.04400 36.82900 24.77500
H  46.83700 36.29800 25.82400
H  47.79400 37.74600 26.26900
H  43.49300 41.56300 21.70500
H  43.35300 44.57200 21.65500
H  45.29900 41.93800 20.75000
H  46.04200 42.66100 22.26300
H  45.25400 43.75500 21.12400
H  41.79700 42.87000 20.64900
H  41.09500 44.40000 21.23900
H  40.91700 42.56000 23.37700
H  40.54700 41.58200 21.98500
H  39.50400 42.93200 22.26900
H  39.92700 47.51100 24.56000
H  41.66800 47.99600 24.52800
H  40.51300 48.59200 25.80700
H  40.41900 45.71900 30.37000
H  42.58900 46.69400 33.54400
H  41.78900 48.27600 33.58900
H  43.24600 48.10700 32.62100
Mg 35.80300 50.04800 25.14600
C  36.12100 47.98000 27.96400
C  34.19800 52.47800 27.07900
C  35.30200 51.81700 22.34300
C  37.08200 47.41500 23.14400
N  35.27900 50.22700 27.32200
C  35.59200 49.24100 28.25300
C  35.21500 49.83800 29.59000
C  34.35800 51.20800 29.31100
C  34.53200 51.29600 27.78100
C  32.92600 51.15000 29.87600
C  36.64400 50.22500 30.23200
C  36.76200 50.25300 31.83900
H  35.41900 50.13400 32.69000
N  34.85300 51.89700 24.77200
C  34.44000 52.82000 25.69700
C  34.11700 54.03100 25.00100
C  34.49700 53.91200 23.69500
C  34.87500 52.45200 23.54500
C  33.41300 55.17000 25.70800
C  34.50400 54.93000 22.59900
O  34.70100 54.65200 21.39800
C  34.07800 56.34800 22.78300
N  35.91100 49.61000 22.93300
C  35.85400 50.56900 22.07300
C  36.05600 50.11200 20.64300
C  36.78400 48.74400 20.88900
C  36.58700 48.54900 22.40700
C  34.74900 49.97600 19.75300
C  38.34700 48.74900 20.40600
C  39.44900 49.12100 21.49300
N  36.49900 48.08700 25.40700
C  37.04300 47.15200 24.55000
C  37.64100 46.06600 25.34100
C  37.21400 46.31900 26.68200
C  36.51100 47.53600 26.65000
C  38.44300 44.93800 24.78900
C  37.23700 45.77400 28.02900
O  37.61500 44.67700 28.35600
C  36.49800 46.88900 28.95700
C  35.32900 46.41000 29.76100
O  34.15200 46.64300 29.45000
O  35.75300 45.74800 30.85200
C  34.95400 45.76300 32.11900
H  33.69400 53.19500 27.73000
H  35.29500 52.45400 21.45600
H  37.58400 46.65900 22.53600
H  34.65000 49.11000 30.17300
H  34.75000 52.05900 29.86700
H  32.78200 50.13900 30.25700
H  32.27800 51.28000 29.01000
H  32.68700 51.85900 30.66900
H  36.89500 51.17400 29.75800
H  37.45200 49.58000 29.88800
H  37.18200 51.23600 32.05200
H  37.42800 49.49600 32.25300
H  32.41900 55.36700 25.30600
H  33.97100 56.05200 25.39300
H  33.42600 55.08300 26.79400
H  34.12300 56.93500 21.86600
H  34.88100 56.75300 23.39900
H  33.08200 56.45100 23.21200
H  36.73100 50.77600 20.10200
H  36.12700 48.04900 20.36700
H  34.81500 49.29300 18.90600
H  34.55500 50.99200 19.41100
H  33.88700 49.83800 20.40600
H  38.41500 49.59000 19.71600
H  38.46100 47.75800 19.96600
H  40.01100 48.19400 21.60200
H  39.00400 49.53500 22.39800
H  40.02300 49.91100 21.00800
H  37.78700 44.07400 24.68100
H  39.29600 44.73000 25.43500
H  38.83000 45.28700 23.83100
H  37.35800 47.14300 29.57800
H  33.92700 46.11800 32.03800
H  35.48700 46.40200 32.82300
H  35.07900 44.80100 32.61600

