158

Mg 39.62500 9.88900 30.51500
C  41.67600 11.16000 33.18000
C  37.53100 8.73300 32.89500
C  38.01700 8.48500 28.03800
C  42.34000 10.75000 28.27800
N  39.63700 9.97400 32.78900
C  40.52300 10.54900 33.68000
C  40.03300 10.52000 35.19700
C  38.84900 9.47700 35.01600
C  38.59300 9.44100 33.42600
C  39.10100 8.07400 35.55000
C  39.63300 11.88600 35.85100
C  40.40400 12.22500 37.11500
H  39.57600 12.67400 38.28500
N  38.05300 8.67400 30.43700
C  37.29100 8.38700 31.52500
C  36.15100 7.63900 31.09900
C  36.28000 7.55600 29.68000
C  37.52400 8.20500 29.34300
C  34.98000 7.05500 31.96400
C  35.44100 6.75000 28.71500
O  35.74600 6.58100 27.53300
C  34.20900 6.16100 29.17700
N  40.12900 9.61800 28.39000
C  39.16800 9.15500 27.65700
C  39.65700 9.21600 26.10000
C  41.13000 9.75200 26.22000
C  41.22200 10.10100 27.72000
C  39.46000 7.92600 25.29400
C  41.51900 10.97700 25.16300
C  40.78500 12.25500 25.37900
N  41.45700 10.90400 30.59800
C  42.45100 11.11600 29.66400
C  43.55800 11.86300 30.25100
C  43.22100 11.92000 31.58900
C  41.99300 11.27500 31.81200
C  44.61400 12.49200 29.39900
C  43.66700 12.48100 32.91500
O  44.61700 13.15400 33.17900
C  42.60900 11.96200 33.99500
C  43.50700 11.19600 34.88100
O  43.82800 10.02300 34.77200
O  43.77200 11.92400 35.97200
C  44.76900 11.31400 36.93400
H  36.82000 8.43500 33.66900
H  37.41100 8.15000 27.19400
H  43.18100 11.03100 27.64000
H  40.92500 10.15300 35.70600
H  37.94400 9.87300 35.47700
H  38.98400 8.10900 36.63300
H  40.13400 7.74600 35.43500
H  38.36200 7.37600 35.15600
H  38.55200 11.89500 35.99500
H  39.76300 12.69200 35.12800
H  40.98300 13.12100 36.89000
H  41.12800 11.45400 37.37800
H  35.05400 7.49900 32.95700
H  35.10100 5.98300 32.11800
H  33.99900 7.36700 31.60600
H  33.83400 5.55400 28.35300
H  33.39200 6.85900 29.36100
H  34.44700 5.49300 30.00600
H  39.08600 9.99300 25.59300
H  41.86100 8.95600 26.08000
H  39.23200 7.07800 25.94000
H  40.30700 7.66400 24.66100
H  38.64200 7.87300 24.57600
H  41.22900 10.62600 24.17200
H  42.59300 11.16100 25.17100
H  40.02400 12.28400 26.15900
H  40.35300 12.67500 24.47100
H  41.54100 12.99900 25.62800
H  45.02000 13.37600 29.89000
H  44.34900 12.72000 28.36600
H  45.44200 11.79200 29.50300
H  42.26700 12.82400 34.56800
H  45.68200 11.15500 36.35900
H  44.44800 10.37500 37.38500
H  45.04200 12.07000 37.67000
Mg 27.43300 50.45100 26.80400
C  25.13500 51.37700 29.16100
C  29.75500 50.27000 29.19700
C  29.73400 50.12100 24.26900
C  25.07900 51.31500 24.33500
N  27.44100 50.76500 28.90400
C  26.34100 50.89000 29.66200
C  26.59600 50.69700 31.16400
C  28.15700 50.30700 31.16000
C  28.48000 50.50000 29.69100
C  29.03800 51.05700 32.17100
C  25.65000 49.63300 31.89400
C  24.85900 50.19400 33.09800
H  24.80300 49.47900 34.40600
N  29.46800 50.04100 26.75100
C  30.24900 50.04300 27.86800
C  31.61200 49.90800 27.49300
C  31.65300 49.80500 26.07500
C  30.21900 49.95400 25.58900
C  32.71400 49.98700 28.48100
C  32.84400 49.62300 25.13300
O  32.76100 49.80200 23.90500
C  34.20000 49.27400 25.78400
N  27.39100 50.56000 24.70800
C  28.40500 50.32900 23.92300
C  28.02600 50.42500 22.43300
C  26.50400 50.66800 22.42100
C  26.32900 50.78600 23.94900
C  28.99100 51.30600 21.62900
C  25.71200 49.53800 21.73000
C  25.66100 48.27400 22.54800
N  25.45600 51.23900 26.70100
C  24.61000 51.52400 25.68600
C  23.37200 52.07900 26.17300
C  23.53400 51.97400 27.55900
C  24.78800 51.51300 27.80100
C  22.21300 52.50400 25.35400
C  22.79300 52.19500 28.78800
O  21.65900 52.59700 28.99500
C  23.84700 51.73800 29.91200
C  24.03700 52.85500 30.84200
O  24.89700 53.74200 30.73800
O  23.22400 52.72600 31.92300
C  23.44400 53.79400 32.94500
H  30.48900 50.14200 29.99600
H  30.52900 49.95300 23.54000
H  24.35300 51.54400 23.55300
H  26.47800 51.61100 31.74600
H  28.22100 49.22700 31.28800
H  29.42100 50.32500 32.88300
H  28.47500 51.85000 32.66300
H  29.91600 51.46900 31.67400
H  26.26500 48.75200 32.08100
H  24.84900 49.33900 31.21600
H  23.82500 50.43200 32.84700
H  25.26200 51.17000 33.36700
H  33.05300 48.99900 28.79500
H  32.36100 50.52000 29.36400
H  33.67400 50.35700 28.12300
H  34.92000 48.94500 25.03600
H  34.11700 48.45900 26.50400
H  34.71100 50.12700 26.23100
H  28.12300 49.39300 22.09600
H  26.49500 51.68100 22.02000
H  29.87000 51.65000 22.17300
H  28.40700 52.10300 21.16700
H  29.26600 50.53600 20.90900
H  26.22100 49.30500 20.79500
H  24.72700 49.91000 21.44800
H  25.64700 47.45700 21.82600
H  24.71400 48.17900 23.08000
H  26.46200 48.13700 23.27400
H  22.22100 53.59000 25.44900
H  21.21100 52.18200 25.63800
H  22.42400 52.33300 24.29900
H  23.46000 50.90300 30.49400
H  23.59900 54.80000 32.55700
H  24.23300 53.40700 33.59000
H  22.49900 54.00700 33.44500

