158

Mg 40.50900 10.07600 29.44300
C  42.57700 11.37200 31.93900
C  38.51100 8.58500 31.93200
C  38.70400 8.59900 27.03600
C  42.90300 11.12200 27.08200
N  40.64100 9.89400 31.68000
C  41.43300 10.67600 32.45100
C  40.93400 10.66000 33.96000
C  39.78800 9.62800 33.91900
C  39.62200 9.33800 32.37200
C  39.99800 8.33100 34.68300
C  40.49700 12.03400 34.49500
C  39.72900 12.15100 35.87600
H  40.34600 13.11200 36.91100
N  38.82800 8.76000 29.54000
C  38.11200 8.33300 30.63000
C  36.91300 7.57700 30.13400
C  37.00600 7.49900 28.70300
C  38.20700 8.31900 28.33600
C  36.01600 6.91200 31.14300
C  36.02800 6.79600 27.76100
O  36.27500 6.66300 26.54000
C  34.73300 6.15900 28.36400
N  40.78800 9.86000 27.32400
C  39.79000 9.35700 26.56300
C  40.23900 9.43900 25.07900
C  41.46900 10.51100 25.11700
C  41.76800 10.49200 26.63000
C  40.68500 8.02500 24.62800
C  41.15500 11.86000 24.37900
C  40.49700 12.97000 25.24100
N  42.32600 11.10900 29.44300
C  43.21000 11.42700 28.39900
C  44.40800 11.98200 28.93200
C  44.08100 12.18900 30.34300
C  42.88100 11.53300 30.55800
C  45.61900 12.44100 28.25100
C  44.63400 12.68300 31.59200
O  45.66700 13.26600 31.86800
C  43.51500 12.35500 32.63800
C  44.17000 11.82800 33.90800
O  44.78700 10.79900 33.93800
O  43.73100 12.57000 35.00500
C  44.25500 12.04500 36.34700
H  37.84700 8.36300 32.77000
H  38.09500 8.16200 26.24100
H  43.43000 11.66800 26.29700
H  41.62100 10.41300 34.76900
H  38.86100 10.13500 34.18500
H  39.11000 8.00600 35.22500
H  40.82800 8.17800 35.37300
H  40.10300 7.54800 33.93300
H  39.87700 12.50900 33.73400
H  41.41000 12.62900 34.52900
H  39.64000 11.15800 36.31700
H  38.70500 12.49700 35.74300
H  35.09500 7.48200 31.26600
H  36.46600 6.89700 32.13500
H  35.77900 5.89800 30.82300
H  34.03400 5.98400 27.54600
H  34.39500 6.93200 29.05400
H  35.02400 5.28800 28.95200
H  39.37400 9.76500 24.50200
H  42.34800 10.26400 24.52200
H  40.72000 7.29300 25.43500
H  41.69400 8.07100 24.21900
H  40.01300 7.51900 23.93500
H  40.55200 11.65000 23.49500
H  42.14400 12.21400 24.08900
H  40.78100 13.08900 26.28700
H  39.40900 12.92000 25.28800
H  40.61900 13.81300 24.56100
H  46.53600 12.45900 28.84000
H  45.43000 13.46000 27.91200
H  45.76500 11.77700 27.39900
H  42.97200 13.28200 32.82200
H  43.88100 11.04000 36.54400
H  44.01100 12.67300 37.20300
H  45.34300 12.08100 36.30100
Mg 41.92500 41.81600 26.98100
C  41.02800 44.22600 29.43200
C  42.96500 39.76000 29.44400
C  42.72500 39.58300 24.51700
C  41.41800 44.32600 24.50400
N  41.79500 42.00500 29.10100
C  41.32600 42.99000 29.86900
C  41.37600 42.56600 31.32400
C  42.27600 41.32700 31.43200
C  42.42300 41.00900 29.89500
C  43.58800 41.45500 32.18500
C  39.94500 42.40600 31.93900
C  39.80100 42.85800 33.48700
H  39.26100 41.87000 34.43800
N  42.70500 39.91400 27.02500
C  43.05200 39.25000 28.13000
C  43.63600 38.02200 27.73000
C  43.50700 37.92100 26.27600
C  42.88200 39.14900 25.89600
C  44.07900 36.94000 28.70700
C  43.92000 36.79500 25.32100
O  43.83100 36.83600 24.08200
C  44.56200 35.62700 25.80100
N  42.13500 41.96300 24.79700
C  42.51900 40.89200 24.08800
C  42.36400 41.21200 22.64000
C  42.03000 42.76700 22.59100
C  41.80200 43.08500 24.04700
C  43.58300 40.87100 21.80100
C  40.77900 42.93700 21.69400
C  41.03200 43.20700 20.19500
N  41.40800 43.82900 26.92200
C  41.17800 44.65800 25.86700
C  40.67400 45.92200 26.31800
C  40.61300 45.84900 27.73300
C  41.14800 44.54900 28.02400
C  40.42300 47.18400 25.37400
C  40.37800 46.58900 28.95300
O  40.12200 47.75500 29.14200
C  40.51600 45.49000 30.15800
C  41.48600 46.06400 31.15400
O  42.57900 46.65200 30.85000
O  40.92600 46.04300 32.45400
C  41.86100 46.60200 33.46400
H  43.24200 39.15800 30.31100
H  42.77700 38.78500 23.77300
H  41.20500 45.06900 23.73200
H  41.84400 43.37100 31.89000
H  41.77500 40.46500 31.87200
H  43.52500 40.88600 33.11200
H  43.75800 42.52300 32.31800
H  44.52400 41.18900 31.69300
H  39.72700 41.34000 32.00400
H  39.25300 43.04900 31.39500
H  39.24300 43.79400 33.52100
H  40.78100 43.15400 33.86200
H  43.32800 36.16500 28.85900
H  44.40900 37.41100 29.63300
H  45.03900 36.64200 28.28700
H  45.47400 35.83900 26.36000
H  44.82200 34.98900 24.95600
H  43.69100 35.34300 26.39100
H  41.52400 40.58600 22.33900
H  42.91000 43.34600 22.31100
H  44.16600 41.78300 21.67800
H  43.26500 40.67500 20.77600
H  44.25500 40.11700 22.21100
H  40.11800 43.66800 22.16100
H  40.08900 42.10500 21.83800
H  40.48900 44.09500 19.87100
H  40.60500 42.36800 19.64500
H  42.06900 43.31200 19.87500
H  39.63000 47.78600 25.81800
H  40.07700 47.03400 24.35100
H  41.27100 47.86400 25.29700
H  39.57700 45.35300 30.69500
H  42.87700 46.38700 33.13300
H  41.82200 46.09300 34.42700
H  41.77200 47.66900 33.67300

