158

Mg 16.22100 -2.63600 27.79000
C  15.21800 -0.42800 30.46200
C  17.78500 -4.52700 30.20000
C  17.63000 -4.44100 25.40900
C  14.63300 -0.44900 25.48000
N  16.44700 -2.44100 30.08700
C  15.94100 -1.50600 30.94600
C  16.07200 -1.96000 32.41800
C  17.06000 -3.17300 32.31000
C  17.09100 -3.42000 30.75500
C  18.45600 -3.00700 33.01400
C  14.75000 -2.27800 33.03600
C  14.41400 -1.66700 34.42700
H  15.56400 -1.27400 35.30000
N  17.51200 -4.24800 27.87900
C  17.99800 -4.96400 28.90800
C  18.85600 -6.05200 28.49500
C  18.74900 -6.04100 27.05200
C  17.95700 -4.87100 26.71600
C  19.53200 -7.02500 29.47500
C  19.43700 -7.00000 26.07300
O  19.33800 -6.85300 24.84200
C  20.36900 -8.04700 26.67200
N  15.97700 -2.56600 25.78200
C  16.82600 -3.29700 25.07500
C  16.72200 -2.88800 23.57300
C  15.54900 -1.84600 23.58700
C  15.34700 -1.61500 25.06500
C  18.01800 -2.18500 23.07800
C  14.23400 -2.30800 22.91000
C  13.32800 -1.28700 22.16400
N  15.03600 -0.84300 27.86500
C  14.49600 -0.02400 26.85100
C  13.73800 1.07900 27.36000
C  14.03400 1.00500 28.78900
C  14.84000 -0.16500 29.01400
C  12.93700 2.06400 26.56600
C  13.84600 1.57100 30.08400
O  13.33100 2.62500 30.32100
C  14.42900 0.58600 31.22000
C  15.20300 1.49700 32.03600
O  16.35700 1.85300 31.88500
O  14.36300 1.85100 33.13000
C  14.93300 2.87000 33.95800
H  18.25000 -5.16200 30.95700
H  18.09700 -4.89400 24.53200
H  14.19600 0.19000 24.71000
H  16.51700 -1.09700 32.91300
H  16.63300 -4.06900 32.76000
H  18.54600 -3.83900 33.71300
H  18.45400 -2.04600 33.52800
H  19.15100 -3.11900 32.18200
H  14.69700 -3.34700 33.24500
H  13.93600 -1.97400 32.37900
H  13.78700 -2.37600 34.96900
H  13.84600 -0.75200 34.26300
H  19.65500 -8.06700 29.18000
H  19.17400 -6.90200 30.49700
H  20.55400 -6.64900 29.52700
H  19.69200 -8.87800 26.86800
H  21.10400 -7.73400 27.41400
H  21.02700 -8.37200 25.86600
H  16.43800 -3.82800 23.10000
H  15.82800 -0.86100 23.21300
H  18.19200 -2.39100 22.02200
H  18.92300 -2.23200 23.68500
H  17.91600 -1.10000 23.05500
H  13.62300 -2.68600 23.73000
H  14.58700 -3.09500 22.24400
H  12.66400 -0.98900 22.97500
H  12.72600 -1.71900 21.36400
H  13.98500 -0.45400 21.91400
H  12.90200 3.01400 27.10000
H  11.91700 1.68200 26.53600
H  13.31100 2.25100 25.56000
H  13.54100 0.24000 31.74800
H  15.36200 2.31300 34.79100
H  14.14500 3.46300 34.42100
H  15.70900 3.48700 33.50500
Mg -2.14500 34.06700 26.64200
C  -3.52400 32.33000 29.33400
C  -0.30700 36.03300 28.92900
C  -0.83000 35.74500 24.09400
C  -4.07800 32.23300 24.48000
N  -2.07500 34.15700 28.81300
C  -2.70800 33.38200 29.77800
C  -2.09900 33.61100 31.19700
C  -1.39200 35.06000 30.98300
C  -1.29400 35.16000 29.46000
C  -2.19100 36.22400 31.47300
C  -1.16900 32.48100 31.65900
C  -1.02700 32.26300 33.19700
H  -1.70600 33.16100 34.21900
N  -0.62700 35.57800 26.54300
C  -0.02200 36.22400 27.59700
C  0.94900 37.17300 26.99800
C  0.69800 37.19600 25.58000
C  -0.33200 36.14100 25.33500
C  1.97400 37.92800 27.93500
C  1.40100 38.00600 24.46300
O  1.13600 37.96400 23.28300
C  2.54900 38.84100 24.96000
N  -2.41400 34.06900 24.57500
C  -1.78400 34.87900 23.68500
C  -2.12400 34.59500 22.21700
C  -3.03200 33.31000 22.43600
C  -3.24600 33.23000 23.94500
C  -2.99000 35.78200 21.60300
C  -2.40100 31.95000 21.87700
C  -1.28600 31.31900 22.69800
N  -3.64300 32.66400 26.76300
C  -4.23300 31.93400 25.80300
C  -5.04300 30.88100 26.42000
C  -4.76200 30.99600 27.77700
C  -3.88800 32.08600 27.94100
C  -5.89700 29.89800 25.70200
C  -5.10900 30.44600 29.01300
O  -5.94100 29.55200 29.27900
C  -4.24400 31.27500 30.09500
C  -5.22800 31.75800 31.10600
O  -6.08900 32.58500 30.88500
O  -5.14000 31.03900 32.22000
C  -6.07600 31.34500 33.26900
H  0.25200 36.66200 29.62500
H  -0.16900 36.10300 23.30200
H  -4.65000 31.71600 23.70600
H  -2.83300 33.63300 32.00200
H  -0.40300 35.04400 31.44100
H  -1.64100 36.79800 32.21900
H  -3.05800 35.77700 31.96000
H  -2.44600 36.90700 30.66300
H  -0.15800 32.78700 31.38900
H  -1.24700 31.49600 31.19800
H  0.04000 32.37400 33.38600
H  -1.19600 31.25100 33.56500
H  3.02700 37.66600 27.83300
H  1.57700 37.96500 28.94900
H  1.91900 38.99600 27.72700
H  3.33600 38.24600 25.42400
H  2.08400 39.54500 25.65000
H  3.07600 39.24200 24.09400
H  -1.27800 34.54300 21.53100
H  -3.98900 33.45100 21.93200
H  -4.05400 35.73000 21.83600
H  -2.77400 35.57400 20.55500
H  -2.54000 36.69100 22.00200
H  -1.91500 32.24100 20.94600
H  -3.12000 31.18000 21.59600
H  -1.47200 30.24700 22.63200
H  -1.28300 31.57500 23.75700
H  -0.28200 31.58100 22.36600
H  -6.83000 29.56900 26.16000
H  -5.28500 29.06500 25.35600
H  -6.11800 30.34300 24.73200
H  -3.52900 30.67500 30.65700
H  -6.98100 31.92400 33.08200
H  -5.55400 31.89900 34.04900
H  -6.50900 30.42700 33.66500

