158

Mg 55.81600 24.94900 44.52600
C  53.25200 26.83800 43.09200
C  54.67900 22.08800 42.88000
C  58.72900 23.45000 45.24200
C  57.16600 27.90900 45.82000
N  54.20400 24.50500 43.06800
C  53.24300 25.45100 42.61400
C  52.30100 24.75500 41.60700
C  52.61900 23.24200 41.90000
C  53.89800 23.24100 42.62600
C  51.52600 22.50900 42.82900
C  52.60100 25.20500 40.12500
C  51.52900 24.84300 39.11200
H  51.94300 24.02900 37.85700
N  56.54300 23.01400 44.25700
C  55.84100 21.94400 43.67000
C  56.69000 20.76600 43.85200
C  57.81200 21.19900 44.57700
C  57.77800 22.63100 44.67600
C  56.24600 19.32800 43.45300
C  58.92300 20.31600 45.18900
O  58.88700 19.09400 45.02300
C  60.03500 20.80500 45.93300
N  57.76100 25.62500 45.30500
C  58.77500 24.74600 45.53400
C  59.91600 25.39000 46.32500
C  59.45100 26.88900 46.32100
C  58.02800 26.82800 45.79500
C  60.24800 24.73200 47.61600
C  60.36200 27.87000 45.44100
C  60.60000 29.19200 46.11000
N  55.37700 27.04000 44.53000
C  55.88400 28.06700 45.23400
C  55.00700 29.19400 45.11500
C  53.99200 28.81900 44.25200
C  54.28100 27.50000 43.88100
C  55.23700 30.45900 45.88600
C  52.76700 29.24200 43.68500
O  52.20300 30.31900 43.89700
C  52.15300 27.96500 42.94100
C  51.96800 28.34000 41.56200
O  52.73200 29.04600 40.94900
O  50.80300 27.79200 40.98300
C  50.34900 28.27600 39.68700
H  54.23100 21.21300 42.40500
H  59.74800 23.08100 45.37900
H  57.61000 28.75200 46.35300
H  51.26100 24.92000 41.88900
H  52.69800 22.60700 41.01700
H  50.64400 23.14500 42.76200
H  51.81200 22.49700 43.88100
H  51.41100 21.45500 42.57600
H  53.54200 24.74600 39.82500
H  52.69800 26.27000 39.91600
H  51.15300 25.79800 38.74600
H  50.66400 24.33800 39.54100
H  57.09300 18.77700 43.04400
H  55.57600 19.51600 42.61400
H  55.93200 18.73300 44.31000
H  60.32100 20.06900 46.68400
H  59.76100 21.63300 46.58600
H  60.83800 21.13600 45.27400
H  60.85000 25.37300 45.76400
H  59.38800 27.28600 47.33400
H  60.67200 25.48500 48.28100
H  61.07000 24.04600 47.41500
H  59.33000 24.31500 48.02900
H  59.74600 28.18500 44.59900
H  61.24700 27.37700 45.03800
H  61.67700 29.30800 46.22500
H  60.08600 29.31000 47.06400
H  60.13400 29.96700 45.50100
H  55.86100 30.18800 46.73700
H  54.29500 30.95000 46.13000
H  55.77000 31.07900 45.16500
H  51.13400 27.75900 43.26800
H  51.12800 28.52000 38.96500
H  49.64400 29.06600 39.94500
H  49.78300 27.45900 39.24000
Mg 0.59900 43.06000 25.59300
C  1.84200 43.29600 28.69300
C  -2.59100 42.64500 26.90000
C  -0.53400 42.41000 22.48900
C  3.70500 43.77500 24.38400
N  -0.26400 42.95600 27.57700
C  0.45800 43.04400 28.72700
C  -0.44700 42.96800 29.97700
C  -1.85900 42.61400 29.37900
C  -1.59000 42.81500 27.83900
C  -2.48800 41.32600 29.84200
C  -0.45100 44.35400 30.70700
C  -0.37500 44.37200 32.26900
H  -0.49500 43.01100 33.03600
N  -1.31100 42.61000 24.76700
C  -2.48400 42.49600 25.47300
C  -3.60600 42.39700 24.54500
C  -3.03800 42.36500 23.26600
C  -1.57200 42.46700 23.45600
C  -5.08700 42.32900 24.86600
C  -3.70600 42.17600 21.92600
O  -3.12500 41.97200 20.90900
C  -5.15200 42.44100 21.74200
N  1.42400 43.21100 23.62400
C  0.82400 42.71200 22.51700
C  1.79300 42.64500 21.34000
C  3.04200 43.46200 21.93500
C  2.70000 43.49800 23.42900
C  2.08100 41.21200 20.73300
C  3.17000 44.88100 21.35600
C  2.50500 46.05000 22.17200
N  2.42300 43.35900 26.34400
C  3.63800 43.58100 25.77300
C  4.63600 43.87500 26.70800
C  3.99500 43.77200 27.90100
C  2.60600 43.40500 27.61400
C  6.14000 44.41100 26.47400
C  4.17800 43.85600 29.34800
O  5.12000 44.04100 30.04400
C  2.75700 43.53600 29.95200
C  2.97200 42.34300 30.82400
O  2.60200 41.19500 30.51800
O  3.80800 42.72400 31.87700
C  4.30800 41.70700 32.71500
H  -3.52600 42.59100 27.46100
H  -0.83800 42.07500 21.49500
H  4.69800 44.02900 24.00600
H  0.01200 42.28100 30.68700
H  -2.58800 43.36900 29.67300
H  -1.91300 40.76600 30.57900
H  -2.64400 40.60100 29.04400
H  -3.42500 41.57000 30.34200
H  -1.34600 44.92500 30.46100
H  0.42300 44.88800 30.33500
H  -1.20100 44.95900 32.67100
H  0.51900 44.90100 32.59800
H  -4.95900 41.89700 25.85900
H  -5.58400 41.59500 24.23300
H  -5.61700 43.27900 24.94100
H  -5.65900 41.55600 22.12600
H  -5.39500 42.47800 20.68000
H  -5.48400 43.32800 22.28200
H  1.32000 43.36800 20.67500
H  3.98900 42.94400 21.77800
H  3.01400 41.14300 20.17600
H  1.38100 40.97800 19.93100
H  2.01400 40.40600 21.46400
H  2.87600 44.82800 20.30700
H  4.25000 45.02300 21.37900
H  1.68200 45.77600 22.83200
H  2.02900 46.70100 21.44000
H  3.26700 46.68500 22.62400
H  6.84600 43.60500 26.27200
H  6.51800 44.63600 27.47100
H  6.22600 45.18200 25.70900
H  2.58000 44.39700 30.59700
H  4.32200 42.07500 33.74100
H  5.34600 41.45700 32.49800
H  3.65000 40.83800 32.71400

