158

Mg 47.25700 25.22300 29.41500
C  47.74500 27.73400 31.92000
C  46.51200 23.04000 31.83300
C  47.24900 22.84900 27.00400
C  48.80300 27.49000 27.23700
N  47.19800 25.45100 31.56700
C  47.26200 26.54400 32.41200
C  46.97000 26.20400 33.90700
C  46.89100 24.65900 33.79100
C  46.80600 24.33700 32.28200
C  47.98900 23.79800 34.46000
C  45.72300 26.91500 34.51500
C  46.08600 27.84800 35.61700
H  45.17300 28.05200 36.78000
N  46.85800 23.29100 29.41700
C  46.55000 22.53800 30.52400
C  46.06000 21.28700 30.09600
C  46.19100 21.20700 28.65500
C  46.78500 22.54400 28.28800
C  45.64000 20.21900 31.02000
C  45.98300 20.01900 27.69000
O  46.23500 20.07700 26.52900
C  45.50700 18.68300 28.20000
N  47.95100 25.18500 27.48500
C  47.82600 24.11900 26.68200
C  48.30500 24.35200 25.27000
C  48.73600 25.85900 25.28800
C  48.43700 26.22000 26.75800
C  49.62100 23.49900 25.06100
C  47.84700 26.61100 24.28100
C  48.07200 26.26000 22.79900
N  48.04700 27.23300 29.47900
C  48.67700 28.01300 28.52500
C  48.98700 29.32800 29.07000
C  48.58300 29.23500 30.41000
C  48.07900 27.95000 30.62100
C  49.77100 30.40100 28.28200
C  48.59700 29.97300 31.67400
O  48.92800 31.12800 31.94500
C  48.06200 28.96400 32.73400
C  49.21100 28.70700 33.66000
O  50.28100 28.20300 33.28500
O  48.90700 29.08300 34.93200
C  49.92000 28.75900 35.96800
H  46.02500 22.38200 32.55600
H  47.10300 22.10700 26.21700
H  49.20400 28.14000 26.45600
H  47.91300 26.33700 34.43700
H  45.99700 24.17500 34.18300
H  48.52100 23.16200 33.75300
H  47.48900 23.23100 35.24600
H  48.81200 24.35900 34.90200
H  44.94200 26.22500 34.83400
H  45.28700 27.57300 33.76300
H  46.33100 28.81800 35.18400
H  47.02700 27.56400 36.08800
H  44.55000 20.22600 31.01100
H  45.97800 20.33400 32.05000
H  46.01200 19.26400 30.65000
H  46.29700 18.18900 28.76500
H  45.13500 18.14100 27.33000
H  44.62900 18.78500 28.83800
H  47.52800 24.16300 24.52900
H  49.73400 26.19500 25.00600
H  50.02400 23.04500 25.96600
H  50.39500 24.02200 24.50100
H  49.34400 22.68100 24.39600
H  47.82700 27.68900 24.43800
H  46.81800 26.26100 24.36500
H  48.80700 25.45900 22.72000
H  48.44000 27.20200 22.39000
H  47.19900 25.98400 22.20700
H  49.41400 30.38200 27.25200
H  50.78700 30.02100 28.17300
H  49.71000 31.36100 28.79500
H  47.23800 29.46700 33.24100
H  50.49800 29.66400 36.15500
H  50.60600 27.95200 35.70800
H  49.46200 28.42900 36.90000
Mg -11.44800 37.90500 43.00500
C  -9.75200 35.03000 41.77300
C  -9.01600 39.85800 41.36800
C  -13.45300 40.68400 43.28200
C  -13.93800 35.90100 44.24200
N  -9.68800 37.48700 41.72500
C  -9.22300 36.27400 41.33900
C  -7.99900 36.38500 40.44100
C  -7.54200 37.86700 40.67400
C  -8.81000 38.45100 41.39700
C  -6.14500 38.07100 41.49300
C  -8.20700 35.91200 38.92400
C  -7.26300 34.75000 38.43800
H  -6.30200 35.08900 37.29300
N  -11.24400 39.99600 42.44300
C  -10.20000 40.53600 41.72300
C  -10.38300 42.00800 41.75600
C  -11.59600 42.31700 42.44000
C  -12.20800 40.99300 42.71800
C  -9.40400 43.07000 41.11400
C  -12.17400 43.72900 42.69600
O  -11.62100 44.70900 42.29600
C  -13.41400 43.96200 43.57000
N  -13.40400 38.23600 43.56900
C  -14.03700 39.43800 43.57000
C  -15.46600 39.34500 44.12000
C  -15.64900 37.78300 44.43200
C  -14.24200 37.26500 43.99700
C  -15.82900 40.16200 45.39600
C  -16.74900 37.04100 43.45300
C  -17.53800 35.86400 44.04500
N  -11.85100 35.82200 42.97500
C  -12.85200 35.17300 43.55900
C  -12.56900 33.72000 43.63900
C  -11.39300 33.62000 42.89200
C  -11.01000 34.92100 42.50400
C  -13.44700 32.75400 44.28900
C  -10.33200 32.64000 42.43600
O  -10.23800 31.45800 42.60600
C  -9.22300 33.60500 41.63700
C  -7.84500 33.26400 42.26400
O  -7.26800 32.20300 42.18900
O  -7.31300 34.36400 42.89400
C  -5.96300 34.28500 43.50700
H  -8.21200 40.41700 40.88500
H  -14.14200 41.52700 43.20400
H  -14.68800 35.32000 44.78300
H  -7.20300 35.70700 40.75000
H  -7.49400 38.31700 39.68200
H  -5.44000 38.53900 40.80600
H  -5.66500 37.17000 41.87500
H  -6.40600 38.68700 42.35300
H  -7.97200 36.77400 38.30100
H  -9.23100 35.56700 38.77400
H  -7.92200 33.93600 38.13500
H  -6.61100 34.39100 39.23400
H  -9.82700 43.58900 40.25300
H  -8.44200 42.62400 40.86100
H  -9.28800 43.89000 41.82200
H  -14.30400 43.67400 43.01100
H  -13.34200 45.04200 43.70100
H  -13.36000 43.47300 44.54200
H  -16.04300 39.77200 43.30000
H  -15.89400 37.57900 45.47400
H  -16.46500 40.95400 45.00000
H  -14.89300 40.54800 45.79900
H  -16.30900 39.60700 46.20200
H  -16.24300 36.56800 42.61200
H  -17.43900 37.74300 42.98500
H  -17.73200 36.09300 45.09300
H  -16.90800 34.98100 43.93600
H  -18.48600 35.72700 43.52300
H  -13.23500 31.68400 44.28100
H  -14.39100 32.88800 43.76000
H  -13.45600 33.03800 45.34100
H  -9.32600 33.20400 40.62800
H  -5.49700 33.31400 43.34600
H  -6.16200 34.38600 44.57400
H  -5.40600 35.18200 43.23600

