158

Mg 26.58700 52.26400 25.80100
C  24.00100 53.04000 28.19800
C  28.58400 51.66100 28.40900
C  29.07800 51.82700 23.59800
C  24.47100 53.45600 23.33600
N  26.32400 52.54500 28.12600
C  25.16300 52.73300 28.83800
C  25.41500 52.35900 30.35100
C  26.93900 51.97400 30.32000
C  27.34100 52.05100 28.85100
C  27.92900 52.78700 31.31300
C  24.50100 51.20200 30.83200
C  23.56800 51.55500 32.02300
H  23.62500 50.62100 33.25400
N  28.60300 51.70700 26.00100
C  29.22000 51.53500 27.17500
C  30.52200 51.05000 26.94600
C  30.73300 51.08600 25.49000
C  29.49800 51.52500 24.96200
C  31.42700 50.46500 27.99700
C  31.84800 50.54100 24.66200
O  31.83800 50.60300 23.43900
C  32.92900 49.73500 25.30900
N  26.75500 52.52200 23.78600
C  27.93000 52.29500 23.12300
C  27.74800 52.67000 21.66700
C  26.27400 53.21300 21.52600
C  25.78300 53.04600 22.92000
C  28.92000 53.50800 21.07100
C  25.41400 52.66600 20.35200
C  25.30700 53.43200 19.00500
N  24.58900 53.04200 25.77800
C  23.86700 53.42200 24.66200
C  22.48600 53.75700 25.01600
C  22.49600 53.60400 26.42900
C  23.76600 53.19800 26.78200
C  21.34300 54.09700 24.08400
C  21.73100 53.68100 27.68400
O  20.57900 53.92900 27.87700
C  22.65500 53.42800 28.83400
C  22.78600 54.78800 29.47400
O  23.03000 55.82300 28.91000
O  22.69600 54.68900 30.80800
C  22.60000 55.97600 31.51500
H  29.33000 51.32800 29.13300
H  29.81000 51.65200 22.80700
H  23.76200 53.68800 22.53900
H  25.34800 53.18800 31.05500
H  27.02700 50.94600 30.67100
H  28.85500 53.09500 30.82900
H  28.34500 52.05900 32.00900
H  27.48200 53.50300 32.00300
H  25.08800 50.32100 31.09400
H  23.80200 51.02400 30.01600
H  22.49400 51.55500 31.83500
H  23.88000 52.52700 32.40400
H  31.37700 49.40200 27.76000
H  31.14000 50.64900 29.03200
H  32.45500 50.80200 27.86700
H  32.54000 48.90700 25.90200
H  33.50900 50.32700 26.01700
H  33.55100 49.28100 24.53800
H  27.77000 51.73000 21.11600
H  26.23900 54.28900 21.36000
H  29.57200 54.04400 21.76000
H  28.52200 54.25200 20.38100
H  29.56600 52.85000 20.49000
H  24.38900 52.41400 20.62700
H  25.88000 51.74600 20.00000
H  24.33800 53.27300 18.53200
H  25.96000 53.20400 18.16300
H  25.54800 54.47800 19.19400
H  20.40900 54.01700 24.64100
H  21.29200 53.27400 23.37200
H  21.49100 55.04200 23.56100
H  22.26900 52.67300 29.51800
H  23.59900 56.32000 31.78200
H  22.01400 55.68400 32.38700
H  22.04200 56.77800 31.03300
Mg -9.97300 40.51100 42.76600
C  -8.92100 37.36700 41.97100
C  -6.99200 41.75600 41.50000
C  -11.20800 43.59800 43.06000
C  -13.23900 39.21100 43.39000
N  -8.26000 39.58500 41.63600
C  -7.94700 38.28400 41.61200
C  -6.55900 38.13100 41.00500
C  -5.90600 39.51200 41.09000
C  -7.12000 40.36100 41.37100
C  -4.70900 39.65300 42.14700
C  -6.50900 37.51600 39.59400
C  -5.66600 36.26000 39.46400
H  -4.52400 36.31600 38.47500
N  -9.18800 42.44900 42.40800
C  -7.93500 42.72400 41.91700
C  -7.77100 44.08300 41.88500
C  -8.93300 44.67400 42.31000
C  -9.86500 43.59100 42.69100
C  -6.46300 44.76500 41.40800
C  -9.32000 46.23000 42.27200
O  -8.47900 47.00500 41.79400
C  -10.63300 46.79000 42.81100
N  -11.98800 41.33200 43.12400
C  -12.15500 42.65000 43.35400
C  -13.62600 42.95100 43.78000
C  -14.21400 41.52600 43.81200
C  -13.06500 40.59100 43.50300
C  -13.84400 43.85800 45.00500
C  -15.56500 41.28100 43.00900
C  -16.74400 40.70400 43.84200
N  -10.92100 38.68800 42.79100
C  -12.21300 38.26400 43.08500
C  -12.34300 36.93300 42.86900
C  -11.08500 36.53700 42.54900
C  -10.20300 37.61200 42.45900
C  -13.58400 36.08100 43.08700
C  -10.29400 35.38200 42.14800
O  -10.63800 34.22700 42.04600
C  -8.85500 35.86100 41.66800
C  -7.76600 35.08000 42.42800
O  -7.43100 35.26200 43.56600
O  -7.27900 34.09200 41.55400
C  -6.32300 33.12900 42.19900
H  -6.01200 42.13100 41.19800
H  -11.63600 44.60000 43.14600
H  -14.24500 38.81700 43.54200
H  -5.97000 37.54800 41.71300
H  -5.52000 39.81800 40.11700
H  -3.75900 39.61200 41.61400
H  -4.80800 38.89200 42.92200
H  -4.79400 40.61900 42.64400
H  -6.22400 38.19300 38.78900
H  -7.54400 37.23800 39.39400
H  -6.22300 35.34800 39.24700
H  -5.21100 36.07400 40.43600
H  -6.40300 44.76400 40.32000
H  -5.57800 44.23800 41.76600
H  -6.37500 45.80700 41.71400
H  -10.54700 47.86000 42.62400
H  -10.75400 46.46000 43.84300
H  -11.35700 46.32300 42.14300
H  -14.01000 43.54600 42.95200
H  -14.29000 41.26700 44.86800
H  -13.11700 44.65900 44.86900
H  -13.81800 43.21400 45.88500
H  -14.88300 44.18400 44.97000
H  -15.31000 40.75200 42.09000
H  -16.02700 42.23300 42.74600
H  -17.35300 41.58400 44.05000
H  -16.52200 40.24500 44.80500
H  -17.34000 40.00000 43.26200
H  -13.66500 35.50700 42.16400
H  -14.46300 36.63300 43.41900
H  -13.32400 35.30600 43.80700
H  -8.67800 35.58700 40.62800
H  -5.36200 33.62000 42.35000
H  -6.22200 32.25800 41.55100
H  -6.62300 32.68500 43.14900

