158

Mg 17.03000 -1.77400 28.05100
C  16.04100 0.57400 30.63800
C  18.30800 -3.65500 30.51000
C  18.40600 -3.64300 25.74400
C  16.22500 0.67900 25.74000
N  17.23100 -1.48400 30.19800
C  16.72600 -0.55700 31.07800
C  17.13500 -0.86100 32.51600
C  18.17400 -2.06500 32.39000
C  17.92200 -2.40600 30.91700
C  19.64600 -1.66900 32.69100
C  15.96700 -1.17200 33.40000
C  15.97300 -0.67500 34.84000
H  17.29500 -0.07100 35.28000
N  18.03300 -3.50600 28.11500
C  18.42800 -4.16600 29.21200
C  18.84900 -5.49300 28.77300
C  18.90000 -5.49200 27.38500
C  18.45200 -4.15700 27.04200
C  19.30700 -6.50600 29.74100
C  19.35400 -6.56300 26.41500
O  19.41100 -6.38700 25.20800
C  19.72400 -7.86300 27.06600
N  17.19800 -1.48800 26.06700
C  17.86500 -2.44200 25.29900
C  18.04000 -1.89300 23.86400
C  17.28800 -0.53000 23.83600
C  16.89900 -0.41300 25.35600
C  19.52900 -1.77500 23.38400
C  16.03900 -0.50100 22.85800
C  15.76600 0.86800 22.11600
N  16.02500 0.10700 28.13300
C  15.79100 0.97900 27.07300
C  15.20900 2.20700 27.56700
C  15.31000 2.07100 28.93500
C  15.81100 0.82100 29.24700
C  14.74400 3.37600 26.71100
C  15.02500 2.70700 30.24000
O  14.41000 3.71900 30.53700
C  15.68300 1.84200 31.41500
C  16.80400 2.60800 31.99200
O  17.94600 2.74300 31.52700
O  16.38900 3.33000 33.13500
C  17.52600 3.93800 33.79300
H  18.59600 -4.19800 31.41200
H  18.79900 -4.13400 24.85100
H  16.14000 1.50300 25.02800
H  17.73900 0.01200 32.76200
H  17.82800 -2.90300 32.99500
H  19.75000 -0.64300 33.04300
H  20.20800 -1.62600 31.75800
H  20.10800 -2.45200 33.29200
H  15.63400 -2.20800 33.47400
H  15.11600 -0.73100 32.88200
H  15.54800 -1.40300 35.53200
H  15.23900 0.11100 35.01900
H  18.69200 -7.40500 29.77800
H  19.32400 -5.95300 30.68100
H  20.36100 -6.70900 29.55300
H  19.85300 -8.55500 26.23400
H  18.94100 -8.31400 27.67500
H  20.72500 -7.72100 27.47300
H  17.52500 -2.68800 23.32600
H  17.86900 0.35700 23.58200
H  20.13700 -1.95400 24.27100
H  19.87800 -0.84000 22.94600
H  19.72400 -2.53700 22.63000
H  15.17700 -0.93100 23.36800
H  16.16900 -1.19000 22.02300
H  14.87700 1.28700 22.58700
H  15.54400 0.84500 21.04900
H  16.68000 1.46200 22.11700
H  13.80900 3.24700 26.16700
H  15.36900 3.80600 25.93000
H  14.55100 4.17500 27.42700
H  14.92000 1.59500 32.15300
H  17.76300 4.95400 33.47900
H  18.49500 3.46400 33.95100
H  17.20500 4.02100 34.83100
Mg 25.65100 -0.74000 29.28900
C  27.68000 -0.62600 32.12700
C  23.03400 0.21800 31.19900
C  23.76500 -0.52000 26.51700
C  28.39100 -1.74700 27.33200
N  25.43900 -0.36200 31.48900
C  26.40100 -0.14000 32.44400
C  25.88700 0.38600 33.78500
C  24.28900 0.45800 33.41900
C  24.20800 0.07400 31.93300
C  23.41700 -0.54300 34.30900
C  26.63200 1.69400 34.11000
C  27.59300 1.70700 35.31600
H  27.14800 2.64200 36.53500
N  23.62600 -0.27300 28.89900
C  22.74800 0.12500 29.87000
C  21.50100 0.42100 29.19000
C  21.73700 0.32800 27.80500
C  23.08600 -0.17100 27.69400
C  20.17300 0.72100 29.91100
C  20.91600 0.68400 26.62700
O  21.22100 0.50100 25.46900
C  19.54500 1.34900 26.86500
N  26.02900 -1.21400 27.20200
C  25.08700 -0.95900 26.19700
C  25.81400 -1.07500 24.81300
C  27.30200 -1.30000 25.14900
C  27.21500 -1.49800 26.64500
C  25.24500 -2.07000 23.75500
C  28.28000 -0.18200 24.62100
C  28.53000 1.06700 25.44200
N  27.61600 -1.23000 29.60800
C  28.56700 -1.69300 28.73600
C  29.72500 -1.98100 29.47200
C  29.51400 -1.50900 30.78100
C  28.15600 -1.13300 30.86600
C  31.04000 -2.45400 28.94100
C  30.12900 -1.28700 32.04400
O  31.26400 -1.52700 32.43100
C  29.02100 -0.61800 32.92500
C  29.04600 -1.33600 34.26800
O  28.43100 -2.34100 34.55000
O  29.74300 -0.54400 35.10900
C  29.90100 -1.14700 36.47300
H  22.20100 0.37400 31.88800
H  23.24700 -0.34200 25.57200
H  29.33300 -1.87700 26.79500
H  25.97200 -0.38900 34.54700
H  23.88300 1.46400 33.53100
H  24.04700 -0.97300 35.08700
H  22.74300 -1.24300 33.81600
H  22.69700 0.02200 34.90300
H  25.85200 2.43800 34.26900
H  27.21800 2.00100 33.24400
H  28.57000 2.08600 35.01600
H  27.73200 0.69400 35.69400
H  19.95400 1.78800 29.94000
H  20.30400 0.51600 30.97400
H  19.38700 0.08800 29.50000
H  19.45900 2.12600 27.62500
H  18.76400 0.63400 27.12300
H  19.20900 1.76000 25.91300
H  25.67100 -0.06500 24.42700
H  27.64100 -2.25200 24.74000
H  24.79400 -1.39900 23.02400
H  24.62000 -2.84800 24.19300
H  26.05600 -2.53700 23.19500
H  27.93400 0.08600 23.62300
H  29.30400 -0.54300 24.52600
H  27.94100 1.05300 26.35900
H  28.35300 1.96400 24.84800
H  29.58900 1.15300 25.68600
H  31.27400 -1.93100 28.01400
H  31.09500 -3.54100 28.88200
H  31.67300 -2.05500 29.73500
H  29.28800 0.42800 33.07700
H  29.17700 -0.69100 37.14800
H  30.92200 -1.05400 36.84300
H  29.79400 -2.22900 36.53900

