158

Mg 24.83700 -5.17100 45.38000
C  26.63900 -2.58700 43.75400
C  22.17300 -4.46400 43.46700
C  23.73400 -8.17200 46.11300
C  27.99500 -5.95200 47.02700
N  24.50900 -3.75000 43.82800
C  25.33000 -2.76500 43.35200
C  24.75000 -2.08500 42.15000
C  23.32000 -2.44700 42.26900
C  23.26500 -3.61500 43.35800
C  22.17000 -1.35500 42.45600
C  25.34600 -2.38700 40.73000
C  25.55900 -1.13700 39.84200
H  24.78400 -1.10800 38.52600
N  23.20400 -6.20100 44.81800
C  22.12700 -5.71700 44.14800
C  20.97300 -6.61600 44.22800
C  21.40200 -7.81900 44.86400
C  22.87900 -7.43400 45.29400
C  19.64100 -6.44200 43.60700
C  20.62400 -9.15800 44.95900
O  19.49500 -9.26100 44.49000
C  21.16800 -10.40900 45.49300
N  25.85900 -6.91400 46.26900
C  25.09900 -7.99900 46.48600
C  25.78200 -8.98500 47.36700
C  27.04500 -8.23900 47.78600
C  26.99500 -6.92700 46.99500
C  24.97600 -9.66300 48.52000
C  28.26700 -9.15100 47.57400
C  29.49800 -9.10700 48.56900
N  26.82700 -4.40400 45.55900
C  27.96800 -4.78000 46.28700
C  29.08900 -3.88100 46.03200
C  28.66200 -3.07400 44.98400
C  27.27100 -3.38200 44.73700
C  30.43300 -3.95100 46.50000
C  29.11200 -2.15000 43.99000
O  30.19200 -1.66500 43.72100
C  27.73600 -1.71300 43.25800
C  27.59700 -0.32000 43.65600
O  27.01200 0.13900 44.62600
O  28.21400 0.42100 42.70100
C  28.21900 1.86400 42.80700
H  21.26900 -4.09300 42.97900
H  23.31200 -9.15300 46.34100
H  28.89400 -6.27200 47.55800
H  24.88500 -1.01800 42.32700
H  23.01400 -2.98500 41.37100
H  21.41000 -1.47900 41.68400
H  22.61500 -0.38600 42.23200
H  21.75100 -1.40900 43.46100
H  24.74300 -3.04500 40.10400
H  26.30800 -2.89300 40.80900
H  26.62200 -1.04300 39.62000
H  25.25700 -0.22600 40.35700
H  19.64100 -5.39000 43.32200
H  18.93300 -6.58700 44.42300
H  19.43600 -7.08200 42.74900
H  20.34000 -11.11400 45.56600
H  21.62000 -10.30000 46.47900
H  21.93600 -10.66400 44.76200
H  25.96700 -9.74900 46.61100
H  27.01500 -7.88900 48.81700
H  24.13300 -9.04000 48.81800
H  25.61100 -9.80700 49.39500
H  24.63900 -10.65400 48.21600
H  28.67600 -9.00300 46.57500
H  27.95400 -10.19200 47.49000
H  29.57300 -10.03600 49.13300
H  29.38800 -8.37000 49.36500
H  30.43500 -8.90500 48.04900
H  30.70900 -4.86600 45.97600
H  30.65900 -4.00300 47.56500
H  31.03900 -3.08300 46.23900
H  27.79900 -1.74200 42.17100
H  27.63600 2.10100 41.91700
H  29.24300 2.23600 42.82200
H  27.71800 2.20200 43.71500
Mg -5.13400 25.68700 25.96300
C  -3.69900 26.90700 28.80600
C  -7.01900 23.47300 27.86600
C  -6.51200 24.30300 23.08700
C  -2.68100 27.27600 24.04700
N  -5.34800 25.24300 28.06900
C  -4.70800 26.00000 29.09300
C  -5.23900 25.58800 30.39800
C  -5.95700 24.21300 30.13200
C  -6.11000 24.31800 28.57200
C  -5.26700 22.97500 30.68500
C  -6.19600 26.72100 31.06500
C  -6.13200 26.92100 32.60400
H  -5.55300 25.78800 33.41200
N  -6.71500 24.22600 25.50000
C  -7.31300 23.42500 26.44900
C  -8.28100 22.66800 25.76200
C  -8.19500 22.89400 24.36300
C  -7.14700 23.87900 24.25700
C  -9.28000 21.82800 26.44100
C  -9.02200 22.18500 23.23900
O  -8.80400 22.30700 22.05900
C  -10.15500 21.13600 23.54200
N  -4.81200 26.03200 23.84900
C  -5.38100 25.16700 22.93100
C  -4.80000 25.36300 21.50000
C  -3.67900 26.37800 21.79300
C  -3.65500 26.56600 23.34800
C  -4.24200 24.07600 20.79900
C  -3.84100 27.75900 21.07200
C  -2.54000 28.32400 20.42500
N  -3.51400 26.85900 26.22600
C  -2.58700 27.53400 25.43200
C  -1.70700 28.28000 26.28200
C  -2.10700 28.03200 27.57400
C  -3.18400 27.22500 27.52600
C  -0.52500 29.07400 25.76800
C  -1.77900 28.32900 28.96600
O  -0.79200 28.96300 29.40300
C  -2.85500 27.66700 29.80000
C  -2.14800 26.77800 30.78700
O  -1.91300 25.56800 30.61100
O  -1.83700 27.47200 31.96000
C  -1.18100 26.82200 33.12400
H  -7.58900 22.77400 28.48200
H  -6.85000 23.94300 22.11300
H  -1.80300 27.67100 23.53300
H  -4.38900 25.39500 31.05200
H  -6.91600 24.16600 30.64900
H  -4.70300 22.53400 29.86400
H  -6.03800 22.33300 31.11100
H  -4.57400 23.23600 31.48400
H  -7.22400 26.51200 30.76900
H  -6.02800 27.70500 30.62800
H  -7.12200 27.11600 33.01500
H  -5.60100 27.86300 32.74500
H  -10.27600 22.10400 26.09400
H  -9.23200 21.93800 27.52500
H  -9.16500 20.76000 26.25500
H  -11.00800 21.56300 24.07000
H  -9.62200 20.36900 24.10400
H  -10.54300 20.77400 22.59000
H  -5.59500 25.86800 20.95200
H  -2.77900 25.87000 21.44600
H  -4.71000 23.87900 19.83400
H  -4.37600 23.22400 21.46500
H  -3.17800 24.10700 20.56300
H  -4.20600 28.45900 21.82300
H  -4.66900 27.68400 20.36700
H  -2.69800 28.13700 19.36300
H  -1.53900 27.94700 20.63500
H  -2.65000 29.38400 20.65300
H  -0.78800 30.13100 25.81000
H  -0.32200 28.66400 24.77800
H  0.32400 28.99700 26.44700
H  -3.48400 28.29700 30.42900
H  -1.16700 27.67000 33.80900
H  -0.14500 26.63700 32.83800
H  -1.72900 25.96900 33.52300

