158

Mg 16.14000 51.77400 26.72700
C  18.09900 50.61400 29.26500
C  13.60300 52.53700 28.85300
C  14.33500 52.61000 23.95100
C  18.50200 50.50100 24.46500
N  16.00200 51.53000 28.84400
C  16.86600 51.12100 29.72500
C  16.37100 51.27400 31.20500
C  14.87700 51.54100 30.97400
C  14.80500 51.95800 29.46900
C  14.01400 50.24800 31.18100
C  17.20000 52.41400 31.84700
C  17.40300 52.51500 33.27000
H  16.30500 51.84300 34.15100
N  14.25600 52.57500 26.45300
C  13.33400 52.80400 27.44400
C  12.11500 53.35900 26.83700
C  12.37200 53.50600 25.45000
C  13.66300 52.89900 25.23900
C  10.91700 53.79900 27.66400
C  11.51600 54.07900 24.36200
O  11.81900 54.07200 23.16800
C  10.18400 54.73700 24.65800
N  16.45500 51.68500 24.54200
C  15.54600 51.98900 23.62700
C  16.01900 52.04200 22.21000
C  17.38200 51.30300 22.37600
C  17.48900 51.20000 23.89100
C  14.96100 51.60200 21.15800
C  18.60300 52.00100 21.57200
C  18.87900 51.45200 20.21300
N  17.96400 50.77700 26.83700
C  18.80600 50.32900 25.82000
C  19.90900 49.61400 26.39500
C  19.70500 49.77000 27.72200
C  18.53900 50.49600 27.96100
C  20.99700 48.91600 25.63500
C  20.24800 49.46500 29.00700
O  21.31600 48.88200 29.29500
C  19.23400 50.04000 30.06800
C  18.84900 48.93300 31.01900
O  18.59900 47.82200 30.69500
O  18.81800 49.39000 32.31800
C  18.66500 48.37600 33.38700
H  12.74800 52.72500 29.50500
H  13.81000 52.98600 23.07000
H  19.23300 50.23100 23.70000
H  16.53600 50.34900 31.75800
H  14.60500 52.34500 31.65800
H  13.22000 50.44200 31.90300
H  14.55600 49.31700 31.35200
H  13.49800 50.04900 30.24200
H  16.78400 53.37500 31.54600
H  18.23300 52.32600 31.51000
H  17.43100 53.55600 33.59400
H  18.35400 52.07900 33.57600
H  10.09800 53.15200 27.34800
H  10.64500 54.84000 27.49300
H  10.96700 53.62400 28.73900
H  10.30300 55.62300 25.28200
H  9.56000 54.02200 25.19400
H  9.72800 55.09200 23.73300
H  16.24400 53.08200 21.97300
H  17.32400 50.29000 21.97900
H  15.51800 50.94800 20.48600
H  14.75700 52.44800 20.50200
H  14.11100 51.10300 21.62200
H  19.41500 51.87600 22.28900
H  18.52900 53.08500 21.48200
H  18.20000 50.68900 19.83300
H  19.88200 51.03600 20.30600
H  18.82900 52.32900 19.56600
H  21.62200 49.64600 25.12000
H  20.52800 48.25400 24.90700
H  21.53400 48.16900 26.22000
H  19.70300 50.82600 30.66000
H  18.12200 48.83100 34.21500
H  19.64900 48.02400 33.69400
H  18.12700 47.56700 32.89300
Mg -1.53600 34.03200 27.01700
C  -2.60500 32.38900 29.91400
C  0.27400 36.30100 29.12200
C  -0.90500 35.89000 24.33400
C  -3.64300 31.89100 25.16000
N  -1.28300 34.39700 29.28300
C  -1.67000 33.40700 30.22200
C  -1.05600 33.65600 31.58900
C  -0.21100 34.94700 31.34900
C  -0.40200 35.23900 29.84100
C  -0.58500 36.08700 32.29900
C  -0.37900 32.43200 32.32800
C  -0.97300 32.00600 33.68300
H  0.00700 31.78800 34.86100
N  -0.51300 35.90100 26.73300
C  0.23900 36.62400 27.66500
C  0.80300 37.75400 26.95100
C  0.37800 37.71400 25.63400
C  -0.40500 36.49800 25.50800
C  1.62900 38.79700 27.58900
C  0.71200 38.71400 24.53800
O  0.33400 38.50800 23.44500
C  1.57900 39.89700 24.72400
N  -2.29700 33.96700 25.02000
C  -1.75900 34.77100 24.10000
C  -2.32100 34.39600 22.71100
C  -2.92600 32.98400 22.91800
C  -2.96300 32.93200 24.45400
C  -3.35900 35.47000 22.15300
C  -2.08000 31.94300 22.23600
C  -0.63000 31.69500 22.90000
N  -2.81600 32.44500 27.37600
C  -3.61400 31.67700 26.55800
C  -4.51300 30.80600 27.29500
C  -4.05000 30.99900 28.63100
C  -3.06500 32.02100 28.61300
C  -5.60000 29.91200 26.73900
C  -4.31200 30.58800 29.99600
O  -5.14400 29.78100 30.44400
C  -3.38100 31.48600 30.88100
C  -4.34800 32.21300 31.69100
O  -5.22600 33.01400 31.36800
O  -4.19800 31.78900 32.99800
C  -4.94100 32.36500 34.11400
H  1.07400 36.84100 29.63200
H  -0.79700 36.48400 23.42400
H  -4.27200 31.16200 24.64600
H  -1.98700 33.88100 32.11000
H  0.81600 34.70000 31.61700
H  -0.99100 35.68300 33.22700
H  -1.41700 36.61000 31.82800
H  0.17600 36.84400 32.49000
H  0.63000 32.75600 32.57900
H  -0.34100 31.65000 31.56900
H  -1.51500 31.08500 33.46800
H  -1.84100 32.59400 33.98300
H  1.81800 38.52500 28.62700
H  1.12700 39.76100 27.67300
H  2.62000 38.86400 27.13900
H  1.54900 40.48000 23.80300
H  2.51800 39.47100 25.08000
H  1.11600 40.51500 25.49300
H  -1.45800 34.51800 22.05600
H  -3.99200 33.05000 22.70000
H  -2.95600 35.89200 21.23200
H  -3.56400 36.21000 22.92700
H  -4.36100 35.10000 21.93500
H  -1.91400 32.22500 21.19600
H  -2.52400 30.94900 22.28100
H  0.08100 31.86600 22.09200
H  -0.62800 30.65500 23.22800
H  -0.37400 32.26800 23.79100
H  -5.96000 30.18300 25.74600
H  -6.42900 29.88300 27.44600
H  -5.22400 28.88900 26.71800
H  -2.88300 30.75500 31.51800
H  -5.80900 31.71300 34.20900
H  -5.25100 33.38900 33.90300
H  -4.29300 32.39100 34.99000

