158

Mg 35.10100 2.22400 28.97100
C  33.06800 3.59500 31.53400
C  37.72600 2.21800 31.02600
C  37.04800 1.38800 26.28800
C  32.47300 2.88400 26.71900
N  35.31300 2.93900 31.02400
C  34.39000 3.22700 31.95800
C  34.99800 3.29700 33.38100
C  36.54300 3.09300 33.07300
C  36.50200 2.72300 31.63000
C  37.37700 4.39000 33.36800
C  34.36100 2.14900 34.28200
C  33.76400 2.61200 35.57000
H  34.52000 3.71200 36.22500
N  37.06200 1.77400 28.69600
C  37.94200 1.70900 29.74600
C  39.16200 1.05200 29.31900
C  39.05900 0.86500 27.91100
C  37.64800 1.30400 27.57100
C  40.34800 0.91500 30.27300
C  40.04000 0.38400 26.84200
O  39.86100 0.41500 25.63700
C  41.32400 -0.20300 27.26500
N  34.70900 1.92500 26.87800
C  35.71400 1.64700 26.02700
C  35.15000 1.67800 24.57100
C  33.66200 2.03700 24.76600
C  33.57800 2.33000 26.20500
C  35.93100 2.71500 23.69300
C  32.62900 0.96100 24.20300
C  32.63700 -0.43400 24.85100
N  33.19200 3.09400 29.03800
C  32.25400 3.20500 28.08600
C  31.04400 3.78100 28.62400
C  31.30800 3.98300 29.98200
C  32.63200 3.50800 30.19800
C  29.77400 4.01700 28.03500
C  30.71600 4.32900 31.23700
O  29.66300 4.84100 31.51700
C  31.85700 4.06700 32.32700
C  32.10400 5.20000 33.22800
O  32.83400 6.15500 33.05800
O  31.32000 5.03300 34.31200
C  31.50100 6.01100 35.44700
H  38.52200 2.11900 31.76700
H  37.66700 1.12000 25.42900
H  31.63600 2.82700 26.02000
H  34.92700 4.27700 33.85200
H  37.04200 2.30900 33.64200
H  38.02200 4.81800 32.60100
H  37.91500 4.16400 34.28900
H  36.70600 5.19500 33.66700
H  35.00200 1.29900 34.51400
H  33.52900 1.79300 33.67500
H  33.64400 1.78700 36.27200
H  32.79200 3.04400 35.33300
H  40.85300 -0.01600 30.01500
H  39.96700 0.80500 31.28800
H  40.98000 1.80200 30.23100
H  41.88300 -0.72600 26.48900
H  41.18600 -0.89500 28.09600
H  41.99500 0.59600 27.57900
H  35.27600 0.66500 24.18900
H  33.51800 2.99600 24.26800
H  36.39200 3.35500 24.44500
H  35.22900 3.23300 23.04000
H  36.66000 2.08100 23.18800
H  32.74800 0.70600 23.15100
H  31.67000 1.47700 24.13800
H  32.66100 -1.22400 24.10100
H  31.71400 -0.58500 25.41200
H  33.52000 -0.54400 25.48100
H  29.74400 5.00000 27.56400
H  28.94900 4.15600 28.73400
H  29.43700 3.41700 27.19000
H  31.44100 3.15400 32.75300
H  30.56000 6.53600 35.60900
H  32.31200 6.69700 35.20200
H  31.77600 5.59000 36.41400
Mg 17.02700 52.82200 26.39600
C  19.27600 51.53500 28.76800
C  14.75800 53.19300 28.93200
C  14.77500 53.81100 24.11700
C  19.18600 51.87100 23.83400
N  17.05500 52.46300 28.48600
C  18.08700 51.97300 29.31300
C  17.79300 52.28000 30.75900
C  16.23800 52.35000 30.77600
C  16.01400 52.69700 29.29500
C  15.52500 51.05300 31.21100
C  18.58000 53.55700 31.24100
C  19.03800 53.54700 32.70800
H  18.20300 52.83200 33.75900
N  14.98900 53.44600 26.49000
C  14.24700 53.52800 27.64500
C  13.06500 54.24600 27.33200
C  12.97300 54.28900 25.88100
C  14.27700 53.85900 25.41900
C  12.15900 54.75800 28.38000
C  11.79600 54.77800 24.94300
O  11.80400 54.62700 23.73600
C  10.69900 55.56500 25.46500
N  17.09100 52.93400 24.29600
C  15.96300 53.30300 23.58100
C  16.18700 53.20100 22.05200
C  17.69700 52.68300 21.96800
C  18.03400 52.53700 23.41300
C  15.22000 52.35900 21.27300
C  18.56200 53.73700 21.16900
C  19.32700 54.82200 22.02400
N  18.92300 51.93100 26.24200
C  19.66400 51.56400 25.12600
C  20.80200 50.73000 25.66700
C  20.74700 50.88700 27.03600
C  19.55500 51.48800 27.33300
C  21.83100 50.14800 24.84000
C  21.41000 50.45300 28.27500
O  22.40500 49.82800 28.46300
C  20.48400 51.06700 29.51400
C  20.20400 49.96600 30.47500
O  19.32900 49.09400 30.30900
O  20.90000 50.10700 31.62400
C  20.58900 49.17800 32.68400
H  14.03000 53.40000 29.71900
H  14.04900 54.07200 23.34400
H  19.85900 51.48100 23.06800
H  18.07000 51.34400 31.24300
H  15.94000 53.08000 31.52800
H  15.42400 51.13700 32.29300
H  16.05200 50.11900 31.01600
H  14.55800 51.04900 30.70800
H  17.96800 54.41500 30.96000
H  19.49100 53.58700 30.64300
H  19.14100 54.55900 33.09900
H  20.06300 53.21000 32.86000
H  12.59600 54.64600 29.37200
H  11.11800 54.43600 28.39000
H  12.01300 55.81700 28.16500
H  10.23100 54.72400 25.97700
H  10.03500 55.87000 24.65600
H  11.00900 56.32500 26.18200
H  16.09800 54.20500 21.63900
H  17.72800 51.69500 21.50800
H  15.73400 51.63000 20.64700
H  14.61800 52.93900 20.57400
H  14.57800 51.76400 21.92300
H  17.99800 54.33300 20.45200
H  19.38700 53.28600 20.61600
H  19.81500 54.39900 22.90200
H  18.81900 55.69000 22.44400
H  20.11000 55.18100 21.35700
H  22.30700 51.03800 24.42700
H  21.48400 49.34900 24.18600
H  22.64300 49.69200 25.40700
H  21.02300 51.86600 30.02200
H  19.61600 49.34800 33.14400
H  21.36200 49.24500 33.45000
H  20.61000 48.17400 32.26000

