158

Mg 47.10600 44.91200 43.11500
C  43.64800 44.14000 43.13900
C  47.67500 41.47700 43.02800
C  50.33800 45.64300 42.30200
C  46.23400 48.26500 42.58900
N  45.76500 43.05700 42.94600
C  44.39900 42.96800 43.04400
C  43.97600 41.56100 42.86800
C  45.25500 40.71400 43.02500
C  46.32700 41.79200 43.05600
C  45.27700 39.91100 44.38200
C  43.19200 41.26000 41.53800
C  43.81900 41.82600 40.32000
H  43.14500 41.56600 38.96400
N  48.84400 43.77100 42.90600
C  48.87600 42.33400 42.97500
C  50.28700 41.97100 42.75500
C  51.12100 43.13800 42.63300
C  50.12900 44.26200 42.69500
C  50.61800 40.48600 42.50200
C  52.58800 43.18800 42.45500
O  53.16300 42.11900 42.32700
C  53.32800 44.43300 42.40600
N  48.10300 46.65200 42.36600
C  49.41800 46.69100 42.22100
C  49.88600 48.07900 41.73600
C  48.59700 48.94900 41.85000
C  47.54700 47.91000 42.34800
C  51.19100 48.63000 42.40500
C  48.18300 49.80800 40.55800
C  47.93400 51.25700 40.91200
N  45.37100 46.01700 42.95600
C  45.18100 47.34600 42.76500
C  43.70600 47.57800 42.75500
C  43.05200 46.40900 43.00500
C  44.11100 45.46700 43.01600
C  42.96500 48.89100 42.36600
C  41.81500 45.76200 43.18100
O  40.70300 46.17100 43.19000
C  42.13700 44.24700 43.21600
C  41.66200 43.53700 44.32900
O  40.78000 42.71600 44.22800
O  42.27100 43.88400 45.56700
C  41.83100 43.05600 46.69500
H  47.88800 40.40900 43.11600
H  51.29300 45.83400 41.80800
H  45.99600 49.33000 42.62600
H  43.27600 41.39500 43.68700
H  45.43700 40.01300 42.21000
H  45.52000 40.57000 45.21500
H  46.11100 39.23900 44.18100
H  44.30400 39.45300 44.56200
H  42.15300 41.54400 41.70500
H  43.13900 40.17400 41.45800
H  44.84600 41.52000 40.12200
H  43.80800 42.91500 40.36100
H  51.67800 40.26200 42.61700
H  50.33300 40.02800 41.55400
H  50.03900 39.95900 43.26000
H  53.08000 44.92200 41.46400
H  54.40100 44.24300 42.38000
H  53.10900 45.08700 43.25000
H  50.23300 47.88900 40.72100
H  48.71700 49.62000 42.70000
H  51.17700 49.69300 42.64700
H  51.99200 48.47100 41.68300
H  51.45600 48.08900 43.31300
H  47.26100 49.41600 40.12900
H  48.97500 49.74100 39.81200
H  47.09500 51.71700 40.39000
H  48.80400 51.89800 40.76800
H  47.57100 51.29100 41.93900
H  43.68600 49.69400 42.52300
H  42.11200 48.98100 43.03900
H  42.70200 48.90500 41.30900
H  41.70600 43.78000 42.33000
H  40.91400 43.54100 47.03000
H  42.62800 43.15600 47.43100
H  41.59300 42.06500 46.30900
Mg -5.09400 25.39800 25.27600
C  -3.65200 27.04400 28.16600
C  -6.36500 23.17400 27.49900
C  -6.25200 23.89900 22.57000
C  -3.44000 27.73500 23.29800
N  -5.21200 25.31400 27.57400
C  -4.58700 26.07900 28.55700
C  -4.79100 25.40000 29.98600
C  -5.34700 23.98300 29.67900
C  -5.68400 24.15900 28.16000
C  -4.29800 22.76900 29.94100
C  -5.77300 26.26100 30.84900
C  -5.25700 26.66200 32.28300
H  -4.69400 25.46600 33.09200
N  -6.16700 23.80600 25.03800
C  -6.65800 23.00600 26.11100
C  -7.49300 22.01800 25.54000
C  -7.49700 22.15500 24.12800
C  -6.69800 23.36800 23.84500
C  -8.16300 20.88600 26.31400
C  -8.12900 21.39000 23.00800
O  -8.11900 21.80300 21.86100
C  -8.82300 20.13600 23.33800
N  -4.73100 25.70700 23.27400
C  -5.37900 24.99300 22.36600
C  -5.09800 25.43000 20.96500
C  -4.58900 26.89400 21.18200
C  -4.28100 26.86700 22.71500
C  -4.03800 24.50200 20.38700
C  -5.64400 27.96900 20.83700
C  -5.05800 29.23200 20.18500
N  -3.63400 27.04300 25.61300
C  -3.11000 27.88000 24.62900
C  -2.25600 28.77000 25.32800
C  -2.45400 28.54500 26.68400
C  -3.34600 27.51700 26.80800
C  -1.30400 29.76200 24.67800
C  -1.92100 28.87000 27.99400
O  -1.08000 29.67200 28.40300
C  -2.69100 27.82100 28.97500
C  -1.69000 26.98400 29.76500
O  -1.15500 25.97900 29.42000
O  -1.57100 27.63300 30.99800
C  -0.73300 26.90700 32.02100
H  -6.74800 22.35400 28.11100
H  -6.53000 23.36900 21.65600
H  -3.08000 28.46900 22.57400
H  -3.84800 25.28600 30.52100
H  -6.26700 23.71700 30.19900
H  -4.79100 21.91700 29.47100
H  -4.19600 22.64500 31.01900
H  -3.34100 23.07700 29.52200
H  -6.82200 25.96800 30.87300
H  -5.88400 27.22900 30.36000
H  -6.07100 27.14300 32.82600
H  -4.47000 27.40600 32.15900
H  -7.76000 19.89700 26.09500
H  -9.21800 20.90400 26.04200
H  -8.21000 21.09100 27.38400
H  -8.13800 19.39300 23.74700
H  -9.24600 19.76800 22.40300
H  -9.65100 20.41300 23.99100
H  -5.94600 25.47500 20.28100
H  -3.72300 27.13800 20.56600
H  -3.54600 23.87900 21.13400
H  -3.28800 25.12800 19.90400
H  -4.59000 23.90900 19.65800
H  -6.09700 28.24600 21.78900
H  -6.42600 27.63500 20.15600
H  -5.60500 29.50800 19.28300
H  -4.00300 29.33000 19.92700
H  -5.36400 30.14600 20.69500
H  -0.92600 29.29700 23.76700
H  -0.49000 30.04900 25.34400
H  -1.90200 30.64300 24.44600
H  -3.21000 28.51000 29.64100
H  0.27300 26.71400 31.64800
H  -1.20000 25.94400 32.22600
H  -0.55700 27.54500 32.88700

