158

Mg 6.11400 53.67200 41.72600
C  5.67400 50.31500 40.87400
C  9.25100 53.56000 40.51000
C  6.10100 57.05300 41.58800
C  2.57100 53.83100 42.57800
N  7.17200 52.09900 40.58300
C  6.90900 50.78100 40.43700
C  8.02400 50.05000 39.91200
C  9.25500 51.00000 40.16700
C  8.54700 52.33000 40.46900
C  10.26000 50.45400 41.32600
C  7.93200 49.58300 38.43500
C  7.14700 50.45800 37.41200
H  7.18700 49.95600 35.95200
N  7.53600 55.13200 41.16900
C  8.80100 54.86900 40.78100
C  9.55300 56.08500 40.64700
C  8.73700 57.14100 41.12100
C  7.39300 56.46500 41.35700
C  10.92500 56.09600 40.01900
C  9.10100 58.62100 41.23600
O  10.25700 58.95100 41.17400
C  8.07400 59.60000 41.56500
N  4.52200 55.24200 42.02100
C  4.87200 56.50600 41.87900
C  3.61200 57.39100 42.13600
C  2.51100 56.38700 42.63000
C  3.18100 55.04900 42.30500
C  3.80400 58.73300 42.90400
C  1.05000 56.64800 42.20900
C  0.00800 56.29000 43.27400
N  4.49600 52.36800 41.90900
C  3.17900 52.58200 42.30500
C  2.61300 51.22500 42.47200
C  3.48700 50.33800 41.87900
C  4.64400 51.10000 41.50700
C  1.38200 50.87000 43.36500
C  3.76000 48.92800 41.57500
O  3.05300 47.99100 41.89300
C  5.14300 48.86600 40.88700
C  5.02800 48.09100 39.59600
O  4.44800 48.46100 38.60600
O  5.60700 46.81200 39.72400
C  5.45900 45.95600 38.59900
H  10.29500 53.47800 40.19900
H  6.08600 58.13400 41.43300
H  1.52300 53.92700 42.86900
H  8.11900 49.13300 40.49400
H  9.95600 51.09000 39.33700
H  10.42600 51.25700 42.04400
H  11.23900 50.23700 40.89800
H  9.99000 49.56000 41.88800
H  7.37100 48.66000 38.28900
H  8.95800 49.36600 38.13900
H  7.67600 51.41000 37.45900
H  6.14800 50.78600 37.69800
H  10.94500 56.11900 38.92900
H  11.40400 55.18400 40.37600
H  11.47300 56.95300 40.41200
H  8.60800 60.53000 41.76000
H  7.70800 59.27100 42.53800
H  7.34000 59.70900 40.76700
H  3.41400 57.79700 41.14400
H  2.67900 56.59400 43.68700
H  3.38600 59.58100 42.36100
H  4.86500 58.97800 42.94200
H  3.49000 58.69500 43.94700
H  0.80000 56.00500 41.36600
H  1.14300 57.67500 41.85400
H  -0.56200 57.20900 43.40400
H  0.55800 56.05500 44.18500
H  -0.70700 55.53700 42.94100
H  0.94000 49.98300 42.91200
H  0.64900 51.67000 43.46900
H  1.76200 50.63200 44.35800
H  5.79700 48.24400 41.49800
H  4.95100 45.04600 38.91800
H  6.44300 45.61900 38.27100
H  4.94200 46.36300 37.73000
Mg 10.03800 49.05900 25.79300
C  8.08000 48.85500 28.76900
C  12.77200 50.15700 27.54200
C  11.89000 48.88900 22.98600
C  7.06600 48.11200 24.05200
N  10.29900 49.37600 27.89200
C  9.42200 49.25900 28.95600
C  10.21200 49.43500 30.20500
C  11.41700 50.31600 29.79700
C  11.53700 49.87300 28.34900
C  11.20400 51.86600 29.87700
C  10.60800 48.00500 30.81500
C  10.38400 47.71100 32.26700
H  11.08400 48.58400 33.30700
N  12.14700 49.43200 25.28800
C  13.07200 49.87600 26.14800
C  14.41000 49.93100 25.55400
C  14.15500 49.53100 24.20200
C  12.65900 49.27300 24.08000
C  15.65900 50.35700 26.28400
C  15.06700 49.41200 23.00400
O  14.81000 49.06000 21.84200
C  16.55400 49.87200 23.29400
N  9.52500 48.76000 23.68300
C  10.53200 48.59200 22.78400
C  9.90700 47.89800 21.47400
C  8.36200 47.65900 21.81800
C  8.30700 48.21700 23.28300
C  10.20000 48.77700 20.17200
C  7.93300 46.15400 21.70600
C  8.72400 45.11300 22.48700
N  7.95600 48.68500 26.21700
C  6.89600 48.28000 25.45100
C  5.64300 48.13700 26.24700
C  6.09300 48.43400 27.49800
C  7.47300 48.68800 27.42000
C  4.29600 47.62000 25.79700
C  5.63600 48.59400 28.82900
O  4.54800 48.51600 29.33900
C  6.96100 48.64000 29.70900
C  6.94900 47.42700 30.54500
O  7.23400 46.29200 30.15100
O  6.57100 47.73900 31.84500
C  6.65100 46.50400 32.69700
H  13.52900 50.64800 28.15700
H  12.45000 48.85000 22.05000
H  6.13400 47.80300 23.57500
H  9.60500 50.01600 30.89800
H  12.37600 50.02100 30.22300
H  11.39300 52.25600 28.87700
H  11.87600 52.43000 30.52500
H  10.16100 51.94800 30.18300
H  11.65000 47.87200 30.52600
H  10.23800 47.15800 30.23700
H  10.70100 46.68200 32.43400
H  9.30800 47.79300 32.42200
H  15.59800 50.14300 27.35100
H  15.81300 51.43100 26.18500
H  16.51700 49.77100 25.95500
H  16.82100 49.06400 23.97500
H  16.65800 50.86000 23.74400
H  17.20700 49.67900 22.44300
H  10.40500 46.92900 21.43900
H  7.67400 48.25300 21.21600
H  11.06300 49.41000 20.37800
H  9.38800 49.47000 19.95000
H  10.41400 48.17000 19.29300
H  8.12800 45.91500 20.66100
H  6.87800 46.00700 21.93700
H  7.88600 44.65100 23.00900
H  9.33700 45.65200 23.20900
H  9.26000 44.33800 21.93900
H  3.77100 48.51600 25.46500
H  3.81700 47.22900 26.69500
H  4.37400 46.92800 24.95900
H  6.87700 49.45400 30.42900
H  5.81000 45.85400 32.45900
H  6.56000 46.78500 33.74600
H  7.56800 45.97400 32.43800

