158

Mg 9.49300 3.51300 27.96400
C  10.61400 1.99100 31.06800
C  7.83700 5.72700 30.03300
C  7.94500 4.56800 25.25300
C  10.90800 0.82000 26.20700
N  9.18800 3.73100 30.41800
C  9.92700 3.15900 31.43100
C  9.61000 3.80500 32.82700
C  8.61100 4.91900 32.39500
C  8.46300 4.75900 30.83200
C  7.22300 5.03100 33.03500
C  10.91700 4.36300 33.55300
C  11.33500 3.51900 34.77200
H  11.56100 4.48000 35.95400
N  8.15600 4.95600 27.66400
C  7.61500 5.82400 28.58600
C  6.81000 6.81300 27.87100
C  6.79100 6.47200 26.49800
C  7.69400 5.39000 26.41400
C  5.91700 7.74800 28.58300
C  6.11600 7.19100 25.29100
O  6.12000 6.83900 24.15500
C  5.42100 8.47500 25.68700
N  9.41200 2.77400 26.03000
C  8.69100 3.39300 25.07800
C  8.78700 2.57900 23.71400
C  9.78200 1.51700 24.04600
C  10.03000 1.66300 25.56100
C  7.43400 2.14000 23.10300
C  11.05700 1.40100 23.16600
C  10.94700 0.85100 21.73300
N  10.59800 1.81500 28.46700
C  11.17800 0.84500 27.60800
C  11.88500 -0.13200 28.43700
C  11.68500 0.23800 29.81300
C  10.87300 1.40500 29.79800
C  12.59300 -1.42300 27.99700
C  12.01800 -0.04000 31.19800
O  12.72100 -0.89700 31.64600
C  11.33200 1.09500 32.06700
C  10.46400 0.55600 33.13700
O  9.24900 0.40600 33.06500
O  11.23000 0.27100 34.21500
C  10.53000 -0.27400 35.30700
H  7.26300 6.43200 30.63700
H  7.57400 4.92700 24.29000
H  11.40200 0.02400 25.64600
H  8.98900 3.30600 33.57100
H  9.08200 5.90100 32.41900
H  7.12900 4.74200 34.08200
H  6.52000 4.49000 32.40000
H  6.80900 6.02900 32.89300
H  10.87800 5.41500 33.83200
H  11.68100 4.22100 32.78800
H  12.22000 2.92500 34.54700
H  10.54700 2.82200 35.06000
H  4.91200 7.33700 28.48100
H  5.85300 8.76500 28.19400
H  6.02600 7.89100 29.65800
H  4.61500 8.23600 26.38100
H  4.80200 8.76800 24.83900
H  6.09600 9.27600 25.99100
H  9.22200 3.29000 23.01100
H  9.30400 0.53800 24.05300
H  6.78300 1.58300 23.77700
H  7.49900 1.59200 22.16300
H  6.90400 3.07600 22.93200
H  11.77400 0.75700 23.67600
H  11.42800 2.42500 23.13400
H  9.88200 0.84200 21.50200
H  11.31300 -0.17400 21.66800
H  11.58100 1.48300 21.11100
H  12.87600 -1.31200 26.95000
H  12.02500 -2.33100 28.19500
H  13.46700 -1.47400 28.64700
H  12.20300 1.64300 32.42500
H  9.69400 0.39800 35.50000
H  11.22300 -0.14300 36.13700
H  10.26500 -1.31800 35.13500
Mg 46.28300 24.27300 28.58400
C  46.68200 26.89200 30.93200
C  45.46600 22.11800 31.10300
C  46.19000 21.91600 26.39300
C  47.95700 26.42100 26.19000
N  46.23100 24.53400 30.68300
C  46.32700 25.69200 31.45600
C  46.03600 25.41700 32.91500
C  46.00400 23.82900 33.01200
C  45.84000 23.44000 31.52100
C  47.09700 23.15200 33.87300
C  44.74000 26.10800 33.41400
C  44.92400 26.86200 34.85700
H  44.09300 26.60000 36.07700
N  45.75100 22.29600 28.69500
C  45.43500 21.57500 29.82600
C  45.09000 20.23200 29.43800
C  45.26400 20.20300 28.07700
C  45.74900 21.48800 27.62100
C  44.68200 19.11000 30.39900
C  44.95100 19.09400 27.15100
O  45.23400 19.10000 25.92400
C  44.12200 17.88900 27.62900
N  47.10700 24.19900 26.61300
C  46.83900 23.05800 25.90300
C  47.39800 23.10700 24.50300
C  47.80600 24.54500 24.33700
C  47.67700 25.11600 25.80900
C  48.45800 22.01700 24.14000
C  47.00200 25.34300 23.28100
C  45.60700 25.94600 23.54500
N  47.00400 26.34300 28.43400
C  47.69800 27.03300 27.42900
C  47.80200 28.41700 27.90600
C  47.59200 28.40300 29.30500
C  47.12000 27.11000 29.59500
C  48.27300 29.61300 27.07100
C  47.68700 29.10700 30.59700
O  47.94900 30.25800 30.69200
C  47.22400 28.08700 31.72100
C  48.43900 27.81600 32.49000
O  49.52400 27.40400 32.00200
O  48.25400 28.02700 33.84600
C  49.39800 27.79300 34.71000
H  45.32600 21.48100 31.97900
H  46.29200 21.10300 25.67100
H  48.48200 27.11800 25.53300
H  46.97500 25.72200 33.37800
H  45.09800 23.51700 33.53200
H  47.37700 22.21200 33.39700
H  46.57800 22.90900 34.80100
H  47.90700 23.85200 34.07600
H  43.92800 25.41900 33.64700
H  44.32600 26.83900 32.71900
H  44.80300 27.90700 34.57200
H  45.89900 26.60300 35.26800
H  43.66900 18.80400 30.13700
H  44.82500 19.34800 31.45400
H  45.24900 18.22800 30.10100
H  44.57300 17.41900 28.50300
H  44.04900 17.19100 26.79500
H  43.06300 18.12600 27.73400
H  46.52200 22.91800 23.88200
H  48.86300 24.58800 24.07400
H  48.69900 21.39700 25.00300
H  49.45500 22.39800 23.92300
H  48.06000 21.41700 23.32200
H  46.82400 24.61000 22.49400
H  47.62400 26.14200 22.87800
H  45.02600 25.33100 24.23200
H  44.98200 25.90200 22.65300
H  45.55000 26.99600 23.83400
H  48.03000 30.59500 27.47700
H  48.00600 29.54600 26.01600
H  49.35200 29.53400 27.20500
H  46.47300 28.59200 32.32800
H  50.25400 27.32000 34.23000
H  49.04100 27.25100 35.58600
H  49.70200 28.76800 35.09300

