158

Mg 43.87000 3.87200 46.83300
C  41.45000 6.51600 46.66000
C  41.22400 1.71900 46.42600
C  46.15500 1.56200 46.17900
C  46.39700 6.44200 46.84000
N  41.52000 4.09800 46.61500
C  40.84700 5.29600 46.56500
C  39.30200 5.03200 46.44700
C  39.22200 3.41900 46.66300
C  40.70800 3.00300 46.44700
C  38.66200 2.94100 47.99300
C  38.65200 5.57800 45.15400
C  39.36800 5.33300 43.83100
H  39.52600 6.51500 42.96000
N  43.70300 1.84100 46.46100
C  42.52200 1.18200 46.33000
C  42.84200 -0.16700 45.94600
C  44.21000 -0.23400 45.67400
C  44.75900 1.07900 46.11600
C  41.80200 -1.25100 45.69600
C  45.05300 -1.41000 44.98300
O  44.47500 -2.44100 44.61300
C  46.49000 -1.32600 44.75300
N  45.98000 4.00300 46.58600
C  46.69000 2.90000 46.41700
C  48.24200 3.16000 46.49100
C  48.26400 4.66200 46.90100
C  46.79800 5.06000 46.76300
C  49.00000 2.27100 47.43300
C  49.25700 5.43700 46.02300
C  50.16700 6.36100 46.86500
N  44.00200 6.05600 46.72300
C  45.06300 6.91800 46.76700
C  44.59100 8.27600 46.81200
C  43.15500 8.19100 46.78400
C  42.87300 6.76200 46.72300
C  45.54400 9.49800 46.89000
C  41.90300 8.92500 46.73800
O  41.63800 10.11900 46.60900
C  40.79500 7.84000 46.79000
C  39.99800 7.91000 48.04000
O  40.36100 7.73800 49.17100
O  38.79700 8.35600 47.74400
C  37.67700 8.12500 48.71400
H  40.35100 1.06900 46.34400
H  46.86900 0.75400 46.01100
H  47.25000 7.09700 47.03200
H  38.83900 5.59000 47.26100
H  38.63500 3.09300 45.80500
H  37.82900 3.62300 48.16700
H  39.42500 3.03400 48.76600
H  38.35100 1.89700 47.94700
H  38.43800 6.64300 45.23800
H  37.64600 5.17000 45.06500
H  38.76800 4.59000 43.30600
H  40.32000 4.86500 44.08100
H  41.85900 -1.69800 44.70400
H  40.75700 -0.95700 45.79300
H  42.01000 -2.11400 46.32900
H  46.99700 -1.26600 45.71600
H  46.72600 -0.45800 44.13700
H  46.76700 -2.29400 44.33500
H  48.67900 2.95600 45.51400
H  48.47100 4.69000 47.97100
H  49.96100 2.69300 47.72900
H  49.24500 1.33700 46.92700
H  48.42400 2.01500 48.32100
H  48.63600 6.07000 45.39000
H  49.83000 4.77000 45.37700
H  51.17300 5.98900 46.67300
H  50.04900 6.48300 47.94200
H  50.03600 7.29800 46.32400
H  46.05300 9.38000 47.84600
H  45.02300 10.45300 46.81700
H  46.25600 9.42300 46.06800
H  40.07900 7.93500 45.97300
H  37.75500 8.69300 49.64100
H  37.58100 7.07400 48.98300
H  36.73700 8.36000 48.21400
Mg 40.66800 9.11000 29.61500
C  42.56100 10.31700 32.30900
C  38.41000 7.67800 31.80600
C  39.08600 7.98600 26.87300
C  43.27500 10.04900 27.48900
N  40.55800 8.95300 31.80900
C  41.41100 9.60800 32.73200
C  40.88300 9.42200 34.11100
C  39.51500 8.63700 33.94300
C  39.50000 8.36300 32.43000
C  39.22700 7.37900 34.81800
C  40.77200 10.76700 34.92000
C  39.47400 11.16700 35.72100
H  39.41700 12.05100 36.89600
N  39.04200 7.86900 29.36200
C  38.21000 7.40800 30.39400
C  37.12300 6.69000 29.80300
C  37.38100 6.72800 28.37700
C  38.49100 7.62200 28.13500
C  36.12400 5.93900 30.63500
C  36.56700 6.05000 27.25600
O  36.85500 6.04000 26.08500
C  35.44800 5.15100 27.56000
N  41.14500 8.97400 27.43000
C  40.25100 8.66500 26.49100
C  40.80500 8.72100 24.99900
C  42.24500 9.34800 25.26000
C  42.21900 9.55000 26.83000
C  40.81700 7.37700 24.22800
C  42.49900 10.70500 24.54700
C  41.75100 11.90700 25.08800
N  42.46000 10.05800 29.72800
C  43.43100 10.34800 28.82600
C  44.58900 10.92400 29.43900
C  44.29400 10.95500 30.78900
C  43.00300 10.41000 30.93600
C  45.82500 11.25500 28.65100
C  44.75900 11.28400 32.10200
O  45.79700 11.82000 32.43100
C  43.59700 11.00000 33.22000
C  44.25800 10.12800 34.15500
O  44.41000 8.90200 34.00800
O  44.70800 10.88000 35.13400
C  45.47800 10.33400 36.20100
H  37.61100 7.28800 32.43900
H  38.61200 7.61800 25.96000
H  44.21900 10.09200 26.94200
H  41.60100 8.74600 34.57600
H  38.68100 9.33800 33.90700
H  38.25300 7.38500 35.30900
H  40.06700 7.25400 35.50200
H  39.14800 6.55200 34.11200
H  40.92300 11.54900 34.17600
H  41.58900 10.93000 35.62300
H  39.08400 10.20700 36.05700
H  38.75600 11.58900 35.01800
H  35.95000 6.28700 31.65300
H  36.43400 4.90200 30.76800
H  35.23600 5.81900 30.01500
H  34.49200 5.59200 27.84300
H  35.72200 4.52900 28.41200
H  35.27700 4.35800 26.83200
H  40.07200 9.38500 24.54100
H  42.99600 8.60000 25.00700
H  40.02000 7.27200 23.49200
H  40.74200 6.63000 25.01800
H  41.74800 7.35100 23.66200
H  42.38000 10.69400 23.46300
H  43.55100 10.97800 24.63000
H  42.34100 12.62400 25.66000
H  40.91200 11.60700 25.71500
H  41.33300 12.47700 24.25800
H  46.22400 10.45000 28.03400
H  46.48900 11.55200 29.46300
H  45.62700 12.06100 27.94400
H  43.26000 11.97200 33.57900
H  46.14600 9.50900 35.95000
H  44.88100 9.85300 36.97500
H  46.12300 11.10300 36.62600

