158

Mg 24.47100 -7.04500 47.38300
C  27.18700 -4.96400 46.34800
C  22.69700 -5.59100 44.88000
C  22.22800 -9.47500 47.70900
C  26.76400 -8.74500 49.38200
N  24.83100 -5.34800 45.94100
C  26.01400 -4.79600 45.58600
C  25.78500 -3.74500 44.50200
C  24.22600 -3.68300 44.31200
C  23.89500 -4.96700 45.05300
C  23.45200 -2.44600 44.80700
C  26.51100 -4.13000 43.11100
C  27.05800 -2.91100 42.37200
H  26.88700 -2.83700 40.84500
N  22.64700 -7.43200 46.54300
C  22.12500 -6.71100 45.48600
C  20.78500 -7.16100 45.26700
C  20.54300 -8.33600 46.11400
C  21.89600 -8.46600 46.81700
C  19.76300 -6.45900 44.35300
C  19.36200 -9.18500 46.24800
O  18.33900 -8.95600 45.59100
C  19.26700 -10.37700 47.14900
N  24.49000 -8.82100 48.47300
C  23.43100 -9.66700 48.45200
C  23.64800 -10.86200 49.37700
C  25.12600 -10.65300 49.83100
C  25.49500 -9.37300 49.22500
C  22.66200 -10.98000 50.58300
C  26.12400 -11.80300 49.55400
C  27.00500 -12.00700 50.78100
N  26.52500 -6.88200 47.88000
C  27.30600 -7.60900 48.71600
C  28.55900 -7.05100 48.81700
C  28.59600 -5.98800 47.93200
C  27.33500 -5.90000 47.38900
C  29.71300 -7.63600 49.66200
C  29.38300 -4.88900 47.35800
O  30.46800 -4.45800 47.67500
C  28.53100 -4.23200 46.31600
C  28.47400 -2.76400 46.64100
O  28.18100 -2.26600 47.70500
O  28.76300 -2.03800 45.50900
C  28.66600 -0.61500 45.71000
H  22.14700 -5.12000 44.06200
H  21.61000 -10.32800 47.99500
H  27.57600 -9.25800 49.90000
H  26.12800 -2.75300 44.79500
H  23.94000 -3.79700 43.26700
H  23.01100 -1.89200 43.97800
H  24.07900 -1.91300 45.52100
H  22.50700 -2.75600 45.25300
H  25.84000 -4.68200 42.45200
H  27.38100 -4.78500 43.15200
H  28.10100 -2.81900 42.67500
H  26.50500 -2.07400 42.79900
H  19.14900 -7.15400 43.78000
H  20.33300 -5.81200 43.68600
H  19.14800 -5.79500 44.96000
H  20.00800 -11.12000 46.85500
H  18.29000 -10.81800 46.95200
H  19.44300 -10.02700 48.16600
H  23.62600 -11.79700 48.81700
H  25.22600 -10.47800 50.90200
H  23.23800 -10.96500 51.50900
H  22.18300 -11.94200 50.40400
H  21.96000 -10.14600 50.59700
H  26.65700 -11.49200 48.65600
H  25.66100 -12.76800 49.34500
H  27.71500 -12.77000 50.46300
H  26.39800 -12.49400 51.54400
H  27.38200 -11.07800 51.20900
H  30.53700 -6.93200 49.78100
H  30.03000 -8.48500 49.05500
H  29.43600 -8.05200 50.63100
H  28.93200 -4.41900 45.32000
H  29.29200 -0.34600 46.56100
H  27.67800 -0.15700 45.75900
H  29.21100 -0.14100 44.89400
Mg 35.84900 49.22000 25.47800
C  35.87400 47.56900 28.54800
C  34.73000 52.14200 27.20000
C  35.34700 50.75000 22.54200
C  36.28800 46.14300 23.84100
N  35.35400 49.74200 27.61200
C  35.53400 48.94700 28.64800
C  35.47800 49.74200 30.02200
C  35.07900 51.21100 29.52400
C  35.00700 51.00700 27.96400
C  33.73600 51.75000 30.11100
C  36.84200 49.86400 30.79200
C  36.84400 49.59100 32.27800
H  35.45400 49.57200 33.04200
N  35.23100 51.19300 24.89200
C  34.87600 52.24100 25.74900
C  34.46100 53.38800 24.95900
C  34.68000 53.01700 23.60100
C  35.09900 51.61100 23.61200
C  33.92600 54.68600 25.55500
C  34.48100 53.88100 22.35700
O  34.56600 53.43900 21.20700
C  34.18100 55.41100 22.48200
N  35.85700 48.58000 23.54200
C  35.64800 49.36800 22.45800
C  35.79600 48.70800 21.10800
C  36.43400 47.37300 21.60000
C  36.19700 47.33800 23.11100
C  34.44800 48.65700 20.25500
C  37.93600 47.33600 21.25600
C  38.44600 46.36300 20.21000
N  36.07000 47.24700 26.03500
C  36.23700 46.04600 25.29200
C  36.47200 44.96900 26.16100
C  36.36900 45.53800 27.49200
C  36.14100 46.87200 27.36600
C  36.94200 43.58500 25.77300
C  36.44400 45.19700 28.87900
O  36.63400 44.10300 29.42400
C  36.18500 46.58700 29.62800
C  35.05100 46.21300 30.59300
O  33.87400 46.30800 30.43000
O  35.60200 45.82400 31.77100
C  34.64000 45.34900 32.81500
H  34.46000 53.05100 27.74000
H  35.38300 51.20800 21.55100
H  36.57700 45.22500 23.32400
H  34.67700 49.32400 30.63200
H  35.88000 51.93900 29.65700
H  32.89300 51.33900 29.55400
H  33.76200 52.83100 29.97300
H  33.51700 51.32800 31.09200
H  37.30400 50.84700 30.69000
H  37.55300 49.15900 30.36100
H  37.54000 50.24500 32.80300
H  37.28000 48.59900 32.39300
H  34.07900 54.70900 26.63400
H  32.84300 54.75400 25.45800
H  34.37700 55.54600 25.05900
H  33.21700 55.43500 22.99000
H  34.10500 55.83600 21.48100
H  35.05000 55.80200 23.01100
H  36.49300 49.29900 20.51400
H  35.78100 46.62400 21.15200
H  34.11600 47.62200 20.18600
H  34.72800 49.09000 19.29400
H  33.75600 49.31600 20.77900
H  38.39000 47.22800 22.24200
H  38.16800 48.32800 20.87000
H  37.60000 46.02700 19.60900
H  38.97200 45.55700 20.72200
H  39.15600 46.96800 19.64700
H  37.72100 43.23300 26.45000
H  37.28400 43.47900 24.74300
H  36.11200 42.89200 25.91600
H  37.11000 46.90200 30.11100
H  33.80100 46.03900 32.90600
H  35.15200 45.33600 33.77700
H  34.20300 44.38100 32.57200

