158

Mg 17.64300 -2.82600 27.60600
C  16.31700 -0.99000 30.28900
C  19.83700 -4.34000 29.87400
C  19.42500 -3.97300 25.07100
C  15.64100 -0.85200 25.41300
N  18.07500 -2.58600 29.76900
C  17.33700 -1.85700 30.67900
C  17.74800 -2.12800 32.09100
C  19.08500 -2.97100 31.88700
C  18.99000 -3.37700 30.37100
C  20.39000 -2.20500 32.27600
C  16.65900 -2.85700 32.94100
C  16.74300 -2.53400 34.48100
H  18.02100 -2.03800 35.22100
N  19.23500 -4.17900 27.53500
C  19.96700 -4.77200 28.51700
C  20.73900 -5.82100 27.89500
C  20.76600 -5.65200 26.48300
C  19.74600 -4.56200 26.32200
C  21.51500 -6.84900 28.76100
C  21.53500 -6.41900 25.32700
O  21.39700 -6.13800 24.15300
C  22.30000 -7.67000 25.67400
N  17.62700 -2.34200 25.61800
C  18.44500 -2.98900 24.68500
C  18.37200 -2.31100 23.27700
C  16.85400 -1.77000 23.43000
C  16.69300 -1.66000 24.88300
C  19.42100 -1.14700 22.97600
C  15.72500 -2.73100 22.89100
C  14.60600 -2.09300 22.02100
N  16.20600 -1.23000 27.75700
C  15.42700 -0.57300 26.80100
C  14.47600 0.23200 27.45300
C  14.80200 0.10200 28.85300
C  15.91200 -0.74600 28.98700
C  13.62400 1.23500 26.82900
C  14.66800 0.72800 30.15600
O  14.13100 1.79000 30.44000
C  15.43500 -0.09800 31.18800
C  16.14000 0.85600 32.07600
O  17.06000 1.57900 31.76100
O  15.44700 1.02400 33.32000
C  15.80600 2.20600 34.08300
H  20.33400 -4.84200 30.70700
H  19.99600 -4.33100 24.21200
H  14.80100 -0.49600 24.81200
H  17.94200 -1.14500 32.51900
H  18.98400 -3.81100 32.57500
H  21.01700 -2.77900 32.95800
H  20.05300 -1.40900 32.94000
H  20.89500 -1.75100 31.42300
H  16.74700 -3.94300 32.91300
H  15.70800 -2.49700 32.54700
H  16.32900 -3.34800 35.07400
H  16.13300 -1.63400 34.55300
H  22.50700 -7.01300 28.34000
H  20.87700 -7.71400 28.94200
H  21.81200 -6.55000 29.76600
H  22.46700 -8.06500 24.67200
H  21.68900 -8.42300 26.17100
H  23.24200 -7.37900 26.13900
H  18.37800 -3.06800 22.49300
H  16.89700 -0.77600 22.98500
H  19.04700 -0.51300 22.17200
H  20.46500 -1.43500 22.84800
H  19.50500 -0.57500 23.90000
H  15.24600 -3.30800 23.68200
H  16.28700 -3.40400 22.24300
H  14.75700 -1.03500 21.80300
H  13.65900 -2.24000 22.54100
H  14.68200 -2.75000 21.15500
H  13.39100 1.91800 27.64500
H  12.65900 0.87900 26.46600
H  14.12700 1.70000 25.98000
H  14.75400 -0.52700 31.92300
H  15.09900 2.34700 34.90100
H  15.78100 3.15900 33.55400
H  16.79500 2.22300 34.54200
Mg 9.10500 47.75800 25.33600
C  7.29700 47.54500 28.35900
C  11.72800 49.15700 27.26800
C  10.96200 48.05800 22.64300
C  6.22900 47.33300 23.54600
N  9.41200 48.42200 27.52000
C  8.58000 48.05100 28.53800
C  9.24800 48.39400 29.84200
C  10.36400 49.45600 29.41600
C  10.54700 49.06000 27.99300
C  9.91400 50.95100 29.63900
C  9.78200 47.22600 30.59200
C  9.78800 47.36100 32.16600
H  8.96600 46.41000 33.03500
N  11.12900 48.27000 25.01400
C  12.02200 48.77000 25.89400
C  13.33500 48.70700 25.28700
C  13.11500 48.34200 23.93400
C  11.65500 48.13700 23.77800
C  14.59500 48.90900 26.02400
C  14.10500 47.93000 22.90000
O  13.79800 47.71100 21.77500
C  15.57000 47.71000 23.31500
N  8.61100 47.84200 23.36900
C  9.57300 47.94800 22.39200
C  8.91500 48.11100 21.03000
C  7.42700 47.70200 21.34100
C  7.43600 47.55100 22.84800
C  9.13300 49.34100 20.15800
C  6.98100 46.42900 20.52100
C  5.92200 46.78600 19.34700
N  7.19300 47.43300 25.84100
C  6.06100 47.27500 24.97000
C  4.91300 46.94000 25.78700
C  5.35700 47.06300 27.10100
C  6.69800 47.43500 27.07300
C  3.49800 46.99600 25.23700
C  4.88200 47.02600 28.45300
O  3.74300 46.74100 28.88700
C  6.11200 47.33300 29.31800
C  6.28900 46.06700 30.12900
O  6.95700 45.11200 29.80100
O  5.50600 46.10400 31.22600
C  5.11000 44.75300 31.71800
H  12.56500 49.53600 27.85800
H  11.50300 48.24700 21.71400
H  5.34400 46.93100 23.04900
H  8.40900 48.79800 30.41000
H  11.21300 49.29600 30.08200
H  8.85800 50.97500 29.91100
H  10.04100 51.59000 28.76600
H  10.45300 51.43100 30.45500
H  10.82800 46.99100 30.39500
H  9.20900 46.35500 30.27500
H  9.41400 48.33100 32.49700
H  10.80600 47.41600 32.55000
H  14.38400 48.90700 27.09300
H  14.93200 49.92900 25.84200
H  15.41700 48.20500 25.89800
H  15.81300 46.85400 23.94600
H  15.96500 48.55600 23.87700
H  16.15500 47.73800 22.39600
H  9.46100 47.29600 20.55400
H  6.76300 48.55600 21.20500
H  9.79500 50.03600 20.67500
H  8.14800 49.80200 20.08400
H  9.43400 49.05900 19.14900
H  6.48400 45.69700 21.15600
H  7.82500 45.86100 20.12800
H  6.22000 46.50700 18.33600
H  5.72700 47.85800 19.33300
H  4.95000 46.32100 19.51000
H  2.99800 46.03700 25.10100
H  3.37700 47.43800 24.24800
H  2.84100 47.51700 25.93400
H  5.77400 48.12600 29.98400
H  4.21600 44.83800 32.33500
H  5.87800 44.23200 32.29000
H  4.78400 44.16100 30.86200

