158

Mg 42.75600 3.32300 46.19000
C  40.91000 6.27200 46.49400
C  39.92700 1.61100 46.27000
C  44.55800 0.70100 45.18900
C  45.54900 5.43500 45.61200
N  40.64200 3.94100 46.30600
C  40.12100 5.18400 46.57000
C  38.56500 5.08200 46.88900
C  38.40500 3.54500 46.97600
C  39.73600 2.98000 46.47800
C  37.97000 3.05100 48.35100
C  37.63000 5.85500 45.81500
C  38.02400 5.53900 44.45500
H  38.44200 6.56400 43.40400
N  42.30200 1.38000 45.92500
C  41.05000 0.89200 46.07600
C  41.07500 -0.53000 45.78800
C  42.36100 -0.78100 45.18500
C  43.14600 0.45000 45.43700
C  39.92600 -1.43500 46.03700
C  42.81700 -2.06000 44.56100
O  41.92200 -2.92300 44.51800
C  44.13200 -2.17800 43.79500
N  44.72400 3.11300 45.10900
C  45.28100 1.91800 45.11000
C  46.80700 2.06400 45.05300
C  47.05700 3.57900 44.90000
C  45.66800 4.12800 45.14900
C  47.64900 1.30400 46.20300
C  47.46200 4.00500 43.40500
C  48.86600 4.00700 43.04200
N  43.20700 5.40200 45.99900
C  44.37400 6.09200 45.93300
C  44.14800 7.52200 46.16100
C  42.81300 7.60500 46.33800
C  42.27400 6.32200 46.21800
C  45.13500 8.58500 46.07600
C  41.77200 8.51500 46.69000
O  41.78600 9.70300 46.95500
C  40.51100 7.71700 46.74600
C  39.86300 7.88300 48.10200
O  40.27100 7.74700 49.24100
O  38.56600 8.28700 47.81400
C  37.64900 8.41800 48.90700
H  39.02600 0.99400 46.28400
H  45.31500 -0.07400 45.04900
H  46.40500 6.11200 45.63900
H  38.42300 5.63300 47.81900
H  37.64200 3.33400 46.22700
H  37.15800 2.32900 48.26600
H  37.66700 3.94200 48.90100
H  38.74500 2.47900 48.86100
H  37.68700 6.94200 45.88700
H  36.57400 5.65600 46.00000
H  37.04000 5.26400 44.07400
H  38.52900 4.59500 44.25400
H  39.26400 -1.14800 46.85400
H  40.08600 -2.50600 46.16600
H  39.44900 -1.31900 45.06400
H  44.84000 -2.36500 44.60300
H  44.25500 -1.18400 43.36600
H  44.06700 -2.95600 43.03500
H  47.01900 1.65000 44.06700
H  47.68000 4.03200 45.67100
H  47.14900 0.96300 47.11000
H  48.32500 2.05400 46.61300
H  48.15900 0.40400 45.85900
H  47.13800 5.03600 43.26700
H  46.95100 3.36300 42.68700
H  49.32800 3.46900 43.87000
H  49.17100 5.05300 43.06600
H  49.12600 3.43600 42.15100
H  44.76500 9.22000 45.27100
H  46.05000 8.19700 45.62900
H  45.20300 9.12000 47.02300
H  39.84500 7.98200 45.92500
H  38.04300 8.97800 49.75600
H  37.38900 7.43300 49.29300
H  36.79600 8.91100 48.44200
Mg 48.24800 35.16000 28.24200
C  46.49100 33.53000 30.74000
C  48.80500 37.67600 30.40900
C  49.49000 37.07000 25.70600
C  47.33600 32.81100 25.92500
N  47.75700 35.49000 30.35800
C  47.05500 34.70700 31.24900
C  47.14800 35.24000 32.63900
C  47.55400 36.69800 32.51500
C  48.08500 36.70300 31.03100
C  46.48000 37.73400 32.67600
C  48.25400 34.45500 33.41400
C  48.06100 34.26200 34.93900
H  47.04800 35.12400 35.75100
N  49.16400 37.04200 28.10900
C  49.36600 37.84800 29.17300
C  50.08900 39.01700 28.82600
C  50.02300 39.01300 27.39900
C  49.53100 37.70100 26.99000
C  50.54300 40.01300 29.75600
C  50.42300 40.12200 26.41900
O  50.53900 39.94700 25.19400
C  50.93900 41.47300 26.83600
N  48.37200 34.97200 26.07000
C  48.98900 35.85600 25.24800
C  49.12200 35.31500 23.81400
C  48.40900 33.95600 23.86700
C  48.00700 33.88600 25.35900
C  48.38700 36.29000 22.86700
C  49.28000 32.81800 23.41500
C  48.72000 31.75100 22.52400
N  47.22300 33.46600 28.30500
C  46.86800 32.60300 27.24100
C  46.15500 31.48400 27.84900
C  45.92800 31.80400 29.20200
C  46.52700 33.05400 29.41700
C  45.82600 30.18600 27.08200
C  45.26400 31.39000 30.40000
O  44.64500 30.38300 30.56700
C  45.46200 32.60700 31.41100
C  45.83000 32.08400 32.70200
O  46.90000 31.46500 32.87400
O  44.89200 32.31600 33.61900
C  45.16100 31.90200 34.99800
H  48.96500 38.48600 31.12300
H  49.88500 37.69000 24.89900
H  47.12600 32.02100 25.20100
H  46.23500 35.05400 33.20300
H  48.43000 36.98100 33.09900
H  46.83600 38.66000 33.12800
H  45.84600 37.38300 33.48900
H  45.99400 37.86600 31.70900
H  49.21800 34.96300 33.41000
H  48.36200 33.44000 33.03100
H  49.04800 34.27000 35.40100
H  47.83500 33.19700 34.98900
H  50.74000 39.62500 30.75600
H  49.68500 40.67300 29.88400
H  51.33600 40.63400 29.33900
H  50.42600 41.72300 27.76500
H  50.80400 42.21800 26.05200
H  51.97400 41.51300 27.17500
H  50.20600 35.42900 23.79200
H  47.43800 34.04500 23.38200
H  47.34800 36.51900 23.10500
H  48.46400 35.90200 21.85100
H  48.91800 37.24200 22.87400
H  49.64300 32.43800 24.37000
H  50.24000 33.22100 23.09100
H  49.40300 31.78300 21.67500
H  47.67300 31.92500 22.27400
H  48.73600 30.70800 22.84000
H  45.88400 30.49000 26.03600
H  44.83600 29.84400 27.38500
H  46.60600 29.49300 27.39800
H  44.46600 33.05100 31.43500
H  44.21500 31.61600 35.45700
H  45.54800 32.71800 35.60800
H  45.76200 30.99500 34.92500

