158

Mg 2.35900 -2.32100 44.36600
C  5.79100 -1.51000 43.51700
C  1.40600 0.43700 42.67000
C  -0.76200 -3.45500 44.63000
C  3.57800 -5.43600 45.41800
N  3.47900 -0.71900 43.10800
C  4.86600 -0.53100 43.03400
C  5.10900 0.63800 42.07800
C  3.72400 1.35800 42.10800
C  2.79100 0.25700 42.68600
C  3.77400 2.66800 42.95200
C  5.49800 0.03900 40.67900
C  6.62400 0.76300 39.95600
H  6.65500 0.80700 38.44000
N  0.46300 -1.48700 43.80500
C  0.30100 -0.29200 43.20000
C  -1.10500 -0.04200 43.03600
C  -1.78200 -1.17700 43.59500
C  -0.73500 -2.13000 44.04000
C  -1.51300 1.11400 42.31000
C  -3.20000 -1.32800 43.63000
O  -3.91400 -0.55300 43.02700
C  -3.76500 -2.46000 44.28000
N  1.57400 -4.18300 44.81400
C  0.23700 -4.37900 44.91600
C  -0.15700 -5.76200 45.54500
C  1.26600 -6.39700 45.62300
C  2.23600 -5.25700 45.30900
C  -0.97900 -5.82400 46.87100
C  1.48200 -7.60800 44.62600
C  1.86500 -9.02300 45.17600
N  4.27600 -3.30500 44.63600
C  4.63500 -4.53200 45.08200
C  6.06100 -4.80400 44.97200
C  6.60800 -3.57400 44.45700
C  5.44900 -2.76900 44.19800
C  6.78700 -6.06700 45.34900
C  7.76000 -2.81700 44.09600
O  8.93000 -3.11600 44.05800
C  7.25300 -1.37500 43.59000
C  7.72200 -0.35300 44.57200
O  7.83600 -0.52400 45.75900
O  8.06900 0.81200 43.88800
C  8.18700 2.00800 44.67000
H  1.27300 1.31900 42.03900
H  -1.68100 -3.87500 45.04600
H  3.86300 -6.42600 45.78400
H  5.84300 1.33500 42.48400
H  3.43200 1.65900 41.10200
H  3.35200 3.55000 42.47100
H  4.81400 2.87700 43.20200
H  3.24100 2.59300 43.90000
H  4.59400 0.08300 40.07200
H  5.83000 -0.99400 40.78400
H  7.49900 0.15500 40.18400
H  6.77200 1.77200 40.34100
H  -2.47200 1.19700 41.79700
H  -0.85900 1.14600 41.43900
H  -1.52300 1.94800 43.01300
H  -3.27300 -3.39700 44.01700
H  -4.83800 -2.53100 44.10200
H  -3.57400 -2.25600 45.33300
H  -0.68500 -6.26200 44.73400
H  1.47500 -6.78100 46.62100
H  -1.18100 -4.93000 47.46000
H  -0.54800 -6.54000 47.57000
H  -2.00400 -6.09500 46.61600
H  2.35000 -7.27000 44.05900
H  0.58400 -7.65600 44.01000
H  1.04900 -9.72700 45.01300
H  1.93500 -8.92400 46.25900
H  2.85100 -9.32400 44.82300
H  6.60600 -6.67600 44.46300
H  6.31300 -6.54200 46.20800
H  7.83500 -5.86300 45.56900
H  7.62800 -1.12500 42.59800
H  7.29700 2.21900 45.26200
H  8.54500 2.82600 44.04500
H  9.03700 1.79100 45.31800
Mg 46.68000 17.00100 28.42700
C  44.88600 16.90600 31.50600
C  49.11300 18.82500 30.08900
C  47.89900 17.64400 25.44500
C  43.89000 15.48200 26.99100
N  46.88900 17.92000 30.60200
C  46.03800 17.74300 31.61200
C  46.70200 18.10300 32.98600
C  47.97900 18.87900 32.53000
C  48.04900 18.51100 31.00200
C  47.98900 20.41100 32.82500
C  47.06400 16.89000 33.89500
C  46.89900 17.04800 35.45400
H  46.53200 18.38000 36.13500
N  48.28300 17.97100 27.88000
C  49.12600 18.67500 28.67600
C  50.21400 19.25000 27.84000
C  49.96900 18.82800 26.51300
C  48.57800 18.18500 26.54500
C  51.38000 20.05700 28.40100
C  50.84700 18.99700 25.26300
O  50.46900 18.57600 24.14400
C  52.27700 19.31900 25.39600
N  45.99300 16.62100 26.46500
C  46.78600 16.88200 25.36900
C  46.17200 16.24000 24.07600
C  44.93400 15.54600 24.66000
C  44.96600 15.83700 26.11100
C  45.88300 17.24400 22.92600
C  44.88600 14.01900 24.34300
C  43.74700 13.68800 23.36200
N  44.81500 16.29700 29.07200
C  43.86400 15.66400 28.38100
C  42.80600 15.22600 29.22700
C  43.21600 15.61500 30.47000
C  44.46300 16.32800 30.34600
C  41.57400 14.38600 28.93400
C  42.81600 15.54500 31.86400
O  41.84300 15.02300 32.46400
C  43.91300 16.34400 32.59500
C  43.26900 17.50100 33.27000
O  42.96800 18.59000 32.79100
O  42.89600 16.99100 34.52500
C  42.35600 18.11600 35.42700
H  49.99400 19.27400 30.55300
H  48.34100 17.88900 24.47600
H  42.97200 15.00500 26.64100
H  46.10100 18.80700 33.56000
H  48.86300 18.47500 33.02500
H  47.07900 20.73400 33.33200
H  47.92900 20.82600 31.81900
H  48.90600 20.70700 33.33600
H  48.12000 16.62400 33.84100
H  46.51900 15.98900 33.61200
H  47.94500 16.98300 35.75600
H  46.36400 16.27400 36.00400
H  52.31100 19.49500 28.46600
H  51.12600 20.48200 29.37200
H  51.57200 20.90400 27.74200
H  52.46600 20.37900 25.57000
H  52.77500 19.00000 24.48100
H  52.61400 18.62800 26.16800
H  46.95900 15.57400 23.72100
H  44.08100 16.09200 24.25800
H  46.51800 16.91300 22.10500
H  46.18400 18.27300 23.12200
H  44.84900 17.24500 22.58000
H  44.75200 13.46500 25.27200
H  45.85700 13.72400 23.94700
H  44.16300 13.39000 22.40000
H  43.14200 14.55500 23.09900
H  43.24600 12.79500 23.73800
H  41.20300 14.60100 27.93100
H  40.70600 14.59700 29.55900
H  41.92400 13.35500 28.95800
H  44.28400 15.67600 33.37300
H  41.64600 18.74900 34.89500
H  43.07300 18.75900 35.93800
H  41.71700 17.62200 36.16000

