158

Mg 25.45500 0.97300 29.79300
C  27.67300 0.48300 32.43600
C  23.01400 1.70100 32.05600
C  23.09800 1.14000 27.23000
C  27.74100 -0.21700 27.58700
N  25.45800 1.14300 31.95700
C  26.45200 0.83900 32.82600
C  26.01500 1.08100 34.25800
C  24.50100 1.12800 34.16300
C  24.31200 1.41400 32.60500
C  23.58000 -0.02100 34.63600
C  26.75500 2.27000 34.93400
C  26.85700 2.23400 36.45300
H  26.31000 3.32500 37.34000
N  23.36000 1.36900 29.65700
C  22.52600 1.64200 30.69600
C  21.24700 1.91500 30.24500
C  21.21700 1.67100 28.86200
C  22.59300 1.37200 28.53800
C  19.97400 2.14400 31.11000
C  20.11100 1.60900 27.96100
O  20.20600 1.22300 26.80800
C  18.69200 2.14700 28.34300
N  25.51400 0.84000 27.67900
C  24.40100 0.89000 26.83000
C  24.76000 0.34300 25.38700
C  26.33500 0.13400 25.48200
C  26.51600 0.23500 27.00900
C  23.91700 -0.87100 24.80700
C  27.32400 1.05800 24.74000
C  27.51200 2.46000 25.29000
N  27.41800 0.47100 29.93500
C  28.19500 -0.07400 28.92300
C  29.53400 -0.36200 29.46800
C  29.36700 -0.17800 30.84700
C  28.02900 0.29500 31.06800
C  30.69000 -0.90000 28.72100
C  30.01100 -0.23900 32.10900
O  31.11600 -0.66000 32.28500
C  29.01500 0.27000 33.18900
C  28.89800 -0.72100 34.28800
O  28.55300 -1.89600 34.14200
O  29.26100 -0.14700 35.46000
C  29.40900 -1.05800 36.61300
H  22.21100 1.94200 32.75600
H  22.44000 1.13100 26.35800
H  28.50200 -0.57300 26.88900
H  26.23500 0.16200 34.80200
H  24.23800 2.02600 34.72100
H  22.65200 -0.14500 34.07700
H  23.44100 0.14000 35.70500
H  24.21000 -0.91000 34.66000
H  26.22200 3.17500 34.64300
H  27.79800 2.33500 34.62200
H  27.91600 2.29600 36.70200
H  26.51500 1.27400 36.84100
H  20.17700 2.15300 32.18100
H  19.25200 1.34300 30.95400
H  19.50300 3.10900 30.92100
H  18.28300 1.40300 29.02600
H  18.04500 2.18700 27.46700
H  18.82700 3.13800 28.77500
H  24.61700 1.26500 24.82300
H  26.59900 -0.85200 25.09900
H  23.51900 -0.45900 23.88000
H  23.12000 -1.25700 25.44300
H  24.50800 -1.75000 24.55100
H  26.96500 1.14700 23.71400
H  28.33000 0.73600 24.47200
H  28.52600 2.56200 25.67500
H  26.90400 2.74800 26.14700
H  27.58000 3.28300 24.57800
H  31.49300 -1.03200 29.44700
H  30.96800 -0.37100 27.81000
H  30.35800 -1.86300 28.33500
H  29.40800 1.19600 33.60800
H  29.19400 -2.11500 36.46000
H  28.79500 -0.63000 37.40600
H  30.40800 -0.87200 37.00800
Mg 30.22200 58.18400 40.10300
C  27.62400 55.67300 39.50600
C  32.39800 55.68500 39.36900
C  32.50300 60.58900 40.07900
C  27.65600 60.43200 40.74500
N  30.00000 55.83200 39.62300
C  28.88400 55.17500 39.21800
C  29.27000 53.75300 38.69200
C  30.83600 53.63600 39.10900
C  31.11000 55.09600 39.40700
C  31.10200 52.60600 40.27800
C  29.17400 53.59600 37.13500
C  27.75100 53.17500 36.66800
H  27.00500 54.13400 35.65600
N  32.19000 58.15200 39.72300
C  32.93600 57.03200 39.50300
C  34.29400 57.40900 39.35600
C  34.37300 58.83000 39.41000
C  33.01700 59.28400 39.69400
C  35.49100 56.43500 39.34700
C  35.66100 59.66600 39.29800
O  36.75400 59.15400 39.09100
C  35.67500 61.12100 39.52000
N  30.05300 60.31000 40.17800
C  31.18400 61.06300 40.27200
C  30.79300 62.48100 40.77800
C  29.24400 62.42600 41.07200
C  28.96600 60.94800 40.68400
C  31.73600 63.06800 41.89800
C  28.33400 63.42800 40.19600
C  27.21700 64.11200 40.97800
N  28.10700 58.14300 40.13800
C  27.25100 59.16300 40.44900
C  25.87900 58.62400 40.34600
C  26.00300 57.22600 40.06700
C  27.34600 57.00100 39.91800
C  24.66200 59.44700 40.62600
C  25.32200 55.93300 39.90000
O  24.11500 55.76000 39.96800
C  26.28400 54.84500 39.42400
C  26.18700 53.71400 40.48200
O  26.66200 53.70800 41.54900
O  25.47800 52.61900 40.00600
C  25.44300 51.48800 40.94700
H  33.13400 54.91700 39.12500
H  33.19600 61.38200 40.36600
H  26.90900 61.16800 41.04700
H  28.58600 53.07600 39.20400
H  31.47700 53.33500 38.28100
H  31.92900 51.95700 39.99000
H  30.21800 52.00400 40.48800
H  31.53200 53.01300 41.19300
H  29.81500 52.76100 36.85200
H  29.47000 54.55900 36.72000
H  27.10800 52.94600 37.51800
H  27.77200 52.20700 36.16800
H  36.04400 56.53700 38.41400
H  35.31600 55.39300 39.61500
H  36.12400 56.81100 40.15100
H  34.92500 61.58700 38.88200
H  36.68600 61.49700 39.36200
H  35.47900 61.45600 40.53800
H  30.83800 63.08800 39.87400
H  28.99200 62.59700 42.11800
H  32.33200 62.23700 42.27600
H  31.28700 63.50600 42.78900
H  32.31000 63.84500 41.39400
H  27.92300 62.91200 39.32800
H  29.06200 64.16000 39.84600
H  27.42500 65.17700 41.07700
H  27.22900 63.61300 41.94700
H  26.38500 63.88600 40.31100
H  23.80700 58.87300 40.98200
H  24.45100 59.75900 39.60300
H  24.88400 60.24500 41.33400
H  25.95400 54.40700 38.48200
H  25.57900 50.50800 40.49000
H  24.43400 51.31800 41.32300
H  26.05000 51.53000 41.85200

