158

Mg 1.54300 -2.91900 45.56700
C  4.77800 -2.11300 44.57400
C  0.33000 -0.61100 43.37700
C  -1.47000 -4.38700 45.94800
C  2.92800 -5.62700 47.29400
N  2.46100 -1.62600 43.99900
C  3.74200 -1.37600 43.88000
C  4.02800 -0.19700 42.90000
C  2.61500 0.36800 42.57300
C  1.70700 -0.62700 43.41000
C  2.28900 1.83000 42.75800
C  4.79000 -0.81500 41.70000
C  6.16200 -0.19500 41.30700
H  6.09100 0.78300 40.04000
N  -0.31900 -2.60600 44.72400
C  -0.59100 -1.55700 43.88800
C  -1.99300 -1.59700 43.49500
C  -2.52100 -2.65000 44.26000
C  -1.42400 -3.31800 44.98900
C  -2.69100 -0.56600 42.61700
C  -4.05300 -2.91900 44.18600
O  -4.75700 -2.29300 43.45600
C  -4.53700 -3.95600 45.12100
N  0.82700 -4.80400 46.44800
C  -0.45400 -5.10600 46.54800
C  -0.69900 -6.45300 47.26800
C  0.73400 -6.85000 47.74900
C  1.55000 -5.69000 47.18700
C  -1.70800 -6.50900 48.46500
C  1.16900 -8.28000 47.42900
C  1.57500 -8.56100 46.03500
N  3.49200 -3.70400 46.00300
C  3.87500 -4.76200 46.74300
C  5.31300 -4.70100 46.91500
C  5.76500 -3.60100 46.14600
C  4.57200 -3.11900 45.54700
C  6.12700 -5.64000 47.67000
C  6.89700 -2.82200 45.66100
O  8.07000 -2.89200 45.94400
C  6.25400 -1.82200 44.62300
C  6.52800 -0.50900 45.32100
O  6.04600 -0.03200 46.36100
O  7.39700 0.09500 44.56600
C  7.69900 1.47700 44.78600
H  -0.00000 0.11700 42.63400
H  -2.39700 -4.93400 46.12900
H  3.40400 -6.44300 47.84100
H  4.62500 0.51700 43.46800
H  2.28400 0.00400 41.60000
H  1.69700 2.16300 41.90600
H  3.18300 2.42200 42.95400
H  1.74700 1.95500 43.69600
H  4.15200 -0.87900 40.81800
H  5.13600 -1.83800 41.84700
H  6.88500 -0.99600 41.14800
H  6.56400 0.33000 42.17300
H  -3.08200 -0.98400 41.68900
H  -1.95700 0.14600 42.24100
H  -3.43500 0.00500 43.17200
H  -4.14000 -4.92000 44.80600
H  -5.62300 -3.94100 45.02500
H  -4.21500 -3.73300 46.13800
H  -1.07800 -7.15300 46.52400
H  0.79200 -6.73900 48.83100
H  -2.68700 -6.77200 48.06500
H  -1.92500 -5.55200 48.94000
H  -1.44000 -7.18600 49.27600
H  0.42300 -9.00000 47.76700
H  2.03400 -8.49500 48.05800
H  1.81100 -7.61900 45.53900
H  0.72100 -8.97400 45.49900
H  2.50500 -9.11700 45.91800
H  7.14800 -5.28100 47.80100
H  6.18100 -6.62900 47.21600
H  5.67300 -5.74300 48.65600
H  6.80000 -1.83500 43.68000
H  6.80800 2.10500 44.78300
H  8.27000 1.82000 43.92400
H  8.37700 1.71200 45.60700
Mg 30.31600 57.41900 39.52000
C  27.81500 55.36000 38.40800
C  32.70100 55.08200 38.78800
C  32.67300 59.84700 39.89700
C  27.80700 60.11200 39.84400
N  30.23700 55.58000 38.47800
C  29.09400 54.78700 38.31500
C  29.42900 53.29500 38.09800
C  30.86900 53.24400 38.59000
C  31.32100 54.72000 38.62400
C  31.15600 52.38000 39.85800
C  29.04100 52.74500 36.73100
C  29.40300 53.59500 35.51600
H  28.17800 54.01300 34.52800
N  32.44400 57.43700 39.38700
C  33.22000 56.37100 39.05400
C  34.58300 56.85900 39.05900
C  34.64400 58.21900 39.32400
C  33.16900 58.52500 39.56800
C  35.73500 56.07700 38.57700
C  35.90900 59.06000 39.29900
O  36.97600 58.59600 38.98000
C  35.89600 60.46100 39.59700
N  30.23800 59.64500 39.77900
C  31.37400 60.33100 40.02100
C  31.06300 61.80800 40.35400
C  29.47800 61.93500 40.15000
C  29.13700 60.45600 39.93500
C  31.41700 62.22500 41.77900
C  28.92700 62.71100 38.93700
C  27.93800 63.85500 39.16600
N  28.19100 57.72700 39.30200
C  27.34900 58.81100 39.44900
C  25.99000 58.37300 39.02900
C  26.12800 57.00800 38.74200
C  27.48300 56.74800 38.86100
C  24.77800 59.23600 38.78900
C  25.40300 55.82500 38.38700
O  24.20800 55.69500 38.10500
C  26.49700 54.66000 38.30200
C  26.22500 53.70800 39.45300
O  26.82300 53.54900 40.53400
O  25.16500 52.94900 39.00500
C  24.68800 51.97600 39.97500
H  33.39300 54.24900 38.92900
H  33.35000 60.67200 40.12800
H  27.06400 60.90700 39.93500
H  28.76600 52.72500 38.74700
H  31.50100 52.87300 37.78300
H  30.61500 51.44700 39.69800
H  30.73800 52.93600 40.69800
H  32.21800 52.14100 39.90000
H  27.95200 52.72000 36.75700
H  29.52900 51.77400 36.64600
H  30.17700 53.05700 34.96900
H  29.85200 54.53200 35.84300
H  36.49800 56.60500 38.00600
H  35.31600 55.27700 37.96700
H  36.16700 55.55100 39.42900
H  35.26600 61.01600 38.90200
H  36.91700 60.83800 39.53100
H  35.58700 60.61100 40.63100
H  31.63700 62.43200 39.66800
H  29.07400 62.24800 41.11200
H  32.41300 61.86400 42.03600
H  30.70800 61.91000 42.54500
H  31.53800 63.30500 41.86900
H  28.54100 62.03500 38.17400
H  29.81300 63.13800 38.46900
H  27.06200 63.61600 38.56400
H  28.30100 64.87900 39.07200
H  27.54500 63.76200 40.17900
H  24.58800 59.68600 39.76400
H  23.85400 58.67000 38.66700
H  24.81200 60.00800 38.02100
H  26.30100 54.13700 37.36700
H  25.53400 51.44500 40.41100
H  24.17500 51.15100 39.48000
H  24.04000 52.41500 40.73300

