158

Mg 1.73300 7.52600 25.58900
C  2.21100 9.59800 28.33700
C  2.22300 4.84700 27.77200
C  1.16700 5.56900 23.00400
C  1.71400 10.43000 23.55300
N  2.07500 7.25600 27.82400
C  2.19900 8.26200 28.77300
C  2.22400 7.74600 30.19600
C  2.75500 6.22400 29.96000
C  2.47200 6.09000 28.42000
C  4.22700 5.86200 30.33500
C  0.85300 7.86800 30.98500
C  0.84300 7.70000 32.52700
H  2.08800 7.02200 33.15400
N  1.68300 5.48400 25.42900
C  1.76300 4.54700 26.45100
C  1.58600 3.18100 25.89500
C  1.21900 3.41400 24.49800
C  1.37800 4.88400 24.24500
C  1.59400 1.87100 26.78900
C  0.85300 2.35400 23.34900
O  0.59800 2.66300 22.16700
C  0.71800 0.96900 23.74600
N  1.78900 7.90600 23.46300
C  1.35500 6.92900 22.65000
C  0.92500 7.44400 21.26900
C  0.80200 8.98100 21.56500
C  1.46200 9.14200 22.95200
C  1.95800 7.06300 20.08200
C  -0.65600 9.59600 21.52400
C  -0.92300 10.41100 20.22500
N  1.99100 9.55600 25.82500
C  2.02500 10.56400 24.89900
C  2.31300 11.82400 25.58100
C  2.47800 11.51200 26.93100
C  2.19000 10.07600 27.03200
C  2.30300 13.20700 25.04000
C  2.60600 12.02700 28.28700
O  2.84300 13.15600 28.73700
C  2.41400 10.83800 29.21300
C  3.67800 10.74200 30.03800
O  4.72100 10.13700 29.74500
O  3.35000 11.20800 31.28900
C  4.53500 11.15800 32.17200
H  2.50200 3.99400 28.39400
H  0.93100 4.97100 22.12200
H  1.63500 11.36900 23.00100
H  2.99100 8.26500 30.77100
H  1.95300 5.64900 30.42500
H  4.79500 6.72100 30.69300
H  4.73600 5.47500 29.45200
H  4.32300 5.16400 31.16700
H  0.18600 7.23700 30.39800
H  0.54400 8.87800 30.71700
H  -0.05800 7.18600 32.86300
H  0.89900 8.70100 32.95500
H  0.65800 1.37100 26.53800
H  1.58200 1.92500 27.87700
H  2.40700 1.20500 26.50200
H  0.24700 0.39100 22.95000
H  -0.01600 1.04300 24.54800
H  1.64000 0.58500 24.18300
H  -0.07300 7.11000 20.98600
H  1.39700 9.49100 20.80700
H  2.46000 7.97300 19.75300
H  1.49000 6.49900 19.27500
H  2.73400 6.42100 20.49900
H  -0.75200 10.25700 22.38500
H  -1.37800 8.78700 21.63400
H  -1.91600 10.23700 19.81000
H  -0.30100 10.04000 19.41100
H  -0.74500 11.45800 20.47100
H  2.33700 13.22400 23.95000
H  3.21000 13.66800 25.43100
H  1.46100 13.76600 25.44800
H  1.44500 10.98600 29.69100
H  4.89500 10.13400 32.27500
H  4.29300 11.61300 33.13200
H  5.34400 11.76400 31.76500
Mg 7.14700 54.12600 41.58900
C  6.78300 50.54900 41.76900
C  10.37700 53.51100 40.67200
C  7.28500 57.24300 40.89000
C  3.70100 54.26300 42.39600
N  8.34600 52.28900 41.14100
C  8.02000 50.95600 41.23700
C  9.13100 49.94900 40.82300
C  10.32300 50.94100 40.86900
C  9.63600 52.34200 40.91000
C  11.42200 50.79800 42.00000
C  8.92000 49.35000 39.44200
C  8.38400 50.30800 38.41000
H  8.20800 49.68200 36.98600
N  8.65700 55.28900 40.91200
C  10.00200 54.86600 40.64100
C  10.75200 56.04500 40.43800
C  9.86700 57.13900 40.35800
C  8.52400 56.59500 40.68300
C  12.13000 55.99200 40.09100
C  10.19200 58.59900 39.98400
O  11.28600 58.98500 39.62100
C  9.16800 59.67200 39.92900
N  5.52300 55.49900 41.28700
C  5.96500 56.81600 41.16400
C  4.81000 57.83600 41.57600
C  3.64200 56.78700 41.88300
C  4.33300 55.44700 41.88800
C  5.26800 58.84500 42.62300
C  2.42800 56.81100 40.95500
C  1.04700 57.04900 41.60700
N  5.52300 52.72600 41.99200
C  4.22700 52.99200 42.41800
C  3.64000 51.76400 42.95600
C  4.64900 50.73500 42.65600
C  5.72600 51.39800 42.06500
C  2.33100 51.54700 43.65600
C  4.98400 49.33100 42.81800
O  4.39000 48.44200 43.39000
C  6.31300 49.12000 42.06100
C  5.93800 48.27900 40.86700
O  5.38000 48.68600 39.84000
O  6.16500 46.97500 41.13800
C  5.68900 46.04500 40.11900
H  11.43100 53.40600 40.40700
H  7.32400 58.33300 40.92200
H  2.64600 54.39000 42.64800
H  9.25300 49.23100 41.63400
H  10.65200 50.99200 39.83100
H  12.37700 51.10000 41.57000
H  11.37500 49.85500 42.54500
H  11.16000 51.60400 42.68500
H  8.30100 48.46700 39.59800
H  9.89900 49.01300 39.10000
H  9.08400 51.13800 38.30900
H  7.40800 50.75700 38.59100
H  12.34000 55.25700 39.31400
H  12.69400 55.77400 40.99800
H  12.38500 56.97700 39.70000
H  8.94100 59.91100 40.96800
H  8.27300 59.44800 39.34900
H  9.49600 60.59600 39.45200
H  4.42500 58.46600 40.77500
H  3.28700 57.09500 42.86600
H  6.27800 58.68400 42.99900
H  4.50200 58.98000 43.38700
H  5.38100 59.80300 42.11600
H  2.42600 55.87700 40.39300
H  2.62100 57.53500 40.16300
H  0.50300 57.78300 41.01300
H  1.16700 57.39200 42.63500
H  0.43600 56.16100 41.77000
H  1.63600 50.96100 43.05400
H  1.75100 52.42700 43.93300
H  2.39600 50.87300 44.50900
H  7.02700 48.58900 42.69000
H  6.41700 45.99800 39.31000
H  4.72700 46.31400 39.68200
H  5.56000 45.00900 40.43200

