158

Mg 35.52800 49.58700 26.03400
C  35.39800 47.78300 29.08000
C  35.00500 52.50000 27.97200
C  35.65700 51.53300 23.25200
C  36.15700 46.82300 24.33700
N  35.11200 50.05800 28.28000
C  35.14400 49.10500 29.31800
C  35.11600 49.83200 30.67700
C  34.74600 51.32700 30.31200
C  35.00000 51.32200 28.78000
C  33.34100 51.79500 30.80900
C  36.50300 49.68700 31.45200
C  36.55500 49.09200 32.88400
H  35.35100 49.25800 33.83900
N  35.24500 51.76200 25.67800
C  35.13300 52.72400 26.56300
C  35.17600 53.93500 25.91400
C  35.25600 53.69800 24.53900
C  35.29800 52.27700 24.37400
C  35.19500 55.31000 26.61100
C  35.32700 54.82100 23.44100
O  35.60300 54.47900 22.28600
C  35.05200 56.34400 23.60200
N  35.79100 49.27800 24.10700
C  35.92200 50.15300 23.10000
C  36.24000 49.49700 21.79800
C  36.64300 48.06700 22.28500
C  36.17300 48.05900 23.69500
C  35.07900 49.49800 20.70800
C  38.17900 47.67400 22.09600
C  38.51500 46.22900 21.59900
N  35.53300 47.55600 26.44000
C  35.88500 46.54700 25.66600
C  35.92100 45.31200 26.41300
C  35.71100 45.72200 27.80000
C  35.49800 47.10500 27.75300
C  36.28900 43.95700 25.87400
C  35.68700 45.30600 29.18500
O  35.96700 44.21900 29.73800
C  35.45200 46.59900 30.05100
C  34.21300 46.35500 31.00600
O  33.06900 46.59000 30.68900
O  34.60700 45.75900 32.20400
C  33.65800 45.47900 33.37600
H  34.90400 53.36900 28.62600
H  35.75900 52.07800 22.31000
H  36.52800 45.94500 23.80500
H  34.33400 49.40300 31.30500
H  35.38400 52.02900 30.85000
H  32.80400 50.96600 31.27100
H  32.82500 52.00300 29.87100
H  33.42000 52.68000 31.43900
H  37.09100 50.60500 31.45300
H  37.17600 49.16400 30.77200
H  37.33200 49.57500 33.47700
H  36.74100 48.02400 32.77000
H  36.05700 55.90400 26.31000
H  35.33300 55.14500 27.68000
H  34.23900 55.83400 26.62500
H  34.54400 56.73700 22.72200
H  35.99300 56.81800 23.88300
H  34.29400 56.42700 24.38100
H  37.02000 50.16900 21.44100
H  35.97500 47.39400 21.74800
H  35.42000 49.82600 19.72600
H  34.19000 50.04900 21.01600
H  34.86400 48.43300 20.62100
H  38.76900 47.92400 22.97800
H  38.55200 48.33000 21.30900
H  37.64600 45.58300 21.72300
H  39.38300 45.76300 22.06500
H  38.81300 46.13000 20.55600
H  36.35700 43.96300 24.78600
H  35.43200 43.35100 26.16800
H  37.21400 43.57800 26.30900
H  36.32200 46.68400 30.70300
H  33.43800 44.41400 33.30800
H  32.74600 46.06600 33.48200
H  34.25400 45.68200 34.26700
Mg 6.60700 56.88700 41.39300
C  4.93700 53.70100 41.74200
C  9.23500 55.25600 40.20400
C  8.07300 59.92900 40.79000
C  3.56600 58.45200 42.36000
N  6.91500 54.70100 40.86800
C  6.17700 53.62300 41.09800
C  6.86800 52.38300 40.80500
C  8.29500 52.85300 40.47700
C  8.16300 54.35000 40.48600
C  9.45500 52.32100 41.28800
C  6.29500 51.60200 39.60200
C  6.90100 50.22500 39.30200
H  6.11400 49.38900 38.26100
N  8.44800 57.48200 40.46700
C  9.36900 56.59000 40.02500
C  10.49000 57.33800 39.47400
C  10.15500 58.76400 39.57100
C  8.83900 58.77700 40.33600
C  11.66100 56.72500 38.75300
C  10.90900 59.94100 39.08000
O  12.01700 59.76900 38.61800
C  10.46500 61.41500 39.13400
N  5.97300 58.85800 41.53600
C  6.74400 59.96900 41.26600
C  6.12700 61.22400 41.82400
C  4.65500 60.82600 42.18900
C  4.69300 59.25700 42.07500
C  6.88600 61.93600 42.95500
C  3.50000 61.40400 41.29400
C  2.45200 62.28600 42.04400
N  4.62700 56.23300 41.89900
C  3.50800 57.03500 42.27800
C  2.49100 56.12800 42.70900
C  3.02900 54.83900 42.59500
C  4.35800 54.98000 42.04100
C  1.19300 56.41800 43.23400
C  2.73400 53.48700 42.94600
O  1.81900 52.94400 43.49700
C  4.04300 52.64800 42.51800
C  3.51900 51.53400 41.75800
O  2.79600 51.63300 40.79500
O  3.78500 50.35900 42.40100
C  3.63700 49.10200 41.58900
H  10.24200 54.84600 40.10600
H  8.42800 60.95700 40.69200
H  2.72000 59.06700 42.67300
H  6.88500 51.80400 41.72800
H  8.44500 52.56400 39.43700
H  9.86400 53.13400 41.88700
H  10.23400 52.06300 40.57000
H  9.16300 51.55900 42.01000
H  6.36500 52.12600 38.64900
H  5.23700 51.50000 39.84500
H  6.86000 49.73300 40.27400
H  7.96000 50.30900 39.06200
H  11.68100 56.87400 37.67300
H  11.65400 55.64200 38.87600
H  12.64100 57.01200 39.13300
H  10.33900 61.74700 40.16400
H  9.52800 61.56900 38.59800
H  11.27400 61.93800 38.62500
H  6.00300 61.95200 41.02200
H  4.35700 61.01800 43.21900
H  6.30000 62.08900 43.86100
H  7.00800 62.95800 42.59700
H  7.88000 61.49100 42.99900
H  2.83500 60.62800 40.91400
H  3.83600 61.93300 40.40200
H  2.55200 63.26200 41.57000
H  2.69000 62.38100 43.10300
H  1.44800 61.87100 41.94800
H  1.20100 56.18000 44.29700
H  0.53800 55.65900 42.80400
H  0.81700 57.42700 43.06800
H  4.56700 52.27100 43.39600
H  4.64900 48.69700 41.56900
H  3.29200 49.05600 40.55700
H  3.07900 48.37200 42.17600

