158

Mg 2.22300 -1.78900 43.01000
C  5.69900 -1.42100 42.51500
C  1.70900 1.08700 41.16600
C  -1.15300 -2.49500 42.77600
C  2.75000 -4.98800 44.07500
N  3.56700 -0.29000 41.93800
C  4.98900 -0.34500 41.92500
C  5.50100 0.86200 41.17200
C  4.17700 1.64900 40.80800
C  3.04900 0.79000 41.35800
C  4.19300 3.12400 41.28700
C  6.40800 0.54900 39.99700
C  5.90900 -0.62700 39.06900
H  5.65200 -0.43500 37.63400
N  0.46000 -0.74900 42.26300
C  0.51900 0.41500 41.55500
C  -0.77900 0.93100 41.35200
C  -1.68600 -0.08100 41.76300
C  -0.83800 -1.14500 42.29300
C  -1.13700 2.30100 40.80400
C  -3.17200 0.04200 41.66500
O  -3.78600 1.07700 41.29000
C  -3.95600 -1.15600 42.07600
N  0.99300 -3.52800 43.25800
C  -0.37500 -3.56200 43.14200
C  -0.87100 -5.01700 43.40500
C  0.28900 -5.71700 44.09500
C  1.44100 -4.67700 43.80600
C  -2.30900 -5.32800 43.94700
C  0.51700 -7.19800 43.67400
C  0.55800 -8.31600 44.80400
N  3.86900 -3.05300 43.26000
C  3.96000 -4.26900 43.87700
C  5.38900 -4.62000 44.01800
C  6.07700 -3.54400 43.50800
C  5.10100 -2.61400 43.01800
C  5.90100 -5.82400 44.68200
C  7.38500 -2.91800 43.30300
O  8.46300 -3.43200 43.66700
C  7.20300 -1.61400 42.44800
C  8.00800 -0.52400 43.09400
O  8.94900 0.08000 42.57900
O  7.51100 -0.24700 44.38100
C  8.36600 0.59100 45.26700
H  1.47700 1.96500 40.56000
H  -2.16900 -2.85800 42.94600
H  2.89200 -5.90900 44.64400
H  6.12100 1.43600 41.86000
H  4.18400 1.65400 39.71800
H  4.31300 3.85000 40.48300
H  4.97000 3.22400 42.04400
H  3.22700 3.40700 41.70500
H  7.44900 0.30300 40.20900
H  6.62700 1.49000 39.49300
H  4.91200 -0.94900 39.36800
H  6.65900 -1.41700 39.12200
H  -1.25500 2.97900 41.65000
H  -2.12000 2.26200 40.33500
H  -0.37800 2.58600 40.07600
H  -5.02400 -1.01600 41.90600
H  -3.63900 -1.21600 43.11700
H  -3.60200 -1.98300 41.46000
H  -0.81600 -5.43900 42.40100
H  0.13000 -5.74000 45.17300
H  -2.92900 -4.49800 44.28600
H  -2.33400 -5.90400 44.87200
H  -2.97500 -5.78100 43.21400
H  1.45900 -7.29400 43.13500
H  -0.24900 -7.54700 42.98100
H  0.35200 -9.29900 44.38100
H  -0.07600 -8.04400 45.64900
H  1.59100 -8.36300 45.14800
H  6.81700 -5.58000 45.22100
H  6.18200 -6.62600 43.99900
H  5.13200 -6.32500 45.27000
H  7.59800 -1.90000 41.47300
H  7.79500 1.49600 45.47800
H  9.39800 0.74000 44.94900
H  8.43800 0.04200 46.20600
Mg 17.21500 -1.81800 28.11800
C  16.25300 0.02000 30.96500
C  19.37500 -3.62900 30.26400
C  18.86800 -3.08800 25.47100
C  15.59000 0.44800 26.02800
N  17.88600 -1.68900 30.35200
C  17.25200 -0.94000 31.31500
C  17.69400 -1.31800 32.73800
C  18.83400 -2.37500 32.51600
C  18.71600 -2.62400 30.96300
C  20.27500 -1.95800 32.93500
C  16.59900 -1.89900 33.68600
C  16.36600 -1.07400 34.96100
H  17.57400 -0.64500 35.82400
N  18.77100 -3.28600 27.83300
C  19.48000 -3.95500 28.82600
C  20.35300 -4.93900 28.27700
C  20.25600 -4.74800 26.85400
C  19.25500 -3.71300 26.68900
C  21.19400 -5.91800 29.01000
C  20.86100 -5.49400 25.70700
O  20.50800 -5.34600 24.52800
C  21.88800 -6.51400 25.95900
N  17.23500 -1.37500 26.08500
C  17.92500 -2.06200 25.17700
C  17.60600 -1.65100 23.72500
C  16.32300 -0.82000 23.91900
C  16.41400 -0.53000 25.40000
C  18.83400 -0.85200 23.13000
C  15.00200 -1.61400 23.47300
C  14.36200 -1.36800 22.08100
N  16.12300 -0.05100 28.40900
C  15.49500 0.72800 27.43500
C  14.76200 1.73000 28.20200
C  14.90700 1.43000 29.52100
C  15.83800 0.43100 29.61900
C  13.89900 2.77300 27.63700
C  14.45000 1.75800 30.82800
O  13.59400 2.53800 31.19400
C  15.33500 0.92700 31.79800
C  16.17100 1.93000 32.45800
O  17.23700 2.37000 32.03900
O  15.49200 2.37600 33.57200
C  16.08600 3.35500 34.48100
H  19.97500 -4.21900 30.96000
H  19.42800 -3.39100 24.58400
H  14.93600 0.96800 25.32500
H  18.02400 -0.37200 33.16700
H  18.42500 -3.31000 32.90100
H  21.05300 -2.06600 32.17900
H  20.56900 -2.50100 33.83300
H  20.35800 -0.95500 33.35400
H  16.77700 -2.91900 34.02700
H  15.66400 -1.92300 33.12500
H  15.80500 -1.68900 35.66500
H  15.74400 -0.19700 34.78000
H  20.93000 -6.94900 28.77600
H  20.98900 -5.90800 30.08100
H  22.21000 -5.54100 28.89400
H  22.30700 -6.81100 24.99800
H  21.25800 -7.25400 26.45300
H  22.64100 -6.04400 26.59200
H  17.38400 -2.54900 23.14900
H  16.45300 0.10600 23.35900
H  19.77900 -0.83800 23.67400
H  18.50100 0.17300 22.96600
H  19.00700 -1.34300 22.17200
H  14.21800 -1.27600 24.15100
H  15.17400 -2.67900 23.62600
H  13.57900 -2.10900 21.91900
H  15.17700 -1.43100 21.36000
H  13.99000 -0.34400 22.10600
H  14.40200 3.74000 27.62300
H  13.10300 2.82500 28.37900
H  13.37000 2.48500 26.72900
H  14.70800 0.43700 32.54300
H  15.33400 3.68900 35.19600
H  16.51600 4.23300 33.99900
H  16.92500 2.88000 34.98900

