158

Mg 24.65200 -7.43100 46.51500
C  26.86600 -4.80700 45.31500
C  22.34000 -6.28700 44.13700
C  22.84700 -10.08700 47.17700
C  27.41000 -8.82200 48.05500
N  24.60000 -5.74500 44.97800
C  25.65800 -4.85600 44.59200
C  25.26100 -4.07700 43.39500
C  23.71200 -4.31900 43.39600
C  23.46800 -5.52700 44.23200
C  22.75400 -3.12100 43.74400
C  26.07000 -4.41200 42.08700
C  26.80100 -3.28100 41.32300
H  26.54400 -3.20100 39.81000
N  22.69400 -7.88200 46.05300
C  21.94300 -7.32900 45.04700
C  20.67100 -8.04900 45.04300
C  20.76700 -9.16900 45.95300
C  22.17100 -9.11400 46.45700
C  19.49800 -7.69900 44.10700
C  19.72100 -10.15500 46.17600
O  18.63400 -9.97900 45.66800
C  19.95500 -11.31800 47.10000
N  25.09800 -9.27400 47.49600
C  24.15300 -10.14600 47.71100
C  24.70100 -11.34300 48.68400
C  26.16500 -10.92500 48.82200
C  26.24700 -9.60100 48.10300
C  23.97500 -11.48200 50.09000
C  27.27600 -11.89800 48.45500
C  28.48400 -12.02800 49.45200
N  26.70200 -6.80100 46.84900
C  27.61900 -7.50500 47.53100
C  28.79600 -6.67300 47.65800
C  28.55200 -5.63700 46.75600
C  27.22900 -5.75500 46.28100
C  30.02500 -7.14600 48.38700
C  29.06500 -4.38600 46.11100
O  30.14500 -3.84100 46.19900
C  28.05200 -3.99200 45.04900
C  27.60800 -2.57200 45.41500
O  27.74500 -1.57600 44.67500
O  26.81000 -2.61800 46.52200
C  26.29000 -1.38100 46.98000
H  21.66300 -6.01100 43.32500
H  22.21700 -10.92200 47.49300
H  28.25500 -9.18000 48.64700
H  25.50200 -3.04900 43.66500
H  23.36900 -4.50500 42.37800
H  22.13500 -3.31100 44.62100
H  22.16800 -2.88100 42.85700
H  23.48200 -2.33800 43.95200
H  25.47300 -4.94400 41.34600
H  26.83300 -5.11700 42.41400
H  27.85500 -3.46500 41.53100
H  26.47200 -2.34600 41.77700
H  18.99900 -8.61000 43.77800
H  19.85300 -7.05900 43.29900
H  18.80400 -7.17300 44.76300
H  20.29700 -10.99400 48.08300
H  20.60100 -12.07400 46.65500
H  18.97700 -11.78900 47.19300
H  24.77000 -12.34900 48.27100
H  26.30000 -10.67400 49.87400
H  24.33800 -12.27000 50.74900
H  22.89600 -11.60200 49.98700
H  24.14900 -10.49300 50.51300
H  27.65900 -11.64700 47.46600
H  26.85500 -12.89900 48.36700
H  28.19000 -11.57100 50.39600
H  29.33000 -11.47700 49.03900
H  28.72700 -13.07400 49.64000
H  30.71100 -6.31600 48.55900
H  30.48600 -7.98100 47.85900
H  29.66800 -7.41400 49.38100
H  28.37200 -4.02000 44.00700
H  27.12700 -0.92900 47.51300
H  25.44800 -1.39000 47.67100
H  25.91200 -0.64800 46.26700
Mg 47.74300 15.25700 27.45700
C  45.58600 14.98000 30.26100
C  49.63000 17.39900 29.32100
C  49.68800 15.36100 24.87100
C  45.40400 13.32400 25.67300
N  47.65100 16.02900 29.57900
C  46.73400 15.74600 30.60800
C  47.05500 16.42200 31.94000
C  48.13400 17.47000 31.43200
C  48.57600 16.87000 30.03300
C  47.54500 18.90200 31.32500
C  47.60500 15.38400 32.98300
C  47.07400 15.58500 34.42900
H  48.12600 15.43800 35.58000
N  49.44000 16.22300 27.15900
C  50.08600 17.02800 28.04200
C  51.34700 17.36900 27.45700
C  51.38200 16.84600 26.10500
C  50.11600 16.13900 25.98100
C  52.45500 18.04000 28.22800
C  52.46600 16.86600 25.02800
O  52.28300 16.37500 23.88100
C  53.76200 17.54800 25.22100
N  47.54000 14.44700 25.55600
C  48.56300 14.61700 24.61900
C  48.28800 13.87500 23.35200
C  46.90800 13.13900 23.62500
C  46.61500 13.67100 25.07700
C  48.18100 14.78500 22.11300
C  47.02200 11.62400 23.65200
C  47.61100 10.85300 22.48000
N  45.85300 14.40300 27.87600
C  45.03900 13.68200 27.03400
C  43.82300 13.35300 27.74600
C  43.97000 13.80200 29.09000
C  45.25300 14.48200 29.05500
C  42.58300 12.54200 27.12700
C  43.40100 13.87100 30.37800
O  42.27800 13.55400 30.74300
C  44.50100 14.59000 31.28300
C  43.80900 15.71400 31.95500
O  43.72600 16.87200 31.56900
O  43.48200 15.32400 33.27300
C  42.97300 16.40400 34.18300
H  50.24600 18.05100 29.94300
H  50.46300 15.08100 24.15500
H  44.63600 12.75300 25.14900
H  46.23400 16.97400 32.39800
H  49.06500 17.47800 32.00100
H  48.29400 19.64700 31.59200
H  46.65900 18.93600 31.95900
H  47.33900 19.27700 30.32200
H  48.68900 15.48800 32.94200
H  47.28700 14.37800 32.70800
H  46.40800 14.76700 34.70200
H  46.60400 16.54400 34.64900
H  51.94000 18.42200 29.10900
H  52.86600 18.81500 27.58000
H  53.11900 17.27400 28.63000
H  53.64800 18.62600 25.33100
H  54.33500 17.28700 24.33100
H  54.12500 17.16900 26.17700
H  49.11100 13.20100 23.11500
H  46.12200 13.42800 22.92800
H  49.19700 14.73500 21.72300
H  47.94600 15.83600 22.28300
H  47.57800 14.21800 21.40400
H  46.00400 11.29300 23.86000
H  47.64000 11.35700 24.50900
H  46.92400 10.08600 22.12200
H  48.58100 10.47700 22.80600
H  47.88000 11.43300 21.59700
H  42.21400 11.63700 27.61100
H  42.76900 12.24100 26.09600
H  41.65600 13.11600 27.15500
H  44.72500 13.91600 32.11000
H  42.80000 15.92000 35.14500
H  42.02700 16.88300 33.93400
H  43.70600 17.19700 34.33400

