158

Mg 35.88400 48.35500 24.44900
C  36.07700 46.57000 27.41300
C  34.70200 51.10400 26.26000
C  35.37500 49.95900 21.58300
C  36.90100 45.42900 22.75500
N  35.11700 48.66200 26.54500
C  35.50300 47.85800 27.60100
C  35.28000 48.53200 28.97400
C  34.62700 49.88100 28.55000
C  34.91600 49.91900 27.03400
C  33.10500 50.16100 28.92700
C  36.65400 48.75000 29.73400
C  36.74500 48.55000 31.17900
H  35.45400 48.67200 31.97700
N  35.19700 50.31100 23.97800
C  34.83400 51.27800 24.86100
C  34.51500 52.48300 24.16700
C  34.60900 52.14000 22.75900
C  35.07600 50.77100 22.65600
C  34.10900 53.83300 24.88900
C  34.35500 52.95900 21.46200
O  34.44500 52.64000 20.29200
C  33.87100 54.31200 21.79800
N  35.99600 47.72200 22.42100
C  35.81600 48.60100 21.48500
C  36.20500 47.99000 20.07900
C  36.52600 46.45800 20.40100
C  36.48400 46.54800 21.95800
C  35.11200 48.15700 19.01200
C  37.76900 45.89900 19.81400
C  39.06200 46.41300 20.30300
N  36.44400 46.37200 24.92100
C  36.86000 45.38700 24.17300
C  37.32100 44.32100 25.04400
C  37.01700 44.73300 26.35500
C  36.42500 46.00900 26.19100
C  37.78500 42.99800 24.62600
C  37.01600 44.40100 27.70500
O  37.38400 43.36600 28.26100
C  36.42600 45.57000 28.56200
C  35.39600 44.99400 29.39900
O  34.18200 44.95800 29.20600
O  35.93400 44.66500 30.56800
C  35.00200 44.66800 31.67100
H  34.37600 51.98900 26.81200
H  35.01300 50.39600 20.65000
H  37.26200 44.52700 22.25600
H  34.63500 47.84300 29.51900
H  35.15300 50.72600 28.99500
H  32.66000 50.81400 28.17600
H  33.26200 50.74100 29.83600
H  32.50700 49.25300 28.99900
H  37.10300 49.72600 29.55200
H  37.41700 48.16800 29.21800
H  37.50100 49.22700 31.57500
H  37.10900 47.52500 31.25700
H  34.96400 54.47300 24.67200
H  34.06900 53.60600 25.95400
H  33.17700 54.33300 24.62700
H  34.73100 54.85300 22.19200
H  33.00600 54.27900 22.46100
H  33.47200 54.80900 20.91400
H  37.13700 48.41200 19.70300
H  35.66600 45.80000 20.27100
H  34.39100 48.93900 19.24900
H  34.61500 47.20500 18.82600
H  35.64000 48.37900 18.08500
H  37.50100 46.14300 18.78600
H  37.78600 44.82300 19.98500
H  39.62700 46.77600 19.44500
H  39.80400 45.69900 20.66300
H  39.04800 47.19400 21.06400
H  38.84600 42.94600 24.87200
H  37.68400 42.81200 23.55700
H  37.22600 42.16200 25.04700
H  37.19000 45.98300 29.22100
H  34.41600 43.75400 31.57000
H  34.40000 45.57600 31.69000
H  35.54700 44.67100 32.61500
Mg -11.70400 16.19500 41.59300
C  -8.62000 14.54100 41.35200
C  -10.33400 18.80500 39.86500
C  -14.79700 17.55900 41.45500
C  -13.00300 13.17800 42.81900
N  -9.64300 16.59400 40.75700
C  -8.53600 15.75800 40.73900
C  -7.35000 16.38000 40.07800
C  -7.96600 17.83500 39.65900
C  -9.39700 17.78500 40.18800
C  -7.24400 19.13200 40.12200
C  -6.73000 15.65200 38.87300
C  -5.15300 15.88500 38.84600
H  -4.57200 16.59500 37.60600
N  -12.38800 18.00200 40.85500
C  -11.70200 18.91800 40.21400
C  -12.54800 20.01200 39.93400
C  -13.83400 19.79100 40.49000
C  -13.73200 18.41500 40.98500
C  -11.97600 21.21200 39.19700
C  -15.10800 20.65000 40.46100
O  -15.06300 21.78800 39.94500
C  -16.39400 20.28400 41.16500
N  -13.65700 15.49600 42.08900
C  -14.75900 16.19100 41.90900
C  -16.06300 15.34000 42.20600
C  -15.45100 13.94800 42.63500
C  -13.92100 14.19600 42.51200
C  -16.92700 15.93600 43.37900
C  -15.96300 12.75200 41.84400
C  -15.83500 11.42200 42.64000
N  -11.06200 14.26100 42.09900
C  -11.69400 13.15100 42.61900
C  -10.73900 12.06800 42.67200
C  -9.51700 12.55100 42.16700
C  -9.78200 13.90400 41.85900
C  -11.11400 10.67500 43.18800
C  -8.07300 12.21800 41.97900
O  -7.43500 11.21900 42.32300
C  -7.44200 13.53400 41.51900
C  -6.48300 13.93800 42.52200
O  -6.69100 14.16900 43.74200
O  -5.30300 14.19500 41.87000
C  -4.21100 14.90000 42.60900
H  -9.89200 19.61900 39.28600
H  -15.84200 17.85900 41.35100
H  -13.49000 12.29200 43.23300
H  -6.57000 16.42500 40.83800
H  -7.95400 17.94700 38.57500
H  -6.41200 18.91700 40.79200
H  -7.94400 19.71200 40.72200
H  -6.93600 19.62600 39.20100
H  -7.15800 16.08000 37.96500
H  -6.97000 14.59000 38.82900
H  -4.60800 14.98600 39.13100
H  -4.87400 16.49200 39.70800
H  -12.74300 21.93800 38.92600
H  -11.42900 20.99300 38.28000
H  -11.43800 21.76200 39.96900
H  -16.82400 19.49700 40.54400
H  -17.11200 21.09700 41.05800
H  -16.21800 19.86500 42.15600
H  -16.64000 15.29400 41.28300
H  -15.77500 13.78300 43.66300
H  -16.66300 16.98800 43.48600
H  -16.73400 15.59700 44.39700
H  -18.00600 15.95600 43.22500
H  -15.41000 12.74400 40.90500
H  -17.02000 12.75700 41.57700
H  -16.66400 10.75000 42.41600
H  -15.69100 11.65200 43.69500
H  -14.98000 10.94800 42.15500
H  -10.27200 10.01100 42.98800
H  -12.02400 10.46400 42.62600
H  -11.42100 10.54500 44.22600
H  -6.97500 13.34900 40.55200
H  -4.42300 15.27900 43.60900
H  -3.89300 15.78200 42.05400
H  -3.37400 14.21600 42.74500

