158

Mg 53.16700 23.98800 44.67100
C  50.52400 26.25600 43.89200
C  51.34000 21.56400 43.30400
C  56.05200 22.31000 44.45000
C  55.02200 26.95900 45.37700
N  51.16100 23.93000 43.81000
C  50.28200 24.96000 43.53900
C  48.99500 24.37100 42.90100
C  49.08000 22.85900 43.33000
C  50.62200 22.73300 43.45200
C  48.41800 22.59600 44.78400
C  48.83100 24.73100 41.38000
C  50.16200 24.70700 40.52300
H  50.92200 23.39700 40.26100
N  53.56700 22.09700 44.08000
C  52.66800 21.22800 43.61300
C  53.33300 19.99000 43.45800
C  54.72300 20.11400 43.71700
C  54.85400 21.55000 44.16000
C  52.61400 18.74000 42.88100
C  55.86600 19.04300 43.64900
O  55.62600 18.00000 43.13000
C  57.18200 19.18300 44.24100
N  55.25600 24.52100 44.88200
C  56.25600 23.64800 44.75000
C  57.65300 24.38700 44.74500
C  57.29200 25.86300 45.06400
C  55.75200 25.82100 45.13600
C  58.65900 23.75700 45.83600
C  57.80000 26.92300 44.09500
C  57.20800 27.11700 42.63800
N  52.85500 26.23300 44.83000
C  53.63600 27.20300 45.30800
C  52.81700 28.46900 45.47500
C  51.57900 28.14000 44.86200
C  51.65800 26.77000 44.48500
C  53.28900 29.71800 46.16400
C  50.23400 28.56000 44.49500
O  49.77800 29.70100 44.53000
C  49.59300 27.43700 43.75100
C  49.40900 27.91900 42.36800
O  50.22000 27.80800 41.44800
O  48.11900 28.39000 42.20400
C  47.79800 28.85900 40.82000
H  50.69100 20.74400 42.99100
H  57.03000 21.83100 44.54000
H  55.53200 27.91700 45.26000
H  48.11900 24.83200 43.35900
H  48.70900 22.15800 42.58300
H  48.96800 23.25200 45.45900
H  48.65000 21.57100 45.07400
H  47.33700 22.70100 44.70000
H  48.17400 25.56900 41.14500
H  48.33500 23.90900 40.86600
H  50.77500 25.37100 41.13200
H  49.91600 25.11800 39.54400
H  51.52900 18.76300 42.98200
H  52.83200 17.82700 43.43600
H  52.66500 18.58700 41.80300
H  57.77000 19.78800 43.55000
H  57.64500 18.19700 44.23700
H  57.08000 19.58200 45.25000
H  58.10700 24.35800 43.75400
H  57.58400 26.06200 46.09500
H  58.14400 22.87000 46.20400
H  58.84200 24.41100 46.68800
H  59.60200 23.45400 45.38100
H  58.85000 26.78200 43.84000
H  57.88100 27.86800 44.63100
H  56.88500 28.14900 42.50800
H  56.43500 26.37000 42.45300
H  57.94800 27.05700 41.84000
H  53.64100 30.34600 45.34600
H  54.07800 29.51400 46.88700
H  52.39600 30.23600 46.51500
H  48.59900 27.20900 44.13400
H  46.84400 29.37300 40.69600
H  47.87500 28.03600 40.11000
H  48.58400 29.55900 40.53700
Mg 17.26400 52.13900 26.86400
C  19.08600 50.57400 29.42500
C  14.90200 52.97900 29.13000
C  15.58200 53.49900 24.33200
C  19.50800 50.77300 24.55900
N  16.97200 51.79100 29.05900
C  17.99800 51.27700 29.91200
C  17.46900 51.24400 31.38800
C  15.93400 51.66200 31.18300
C  15.92100 52.17100 29.70300
C  14.98200 50.43600 31.40400
C  18.26600 52.24900 32.32300
C  17.63700 52.72300 33.67700
H  16.63400 51.88800 34.44300
N  15.51000 53.21200 26.73100
C  14.64800 53.44100 27.80100
C  13.55800 54.32900 27.34500
C  13.84900 54.60200 25.94600
C  14.97000 53.70400 25.57600
C  12.35000 54.77900 28.22100
C  13.10600 55.57000 24.94800
O  13.58200 55.93200 23.88400
C  11.96300 56.28400 25.41400
N  17.41300 51.93700 24.72100
C  16.59200 52.66700 23.91500
C  17.05400 52.67600 22.48500
C  18.47700 51.94800 22.61900
C  18.49200 51.55100 24.03300
C  16.06400 51.90900 21.52300
C  19.68500 52.90800 22.21200
C  20.92100 52.34000 21.43900
N  18.89300 50.82700 26.94600
C  19.72700 50.44300 25.93500
C  20.83500 49.71500 26.49500
C  20.67300 49.70800 27.91200
C  19.46200 50.41500 28.09700
C  21.84000 49.09600 25.77200
C  21.16400 49.34000 29.11900
O  22.20100 48.77100 29.47400
C  20.18100 49.94600 30.21700
C  19.74400 48.83200 31.06600
O  19.43600 47.71400 30.61800
O  19.84000 49.24900 32.38400
C  19.10800 48.31300 33.24700
H  14.08200 53.12300 29.83500
H  15.02600 54.09500 23.60500
H  20.26800 50.44000 23.84800
H  17.43100 50.22100 31.76200
H  15.57400 52.44500 31.85100
H  14.11900 50.83700 31.93500
H  15.31100 49.72800 32.16500
H  14.72700 49.86900 30.50800
H  18.39200 53.06100 31.60700
H  19.26000 51.83500 32.49300
H  17.29500 53.75100 33.56100
H  18.49200 52.91600 34.32300
H  11.48700 54.12300 28.10800
H  12.20300 55.83600 28.00000
H  12.63700 54.83300 29.27100
H  11.53500 56.58300 24.45700
H  12.26300 57.12800 26.03500
H  11.25700 55.65600 25.95700
H  17.14800 53.75500 22.36200
H  18.56700 50.94400 22.20500
H  16.59900 51.07600 21.06700
H  15.75400 52.58300 20.72500
H  15.17600 51.59900 22.07400
H  19.97700 53.24400 23.20700
H  19.42800 53.81100 21.65900
H  21.82200 52.42900 22.04500
H  21.17600 52.94000 20.56500
H  20.64100 51.31900 21.17900
H  21.45500 48.18900 25.30500
H  22.70100 49.11100 26.43900
H  22.11900 49.75700 24.95200
H  20.62900 50.71600 30.84600
H  18.92800 48.78700 34.21200
H  19.59400 47.35500 33.43500
H  18.10200 48.16400 32.85500

