158

Mg 41.31000 40.32500 27.38700
C  40.91500 42.79000 29.91600
C  42.38400 38.20800 29.64000
C  41.88000 38.16400 24.82300
C  40.52300 42.90800 25.00900
N  41.63500 40.50400 29.58600
C  41.31600 41.53100 30.46300
C  41.60000 41.15500 31.96300
C  42.37800 39.75900 31.66400
C  42.10600 39.44900 30.19100
C  43.90100 39.89200 31.97300
C  40.26300 41.01100 32.81800
C  40.19300 41.96000 34.05100
H  39.40500 41.48600 35.35100
N  42.07700 38.42900 27.21800
C  42.36500 37.68200 28.33600
C  42.70800 36.30300 27.89500
C  42.45600 36.32700 26.47100
C  42.16400 37.67300 26.10500
C  43.17800 35.22200 28.91500
C  42.38000 35.14900 25.57100
O  41.93400 35.30600 24.46800
C  42.83100 33.87200 25.99100
N  41.29100 40.58600 25.25500
C  41.51500 39.47000 24.47800
C  41.26700 39.81000 23.00300
C  40.61200 41.22300 23.10900
C  40.85700 41.67400 24.53200
C  42.46900 39.72400 22.02600
C  39.04000 41.10200 22.86700
C  38.27400 40.03200 23.54300
N  40.83800 42.44200 27.40400
C  40.50000 43.26000 26.34000
C  40.21800 44.61800 26.92300
C  40.34800 44.40100 28.28700
C  40.66600 43.07800 28.52800
C  39.91600 45.88200 26.04100
C  40.27100 45.10900 29.53300
O  39.84600 46.22400 29.72200
C  40.63000 44.10100 30.63500
C  41.69200 44.70500 31.39100
O  42.81500 44.55800 31.12000
O  41.13700 45.28900 32.57200
C  42.18900 45.92700 33.40100
H  42.69900 37.45600 30.36600
H  42.08300 37.65900 23.87600
H  40.36900 43.72400 24.29900
H  42.27400 41.94600 32.29300
H  42.03000 38.95300 32.31000
H  44.40600 40.85800 31.94700
H  44.47500 39.29400 31.26600
H  44.12300 39.52000 32.97300
H  40.11100 39.98100 33.13900
H  39.44900 41.25700 32.13700
H  39.81200 42.94500 33.78100
H  41.23500 42.08600 34.34600
H  42.54200 34.34100 28.99300
H  43.43600 35.58800 29.90900
H  44.20000 34.98200 28.61900
H  43.83700 33.77700 26.40200
H  42.77800 33.19400 25.14000
H  42.12300 33.51900 26.74100
H  40.75000 38.90600 22.68200
H  41.09200 41.85600 22.36200
H  42.66600 40.66300 21.50900
H  42.35100 38.99300 21.22600
H  43.44400 39.58600 22.49500
H  38.96700 40.92400 21.79400
H  38.47000 42.01500 23.03500
H  37.87800 39.29100 22.84800
H  37.54300 40.61300 24.10600
H  38.92700 39.61400 24.30900
H  39.08700 45.53900 25.42100
H  40.74900 46.04700 25.35800
H  39.62200 46.73100 26.65800
H  39.75500 44.08400 31.28500
H  43.09600 46.29900 32.92400
H  42.46600 45.27700 34.23200
H  41.75300 46.76500 33.94500
Mg 30.13900 57.35600 40.60600
C  27.30700 55.23600 39.48200
C  32.19900 55.00300 39.21400
C  32.53300 59.56200 41.01200
C  27.74600 59.88600 41.34400
N  29.72800 55.39000 39.24900
C  28.54300 54.69300 39.06500
C  28.76900 53.25100 38.47900
C  30.32900 53.11700 38.58600
C  30.82900 54.57100 39.12600
C  30.67200 51.99300 39.46300
C  28.24500 53.11800 37.01100
C  28.95500 54.11300 36.02500
H  28.09200 55.13100 35.32400
N  32.14500 57.27100 40.26400
C  32.77100 56.25100 39.68100
C  34.19200 56.59600 39.75000
C  34.40200 57.89400 40.28000
C  33.01600 58.28400 40.55100
C  35.22800 55.59900 39.30700
C  35.78300 58.56800 40.59500
O  36.74500 58.01000 40.06400
C  35.86500 59.81900 41.57500
N  30.14300 59.45200 41.20600
C  31.30400 60.12500 41.35100
C  31.08700 61.63800 41.69200
C  29.57400 61.64700 41.84100
C  29.11600 60.24800 41.42700
C  31.93100 62.31600 42.88400
C  28.73300 62.90100 41.13600
C  27.65700 63.58400 41.98200
N  27.99900 57.51500 40.47600
C  27.21800 58.60800 40.85500
C  25.83200 58.15400 40.84100
C  25.80600 56.85400 40.35400
C  27.12700 56.50800 40.14800
C  24.63300 58.98500 41.14900
C  24.93600 55.72400 39.99100
O  23.70000 55.62000 40.08900
C  25.92500 54.62100 39.46500
C  25.84100 53.40200 40.28400
O  26.33200 53.29800 41.40700
O  25.05400 52.49500 39.57000
C  24.71200 51.23300 40.27900
H  32.87800 54.22100 38.86500
H  33.37000 60.25700 41.10100
H  27.06800 60.56700 41.86300
H  28.22100 52.53700 39.09300
H  30.73500 52.90600 37.59600
H  30.29300 52.21400 40.46000
H  31.76100 51.94400 39.48200
H  30.22400 51.07400 39.08500
H  27.18900 53.38500 36.97600
H  28.34500 52.07000 36.72800
H  29.41100 53.57600 35.19300
H  29.78700 54.73800 36.35000
H  36.15400 56.00500 38.90000
H  34.81100 55.02800 38.47800
H  35.59100 54.97000 40.12000
H  35.57500 60.72700 41.04700
H  36.89600 59.99700 41.88000
H  35.22700 59.61600 42.43600
H  31.28500 62.21000 40.78600
H  29.28800 61.73900 42.88900
H  32.71100 61.62800 43.21100
H  31.23200 62.57800 43.67800
H  32.32100 63.27600 42.54400
H  28.24400 62.43400 40.28100
H  29.28200 63.81000 40.89200
H  27.91300 64.58400 42.33200
H  27.44400 63.02600 42.89400
H  26.69600 63.55100 41.46800
H  24.74200 59.88900 40.54900
H  24.65700 59.39400 42.15900
H  23.71700 58.40400 41.03800
H  25.53600 54.36800 38.47900
H  25.61500 50.62300 40.27200
H  23.91300 50.74700 39.72000
H  24.20800 51.48300 41.21200

