158

Mg 35.90700 49.62800 25.63400
C  35.76300 47.96400 28.61500
C  34.14100 52.23900 27.07200
C  35.57400 50.91400 22.51400
C  37.02200 46.63700 24.02400
N  35.16500 50.09900 27.65200
C  35.20900 49.29200 28.74200
C  34.76000 50.01200 29.93000
C  34.17100 51.33400 29.46200
C  34.50100 51.17800 27.96900
C  32.70100 51.59900 29.85900
C  35.86800 50.15700 30.97600
C  35.31500 50.37900 32.38400
H  33.82800 50.27900 32.68500
N  35.10200 51.36400 24.92600
C  34.35300 52.29800 25.64300
C  33.97300 53.35400 24.70000
C  34.32100 52.93800 23.40400
C  34.91900 51.57800 23.58300
C  33.17400 54.53400 25.12800
C  34.11300 53.69200 22.11100
O  34.41900 53.27000 20.99700
C  33.38900 55.02000 22.06900
N  36.42100 48.91800 23.54100
C  36.18900 49.67400 22.49200
C  36.68100 49.06800 21.16400
C  37.30100 47.73500 21.66700
C  36.81800 47.71300 23.15700
C  35.52200 48.94600 20.09600
C  38.84200 47.50000 21.60600
C  39.74300 48.63300 22.24400
N  36.33100 47.76300 26.17200
C  36.84100 46.66200 25.48500
C  37.01400 45.55500 26.36100
C  36.66000 46.02600 27.61100
C  36.22900 47.35900 27.43900
C  37.46300 44.18900 25.94000
C  36.49600 45.68600 29.01200
O  36.62600 44.59400 29.55700
C  35.95700 46.93700 29.72200
C  34.72500 46.56700 30.37600
O  33.71100 46.11000 29.90700
O  34.88200 46.64900 31.77200
C  33.83800 45.97700 32.52800
H  33.65200 53.10300 27.52600
H  35.36400 51.27900 21.50700
H  37.36500 45.76700 23.46000
H  33.97400 49.33100 30.25800
H  34.71000 52.17500 29.89800
H  32.61500 52.45100 30.53400
H  32.29700 50.78700 30.46400
H  31.95500 51.77600 29.08500
H  36.52100 50.96200 30.64000
H  36.53900 49.29800 30.96100
H  35.65400 51.36300 32.70900
H  35.80100 49.78100 33.15400
H  33.36100 54.54000 26.20100
H  32.11600 54.31900 24.97900
H  33.45300 55.55700 24.87500
H  33.30600 55.44100 21.06700
H  33.91600 55.76200 22.66900
H  32.34100 54.95000 22.36200
H  37.37600 49.73100 20.64800
H  36.73600 46.93900 21.18400
H  34.60500 49.20700 20.62500
H  35.37500 47.95300 19.67100
H  35.68800 49.61300 19.25000
H  39.04800 47.34300 20.54700
H  39.06600 46.53500 22.06100
H  39.17900 49.36400 22.82400
H  40.43300 49.10100 21.54200
H  40.25700 48.12600 23.06000
H  38.37700 43.85700 26.43200
H  37.84000 44.22500 24.91800
H  36.64900 43.48500 26.11500
H  36.65800 47.10600 30.53900
H  33.78700 46.58900 33.42800
H  33.92100 44.92200 32.78900
H  32.84800 46.17200 32.11600
Mg -8.67900 40.60400 42.10300
C  -7.90100 37.24800 41.07200
C  -5.97000 41.64600 40.46200
C  -9.99100 43.69200 42.07700
C  -11.74900 39.33800 43.23300
N  -7.29800 39.55000 40.78500
C  -6.99000 38.22600 40.68600
C  -5.68200 38.00200 39.99400
C  -4.87000 39.38000 40.23900
C  -6.08900 40.25800 40.55300
C  -3.98500 39.30900 41.45200
C  -5.90500 37.55900 38.52400
C  -5.44200 36.13900 38.02300
H  -4.52100 36.07800 36.73800
N  -8.06600 42.48800 41.41000
C  -6.85700 42.66500 40.80500
C  -6.64300 44.07400 40.66100
C  -7.73100 44.75900 41.10900
C  -8.68500 43.64200 41.54800
C  -5.44700 44.66000 39.91600
C  -8.01400 46.24300 41.09300
O  -7.17000 47.06800 40.65300
C  -9.33500 46.80300 41.64900
N  -10.68700 41.37200 42.61200
C  -10.89100 42.72200 42.67000
C  -12.20900 43.05700 43.27400
C  -12.83300 41.65900 43.49000
C  -11.70500 40.69200 43.05300
C  -12.28200 44.11700 44.43700
C  -14.14200 41.37800 42.69800
C  -15.33300 42.32000 42.85000
N  -9.63700 38.69800 42.36500
C  -10.86600 38.38500 42.83400
C  -10.94100 36.94900 42.86500
C  -9.85300 36.48100 42.12300
C  -9.09100 37.55800 41.81400
C  -12.10700 36.12000 43.45600
C  -9.14300 35.30700 41.68700
O  -9.39000 34.10500 41.74900
C  -7.88000 35.74900 40.92700
C  -6.75200 35.05300 41.44200
O  -6.29400 35.21700 42.53000
O  -6.35100 34.17400 40.52400
C  -5.12000 33.47200 40.78700
H  -5.01100 42.06000 40.14400
H  -10.41800 44.69200 42.18300
H  -12.64000 38.93300 43.71800
H  -4.98200 37.23900 40.33700
H  -4.22000 39.77100 39.45600
H  -4.45700 39.67800 42.36300
H  -3.07000 39.89200 41.34400
H  -3.64900 38.28800 41.63500
H  -5.30100 38.13300 37.82000
H  -6.95700 37.72800 38.29700
H  -6.32700 35.52500 37.85800
H  -4.81700 35.63100 38.75700
H  -5.94400 45.38000 39.26600
H  -4.97600 43.96000 39.22500
H  -4.75500 45.21800 40.54600
H  -10.20100 46.44100 41.09700
H  -9.29800 47.88900 41.56000
H  -9.30000 46.55400 42.71000
H  -12.85000 43.41900 42.47000
H  -13.05300 41.35300 44.51300
H  -11.35200 44.63600 44.66700
H  -12.67800 43.69900 45.36200
H  -12.93300 44.88700 44.02100
H  -14.40600 40.35000 42.94700
H  -13.87800 41.41100 41.64100
H  -15.64900 42.82000 41.93400
H  -15.22400 43.01100 43.68600
H  -16.22700 41.74800 43.09600
H  -11.68100 35.39800 44.15300
H  -12.52000 35.54300 42.62900
H  -12.90900 36.75300 43.83500
H  -8.06400 35.47600 39.88800
H  -4.61800 33.23400 39.84900
H  -5.36000 32.63000 41.43800
H  -4.42100 34.09300 41.34700

