158

Mg 16.48300 -1.21000 27.90800
C  15.55500 1.14000 30.53900
C  18.23100 -2.95000 30.17500
C  17.64100 -3.03800 25.34300
C  15.12400 1.07900 25.60500
N  16.96500 -0.85400 30.02800
C  16.42100 0.08000 30.93300
C  16.89100 -0.18800 32.34900
C  17.76000 -1.45700 32.18100
C  17.73800 -1.75500 30.65200
C  19.27900 -1.12700 32.59000
C  15.67700 -0.37700 33.36900
C  15.83100 0.33600 34.74100
H  17.30300 0.65700 35.24100
N  17.82500 -2.79900 27.78700
C  18.40100 -3.48400 28.81600
C  19.05200 -4.65300 28.28100
C  18.85400 -4.67400 26.90200
C  18.05600 -3.48900 26.63100
C  19.97800 -5.57200 29.11200
C  19.12400 -5.72300 25.82900
O  18.88500 -5.61900 24.61500
C  19.83300 -6.92900 26.28500
N  16.58300 -0.92800 25.72500
C  16.99100 -1.90800 24.90400
C  17.01100 -1.50000 23.47400
C  15.93000 -0.31400 23.52900
C  15.79100 -0.05000 25.05400
C  18.42200 -1.09800 22.97200
C  14.54300 -0.61300 22.82900
C  14.01000 0.57600 21.92600
N  15.44500 0.65800 27.96100
C  15.01000 1.47500 26.97300
C  14.30700 2.67300 27.54500
C  14.47700 2.51600 28.93700
C  15.23600 1.33800 29.15800
C  13.50200 3.70100 26.83100
C  14.07800 3.12200 30.21600
O  13.41300 4.10800 30.53200
C  14.74800 2.23200 31.31700
C  15.52100 2.99600 32.22300
O  16.71100 3.27000 32.09100
O  14.79200 3.47400 33.33200
C  15.59900 4.35600 34.20100
H  18.68200 -3.51300 30.99500
H  18.04400 -3.59100 24.49200
H  14.68700 1.74700 24.86000
H  17.51800 0.65800 32.63000
H  17.33300 -2.28700 32.74300
H  19.32900 -0.14100 33.05100
H  19.89900 -1.10200 31.69400
H  19.62900 -1.83600 33.34000
H  15.53400 -1.42700 33.62400
H  14.72600 -0.11300 32.90700
H  15.39700 -0.31600 35.50000
H  15.32400 1.29900 34.66900
H  20.77500 -5.91000 28.44900
H  19.42600 -6.48600 29.33100
H  20.43800 -5.08100 29.96900
H  19.35900 -7.44100 27.12300
H  20.84900 -6.54600 26.38300
H  19.93600 -7.68100 25.50300
H  16.62200 -2.41300 23.02300
H  16.41000 0.55900 23.08700
H  18.35000 -0.10800 22.52200
H  18.64000 -1.80700 22.17300
H  19.18400 -0.96800 23.74000
H  13.82200 -0.76900 23.63100
H  14.70500 -1.48500 22.19600
H  14.62600 1.47300 21.98700
H  13.04700 0.89300 22.32700
H  13.81300 0.10300 20.96400
H  14.08400 4.62300 26.86500
H  12.52100 3.75600 27.30100
H  13.11300 3.54800 25.82400
H  14.01300 1.67500 31.89900
H  14.95900 4.60500 35.04700
H  15.89700 5.27400 33.69300
H  16.45800 3.92500 34.71700
Mg 45.86700 3.98400 48.09700
C  44.57900 7.12300 47.24300
C  42.72200 2.65300 47.36000
C  47.12000 0.89700 48.45800
C  49.11900 5.30800 48.40200
N  43.93400 4.81500 47.35900
C  43.66200 6.15300 47.10600
C  42.21800 6.37000 46.62500
C  41.58100 5.01800 46.86800
C  42.83700 4.09600 47.15800
C  40.53600 4.97700 47.97000
C  42.12900 6.78700 45.12800
C  40.87800 7.77800 44.86800
H  40.05800 7.59700 43.61800
N  45.07500 2.10300 47.84600
C  43.77000 1.70700 47.58500
C  43.67500 0.29200 47.56200
C  44.95600 -0.20300 47.74100
C  45.79300 0.99300 48.05100
C  42.40700 -0.44600 47.13400
C  45.34500 -1.61200 47.58300
O  44.52200 -2.42100 47.22900
C  46.74700 -2.03500 47.60600
N  47.85100 3.24100 48.59500
C  48.08400 1.88900 48.73400
C  49.60900 1.68400 49.20300
C  50.24200 3.06600 48.91900
C  49.06700 3.95700 48.57700
C  49.76000 1.11100 50.64700
C  51.44000 3.12000 47.92400
C  52.81000 2.50900 48.41000
N  46.67200 5.81300 47.95800
C  48.05600 6.24300 48.11000
C  48.09100 7.68100 47.79700
C  46.75000 8.08600 47.55200
C  45.91000 6.90100 47.66900
C  49.41500 8.48600 47.81100
C  45.92000 9.27700 47.28700
O  46.17800 10.45400 47.22800
C  44.46800 8.65400 46.99100
C  43.48700 9.24700 47.91600
O  43.11600 8.78000 48.99600
O  42.90400 10.30000 47.30700
C  41.67500 10.76700 47.98500
H  41.70800 2.25600 47.28000
H  47.43600 -0.08100 48.82800
H  50.11200 5.73500 48.55700
H  41.74200 7.17200 47.18900
H  41.07700 4.55700 46.01900
H  40.27000 6.00100 48.23500
H  40.78800 4.38300 48.84900
H  39.70900 4.48900 47.45600
H  42.04300 5.88500 44.52300
H  43.05000 7.30800 44.86700
H  41.22300 8.81100 44.90300
H  40.22600 7.61700 45.72700
H  42.51000 -0.75300 46.09300
H  41.56000 0.24000 47.13400
H  42.09700 -1.23700 47.81600
H  46.76700 -3.08400 47.30900
H  47.03600 -2.13700 48.65200
H  47.43700 -1.46700 46.98200
H  50.00300 0.87700 48.58600
H  50.57400 3.36700 49.91300
H  50.00800 0.05500 50.54200
H  48.87900 1.13100 51.28900
H  50.61600 1.64800 51.05500
H  51.65200 4.17700 47.76200
H  51.21400 2.54000 47.02900
H  53.01100 1.68600 47.72500
H  52.67100 2.01200 49.37000
H  53.65600 3.18800 48.52300
H  49.72800 8.57300 48.85100
H  49.17800 9.46500 47.39500
H  50.20000 8.08900 47.16700
H  44.34200 8.90900 45.93900
H  41.20400 11.28200 47.14800
H  41.85000 11.46700 48.80200
H  40.96700 9.98700 48.26700

