158

Mg 51.18700 45.53300 41.49100
C  48.36500 47.09000 39.91900
C  50.21600 42.60400 40.09000
C  54.32800 44.33600 41.93200
C  52.27900 48.71100 42.33300
N  49.43700 44.95300 40.13300
C  48.40600 45.71500 39.78100
C  47.23700 44.77000 39.27700
C  47.71500 43.35500 39.71100
C  49.25000 43.63800 39.95900
C  47.03800 42.89100 41.02900
C  46.84000 44.87500 37.79300
C  45.37800 44.79900 37.42800
H  44.86100 43.54500 36.70000
N  52.19400 43.67300 41.05800
C  51.62000 42.55800 40.43100
C  52.50400 41.40600 40.42300
C  53.72800 41.94300 40.91900
C  53.45100 43.34000 41.37200
C  52.09900 40.03600 39.96700
C  55.11600 41.25600 41.01500
O  55.25000 40.17700 40.38800
C  56.28000 41.77800 41.71000
N  53.12100 46.44300 41.99700
C  54.21100 45.73700 42.22300
C  55.45700 46.58300 42.52600
C  54.78900 47.92000 42.93900
C  53.31800 47.72300 42.38600
C  56.41000 45.97700 43.60900
C  55.45800 49.09600 42.34600
C  55.65300 50.16500 43.39100
N  50.36600 47.57500 41.39400
C  50.96800 48.68900 41.75600
C  50.01800 49.85200 41.59200
C  48.97000 49.27400 40.77400
C  49.30700 47.88000 40.68600
C  50.23700 51.23800 42.11200
C  47.71000 49.54900 40.01800
O  47.04400 50.57700 39.74100
C  47.32300 48.06800 39.44900
C  45.99100 47.67600 39.84300
O  44.97500 47.68000 39.13100
O  46.08000 47.55900 41.24800
C  44.70000 47.59500 41.81600
H  49.83400 41.60400 39.87400
H  55.34900 43.95000 41.89100
H  52.35800 49.70400 42.78200
H  46.35500 45.09900 39.82700
H  47.60000 42.57700 38.95700
H  46.61400 43.69300 41.63200
H  47.76500 42.57100 41.77600
H  46.40200 42.00900 40.95100
H  47.31100 44.06600 37.23500
H  47.23900 45.81400 37.40900
H  45.09500 45.71600 36.91100
H  44.87600 44.91300 38.38900
H  52.79300 39.22100 40.17400
H  51.75100 39.83000 38.95500
H  51.11900 39.83900 40.40200
H  56.08200 41.85400 42.77900
H  56.72200 42.65500 41.23600
H  57.12600 41.09200 41.68400
H  55.93900 46.72200 41.55900
H  54.70800 47.97100 44.02500
H  56.58100 46.60000 44.48800
H  57.39300 45.68600 43.23800
H  56.06900 44.98300 43.89700
H  54.80000 49.53600 41.59700
H  56.44400 48.86700 41.94100
H  55.94100 49.82200 44.38500
H  54.81600 50.86400 43.40100
H  56.50500 50.79600 43.13600
H  50.84500 51.77900 41.38700
H  50.65400 51.29000 43.11800
H  49.23600 51.66200 42.19400
H  47.31300 48.12900 38.36100
H  44.75400 48.17800 42.73500
H  44.33800 46.63300 42.17700
H  43.93200 48.09000 41.22200
Mg 9.11000 48.41300 25.96500
C  7.00800 48.86600 28.65700
C  11.81300 49.70600 27.76700
C  11.04400 48.01100 23.22300
C  6.23700 47.72000 24.03400
N  9.35600 49.26700 27.87600
C  8.36400 49.14800 28.88900
C  9.06400 49.48700 30.26600
C  10.37900 50.15700 29.82600
C  10.54500 49.70000 28.40900
C  10.43300 51.66600 30.09700
C  9.43300 48.22300 31.12000
C  9.55200 48.37200 32.67900
H  8.95600 47.35600 33.66900
N  11.14900 48.73500 25.60200
C  12.08300 49.22600 26.43800
C  13.36600 49.06600 25.79800
C  13.16700 48.56900 24.52700
C  11.76500 48.45000 24.36400
C  14.64400 49.51300 26.51300
C  14.16000 48.33300 23.43800
O  13.85600 48.14200 22.26600
C  15.72100 48.39200 23.77700
N  8.71100 48.03400 23.92600
C  9.63800 47.83200 22.97000
C  9.03900 47.45500 21.65500
C  7.54500 47.39700 21.98200
C  7.48800 47.69500 23.39600
C  9.42400 48.34500 20.41600
C  7.00200 45.98900 21.57400
C  5.81600 46.16700 20.61400
N  6.98100 48.42500 26.20900
C  5.96400 48.08400 25.36600
C  4.73500 48.10400 26.07200
C  5.13900 48.44500 27.38700
C  6.48600 48.63500 27.40500
C  3.40600 47.72800 25.60400
C  4.57700 48.60800 28.68700
O  3.43200 48.54800 29.11200
C  5.83400 48.93900 29.56300
C  5.81400 47.89200 30.61900
O  6.23200 46.80900 30.43100
O  5.29800 48.34800 31.82400
C  5.08100 47.27800 32.78300
H  12.64900 50.05700 28.37500
H  11.51300 47.93000 22.24000
H  5.37000 47.35900 23.47700
H  8.53500 50.20700 30.89000
H  11.22400 49.77000 30.39500
H  10.61300 52.07700 29.10400
H  11.28400 51.86400 30.74900
H  9.50400 52.01000 30.55300
H  10.38900 47.77100 30.85300
H  8.73900 47.43900 30.81600
H  9.08700 49.34100 32.86400
H  10.59700 48.52800 32.94700
H  14.42900 49.69800 27.56500
H  15.08400 50.41300 26.08300
H  15.43700 48.76600 26.47800
H  16.17100 47.51200 24.23500
H  15.89100 49.37400 24.22000
H  16.17900 48.44000 22.78900
H  9.62000 46.55200 21.46500
H  7.07100 48.18600 21.39800
H  9.86700 49.25200 20.82500
H  8.57800 48.58000 19.77000
H  10.09000 47.72000 19.82100
H  6.69500 45.56000 22.52800
H  7.76600 45.29600 21.22100
H  5.15300 45.30200 20.62600
H  5.98600 46.45200 19.57600
H  5.18900 46.98100 20.98000
H  3.54600 46.91300 24.89400
H  2.92900 48.52600 25.03500
H  2.63600 47.50900 26.34400
H  5.59900 49.82200 30.15700
H  5.62200 47.54100 33.69300
H  5.30400 46.24600 32.51400
H  4.00300 47.41100 32.87200

