158

Mg 52.73100 24.35600 44.48100
C  49.83200 26.34000 44.07700
C  51.03800 21.52200 43.73300
C  55.67200 22.63100 44.54900
C  54.39500 27.29200 45.61700
N  50.72700 23.96200 43.76900
C  49.69800 24.92500 43.79100
C  48.36300 24.23000 43.58300
C  48.71500 22.73000 43.78400
C  50.27500 22.67600 43.76100
C  48.16000 22.08000 44.98400
C  47.72100 24.57000 42.18300
C  48.46200 24.00800 40.94500
H  48.35700 24.73000 39.53800
N  53.28600 22.32000 44.00500
C  52.42400 21.31200 43.81200
C  53.18900 20.12600 43.55800
C  54.56300 20.45700 43.62500
C  54.58200 21.81700 44.11200
C  52.47300 18.78700 43.24600
C  55.71400 19.46100 43.52000
O  55.56100 18.26600 43.31700
C  57.17400 19.85300 43.60000
N  54.77300 24.84600 44.83500
C  55.77700 23.98900 44.91500
C  57.05700 24.56200 45.49900
C  56.70200 26.11100 45.81400
C  55.19500 26.07400 45.42000
C  57.76700 23.83500 46.70900
C  57.48600 27.28300 45.06100
C  57.99600 28.37100 45.91800
N  52.24600 26.45700 44.74000
C  53.04000 27.53400 45.24000
C  52.21100 28.76500 45.26200
C  50.94100 28.33300 44.77800
C  51.03200 26.90600 44.52700
C  52.59200 30.14200 45.80500
C  49.61800 28.75300 44.54600
O  49.08200 29.86700 44.65000
C  48.84300 27.47800 43.99700
C  48.46700 27.82400 42.61900
O  49.23500 27.93400 41.70400
O  47.13100 28.18500 42.67200
C  46.51000 28.72500 41.47600
H  50.47300 20.58700 43.72300
H  56.67000 22.18700 44.55200
H  54.84100 28.20400 46.01900
H  47.59700 24.50200 44.30900
H  48.41400 22.21700 42.87100
H  48.96100 21.86600 45.69000
H  47.67600 21.12500 44.77900
H  47.38300 22.68500 45.45200
H  47.50200 25.63200 42.07300
H  46.82500 23.95100 42.22200
H  48.08800 22.99800 40.78000
H  49.50200 24.02200 41.27300
H  52.87000 18.15700 42.45000
H  51.41400 18.82500 42.99100
H  52.48300 18.14200 44.12500
H  57.90600 19.13200 43.23500
H  57.37300 19.95300 44.66700
H  57.25200 20.81800 43.10000
H  57.81100 24.62500 44.71500
H  56.80300 26.17400 46.89800
H  57.16600 23.03900 47.14900
H  58.11500 24.49900 47.50000
H  58.67200 23.41500 46.27000
H  56.85600 27.72400 44.28900
H  58.33200 26.82800 44.54600
H  57.23100 28.67300 46.63400
H  58.36100 29.26100 45.40500
H  58.83600 27.93800 46.46100
H  53.63800 30.17200 46.11000
H  52.06200 30.19000 46.75600
H  52.47100 30.92200 45.05300
H  47.93600 27.26800 44.56500
H  47.05900 29.64000 41.25200
H  45.44100 28.86900 41.62800
H  46.52300 27.99500 40.66600
Mg 30.14800 59.09700 40.87600
C  27.23100 57.50300 39.73200
C  32.02500 56.54200 39.94000
C  32.90300 61.07900 41.28200
C  28.20700 61.93200 41.66300
N  29.69200 57.24300 39.82100
C  28.40400 56.82300 39.41900
C  28.53000 55.46000 38.71300
C  30.02300 54.97200 39.03200
C  30.64100 56.27300 39.59800
C  30.06500 53.81300 40.15300
C  28.29900 55.40600 37.17500
C  27.29200 54.37400 36.75700
H  26.28800 54.73400 35.59400
N  32.14000 58.78400 40.75800
C  32.74000 57.60700 40.48800
C  34.12400 57.64200 40.76400
C  34.42200 58.90900 41.22400
C  33.11400 59.66900 41.11800
C  35.06100 56.55300 40.25900
C  35.77900 59.40400 41.61500
O  36.78100 58.72100 41.38500
C  35.94000 60.75800 42.16300
N  30.54300 61.17900 41.47800
C  31.74800 61.80700 41.39500
C  31.73700 63.37300 41.45900
C  30.24000 63.56800 41.90200
C  29.58200 62.16000 41.70400
C  32.90000 64.00900 42.36500
C  29.51900 64.78100 41.24100
C  29.31600 66.05200 42.07600
N  28.13000 59.59200 40.90200
C  27.48600 60.76500 41.26300
C  26.05300 60.64300 40.93500
C  25.87500 59.35400 40.39500
C  27.17100 58.78300 40.42700
C  25.04000 61.69700 41.27600
C  24.94100 58.40500 39.82900
O  23.73000 58.50900 39.69300
C  25.74400 57.16800 39.49700
C  25.45300 56.06700 40.36900
O  25.84400 55.95300 41.51400
O  24.55500 55.22500 39.72400
C  23.92400 54.22500 40.61800
H  32.63200 55.65200 39.76300
H  33.85200 61.60800 41.39100
H  27.68200 62.86800 41.86800
H  27.89200 54.74900 39.23800
H  30.48200 54.52200 38.15200
H  30.50700 54.16900 41.08300
H  30.71300 53.07800 39.67600
H  29.11900 53.31900 40.37600
H  29.20700 55.27900 36.58600
H  27.85700 56.39100 37.02700
H  26.70800 54.04200 37.61600
H  27.89100 53.53600 36.40100
H  34.65000 55.84400 39.54000
H  35.27200 55.93700 41.13300
H  35.95100 56.90500 39.73900
H  36.86600 60.75100 42.73600
H  35.19500 61.16400 42.84800
H  36.09500 61.51000 41.38900
H  31.85800 63.69000 40.42400
H  30.24500 63.69100 42.98500
H  33.54800 64.52600 41.65700
H  33.48400 63.28900 42.93800
H  32.51000 64.70900 43.10400
H  28.57700 64.52100 40.75800
H  30.12100 65.08900 40.38700
H  29.54300 65.94100 43.13700
H  28.31900 66.48000 41.97200
H  30.05400 66.77400 41.72400
H  24.14700 61.09700 41.45000
H  24.86900 62.35300 40.42200
H  25.25700 62.38700 42.09100
H  25.66700 56.91100 38.44000
H  24.70300 53.54200 40.95600
H  23.21800 53.53500 40.15600
H  23.40900 54.69300 41.45700

