158

Mg 45.06700 3.65900 47.03800
C  43.17000 6.55800 46.93400
C  42.39700 1.78400 47.16200
C  47.14600 1.02600 46.28700
C  48.07300 5.89000 46.74200
N  43.03200 4.14800 46.88100
C  42.41500 5.35300 46.86800
C  40.90000 5.23700 46.93400
C  40.72900 3.68800 47.07800
C  42.14000 3.16500 47.05200
C  39.94900 3.10600 48.35500
C  40.07800 5.75200 45.72300
C  40.69600 5.68100 44.38700
H  40.98900 6.92400 43.59600
N  44.75800 1.70100 46.68900
C  43.56100 0.99600 46.87900
C  43.81300 -0.42600 46.69200
C  45.20200 -0.59800 46.35400
C  45.73600 0.78900 46.34900
C  42.76700 -1.48500 46.82500
C  45.85500 -1.88700 45.99300
O  45.24600 -2.94800 46.15400
C  47.25400 -1.94600 45.51600
N  47.36000 3.53100 46.76900
C  47.86000 2.30900 46.43900
C  49.40000 2.42500 46.27700
C  49.71500 3.91800 46.40800
C  48.31500 4.48700 46.71000
C  50.13800 1.53600 47.41000
C  50.50200 4.56400 45.20000
C  51.98400 4.77700 45.38000
N  45.60800 5.77300 46.99000
C  46.74500 6.49100 46.89300
C  46.49000 7.92600 46.87500
C  45.10000 8.04400 46.98600
C  44.61100 6.70500 46.94100
C  47.59600 8.99300 46.74000
C  43.95200 8.87900 47.06100
O  43.79500 10.08100 46.95800
C  42.67500 7.87500 46.98500
C  41.69700 8.22700 48.11100
O  41.67500 7.60800 49.17600
O  40.71700 9.00300 47.57300
C  39.49200 9.05300 48.33400
H  41.55300 1.10200 47.28200
H  47.93600 0.27700 46.19700
H  48.93100 6.54000 46.55400
H  40.38800 5.70100 47.77700
H  40.19900 3.21500 46.25100
H  39.26000 3.89000 48.67000
H  40.71700 2.89200 49.09800
H  39.44500 2.18200 48.07200
H  39.88800 6.82300 45.80200
H  39.09300 5.29300 45.81500
H  39.97900 5.01800 43.90300
H  41.65000 5.16600 44.50500
H  42.83000 -2.08500 45.91700
H  41.77100 -1.05600 46.71100
H  42.91600 -2.15200 47.67400
H  47.39800 -2.97800 45.19900
H  47.94800 -1.76400 46.33700
H  47.34600 -1.21500 44.71300
H  49.73700 2.18500 45.26800
H  50.28700 4.04400 47.32700
H  50.87700 2.21300 47.83900
H  50.67200 0.65500 47.05300
H  49.50000 1.23400 48.24000
H  50.11600 5.57000 45.03800
H  50.36600 4.04100 44.25300
H  52.22100 5.83800 45.46300
H  52.44000 4.32300 44.50000
H  52.33800 4.20000 46.23400
H  48.17500 8.70100 45.86400
H  48.17300 9.06600 47.66100
H  47.16900 9.99700 46.74600
H  42.14900 8.24800 46.10600
H  39.11200 8.03200 48.37200
H  38.74700 9.73700 47.93000
H  39.78500 9.40100 49.32400
Mg 17.24000 50.92400 25.90400
C  18.95000 49.78300 28.64000
C  14.95500 52.48600 28.02100
C  15.74300 52.11000 23.18100
C  19.71600 49.53400 23.80900
N  17.13400 51.30600 28.11600
C  17.87500 50.60200 29.04000
C  17.37400 50.82300 30.44700
C  16.04300 51.62000 30.23200
C  16.03800 51.83900 28.72400
C  14.83500 50.89600 30.80500
C  18.47300 51.50400 31.35500
C  18.20400 51.58600 32.87600
H  17.21600 50.64000 33.56900
N  15.51100 52.08500 25.58600
C  14.71300 52.59900 26.57600
C  13.66900 53.30700 25.93700
C  14.05300 53.47800 24.51200
C  15.09800 52.48100 24.37500
C  12.67700 54.06600 26.69700
C  13.58500 54.49000 23.44200
O  14.06000 54.55300 22.30800
C  12.58700 55.53400 23.93800
N  17.64000 50.90000 23.86000
C  16.92300 51.38700 22.86800
C  17.16100 50.85800 21.45900
C  18.59600 50.39700 21.69900
C  18.69500 50.30900 23.17500
C  16.15500 49.70000 21.19600
C  19.67100 51.36200 21.09900
C  20.56100 50.90000 19.94600
N  18.97300 49.94000 26.11300
C  19.81200 49.34600 25.19000
C  20.85200 48.62100 25.85700
C  20.50100 48.65800 27.21700
C  19.35400 49.51200 27.32700
C  22.03200 47.98500 25.30100
C  20.95000 48.31200 28.59200
O  22.00600 47.69400 28.93800
C  19.91500 48.99400 29.55400
C  19.35900 47.96000 30.41500
O  18.51000 47.16900 30.00300
O  19.99100 47.97600 31.65700
C  19.57600 46.94600 32.60300
H  14.20600 52.89100 28.70500
H  15.21300 52.47600 22.30000
H  20.41400 48.98300 23.17500
H  17.12600 49.91000 30.98800
H  16.03900 52.62500 30.65300
H  14.03500 50.74200 30.08100
H  14.48400 51.52800 31.62100
H  15.05400 49.93300 31.26600
H  18.44500 52.55100 31.05500
H  19.46100 51.10400 31.12600
H  17.89000 52.62600 32.96300
H  19.16900 51.41700 33.35300
H  12.99100 55.08800 26.91000
H  12.49600 53.53300 27.63100
H  11.72300 54.05200 26.16900
H  13.01200 56.17000 24.71400
H  11.59400 55.19500 24.23100
H  12.57700 56.27900 23.14200
H  17.15200 51.62200 20.68200
H  18.88100 49.42500 21.29800
H  15.87300 49.93200 20.17000
H  15.25500 49.60100 21.80300
H  16.54800 48.68400 21.16000
H  20.37100 51.42600 21.93100
H  19.36600 52.39600 20.93600
H  20.21600 49.90400 19.66900
H  21.59500 50.80700 20.27800
H  20.49300 51.54100 19.06700
H  22.31800 48.55600 24.41800
H  21.70900 47.03600 24.87200
H  22.82200 47.76000 26.01800
H  20.56900 49.69400 30.07200
H  20.15400 47.06600 33.51900
H  19.69300 45.94300 32.19400
H  18.56600 47.12200 32.97400

