158

Mg 34.76000 2.71000 30.19000
C  32.79300 3.54400 32.94600
C  37.44800 2.52200 32.33000
C  36.67300 2.20300 27.49400
C  31.94800 2.81800 28.17000
N  35.10100 3.20300 32.33800
C  34.11900 3.38700 33.33300
C  34.65100 3.34100 34.73900
C  36.16400 2.97400 34.52100
C  36.26000 2.84100 32.97000
C  37.19900 4.01800 35.00300
C  33.88500 2.20000 35.53900
C  33.59200 2.44200 37.00200
H  34.48200 3.48000 37.75100
N  36.79600 2.41600 29.94800
C  37.74500 2.31500 30.91200
C  39.10300 2.05500 30.30900
C  38.86000 2.03000 28.89100
C  37.40700 2.18200 28.70700
C  40.26100 1.97200 31.20600
C  39.84800 1.88800 27.74300
O  39.51000 1.78700 26.58300
C  41.33400 1.85100 28.01700
N  34.41600 2.58900 28.10900
C  35.36000 2.34300 27.19000
C  34.83800 2.34900 25.73000
C  33.33400 2.13100 26.08400
C  33.21400 2.55900 27.53900
C  35.22000 3.66900 24.99300
C  32.91500 0.67900 25.88800
C  32.12800 0.23200 24.62700
N  32.68300 3.04800 30.43300
C  31.67700 3.05500 29.54100
C  30.46200 3.51800 30.20400
C  30.86800 3.70600 31.52900
C  32.23500 3.40800 31.62200
C  29.13900 3.71400 29.60400
C  30.34300 4.16400 32.77400
O  29.20000 4.47800 33.09900
C  31.62800 4.11600 33.78600
C  31.90800 5.39100 34.43600
O  32.78300 6.22700 34.17400
O  31.02500 5.46600 35.50000
C  31.39000 6.53600 36.46700
H  38.22700 2.33800 33.07200
H  37.14300 2.27200 26.51100
H  31.08400 2.93600 27.51200
H  34.55600 4.29200 35.26200
H  36.51600 1.99900 34.85800
H  36.82800 4.90500 35.51600
H  37.82800 4.52000 34.26800
H  37.86900 3.58700 35.74600
H  34.48900 1.29300 35.56800
H  32.88900 2.00000 35.14500
H  33.76400 1.51700 37.55300
H  32.54000 2.70300 37.11500
H  41.01900 1.40900 30.66000
H  39.97500 1.54400 32.16700
H  40.88200 2.82500 31.47900
H  41.66900 0.94400 28.52000
H  41.66200 2.73000 28.57200
H  41.97600 1.97000 27.14400
H  35.22900 1.50600 25.16100
H  32.87400 2.80200 25.35900
H  36.26900 3.91100 25.16400
H  34.54300 4.45700 25.32300
H  35.10500 3.64600 23.90900
H  32.36600 0.23900 26.72000
H  33.80500 0.05900 25.77800
H  31.23700 -0.32000 24.92700
H  32.67300 -0.38700 23.91500
H  31.84200 1.12500 24.07200
H  28.83200 4.75900 29.64400
H  28.38700 3.15500 30.16100
H  29.09300 3.45600 28.54600
H  31.21900 3.37300 34.47100
H  30.92900 6.33000 37.43300
H  31.00500 7.47800 36.07800
H  32.47200 6.57400 36.59700
Mg 1.02100 42.93900 25.57500
C  3.32000 42.54500 28.22200
C  -1.52200 42.03400 27.48400
C  -0.89600 42.80100 22.83100
C  3.88100 43.47600 23.50400
N  0.99200 42.41100 27.62600
C  1.95700 42.36700 28.55700
C  1.36900 41.90400 29.90500
C  -0.16400 41.55400 29.52200
C  -0.25600 42.04600 28.11800
C  -0.60500 40.11900 29.86400
C  1.52900 43.02200 30.94400
C  1.88600 42.56500 32.34800
H  1.00100 42.96000 33.47700
N  -1.00000 42.67600 25.21800
C  -1.88100 42.35100 26.18900
C  -3.18100 42.36700 25.68900
C  -3.05200 42.45300 24.27500
C  -1.65400 42.61200 24.03600
C  -4.38700 42.30500 26.53600
C  -4.11200 42.39200 23.21200
O  -4.03000 42.61200 22.01300
C  -5.50000 42.12600 23.59400
N  1.46000 43.04200 23.44200
C  0.43200 43.05100 22.52600
C  0.92500 43.39100 21.15400
C  2.30700 44.01200 21.49000
C  2.61000 43.48800 22.89300
C  0.93400 42.14500 20.13600
C  2.33200 45.54700 21.33700
C  3.37100 46.08000 20.38000
N  3.08000 42.98600 25.76300
C  4.06400 43.25000 24.82600
C  5.37300 43.29000 25.42800
C  5.09000 43.00800 26.83100
C  3.72500 42.84200 26.94100
C  6.73700 43.38500 24.77500
C  5.70300 42.66800 28.13200
O  6.89800 42.48100 28.43500
C  4.58700 42.46600 29.16000
C  4.66900 41.14600 29.76800
O  4.53300 40.05700 29.17700
O  4.99600 41.33900 31.12500
C  5.38200 40.12200 31.86400
H  -2.29700 41.58800 28.11200
H  -1.55900 42.87500 21.96600
H  4.68600 43.83100 22.85700
H  1.90800 40.98600 30.13800
H  -0.92600 42.20100 29.95700
H  0.27100 39.56200 30.19600
H  -0.87700 39.48200 29.02300
H  -1.44000 40.02200 30.55700
H  0.62700 43.63200 30.97700
H  2.34900 43.68500 30.66800
H  2.85900 42.97400 32.62100
H  2.08400 41.49500 32.40800
H  -4.86100 41.34100 26.35200
H  -5.02100 43.17900 26.39000
H  -4.14800 42.48100 27.58500
H  -6.13000 41.96500 22.71900
H  -5.79200 42.94300 24.25200
H  -5.61300 41.19400 24.14900
H  0.25800 44.17100 20.78700
H  2.97600 43.74800 20.67000
H  1.97300 41.93100 19.88600
H  0.37000 42.41300 19.24300
H  0.53100 41.25000 20.61100
H  2.47000 46.01400 22.31200
H  1.43600 46.04000 20.95800
H  2.87300 46.64000 19.58800
H  3.88100 45.32900 19.77600
H  4.08300 46.67800 20.94800
H  7.35500 42.58400 25.18100
H  7.16700 44.38100 24.87800
H  6.60400 43.17600 23.71300
H  4.65400 43.21300 29.95200
H  5.68500 39.40700 31.10000
H  4.58100 39.72800 32.49100
H  6.15400 40.44500 32.56300

