158

Mg 23.73700 -5.73000 45.89600
C  26.11800 -3.54700 44.20800
C  21.39100 -4.58000 43.75500
C  22.08600 -8.42100 46.68300
C  26.65700 -6.85800 47.70200
N  23.83700 -4.15700 44.21900
C  24.83900 -3.41700 43.68700
C  24.36600 -2.55600 42.50900
C  22.83600 -2.81700 42.51500
C  22.64100 -3.89900 43.60200
C  21.96100 -1.55400 42.87100
C  25.13400 -2.96800 41.20500
C  25.82400 -1.88600 40.35700
H  25.33700 -1.65800 38.93800
N  21.81500 -6.38000 45.41600
C  21.01700 -5.82500 44.46400
C  19.73600 -6.53200 44.55600
C  19.88300 -7.57400 45.55400
C  21.29700 -7.52200 45.96700
C  18.63900 -6.17700 43.71900
C  18.79600 -8.54800 45.74300
O  17.67300 -8.41400 45.29300
C  19.04700 -9.75700 46.66500
N  24.45400 -7.55800 46.75300
C  23.46400 -8.40600 47.13800
C  24.02500 -9.55300 47.96400
C  25.46400 -9.04000 48.31000
C  25.55100 -7.72000 47.55100
C  23.24700 -9.88600 49.28600
C  26.61900 -9.96900 47.92500
C  27.21600 -10.81600 49.08300
N  25.92600 -5.18800 46.05800
C  26.84200 -5.59700 46.95600
C  28.03300 -4.81100 46.93000
C  27.79400 -4.05700 45.74800
C  26.45300 -4.28500 45.35200
C  29.32500 -4.96700 47.75200
C  28.45400 -3.13700 44.86700
O  29.53500 -2.61800 44.86700
C  27.32200 -2.73000 43.87500
C  27.17500 -1.26400 44.03900
O  26.76800 -0.67000 44.97300
O  27.66200 -0.73900 42.90200
C  27.36900 0.67400 42.67500
H  20.56700 -4.16400 43.17100
H  21.39600 -9.22100 46.95700
H  27.42100 -7.08000 48.44900
H  24.60500 -1.53300 42.79800
H  22.48700 -3.32100 41.61400
H  22.27100 -1.31900 43.88900
H  20.89000 -1.75600 42.83900
H  22.26100 -0.77500 42.17100
H  24.39000 -3.36800 40.51700
H  25.87600 -3.71300 41.49300
H  26.89000 -2.09600 40.26900
H  25.68800 -0.92200 40.84800
H  17.81700 -6.06700 44.42500
H  18.32600 -6.94500 43.01100
H  18.69600 -5.17400 43.29600
H  18.14600 -10.36200 46.77400
H  19.26300 -9.29500 47.62800
H  19.81100 -10.39500 46.22200
H  23.84700 -10.44900 47.36800
H  25.56300 -8.89000 49.38500
H  22.44200 -9.17700 49.47600
H  23.80900 -9.98000 50.21500
H  22.67100 -10.78500 49.06600
H  27.42800 -9.40100 47.46500
H  26.14200 -10.60500 47.17900
H  26.78500 -10.56700 50.05200
H  28.29400 -10.67900 48.99900
H  27.10300 -11.90000 49.04200
H  29.97900 -5.58400 47.13500
H  29.05900 -5.41100 48.71100
H  29.67600 -3.95100 47.92800
H  27.58800 -2.96000 42.84300
H  26.38000 0.90800 43.07000
H  27.26300 0.77400 41.59500
H  28.16700 1.34000 43.00400
Mg 40.68700 10.01900 30.24900
C  42.58100 11.39200 32.98500
C  38.68300 8.50600 32.50000
C  39.09400 8.74900 27.65800
C  43.33700 11.03400 28.13700
N  40.56600 10.07400 32.49900
C  41.40000 10.64900 33.39300
C  40.96300 10.37900 34.83900
C  39.76200 9.38500 34.65200
C  39.73600 9.25200 33.13100
C  39.84900 8.03900 35.43200
C  40.62400 11.62100 35.74000
C  41.62200 11.88000 36.88500
H  41.15300 12.34800 38.26400
N  39.13800 8.70200 30.03700
C  38.40600 8.25300 31.10100
C  37.25700 7.51700 30.54500
C  37.36900 7.56400 29.12800
C  38.56700 8.42600 28.88700
C  36.28500 6.68100 31.35700
C  36.39300 7.06900 28.02100
O  36.65400 7.17900 26.78800
C  35.04800 6.29600 28.41200
N  41.21800 9.83300 28.14400
C  40.36100 9.25500 27.31500
C  40.81400 9.33700 25.83300
C  42.26600 9.99700 25.98400
C  42.24900 10.38000 27.49500
C  40.76700 7.95800 25.11200
C  42.46400 11.29700 25.17100
C  43.90100 11.40200 24.62800
N  42.44000 11.22400 30.40500
C  43.43500 11.46700 29.47700
C  44.55800 12.15900 30.15200
C  44.19300 12.23500 31.52200
C  42.94700 11.52900 31.61000
C  45.82800 12.72600 29.57400
C  44.69100 12.66400 32.79900
O  45.73800 13.27700 32.99700
C  43.57800 12.16800 33.81300
C  44.36700 11.25000 34.73300
O  44.68400 10.09400 34.47300
O  44.66700 11.94100 35.94700
C  45.37600 11.15900 36.95300
H  38.04100 7.97900 33.20900
H  38.53000 8.48800 26.76000
H  44.17500 11.27900 27.48100
H  41.79100 9.83700 35.29500
H  38.88500 9.92700 35.00800
H  40.76100 7.94900 36.02200
H  39.62500 7.10700 34.91200
H  39.05300 8.24900 36.14600
H  39.66400 11.45300 36.22900
H  40.71400 12.44800 35.03500
H  42.35800 12.58900 36.50700
H  42.17100 10.94800 37.02300
H  36.46500 6.67300 32.43200
H  36.26400 5.70300 30.87600
H  35.28000 7.07800 31.21800
H  34.57200 6.76600 29.27300
H  35.36600 5.28700 28.67400
H  34.42600 6.11700 27.53400
H  40.05000 9.94200 25.34400
H  43.09300 9.28800 25.97100
H  39.90900 7.86700 24.44600
H  40.49200 7.20100 25.84700
H  41.73600 7.66900 24.70400
H  42.50100 12.19400 25.78900
H  41.81200 11.43700 24.30900
H  44.57000 10.54500 24.54300
H  44.44500 12.07700 25.28800
H  44.00300 11.91700 23.67300
H  46.02700 12.49400 28.52800
H  46.67600 12.45900 30.20400
H  45.78100 13.81500 29.57100
H  43.09800 13.03200 34.27200
H  46.03000 10.41600 36.49600
H  44.72900 10.68700 37.69200
H  46.01200 11.90000 37.43700

