158

Mg 48.26700 24.23100 27.85600
C  49.29200 26.67100 30.15200
C  47.47200 22.18400 30.35600
C  47.15500 22.12300 25.54900
C  49.90200 26.18100 25.34600
N  48.29800 24.56400 29.98700
C  48.72100 25.59500 30.77800
C  48.54800 25.23600 32.31900
C  48.27200 23.69800 32.24800
C  47.99700 23.44800 30.78200
C  49.38100 22.84600 32.90100
C  47.52900 26.09700 33.14900
C  48.02600 26.89100 34.37700
H  47.11300 26.88500 35.59200
N  47.29300 22.41600 27.91900
C  47.18700 21.71400 29.08600
C  46.49100 20.46700 28.77100
C  46.34000 20.46500 27.29300
C  46.95000 21.69200 26.83100
C  46.07100 19.37900 29.76800
C  45.68700 19.43700 26.47800
O  45.67100 19.52900 25.25300
C  44.94000 18.30400 27.14900
N  48.68600 24.06800 25.74500
C  48.04000 23.12200 25.03100
C  48.21600 23.41700 23.53800
C  49.27600 24.55300 23.50200
C  49.30300 25.03000 24.93200
C  48.82600 22.18200 22.83600
C  48.97500 25.63700 22.39500
C  47.85500 26.70500 22.55400
N  49.36300 26.08600 27.69000
C  49.88800 26.74500 26.64600
C  50.44700 28.01400 27.04000
C  50.14400 28.08300 28.41900
C  49.59300 26.81500 28.79900
C  51.19800 28.92600 26.12600
C  50.34800 28.87900 29.62800
O  50.90900 29.95600 29.83500
C  49.75000 27.95100 30.81400
C  50.77900 27.70600 31.91500
O  51.71600 26.93800 31.80800
O  50.49000 28.51300 33.01700
C  51.37400 28.56100 34.20000
H  47.18100 21.47400 31.13300
H  46.85500 21.45300 24.74000
H  50.31800 26.82300 24.56600
H  49.45300 25.46600 32.88100
H  47.35100 23.34900 32.71700
H  49.73200 23.40400 33.76900
H  50.19100 22.62600 32.20600
H  48.96100 21.87000 33.14200
H  46.80400 25.39100 33.55200
H  47.17100 26.86900 32.46800
H  48.06700 27.93900 34.08100
H  49.03900 26.70100 34.73300
H  46.45800 19.66800 30.74600
H  46.43800 18.42200 29.39600
H  44.99000 19.51500 29.78600
H  44.21400 18.82500 27.77400
H  45.54800 17.64600 27.77000
H  44.44400 17.76000 26.34500
H  47.23300 23.73000 23.18800
H  50.31000 24.22900 23.39100
H  49.80000 22.03700 23.30300
H  49.17100 22.28700 21.80700
H  48.10400 21.36700 22.80200
H  48.89300 25.20600 21.39700
H  49.88700 26.22600 22.48600
H  47.44400 27.01400 21.59300
H  48.37600 27.55500 22.99500
H  47.20100 26.22900 23.28500
H  51.74000 28.45300 25.30700
H  51.93000 29.40700 26.77400
H  50.49900 29.67200 25.74700
H  48.99700 28.54300 31.33400
H  50.89100 28.28500 35.13700
H  51.77000 29.57400 34.27400
H  52.26100 27.92900 34.13900
Mg 9.20000 47.56100 25.24700
C  6.94600 48.23300 27.87100
C  11.67700 49.09000 27.24700
C  11.23600 47.46500 22.65900
C  6.51400 46.88700 23.25900
N  9.35200 48.49500 27.36900
C  8.31700 48.47700 28.31500
C  8.78700 48.91400 29.71900
C  10.27800 49.39000 29.45500
C  10.46500 49.03000 27.97500
C  10.74000 50.79600 29.89100
C  8.54200 47.82300 30.80000
C  9.36000 47.73500 32.04100
H  8.77100 47.05100 33.29700
N  11.15000 48.06100 25.00800
C  12.00200 48.60600 25.95000
C  13.34100 48.66000 25.37400
C  13.25900 48.02500 24.15400
C  11.86300 47.83000 23.86900
C  14.64300 49.16000 26.11400
C  14.37800 47.71100 23.14500
O  14.17000 47.11700 22.10300
C  15.80900 48.17300 23.42000
N  8.95500 47.19300 23.23000
C  9.93200 47.10700 22.33800
C  9.49000 46.57300 20.97600
C  7.96100 46.28600 21.25600
C  7.77300 46.83500 22.63200
C  9.86600 47.54400 19.74300
C  7.49100 44.81400 21.11500
C  7.88700 43.76600 22.18600
N  7.12200 47.36000 25.53300
C  6.16500 47.20900 24.56400
C  4.85500 47.18100 25.19700
C  5.11000 47.52500 26.54300
C  6.52700 47.75700 26.66600
C  3.60100 46.80000 24.47500
C  4.50200 47.77100 27.82700
O  3.33500 47.69200 28.17400
C  5.61600 48.27700 28.71600
C  5.47100 47.42200 29.93900
O  5.96600 46.36400 30.08200
O  4.64500 48.13000 30.84500
C  4.65700 47.49800 32.18200
H  12.45100 49.36100 27.96900
H  11.84800 47.28500 21.77200
H  5.75200 46.74400 22.49000
H  8.24700 49.82300 29.98400
H  10.87500 48.72500 30.08000
H  9.94900 51.38600 30.35300
H  11.07100 51.34200 29.00700
H  11.52000 50.80800 30.65300
H  8.50900 46.83400 30.34200
H  7.61700 48.20100 31.23400
H  9.67700 48.71100 32.40900
H  10.25700 47.14900 31.84200
H  14.38400 49.73100 27.00500
H  15.30800 49.94600 25.75700
H  15.20100 48.27200 26.41100
H  16.07100 49.22500 23.53500
H  16.37400 47.80600 22.56300
H  16.21700 47.65300 24.28700
H  10.05800 45.64600 20.89500
H  7.36800 46.91900 20.59600
H  10.32400 48.41100 20.21900
H  9.01800 47.71600 19.07900
H  10.58900 47.10800 19.05400
H  7.86700 44.58500 20.11800
H  6.40400 44.76900 21.04000
H  8.47400 44.18800 23.00100
H  8.56200 43.01100 21.78300
H  6.94300 43.37100 22.56200
H  3.34300 45.75700 24.65600
H  3.76700 47.14700 23.45600
H  2.75800 47.34600 24.89900
H  5.39600 49.31100 28.98200
H  3.73500 47.80800 32.67400
H  5.53900 47.85400 32.71400
H  4.64000 46.41700 32.04200

