158

Mg 8.04400 3.02200 28.34500
C  9.61000 1.58800 31.15200
C  6.14600 4.97000 30.65400
C  6.53700 4.22300 25.86200
C  9.59900 0.66500 26.39100
N  7.84700 3.24200 30.68300
C  8.80000 2.64600 31.54100
C  8.62700 3.17600 33.00200
C  7.37000 4.04100 32.81800
C  7.08800 4.07000 31.28800
C  6.18900 3.66200 33.74900
C  9.84100 3.88600 33.43900
C  10.25700 3.75700 34.92500
H  9.10400 3.41500 35.86200
N  6.71000 4.49000 28.24700
C  6.01600 5.13800 29.21300
C  5.12500 6.14400 28.59100
C  5.20700 5.99700 27.24000
C  6.21400 4.87000 27.04800
C  4.22200 7.02700 29.37400
C  4.50200 6.71100 26.08100
O  4.71800 6.53000 24.89200
C  3.51000 7.72500 26.50300
N  8.01300 2.43800 26.37900
C  7.36200 3.15700 25.52900
C  7.36800 2.55200 24.06400
C  8.37100 1.42000 24.31200
C  8.72000 1.50300 25.73500
C  5.97700 2.14700 23.54000
C  9.53200 1.27100 23.38500
C  10.60000 2.39100 23.56600
N  9.28900 1.41100 28.66700
C  9.83600 0.57000 27.74000
C  10.78600 -0.36400 28.40500
C  10.72600 0.01500 29.72800
C  9.79200 1.11600 29.86300
C  11.47600 -1.52900 27.76600
C  11.25300 -0.25500 31.05400
O  12.02300 -1.11100 31.52400
C  10.52300 0.73600 32.02800
C  9.83300 -0.00800 33.07700
O  8.61400 -0.13700 33.13800
O  10.74300 -0.53900 33.97400
C  10.14100 -1.06400 35.19600
H  5.70700 5.77000 31.25300
H  6.07900 4.75800 25.02700
H  10.16800 -0.09400 25.85000
H  8.40800 2.30200 33.61400
H  7.63300 5.09700 32.88200
H  5.27100 3.51500 33.18000
H  6.10000 4.40400 34.54400
H  6.43400 2.68600 34.16600
H  9.75100 4.96400 33.30200
H  10.68600 3.62700 32.80100
H  10.75800 4.66400 35.26500
H  11.00700 2.97800 35.06100
H  4.29100 8.04300 28.98400
H  4.45300 7.19800 30.42500
H  3.21000 6.65400 29.21800
H  2.97800 8.02700 25.60100
H  3.89100 8.66500 26.90000
H  2.63800 7.51000 27.12100
H  7.71000 3.41400 23.49000
H  7.84500 0.46600 24.27200
H  5.94400 2.58400 22.54200
H  5.13200 2.46600 24.15100
H  6.01000 1.05900 23.48700
H  9.14500 1.26800 22.36600
H  9.87700 0.24300 23.49600
H  11.51400 1.99900 24.01300
H  10.08100 3.18700 24.10000
H  10.83400 2.81200 22.58800
H  12.48300 -1.28500 27.42700
H  10.97800 -1.98400 26.91000
H  11.37000 -2.40700 28.40400
H  11.21300 1.38400 32.56900
H  10.86700 -1.62500 35.78500
H  9.36700 -1.79000 34.94600
H  9.72400 -0.24700 35.78500
Mg 9.43100 48.77700 26.06900
C  7.32500 48.68100 28.84800
C  11.81000 50.14600 27.95200
C  11.09300 49.04600 23.32000
C  6.41600 48.10500 24.13600
N  9.35900 49.52800 28.12300
C  8.54200 49.22600 29.13800
C  9.03800 49.67300 30.50700
C  10.36100 50.31800 30.13700
C  10.60600 49.94600 28.63300
C  10.44900 51.84700 30.40200
C  9.22900 48.61800 31.66100
C  8.25500 48.86500 32.78200
H  8.80100 49.65100 33.96800
N  11.27100 49.36500 25.74900
C  12.18600 49.83700 26.62500
C  13.47900 49.76900 25.94800
C  13.27800 49.48200 24.55400
C  11.84700 49.30100 24.50400
C  14.73500 50.00200 26.75000
C  14.23000 49.38700 23.37200
O  13.87500 49.36100 22.17800
C  15.76300 49.56500 23.58400
N  8.81200 48.79100 24.04800
C  9.71300 48.90100 23.05000
C  9.20900 48.60100 21.63500
C  7.71100 48.17400 22.02900
C  7.61500 48.40700 23.50800
C  9.28300 49.73100 20.55800
C  7.29400 46.70000 21.57100
C  7.43100 45.55600 22.52400
N  7.28600 48.45400 26.39500
C  6.20300 48.17500 25.56600
C  5.03900 47.92800 26.29400
C  5.47300 48.06100 27.63800
C  6.81900 48.44000 27.60900
C  3.66200 47.53600 25.71600
C  4.94600 48.14600 28.99200
O  3.81100 47.94300 29.39900
C  6.20400 48.44800 29.86200
C  6.38200 47.15400 30.58500
O  7.07000 46.22500 30.17600
O  5.73800 47.08500 31.83500
C  6.04400 45.83300 32.59200
H  12.60200 50.57100 28.57200
H  11.62600 48.88800 22.38000
H  5.60400 47.71900 23.51600
H  8.32000 50.43900 30.80000
H  11.17400 49.94300 30.75800
H  9.65500 52.12100 31.09700
H  10.27100 52.37700 29.46600
H  11.44100 52.15700 30.72900
H  10.21500 48.55900 32.12200
H  8.99700 47.65300 31.20900
H  7.84600 47.91300 33.12200
H  7.38600 49.30700 32.29600
H  14.54500 49.80800 27.80600
H  15.01000 51.01900 26.47000
H  15.67200 49.48400 26.54300
H  15.86800 48.83700 24.38800
H  16.02200 50.58700 23.86300
H  16.33700 49.30900 22.69400
H  9.63500 47.71200 21.17000
H  6.98400 48.82800 21.55000
H  9.65300 50.68200 20.94100
H  8.27700 49.93500 20.19300
H  9.94500 49.41300 19.75200
H  7.63800 46.44000 20.56900
H  6.23100 46.79500 21.35300
H  8.18000 45.67500 23.30600
H  7.57900 44.66100 21.91900
H  6.45200 45.30800 22.93500
H  3.68900 47.19800 24.68000
H  3.04300 48.43300 25.69400
H  3.18400 46.85700 26.42200
H  6.00500 49.15600 30.66600
H  5.41500 45.06900 32.13600
H  5.69600 45.95300 33.61800
H  7.08000 45.50600 32.68400

