158

Mg 24.85800 49.89500 27.18900
C  22.95100 51.22100 29.89400
C  27.36700 49.38500 29.42700
C  26.95100 49.30700 24.62900
C  22.42400 51.10100 24.97700
N  25.07600 50.25300 29.34500
C  24.12400 50.63900 30.34000
C  24.64100 50.61900 31.77400
C  26.14200 50.04800 31.51500
C  26.23100 49.98400 29.97700
C  27.37300 50.78000 32.16200
C  23.82300 49.84800 32.85500
C  24.47300 49.62500 34.24000
H  23.88200 50.22300 35.61600
N  26.90300 49.34500 27.09900
C  27.64600 48.97800 28.14000
C  28.84700 48.34700 27.56400
C  28.80200 48.33200 26.14800
C  27.51200 49.04600 25.87000
C  29.90300 47.82700 28.47700
C  29.78600 47.93400 25.13500
O  29.71900 48.22500 23.98000
C  30.95500 47.09100 25.57400
N  24.68900 50.16100 25.11300
C  25.68800 49.87400 24.26700
C  25.46400 50.44200 22.89700
C  23.95200 50.85800 22.91800
C  23.63700 50.80000 24.40800
C  26.46500 51.63800 22.68700
C  23.04100 49.99900 21.96700
C  22.46700 48.63100 22.57600
N  23.01900 50.94500 27.34600
C  22.15200 51.34200 26.36200
C  21.04400 52.03900 26.97600
C  21.27200 51.96100 28.33300
C  22.48400 51.32500 28.54000
C  19.91400 52.66100 26.21200
C  20.77900 52.34400 29.59800
O  19.69700 52.89300 29.89000
C  21.89200 51.98900 30.61600
C  22.26000 53.30300 31.12900
O  22.64700 54.24300 30.53000
O  22.02500 53.30700 32.53500
C  22.18300 54.62300 33.25300
H  28.14900 49.05800 30.11600
H  27.47500 48.96200 23.73600
H  21.71500 51.44800 24.22200
H  24.80200 51.63400 32.13700
H  26.11300 49.03700 31.92300
H  27.99200 49.94900 32.50100
H  26.95200 51.35600 32.98700
H  27.92800 51.34600 31.41400
H  23.46600 48.93300 32.38200
H  22.90000 50.41500 32.98100
H  25.48200 50.02900 34.16100
H  24.39900 48.54100 34.33000
H  30.03900 46.81000 28.11000
H  29.66900 47.87100 29.54100
H  30.92600 48.17800 28.33900
H  30.64400 46.11700 25.95200
H  31.52600 47.69600 26.27900
H  31.64800 46.90500 24.75400
H  25.57400 49.60500 22.20800
H  23.86600 51.87800 22.54300
H  27.50800 51.38900 22.88000
H  26.06900 52.53200 23.16800
H  26.35500 51.77100 21.61000
H  23.69500 49.81500 21.11400
H  22.18600 50.63600 21.73900
H  22.93500 48.37700 23.52600
H  22.56200 47.84000 21.83200
H  21.39800 48.75700 22.75200
H  19.81900 52.41500 25.15500
H  20.05000 53.73900 26.30000
H  18.93800 52.44800 26.64800
H  21.44500 51.37300 31.39600
H  22.92200 55.17600 32.67400
H  22.58600 54.49100 34.25700
H  21.29900 55.25700 33.30700
Mg -5.02400 24.80900 26.70700
C  -3.76400 26.81600 29.44700
C  -6.01300 22.56400 29.18300
C  -6.16100 22.88900 24.16200
C  -3.39900 26.84400 24.50400
N  -4.90800 24.75600 29.10800
C  -4.51600 25.77900 29.97900
C  -5.07700 25.52600 31.38100
C  -5.57500 24.00900 31.31000
C  -5.56100 23.77900 29.82400
C  -4.61400 23.01400 32.11700
C  -6.19200 26.57500 31.84900
C  -5.97600 27.22100 33.21500
H  -6.96300 26.80400 34.25600
N  -5.96000 22.97000 26.64400
C  -6.29500 22.24400 27.77000
C  -6.83600 21.02300 27.26500
C  -6.83500 21.04200 25.84900
C  -6.35700 22.35700 25.45000
C  -7.42800 20.07200 28.13700
C  -7.30800 20.07200 24.75100
O  -7.38900 20.34200 23.53200
C  -7.59400 18.64300 25.22400
N  -4.99000 24.85400 24.65400
C  -5.54900 24.06700 23.74100
C  -5.24600 24.35100 22.31700
C  -4.32800 25.66800 22.43600
C  -4.24800 25.80500 23.95700
C  -4.56000 23.17200 21.57000
C  -4.88600 26.96700 21.75300
C  -3.99100 27.71300 20.79800
N  -3.91400 26.53400 26.86300
C  -3.27900 27.20200 25.85700
C  -2.55600 28.26500 26.41000
C  -2.68400 28.13800 27.77400
C  -3.54600 27.08900 28.06900
C  -1.71500 29.26300 25.55200
C  -2.37200 28.77400 29.02000
O  -1.63000 29.72500 29.25100
C  -3.02100 27.92400 30.20600
C  -1.88700 27.37900 31.06500
O  -0.77700 27.08900 30.63200
O  -2.27900 27.21300 32.35400
C  -1.26400 26.72400 33.32000
H  -6.30300 21.81000 29.91800
H  -6.40400 22.26900 23.29700
H  -2.76700 27.38300 23.79400
H  -4.28200 25.49800 32.12700
H  -6.56300 23.71300 31.66200
H  -4.18300 22.20900 31.52100
H  -5.19000 22.58200 32.93500
H  -3.80200 23.59300 32.55800
H  -7.17900 26.11100 31.84900
H  -6.22100 27.36200 31.09500
H  -5.98200 28.29700 33.04100
H  -5.02300 26.89800 33.63400
H  -8.44300 19.89800 27.77900
H  -7.45300 20.30600 29.20100
H  -6.87000 19.14900 27.97900
H  -7.86200 17.88000 24.49300
H  -8.39100 18.71700 25.96300
H  -6.62800 18.43400 25.68400
H  -6.25300 24.47600 21.92000
H  -3.33200 25.36500 22.11500
H  -4.00300 22.55700 22.27700
H  -3.92500 23.41600 20.71900
H  -5.37000 22.49400 21.29900
H  -5.11900 27.69100 22.53400
H  -5.81600 26.81700 21.20500
H  -3.60000 28.61500 21.26900
H  -4.47200 27.90400 19.83900
H  -3.15300 27.07700 20.51600
H  -2.20800 29.81100 24.75000
H  -0.81800 28.74900 25.20600
H  -1.47900 29.91900 26.39000
H  -3.68800 28.51000 30.83800
H  -0.31000 27.25000 33.27700
H  -1.22900 25.66400 33.06900
H  -1.76400 26.85200 34.27900

