158

Mg -2.07800 16.93300 27.41200
C  -2.31700 14.95000 30.37000
C  -2.34800 19.74400 29.31200
C  -1.78000 18.72100 24.60500
C  -1.41200 14.06200 25.65500
N  -2.41300 17.30700 29.61300
C  -2.30700 16.36100 30.56100
C  -2.47400 17.05000 31.94100
C  -2.45900 18.54700 31.62800
C  -2.31900 18.55100 30.11500
C  -3.62100 19.40000 32.25000
C  -1.45500 16.61600 33.00400
C  -1.08600 17.53800 34.16300
H  -0.67700 16.98800 35.49000
N  -2.23000 18.87900 26.95400
C  -2.30400 19.88600 27.88300
C  -2.24300 21.20400 27.23800
C  -2.10900 20.87100 25.83400
C  -2.05500 19.44800 25.72000
C  -2.22700 22.48500 27.97200
C  -2.05400 21.82300 24.58500
O  -2.14800 21.51200 23.34600
C  -1.76100 23.33400 24.89200
N  -1.66100 16.48800 25.41600
C  -1.62800 17.40900 24.40500
C  -1.35300 16.73300 23.06800
C  -0.95500 15.27300 23.49800
C  -1.38500 15.22900 24.93100
C  -2.65000 16.76900 22.13700
C  0.55200 14.85400 23.23100
C  1.62500 15.86600 23.62300
N  -1.99800 14.90800 27.88000
C  -1.75700 13.84500 27.01400
C  -1.82000 12.60400 27.74500
C  -2.02300 12.97300 29.08500
C  -2.09900 14.39500 29.08700
C  -1.96000 11.23700 27.17600
C  -2.35500 12.48400 30.40400
O  -2.46800 11.28400 30.72100
C  -2.28600 13.75400 31.30900
C  -0.92600 13.59700 31.98200
O  0.17300 13.74000 31.53500
O  -1.28800 13.20000 33.22600
C  -0.29200 13.50900 34.22800
H  -2.30700 20.62500 29.95700
H  -1.68600 19.30000 23.68400
H  -1.21900 13.10600 25.16500
H  -3.44600 16.74200 32.32500
H  -1.51600 18.96700 31.97700
H  -4.38000 18.67100 32.53300
H  -4.15400 19.95500 31.47800
H  -3.37500 20.08300 33.06300
H  -0.48900 16.30500 32.60800
H  -1.98200 15.81700 33.52600
H  -2.01800 18.08800 34.29700
H  -0.25100 18.18900 33.90400
H  -2.08400 22.46800 29.05200
H  -3.14300 23.04400 27.78200
H  -1.42500 23.12800 27.60800
H  -2.02500 23.97900 24.05400
H  -0.67300 23.30100 24.94800
H  -2.21400 23.76900 25.78200
H  -0.46400 17.14800 22.59200
H  -1.53400 14.50700 22.98200
H  -3.35400 17.36400 22.71900
H  -3.04500 15.77800 21.91100
H  -2.50100 17.32800 21.21400
H  0.69400 14.50900 22.20700
H  0.56900 13.92500 23.80100
H  2.13800 16.12000 22.69600
H  2.27500 15.41300 24.37200
H  1.21200 16.79000 24.02700
H  -3.03000 11.02900 27.16300
H  -1.48900 10.55600 27.88400
H  -1.47400 11.17000 26.20300
H  -3.05800 13.80400 32.07700
H  0.29500 14.36900 33.90700
H  0.41300 12.72300 34.49900
H  -0.85300 13.79700 35.11700
Mg 8.38900 2.91200 27.95700
C  9.83100 1.66900 30.80100
C  6.27800 4.82500 29.93700
C  6.67000 3.69300 25.12100
C  9.96400 0.22000 26.11400
N  8.10200 3.20700 30.14000
C  8.97500 2.71200 31.08200
C  8.65500 3.36800 32.41400
C  7.33400 4.16300 32.17400
C  7.24200 4.12000 30.63000
C  6.11400 3.58600 32.89000
C  9.97600 4.11700 32.96300
C  10.72600 3.50600 34.24800
H  11.03700 4.48700 35.46200
N  6.71600 4.16600 27.56600
C  6.03200 4.85300 28.51700
C  5.11600 5.79600 27.73900
C  5.29200 5.50400 26.36400
C  6.21500 4.37900 26.29900
C  4.18600 6.82300 28.43300
C  4.74900 6.23500 25.16100
O  4.96100 5.97200 23.96800
C  3.82100 7.37900 25.36100
N  8.35800 2.06700 25.93000
C  7.57900 2.61800 24.94900
C  7.62200 1.90400 23.60000
C  8.78300 0.81400 23.86500
C  9.07300 1.01000 25.39200
C  6.21400 1.25500 23.28600
C  10.09700 0.97000 23.01000
C  10.33200 -0.14600 22.02500
N  9.72600 1.34300 28.27800
C  10.32800 0.38100 27.51300
C  11.23500 -0.40600 28.25200
C  11.07900 0.11700 29.58200
C  10.10600 1.14200 29.49900
C  11.95400 -1.55000 27.84600
C  11.48200 -0.07900 30.95000
O  12.23100 -0.97700 31.36300
C  10.76400 1.01600 31.76500
C  10.02800 0.39400 32.90500
O  8.89600 -0.11500 32.89400
O  10.76200 0.43300 34.07800
C  10.10200 0.03500 35.34900
H  5.70200 5.54200 30.52600
H  6.29200 4.13300 24.19500
H  10.36000 -0.61000 25.52600
H  8.46100 2.57200 33.13200
H  7.50800 5.18600 32.50700
H  6.07100 2.61100 33.37600
H  5.39800 3.58600 32.06800
H  5.80900 4.32600 33.63000
H  9.64300 5.10200 33.29200
H  10.71600 4.16800 32.16500
H  11.53200 2.80500 34.03300
H  10.00300 2.78900 34.63800
H  4.59300 7.82400 28.57300
H  4.12600 6.51000 29.47500
H  3.20700 6.80800 27.95400
H  2.89600 7.03700 25.82500
H  3.60700 7.85100 24.40300
H  4.22100 8.11100 26.06300
H  8.01200 2.66200 22.92000
H  8.41400 -0.19800 23.70000
H  5.75000 1.95700 22.59300
H  5.50000 1.05700 24.08500
H  6.38000 0.33700 22.72300
H  10.99600 1.18300 23.58900
H  10.06600 1.87200 22.39900
H  10.89500 0.17000 21.14700
H  9.34600 -0.49200 21.71600
H  11.03900 -0.89300 22.38700
H  12.21200 -1.51300 26.78800
H  11.49400 -2.47300 28.19800
H  12.93900 -1.65000 28.30300
H  11.42100 1.76200 32.21300
H  9.83600 -1.01700 35.25100
H  9.14700 0.54400 35.47800
H  10.70400 0.19000 36.24500

