158

Mg 44.58400 5.45300 47.88300
C  42.35700 8.06600 47.38400
C  42.12200 3.27000 46.91900
C  46.92400 2.87000 47.57400
C  47.25600 7.70600 47.75500
N  42.52500 5.67500 47.07500
C  41.77600 6.81000 47.08000
C  40.35300 6.54300 46.67900
C  40.18300 5.04300 46.62100
C  41.67500 4.61100 46.78000
C  39.13300 4.53200 47.71700
C  39.90100 7.23500 45.33000
C  38.45600 7.50900 45.27200
H  37.75400 6.97500 43.99800
N  44.51300 3.25800 47.52800
C  43.36100 2.65500 47.17400
C  43.71100 1.18300 47.08400
C  45.11700 1.08500 47.09200
C  45.57500 2.44600 47.40200
C  42.73900 0.08500 46.95400
C  45.95400 -0.25400 46.96500
O  45.35400 -1.31100 46.91600
C  47.50000 -0.30400 46.91600
N  46.78200 5.28900 47.64400
C  47.47000 4.10400 47.81100
C  49.00800 4.34600 48.11100
C  48.98800 5.89300 48.32000
C  47.59500 6.33200 47.83400
C  49.57300 3.53800 49.40000
C  50.12500 6.70000 47.67800
C  50.99800 7.51700 48.62400
N  44.80000 7.53800 47.75000
C  45.95200 8.33700 47.77900
C  45.52900 9.77000 47.68100
C  44.13500 9.65800 47.65900
C  43.74700 8.31700 47.63700
C  46.50600 10.84100 47.66200
C  42.89500 10.44600 47.72100
O  42.67500 11.62700 47.77500
C  41.65600 9.36900 47.54300
C  40.84200 9.51600 48.72200
O  41.24500 9.09300 49.80700
O  39.71900 10.13700 48.49700
C  38.91000 10.45100 49.73100
H  41.32000 2.57000 46.67300
H  47.78100 2.25600 47.28900
H  48.04800 8.45800 47.77100
H  39.77900 6.96100 47.50600
H  39.73900 4.58000 45.74000
H  38.30000 5.21700 47.87600
H  39.55800 4.38800 48.71100
H  38.58200 3.64500 47.40700
H  40.18500 6.50400 44.57400
H  40.44500 8.15400 45.11000
H  38.18400 8.55600 45.40500
H  37.92400 6.98600 46.06700
H  42.90900 -0.53100 47.83700
H  42.98000 -0.65600 46.19300
H  41.74900 0.52900 46.84400
H  47.66400 -1.36600 46.73100
H  47.89900 -0.06500 47.90200
H  47.74300 0.28900 46.03500
H  49.61000 4.07800 47.24400
H  48.83700 5.94300 49.39900
H  48.81700 2.92600 49.89100
H  50.11700 4.14600 50.12300
H  50.39100 2.96500 48.96200
H  49.71200 7.23700 46.82300
H  50.88500 6.11700 47.15800
H  50.59000 7.49800 49.63500
H  50.99100 8.58700 48.41600
H  51.99200 7.07800 48.70100
H  47.14200 10.62500 48.52000
H  46.02400 11.81100 47.78000
H  46.97900 10.71500 46.68800
H  41.00800 9.60800 46.70000
H  39.01500 9.76000 50.56800
H  37.85700 10.54900 49.46700
H  39.13500 11.46300 50.06700
Mg -1.21600 35.36800 26.80000
C  -2.98300 33.79200 29.39000
C  -0.09600 37.68800 29.12400
C  0.45500 36.86100 24.45800
C  -2.49500 32.96100 24.58500
N  -1.55900 35.68200 28.95900
C  -2.19000 34.88200 29.83400
C  -2.00900 35.26200 31.29700
C  -1.36200 36.68400 31.15800
C  -0.95100 36.67300 29.62700
C  -2.24100 37.83500 31.59500
C  -1.10100 34.19500 31.99200
C  -0.67100 34.58800 33.41300
H  -0.57800 33.64100 34.63300
N  -0.03800 37.13000 26.78900
C  0.26000 37.94100 27.81600
C  1.10700 38.99200 27.30100
C  1.07900 38.91700 25.88900
C  0.47200 37.62700 25.64600
C  1.71600 39.93300 28.23600
C  1.78600 39.85900 24.90300
O  1.98800 39.44800 23.78700
C  2.39300 41.10100 25.35900
N  -1.16600 35.01000 24.81700
C  -0.15700 35.67900 24.07700
C  -0.18600 35.23600 22.62300
C  -1.01300 33.91800 22.73300
C  -1.64800 33.94400 24.11500
C  -0.81700 36.20400 21.65000
C  -0.07000 32.61900 22.54700
C  0.91200 32.23900 23.68300
N  -2.60200 33.66100 26.87200
C  -3.00600 32.84500 25.88200
C  -4.04500 31.98400 26.44000
C  -3.96500 32.26800 27.84400
C  -3.14300 33.33400 28.04800
C  -4.99800 31.05400 25.75400
C  -4.45300 31.85200 29.13600
O  -5.19500 30.92000 29.43500
C  -3.87200 32.85100 30.21300
C  -5.01600 33.61800 30.78400
O  -5.76100 34.40700 30.19500
O  -5.25000 33.17800 32.10600
C  -6.46300 33.66000 32.77700
H  0.30300 38.20600 29.99900
H  1.11300 37.15100 23.63500
H  -2.84100 32.23200 23.84900
H  -2.98500 35.32300 31.77800
H  -0.42200 36.86500 31.67800
H  -1.87200 38.28700 32.51600
H  -3.26000 37.51500 31.81400
H  -2.43800 38.53900 30.78700
H  -0.32000 33.88700 31.29700
H  -1.74300 33.33100 32.16600
H  -1.22100 35.43100 33.83200
H  0.29600 35.05600 33.22300
H  1.54400 39.78500 29.30300
H  1.69800 40.97200 27.90700
H  2.75400 39.76400 27.94900
H  3.12900 41.50300 24.66200
H  3.07800 40.99500 26.20100
H  1.63600 41.87300 25.49600
H  0.86700 35.07000 22.39300
H  -1.75300 33.86300 21.93400
H  -1.81100 35.93300 21.29500
H  -0.10300 36.44600 20.86300
H  -0.96600 37.12700 22.21100
H  0.60100 32.84500 21.71800
H  -0.80600 31.83800 22.36000
H  0.80600 31.15500 23.73400
H  0.66400 32.67100 24.65300
H  1.93000 32.44100 23.35200
H  -4.71400 30.07800 26.14800
H  -4.85100 30.96900 24.67700
H  -5.98200 31.43200 26.03100
H  -3.34300 32.30500 30.99500
H  -6.83700 32.76800 33.28000
H  -7.31600 33.87500 32.13300
H  -6.31900 34.33800 33.61800

