158

Mg 47.93000 15.75300 28.26100
C  46.14400 15.63000 31.16400
C  50.54300 17.23500 30.00800
C  49.51900 15.82100 25.44900
C  45.23100 14.24300 26.59600
N  48.16100 16.61600 30.32800
C  47.35800 16.28800 31.40000
C  47.97800 16.78400 32.70100
C  49.19100 17.66900 32.25000
C  49.38700 17.14700 30.78900
C  49.16200 19.27400 32.43100
C  48.32100 15.69200 33.69700
C  47.70000 15.82700 35.06600
H  47.51500 17.24800 35.77500
N  49.76900 16.53500 27.76300
C  50.72100 16.99000 28.59000
C  52.02000 17.11700 27.85200
C  51.72300 16.63400 26.53400
C  50.31700 16.34500 26.48500
C  53.30800 17.73900 28.40400
C  52.61400 16.55300 25.27700
O  52.20400 16.26800 24.13900
C  54.07000 16.77400 25.50200
N  47.31100 15.30400 26.21400
C  48.28000 15.30000 25.25800
C  47.80200 14.77300 23.86200
C  46.52200 13.90800 24.45800
C  46.28500 14.54400 25.85000
C  47.54200 15.79700 22.76400
C  46.86200 12.39900 24.56300
C  46.51400 11.53900 23.34800
N  45.98000 15.08900 28.72100
C  44.93100 14.55400 27.96900
C  43.87600 14.14300 28.82700
C  44.22700 14.49700 30.09200
C  45.48900 15.17700 29.97400
C  42.62100 13.43100 28.40700
C  43.91700 14.51900 31.49800
O  42.98500 14.08900 32.20700
C  45.12100 15.23900 32.19300
C  44.46200 16.46600 32.75900
O  44.54100 17.59200 32.32400
O  43.88500 16.06100 33.98100
C  43.17100 17.06900 34.71400
H  51.39200 17.63200 30.56900
H  50.09700 15.70800 24.52900
H  44.47900 13.64800 26.07500
H  47.28600 17.50000 33.14400
H  50.08000 17.44400 32.83900
H  49.18300 19.70600 31.43000
H  50.12900 19.61800 32.79800
H  48.31900 19.60400 33.03800
H  49.40100 15.66700 33.83800
H  47.81600 14.76900 33.41000
H  48.35600 15.23100 35.70100
H  46.78600 15.23400 35.03400
H  54.04600 16.99400 28.70100
H  53.18100 18.41000 29.25400
H  53.92200 18.38500 27.77800
H  54.27800 17.83900 25.40600
H  54.53600 16.30000 24.63900
H  54.47000 16.25800 26.37500
H  48.58600 14.22200 23.34300
H  45.68200 14.02400 23.77300
H  47.70500 16.82800 23.07800
H  46.48400 15.79600 22.50100
H  47.98400 15.53200 21.80400
H  46.23500 11.96800 25.34400
H  47.92500 12.29000 24.77600
H  45.59600 11.82800 22.83600
H  46.53700 10.48500 23.62300
H  47.24400 11.61800 22.54100
H  42.84000 12.71900 27.61100
H  41.94300 14.12600 27.91200
H  42.14700 13.01400 29.29500
H  45.41200 14.53300 32.97000
H  43.60500 18.06700 34.65100
H  43.22800 16.82500 35.77500
H  42.11700 17.04500 34.43900
Mg -10.37300 17.43700 40.58200
C  -6.97300 17.03200 40.82900
C  -9.86700 20.87600 39.88300
C  -13.57500 17.64600 39.50300
C  -10.52900 13.88100 40.28400
N  -8.55900 18.80800 40.39700
C  -7.30600 18.41800 40.63400
C  -6.36300 19.61200 40.48100
C  -7.37500 20.87400 40.58800
C  -8.64800 20.17800 40.27000
C  -7.40000 21.61800 41.99900
C  -5.82500 19.52200 38.93000
C  -4.32300 19.39600 38.75800
H  -3.88500 18.59600 37.58300
N  -11.54500 19.07700 40.07000
C  -11.20000 20.38800 39.75400
C  -12.27400 21.02300 39.20900
C  -13.43600 20.18400 39.39800
C  -12.87900 18.85700 39.63400
C  -12.30700 22.48400 38.74800
C  -14.88000 20.71200 39.40100
O  -15.17900 21.89200 39.07100
C  -16.03700 19.82100 39.75000
N  -11.72400 16.03300 39.89300
C  -12.98700 16.33800 39.64000
C  -13.83600 15.03700 39.28700
C  -12.89600 13.85400 39.50200
C  -11.62200 14.61700 39.90400
C  -15.09300 15.00100 40.20500
C  -12.59500 13.04400 38.21600
C  -13.83400 12.53400 37.48700
N  -9.10700 15.68200 40.70800
C  -9.32300 14.34000 40.55800
C  -8.03800 13.61900 40.86500
C  -7.02900 14.69500 40.94900
C  -7.75600 15.89300 40.91600
C  -7.73100 12.13800 40.86000
C  -5.61100 14.91700 41.11400
O  -4.70200 14.13800 41.28800
C  -5.55600 16.51900 41.03500
C  -4.94400 16.99900 42.27600
O  -4.10600 17.89400 42.30500
O  -5.39600 16.31800 43.37300
C  -4.77100 16.72600 44.67700
H  -9.77000 21.95200 39.72400
H  -14.62100 17.66600 39.18900
H  -10.77400 12.81700 40.30100
H  -5.57600 19.62600 41.23500
H  -7.23700 21.60200 39.78900
H  -6.50300 21.23400 42.48400
H  -8.30200 21.22100 42.46400
H  -7.33800 22.70400 41.93100
H  -6.03100 20.44800 38.39400
H  -6.34400 18.70300 38.43200
H  -3.78200 19.20500 39.68500
H  -3.97300 20.40800 38.55800
H  -12.97100 22.63600 37.89700
H  -11.33000 22.76100 38.35200
H  -12.54600 23.20100 39.53300
H  -16.89800 20.40200 40.07900
H  -15.72700 19.05800 40.46500
H  -16.35300 19.39500 38.79800
H  -14.09100 15.15600 38.23400
H  -13.25300 13.14300 40.24600
H  -15.15700 15.95400 40.72900
H  -15.02700 14.23900 40.98200
H  -15.99300 14.87300 39.60300
H  -12.03800 12.19000 38.60000
H  -11.90000 13.56500 37.55700
H  -14.71700 12.96200 37.96200
H  -13.80300 11.44600 37.42600
H  -13.82400 12.90300 36.46200
H  -6.81300 11.98800 41.42900
H  -7.54200 11.89700 39.81400
H  -8.62500 11.58800 41.15300
H  -4.86900 16.82700 40.24700
H  -5.37200 17.52800 45.10600
H  -3.76800 17.12000 44.51000
H  -4.72600 15.88600 45.37000

