158

Mg 48.61100 44.90300 42.95000
C  45.18900 45.15600 41.77000
C  48.42200 41.53500 42.39800
C  51.97500 44.79300 43.30500
C  48.74200 48.30400 42.99100
N  46.88300 43.46400 42.15600
C  45.63500 43.76700 41.79000
C  44.88300 42.52100 41.32300
C  45.92900 41.33600 41.68900
C  47.15700 42.15100 42.13400
C  45.49500 40.31700 42.77500
C  44.38500 42.57300 39.89800
C  45.08800 43.50300 38.80500
H  45.49700 42.77500 37.41800
N  49.99300 43.37600 42.89300
C  49.69200 42.07400 42.71000
C  50.85400 41.34000 42.80500
C  51.92600 42.19500 43.08000
C  51.36300 43.54400 43.10800
C  50.92100 39.87700 42.60900
C  53.37400 41.76300 43.24700
O  53.78400 40.60000 43.14300
C  54.42200 42.70800 43.61900
N  50.21300 46.35500 43.09700
C  51.49700 46.06700 43.27400
C  52.32100 47.38300 43.28900
C  51.23800 48.51700 43.22300
C  49.93300 47.68200 43.06600
C  53.30100 47.46100 44.41500
C  51.38300 49.51600 42.05500
C  51.02200 50.97200 42.26600
N  47.10700 46.44600 42.73100
C  47.42200 47.81300 42.73200
C  46.27800 48.55800 42.34500
C  45.32000 47.54200 41.96600
C  45.93900 46.29500 42.22500
C  46.07500 50.06300 42.21200
C  44.04400 47.27700 41.37800
O  43.18300 48.05200 40.95400
C  43.92200 45.71700 41.15100
C  42.68900 45.25700 41.80900
O  41.84200 44.56700 41.26300
O  42.53300 45.78800 43.04300
C  41.12300 45.79500 43.67200
H  48.35000 40.46500 42.19300
H  53.04500 44.62400 43.16600
H  48.76000 49.39200 43.07900
H  44.02200 42.47700 41.99000
H  46.08100 40.75900 40.77700
H  45.27700 39.35900 42.30300
H  44.56100 40.53600 43.29200
H  46.28500 40.11700 43.50000
H  43.33500 42.86600 39.88800
H  44.40800 41.55200 39.51800
H  45.90500 43.99700 39.33200
H  44.30700 44.13200 38.37900
H  51.61700 39.43200 43.32000
H  51.38400 39.66000 41.64600
H  49.98100 39.32700 42.65100
H  55.32100 42.16300 43.90700
H  54.05900 43.36100 44.41300
H  54.66900 43.37300 42.79200
H  52.92800 47.45100 42.38700
H  51.26900 49.09400 44.14700
H  53.10700 46.74700 45.21600
H  53.39000 48.48800 44.76900
H  54.26200 47.13400 44.01800
H  50.74700 49.20200 41.22800
H  52.39100 49.66600 41.66800
H  51.71800 51.60700 41.71800
H  51.03800 51.28800 43.30900
H  50.09600 51.21300 41.74400
H  46.39200 50.59800 43.10700
H  45.04600 50.42500 42.20800
H  46.65100 50.31000 41.32000
H  43.84500 45.51800 40.08300
H  40.41100 46.35700 43.06800
H  41.16500 46.37900 44.59200
H  40.80200 44.76000 43.78900
Mg 48.07800 34.32800 27.58700
C  46.20200 32.92400 30.15000
C  48.09400 37.35200 29.36300
C  49.24400 36.01800 24.84200
C  47.55400 31.50800 25.61600
N  47.41700 34.96400 29.50100
C  46.85200 34.11300 30.40400
C  46.92700 34.75400 31.76700
C  47.10000 36.28300 31.45200
C  47.58000 36.21700 30.03700
C  45.71400 37.03300 31.67700
C  48.16700 34.28500 32.47400
C  48.50400 34.72800 33.91200
H  47.37500 35.40600 34.71200
N  48.76200 36.37100 27.23200
C  48.65800 37.39200 28.12800
C  49.32900 38.49500 27.51300
C  49.70800 38.16600 26.19400
C  49.23500 36.81600 26.06700
C  49.61300 39.79400 28.26200
C  50.50400 39.06700 25.18400
O  50.74300 38.67100 24.01600
C  51.00000 40.45600 25.61800
N  48.32300 33.83400 25.43300
C  48.79700 34.68300 24.53900
C  48.94900 33.97700 23.12000
C  48.77900 32.43100 23.54500
C  48.21100 32.57900 24.92200
C  47.90700 34.41700 22.12600
C  50.00700 31.51100 23.50800
C  50.87100 31.72600 24.72800
N  47.17300 32.54500 27.84000
C  46.96200 31.50000 26.94600
C  46.24700 30.42600 27.58200
C  45.77600 30.96700 28.84800
C  46.42800 32.24200 28.92800
C  45.86400 29.14000 26.97700
C  44.96500 30.75300 30.05500
O  44.26700 29.82500 30.44000
C  45.11600 32.08900 30.92400
C  45.46200 31.53700 32.30800
O  46.45800 30.90500 32.67900
O  44.37900 31.79700 33.10300
C  44.57200 31.45000 34.53400
H  48.25100 38.21900 30.00800
H  49.70200 36.43500 23.94200
H  47.36100 30.56000 25.11000
H  45.99000 34.54100 32.28200
H  47.84700 36.73500 32.10400
H  44.86200 36.38500 31.88200
H  45.51400 37.55600 30.74200
H  45.80600 37.77600 32.46900
H  49.03900 34.49000 31.85300
H  48.20400 33.19900 32.38200
H  49.40300 35.34400 33.89400
H  48.63600 33.79900 34.46600
H  49.36200 40.61800 27.59400
H  50.63300 39.77300 28.64700
H  48.91800 39.88300 29.09700
H  51.55700 40.53600 26.55100
H  50.15500 41.13600 25.50700
H  51.65600 41.00500 24.94300
H  49.95700 34.10600 22.72600
H  48.00900 31.96900 22.92700
H  47.25100 35.16800 22.56500
H  47.30500 33.66600 21.61300
H  48.46800 35.02100 21.41200
H  50.66300 31.79200 22.68400
H  49.74600 30.45300 23.47900
H  51.27200 32.74000 24.75200
H  51.73700 31.12000 24.46100
H  50.57400 31.33500 25.70100
H  44.77400 29.14100 26.95800
H  46.23900 28.35700 27.63700
H  46.34700 28.91400 26.02700
H  44.17000 32.62900 30.96300
H  45.00800 32.20900 35.18400
H  44.98500 30.45400 34.69100
H  43.60600 31.27900 35.00900

