158

Mg -1.81400 17.17400 26.21400
C  -1.93500 14.82000 28.65900
C  -1.96500 19.80000 28.45700
C  -1.79700 19.39800 23.66100
C  -2.10900 14.57800 23.85500
N  -2.06000 17.27500 28.27500
C  -1.98900 16.16200 29.10300
C  -1.98100 16.68800 30.61500
C  -2.18600 18.25200 30.47800
C  -2.03300 18.49400 28.97400
C  -3.45900 18.74200 31.14600
C  -0.76500 16.24700 31.61500
C  -0.43100 17.15300 32.75800
H  -0.28800 16.62800 34.19000
N  -1.88600 19.33600 26.08900
C  -1.96900 20.21900 27.09400
C  -2.06200 21.52200 26.59500
C  -2.03100 21.45100 25.11700
C  -1.86600 20.02300 24.88900
C  -2.29500 22.70700 27.59300
C  -2.18600 22.47400 24.05100
O  -2.28400 22.25100 22.88100
C  -2.25600 23.84100 24.52200
N  -2.08100 17.07000 24.05000
C  -1.89100 18.12900 23.23200
C  -1.83600 17.76300 21.71800
C  -1.79000 16.16100 21.87900
C  -2.00700 15.88600 23.34600
C  -3.04100 18.24800 20.96400
C  -0.49100 15.54500 21.34000
C  -0.56400 14.77000 20.05700
N  -1.97500 15.16000 26.25600
C  -2.07300 14.21600 25.22700
C  -2.18100 12.87500 25.78200
C  -2.03300 13.05400 27.17700
C  -1.88500 14.42300 27.37100
C  -2.53600 11.74300 24.94900
C  -2.10400 12.32600 28.38700
O  -2.00000 11.13700 28.66500
C  -2.10700 13.54800 29.50700
C  -0.99500 13.32000 30.46000
O  0.19900 13.47200 30.17000
O  -1.51900 12.73600 31.60000
C  -0.55100 12.24000 32.54000
H  -1.98500 20.56200 29.23900
H  -1.62500 20.00700 22.77200
H  -2.06400 13.77600 23.11600
H  -2.90600 16.30300 31.04400
H  -1.38400 18.80800 30.96300
H  -4.19600 17.98500 31.41400
H  -3.92400 19.37400 30.39000
H  -3.19400 19.33700 32.02000
H  0.20200 16.13100 31.12400
H  -1.17700 15.35200 32.08100
H  -1.31900 17.77400 32.88200
H  0.44900 17.77900 32.60900
H  -2.74900 22.48400 28.55800
H  -2.83800 23.59000 27.25800
H  -1.33000 23.13900 27.85800
H  -3.13600 23.98500 25.14900
H  -2.43500 24.36700 23.58400
H  -1.34200 24.11800 25.04800
H  -0.98800 18.22500 21.21200
H  -2.55400 15.65900 21.28500
H  -3.80200 18.68900 21.60700
H  -3.51100 17.37600 20.50900
H  -2.83500 18.98700 20.18900
H  0.10100 14.99300 22.07100
H  0.26400 16.32200 21.22000
H  -0.08600 15.48000 19.38200
H  -1.59600 14.55900 19.77900
H  0.02000 13.86100 20.19900
H  -1.75200 11.04100 24.66600
H  -3.07400 12.02700 24.04500
H  -3.16900 11.16800 25.62400
H  -3.07800 13.60500 30.00000
H  -0.28600 11.23000 32.22800
H  -1.03400 12.35600 33.51000
H  0.36000 12.83400 32.61600
Mg 2.13500 -0.25400 42.89600
C  5.66100 -0.03800 42.61400
C  1.82700 2.53400 40.93200
C  -1.08100 -0.98800 42.41800
C  2.67400 -3.46000 44.23600
N  3.55700 1.09500 41.87800
C  4.98300 1.03200 41.91800
C  5.57300 2.12700 41.06500
C  4.36800 3.12300 40.89700
C  3.20100 2.20100 41.18200
C  4.39500 4.37100 41.90500
C  6.04200 1.58500 39.67200
C  7.46300 2.06200 39.23800
H  7.55500 2.52200 37.77500
N  0.54200 0.69500 41.97000
C  0.64800 1.85000 41.23400
C  -0.70900 2.20000 40.83600
C  -1.59900 1.32600 41.38900
C  -0.74500 0.25900 41.93500
C  -1.04200 3.57100 40.03200
C  -3.21900 1.46400 41.41200
O  -3.75200 2.38100 40.87200
C  -4.07500 0.39500 42.00600
N  0.96200 -2.07400 43.14200
C  -0.36700 -2.04300 43.00100
C  -0.98000 -3.32400 43.52500
C  0.11700 -4.02200 44.31700
C  1.34800 -3.18100 43.85700
C  -2.26200 -3.08400 44.42200
C  0.41800 -5.54100 43.97500
C  -0.28200 -6.57300 44.87400
N  3.77600 -1.47300 43.47200
C  3.78000 -2.73200 43.96500
C  5.21400 -3.22800 44.06700
C  5.98100 -2.13800 43.58800
C  5.04500 -1.13700 43.26200
C  5.71500 -4.58700 44.61200
C  7.28300 -1.68700 43.35400
O  8.34000 -2.31900 43.52900
C  7.14100 -0.29200 42.67900
C  7.80100 0.76500 43.54800
O  7.71500 0.82600 44.76300
O  8.59000 1.65000 42.77700
C  9.11400 2.85800 43.42400
H  1.71000 3.43000 40.31800
H  -2.14000 -1.23300 42.31600
H  2.84500 -4.39000 44.78200
H  6.33400 2.70100 41.59300
H  4.22800 3.50500 39.88600
H  5.44900 4.64200 41.95500
H  3.97200 3.96100 42.82300
H  3.83800 5.23900 41.55300
H  5.28400 1.80500 38.92000
H  5.99200 0.49800 39.73300
H  8.25800 1.34100 39.42900
H  7.75900 2.91800 39.84600
H  -0.17500 4.04600 39.57300
H  -1.44600 4.22200 40.80700
H  -1.79400 3.55100 39.24300
H  -5.13900 0.54100 41.82200
H  -3.86500 0.29200 43.07100
H  -3.91600 -0.58200 41.55100
H  -1.33600 -3.84100 42.63400
H  0.13000 -3.73000 45.36700
H  -2.29500 -2.01400 44.62600
H  -2.15400 -3.63800 45.35500
H  -3.13900 -3.42200 43.87100
H  1.46800 -5.83300 43.96900
H  0.05100 -5.72200 42.96500
H  -1.06900 -5.97600 45.33600
H  0.31900 -7.05300 45.64700
H  -0.80500 -7.29500 44.24800
H  4.98500 -5.29600 45.00200
H  6.44400 -4.42300 45.40600
H  6.26800 -5.08000 43.81200
H  7.69100 -0.33200 41.73900
H  8.61200 3.72000 42.98400
H  10.15600 2.95500 43.11800
H  9.10700 2.78200 44.51100

