158

Mg 46.82600 16.65200 28.38300
C  44.51400 16.33500 31.18600
C  48.71000 18.51700 30.30900
C  48.56100 17.18900 25.58800
C  44.23100 15.21200 26.47100
N  46.69300 17.17500 30.57700
C  45.70200 16.98000 31.54700
C  46.31000 17.23400 32.96500
C  47.55300 18.12500 32.60500
C  47.62200 17.98500 31.06800
C  47.57200 19.71000 33.06300
C  46.53300 15.89200 33.76900
C  46.08700 15.97700 35.21000
H  45.61300 17.27900 35.94200
N  48.39900 17.67500 27.99100
C  49.05500 18.51000 28.91400
C  50.17300 19.09200 28.22900
C  50.14000 18.62800 26.87400
C  49.02500 17.76800 26.75200
C  51.16200 20.00500 28.98300
C  51.13600 18.94900 25.77000
O  50.91000 18.69600 24.55400
C  52.37100 19.78100 26.05700
N  46.40900 16.25900 26.30200
C  47.36000 16.51800 25.41000
C  46.97100 15.96300 24.00900
C  45.60000 15.15600 24.31900
C  45.42800 15.45800 25.77600
C  46.81800 17.09900 22.99500
C  45.59200 13.64500 23.84300
C  45.76300 13.31100 22.35700
N  44.80300 15.99000 28.72300
C  43.93300 15.42300 27.82900
C  42.68200 14.97700 28.47500
C  42.93800 15.37400 29.80000
C  44.15400 15.97200 29.87300
C  41.54500 14.24200 27.88300
C  42.38300 15.32700 31.12500
O  41.30600 14.93800 31.56300
C  43.36100 16.07300 32.08500
C  42.67300 17.28600 32.49500
O  42.46800 18.29500 31.85200
O  42.19900 16.97700 33.74600
C  41.54100 18.04600 34.38800
H  49.41600 19.09900 30.90400
H  49.13300 17.12700 24.65900
H  43.50700 14.64000 25.88700
H  45.61700 17.92000 33.45200
H  48.39900 17.71000 33.15400
H  47.51000 20.43100 32.24800
H  48.52800 19.92500 33.54200
H  46.86900 19.94300 33.86300
H  47.60000 15.67300 33.81200
H  46.05400 15.03700 33.29000
H  46.81100 15.57100 35.91600
H  45.21800 15.32100 35.16200
H  52.13400 19.55200 29.18000
H  50.71100 20.32800 29.92200
H  51.26400 20.99300 28.53400
H  52.07800 20.76500 26.42200
H  52.95200 19.91100 25.14400
H  52.94000 19.16200 26.75100
H  47.69400 15.21400 23.68700
H  44.70200 15.69300 24.01600
H  45.84000 17.02700 22.51800
H  47.57300 17.04600 22.21000
H  46.90200 18.02300 23.56700
H  44.62100 13.25800 24.15100
H  46.39300 13.05500 24.28800
H  44.92900 12.76400 21.91700
H  46.67000 12.74200 22.15300
H  45.81100 14.27400 21.84800
H  41.27200 14.70400 26.93500
H  40.74000 14.47300 28.58100
H  41.69700 13.18300 27.67600
H  43.71000 15.48800 32.93600
H  40.50300 18.20100 34.09400
H  42.17900 18.91700 34.23500
H  41.60300 17.94600 35.47200
Mg -6.75400 26.00000 25.71000
C  -4.88200 27.47000 28.38900
C  -7.94000 23.72200 28.01600
C  -8.18500 24.55300 23.27800
C  -5.18800 28.38600 23.58300
N  -6.41200 25.66100 27.92400
C  -5.68900 26.41500 28.83400
C  -5.87100 26.11700 30.31600
C  -6.77100 24.79900 30.14200
C  -7.04300 24.64400 28.59600
C  -6.28800 23.51100 30.81200
C  -6.66900 27.31600 30.93600
C  -6.58300 27.47500 32.47800
H  -6.08000 26.35000 33.35800
N  -7.90100 24.37700 25.63900
C  -8.38300 23.56500 26.66900
C  -9.36000 22.66300 26.20000
C  -9.56600 22.91200 24.73900
C  -8.44800 23.98400 24.48900
C  -10.13700 21.75500 27.10300
C  -10.60800 22.55000 23.80200
O  -10.65500 22.88100 22.65400
C  -11.70900 21.69800 24.26600
N  -6.68800 26.36200 23.74000
C  -7.43200 25.62100 22.87400
C  -7.41200 26.16500 21.41600
C  -6.40000 27.37700 21.53300
C  -6.03700 27.44800 23.05300
C  -6.99600 25.08500 20.38500
C  -6.81500 28.77000 20.93900
C  -6.29100 29.33000 19.53700
N  -5.29100 27.67700 25.90400
C  -4.85900 28.57800 24.95000
C  -3.91900 29.48200 25.56000
C  -3.86800 29.10100 26.95600
C  -4.73600 27.96900 27.08300
C  -2.98100 30.43700 24.87600
C  -3.27100 29.36000 28.22300
O  -2.43600 30.20800 28.61000
C  -3.94800 28.37500 29.20000
C  -2.80600 27.58700 29.84300
O  -1.86900 27.20000 29.25400
O  -3.00800 27.47400 31.16500
C  -2.18700 26.38700 31.72300
H  -8.48800 23.18300 28.79100
H  -8.83200 24.28900 22.43900
H  -4.50800 28.81800 22.84500
H  -4.91200 25.89400 30.78500
H  -7.73700 24.97900 30.61400
H  -6.37700 22.67600 30.11700
H  -6.92500 23.38300 31.68700
H  -5.23500 23.45500 31.08600
H  -7.72300 27.16400 30.70400
H  -6.44000 28.24600 30.41700
H  -7.61700 27.65900 32.77000
H  -5.88500 28.31200 32.51700
H  -10.25100 20.77400 26.64300
H  -11.12300 22.17500 27.30200
H  -9.63200 21.55000 28.04700
H  -12.02600 22.13400 25.21300
H  -11.26500 20.70300 24.30200
H  -12.41100 21.74400 23.43300
H  -8.35400 26.60400 21.08500
H  -5.51100 27.03900 21.00100
H  -7.70400 25.08500 19.55600
H  -6.79900 24.13400 20.87900
H  -6.03800 25.38700 19.96300
H  -6.70700 29.59100 21.64800
H  -7.90400 28.77300 20.90100
H  -7.04300 29.07500 18.79000
H  -5.39500 28.77500 19.25500
H  -6.12600 30.40700 19.52900
H  -2.97300 31.40600 25.37600
H  -3.33700 30.73400 23.88900
H  -1.95900 30.07100 24.77800
H  -4.42000 28.96300 29.98700
H  -2.53900 25.46900 31.25200
H  -2.42100 26.34700 32.78700
H  -1.11800 26.59400 31.66600

