158

Mg 2.06200 -2.26400 43.92300
C  5.41000 -1.57600 43.38500
C  1.14000 0.55200 42.26700
C  -1.25000 -3.29000 43.95400
C  3.04800 -5.39300 45.20800
N  3.22600 -0.75900 42.77400
C  4.58500 -0.59600 42.81000
C  5.05000 0.75700 42.15300
C  3.63800 1.45500 41.96100
C  2.57500 0.38500 42.34200
C  3.35400 2.81900 42.67900
C  5.94500 0.44800 40.89100
C  7.05300 1.51400 40.61900
H  6.79400 2.51200 39.54800
N  0.15000 -1.46600 43.27900
C  0.05500 -0.29400 42.59700
C  -1.32000 0.04400 42.40600
C  -2.06500 -0.90900 43.07500
C  -1.07400 -2.03800 43.33100
C  -1.79300 1.33900 41.75900
C  -3.58000 -0.98400 43.42500
O  -4.32900 -0.16700 42.93700
C  -4.11100 -1.98700 44.37400
N  1.01900 -4.20600 44.35600
C  -0.32000 -4.33100 44.28600
C  -0.76100 -5.70500 44.91800
C  0.63500 -6.33400 45.33400
C  1.65400 -5.26700 44.98700
C  -1.76500 -5.55300 46.18100
C  0.99100 -7.70300 44.83000
C  1.86000 -8.68900 45.66800
N  3.85100 -3.38300 44.22400
C  4.10100 -4.60900 44.77500
C  5.54300 -4.83500 44.78200
C  6.05600 -3.65800 44.30900
C  5.00700 -2.79700 43.94800
C  6.22100 -5.97500 45.37100
C  7.32900 -2.92300 44.10500
O  8.45900 -3.24500 44.35000
C  6.88800 -1.57700 43.46700
C  7.39800 -0.32400 44.22000
O  8.25600 0.41800 43.87000
O  6.72500 -0.02500 45.38000
C  6.96800 1.28800 46.08300
H  0.88500 1.41700 41.65200
H  -2.28800 -3.62500 44.01400
H  3.25300 -6.37800 45.63200
H  5.58700 1.30600 42.92700
H  3.49300 1.60400 40.89200
H  2.45000 2.84100 43.28700
H  3.23500 3.58000 41.90800
H  4.23500 2.97300 43.30200
H  5.25700 0.42500 40.04600
H  6.41200 -0.53200 40.99300
H  7.94200 1.00900 40.24100
H  7.29900 2.01400 41.55600
H  -0.99300 2.03100 41.49700
H  -2.57600 1.83400 42.33300
H  -2.14000 0.92200 40.81300
H  -3.29400 -2.20600 45.06200
H  -4.34700 -2.93100 43.88300
H  -5.06600 -1.66100 44.78700
H  -1.27300 -6.27600 44.14300
H  0.74700 -6.25200 46.41500
H  -1.40700 -5.91700 47.14400
H  -2.73900 -6.02000 46.03400
H  -1.93300 -4.49600 46.39100
H  1.42100 -7.44500 43.86200
H  0.01700 -8.18600 44.76100
H  2.61200 -9.11700 45.00400
H  1.32000 -9.59300 45.94600
H  2.44700 -8.13800 46.40300
H  6.36400 -6.79000 44.66200
H  5.63500 -6.26500 46.24300
H  7.21800 -5.70800 45.72200
H  7.51300 -1.39300 42.59300
H  6.52200 1.45600 47.06400
H  6.57900 2.03400 45.39000
H  8.01700 1.56300 46.18600
Mg 30.38600 58.09700 39.32100
C  27.46100 56.24600 38.64000
C  32.27100 55.44600 38.11600
C  33.14100 60.08000 39.46200
C  28.37700 60.87900 40.12000
N  29.89900 56.01800 38.41000
C  28.62700 55.48200 38.27900
C  28.74500 54.10300 37.67900
C  30.29700 53.88300 37.66700
C  30.88200 55.19600 38.08000
C  30.76800 52.73800 38.63800
C  27.89300 53.87300 36.39300
C  28.27900 54.88700 35.16800
H  27.66400 54.56100 33.86100
N  32.43700 57.70700 39.07600
C  32.96800 56.61500 38.46500
C  34.42600 56.75700 38.48100
C  34.70200 58.15700 38.75500
C  33.41600 58.69700 39.17100
C  35.38200 55.69000 37.98200
C  36.11400 58.83300 38.55200
O  37.07100 58.15600 38.12200
C  36.33700 60.24200 38.78400
N  30.67500 60.19800 39.70300
C  31.92100 60.74500 39.79100
C  31.87700 62.18100 40.33200
C  30.38200 62.26700 40.90900
C  29.71700 61.02500 40.21100
C  32.92400 62.69900 41.32000
C  29.78600 63.68300 40.60200
C  28.71500 64.05000 41.62500
N  28.35800 58.57700 39.35300
C  27.68400 59.73400 39.75000
C  26.23400 59.46400 39.64900
C  26.17600 58.06300 39.30000
C  27.42000 57.57700 39.11000
C  25.11300 60.53200 39.86300
C  25.17600 57.02100 38.96900
O  23.93100 57.03700 38.93600
C  25.96400 55.83300 38.46700
C  25.67000 54.65700 39.28200
O  26.15500 54.30900 40.31800
O  24.62900 54.03000 38.66500
C  23.98300 52.98600 39.45100
H  32.88100 54.70900 37.58900
H  33.98300 60.77500 39.46100
H  27.83300 61.72600 40.54300
H  28.27400 53.39800 38.36300
H  30.55900 53.57600 36.65400
H  30.06700 51.91000 38.53700
H  30.87400 53.04100 39.68000
H  31.71500 52.34600 38.26800
H  26.85700 54.11900 36.62900
H  28.00100 52.85700 36.01200
H  29.36900 54.87600 35.14200
H  28.07100 55.89800 35.51700
H  35.45800 55.71300 36.89500
H  35.00800 54.70000 38.24200
H  36.36300 55.80400 38.44500
H  36.24100 60.37900 39.86100
H  35.48500 60.69400 38.27600
H  37.25400 60.71200 38.42800
H  32.02400 62.82100 39.46200
H  30.50700 62.18500 41.98800
H  33.71400 61.95300 41.22400
H  32.61500 62.70700 42.36500
H  33.37300 63.65100 41.04000
H  29.39000 63.51100 39.60200
H  30.53200 64.47400 40.53000
H  28.95400 65.05800 41.96400
H  28.87200 63.39800 42.48500
H  27.75400 64.04300 41.11100
H  24.40000 60.29100 39.07500
H  25.52400 61.53900 39.78100
H  24.67000 60.31000 40.83400
H  25.68500 55.60300 37.43900
H  24.74000 52.20600 39.53600
H  23.09600 52.57200 38.97100
H  23.65300 53.41600 40.39600

