158

Mg 42.64700 41.70000 26.64800
C  41.60400 44.09400 29.03700
C  43.56900 39.75300 29.34300
C  43.32400 39.45800 24.44300
C  41.66000 44.01000 24.17400
N  42.49100 41.86800 28.93600
C  42.08300 42.94000 29.70000
C  42.13600 42.66100 31.26400
C  42.92000 41.30600 31.22800
C  42.99000 40.93000 29.77900
C  44.44400 41.27400 31.86500
C  40.70300 42.52500 31.95000
C  40.18700 43.44800 33.10200
H  39.96900 42.81100 34.46700
N  43.45800 39.94400 26.83300
C  43.76500 39.25200 28.01100
C  44.35900 38.01200 27.67500
C  44.37000 37.88000 26.29000
C  43.75400 39.11800 25.79000
C  44.71600 36.90000 28.77800
C  44.91500 36.74900 25.42200
O  44.79400 36.74900 24.23200
C  45.61800 35.55500 26.00000
N  42.54800 41.75300 24.58600
C  42.80500 40.62500 23.86200
C  42.57900 40.90200 22.36200
C  41.94700 42.32300 22.24600
C  42.01600 42.73600 23.74200
C  43.76000 40.59900 21.38600
C  40.54100 42.38000 21.50300
C  40.43400 43.48900 20.41200
N  41.91000 43.65000 26.58200
C  41.56600 44.51100 25.45800
C  40.93600 45.76000 25.96100
C  40.91100 45.56800 27.30500
C  41.57000 44.30600 27.65200
C  40.13700 46.81900 25.18500
C  40.56300 46.16200 28.60000
O  39.96500 47.19000 28.77300
C  41.09300 45.23800 29.86300
C  42.16500 45.97600 30.63300
O  43.27900 46.10200 30.31100
O  41.61100 46.44800 31.73600
C  42.44500 46.89400 32.86600
H  43.84600 39.06400 30.14300
H  43.63000 38.81300 23.61700
H  41.32100 44.59900 23.32000
H  42.61200 43.48600 31.79500
H  42.33400 40.55300 31.75400
H  44.28400 40.73700 32.80000
H  44.76800 42.29900 32.04300
H  45.10700 40.69200 31.22400
H  40.76600 41.60200 32.52600
H  39.92600 42.39300 31.19700
H  39.23100 43.94000 32.92500
H  40.93600 44.23600 33.18400
H  44.33400 36.97400 29.79700
H  45.78800 36.72000 28.84400
H  44.17700 36.08300 28.30000
H  46.04100 35.00700 25.15800
H  44.82600 34.94200 26.43100
H  46.43500 35.96500 26.59400
H  41.81300 40.17500 22.09000
H  42.68400 42.86200 21.65100
H  43.42800 39.94100 20.58200
H  44.54700 40.10400 21.95500
H  44.18300 41.53100 21.01000
H  39.81600 42.64600 22.27200
H  40.12800 41.44600 21.12200
H  41.42300 43.91000 20.23000
H  39.82700 44.29300 20.82800
H  39.95100 43.03100 19.54900
H  40.70500 47.74500 25.27100
H  39.23400 46.97600 25.77500
H  39.97800 46.49200 24.15800
H  40.28500 44.96200 30.54100
H  42.36000 47.95800 33.08900
H  43.50300 46.70200 32.68800
H  42.14100 46.32000 33.74100
Mg 26.80800 50.21100 26.18000
C  24.66700 51.47000 28.59800
C  29.15400 49.72100 28.66600
C  28.94500 49.30000 23.80000
C  24.50800 51.17300 23.72600
N  26.92300 50.60500 28.40900
C  25.83800 50.97000 29.21500
C  26.16500 50.98000 30.70800
C  27.68700 50.53900 30.57700
C  27.89100 50.20800 29.13100
C  28.84800 51.48900 31.16100
C  25.21600 50.03900 31.62000
C  25.06500 50.62300 33.06600
H  24.72100 49.57700 34.09300
N  28.83200 49.64000 26.22300
C  29.62500 49.41900 27.35000
C  30.81000 48.69800 26.97000
C  30.76700 48.65000 25.53800
C  29.45500 49.15300 25.10500
C  31.83900 48.14700 27.94800
C  31.75400 48.01200 24.67500
O  31.65800 47.82000 23.45700
C  33.07000 47.50100 25.29400
N  26.71100 50.19900 23.97300
C  27.73500 49.80100 23.23200
C  27.24100 49.65500 21.77500
C  25.78300 50.05500 21.84400
C  25.59100 50.33400 23.31000
C  28.12300 50.51100 20.69500
C  24.68000 48.99200 21.27200
C  24.74500 47.60500 22.00000
N  25.06700 51.20700 26.07000
C  24.22800 51.68900 25.03300
C  23.08900 52.35100 25.48300
C  23.19100 52.28500 26.87600
C  24.42100 51.64700 27.19200
C  22.08900 53.11500 24.58900
C  22.63600 52.76400 28.10000
O  21.68600 53.49600 28.31700
C  23.46300 52.10100 29.29600
C  23.85000 53.20900 30.24300
O  24.69100 54.01600 30.07700
O  22.94300 53.10900 31.34400
C  23.14100 54.01400 32.49200
H  29.82900 49.44800 29.48000
H  29.58600 48.87300 23.02600
H  23.83000 51.57200 22.96900
H  26.28900 52.00900 31.04400
H  27.83200 49.61600 31.14000
H  29.71700 51.59300 30.51100
H  29.20800 51.01100 32.07200
H  28.44100 52.44200 31.49800
H  25.79800 49.11900 31.57100
H  24.25500 49.85700 31.14000
H  24.34200 51.43900 33.08100
H  25.95800 51.17800 33.35500
H  32.83700 48.53800 27.74800
H  31.83700 47.06000 27.86700
H  31.50300 48.31900 28.97000
H  33.49500 48.35100 25.82800
H  33.81600 47.33800 24.51600
H  32.84000 46.62700 25.90300
H  27.34300 48.59300 21.55100
H  25.62500 51.00000 21.32400
H  27.57200 51.26800 20.13600
H  28.50000 49.81100 19.95000
H  28.98000 51.05900 21.08600
H  24.90800 48.85000 20.21500
H  23.66400 49.35500 21.42800
H  25.55800 47.71200 22.71800
H  24.98100 46.82300 21.27800
H  23.88000 47.38000 22.62400
H  21.66600 52.51900 23.78000
H  22.53500 53.94400 24.03900
H  21.31000 53.42200 25.28600
H  22.85500 51.31000 29.73600
H  23.03900 55.02000 32.08400
H  24.12700 53.86500 32.93300
H  22.26300 53.85700 33.11800

