158

Mg 53.93800 25.07600 44.34500
C  50.96000 26.99500 43.82200
C  52.02500 22.38500 43.41300
C  56.78400 23.33800 44.14400
C  55.77900 27.96900 44.81100
N  51.68300 24.69300 43.71500
C  50.67400 25.63900 43.65900
C  49.45900 25.03600 43.10100
C  49.72300 23.57300 43.52600
C  51.22000 23.48300 43.44600
C  49.23500 23.13800 44.95100
C  49.20800 25.18100 41.59600
C  47.77800 25.23000 41.08100
H  47.54600 25.08200 39.61300
N  54.33200 23.09900 43.94500
C  53.37600 22.19600 43.51100
C  54.07000 20.96100 43.21300
C  55.49000 21.17400 43.35200
C  55.61300 22.53400 43.88800
C  53.36500 19.67600 42.90000
C  56.67100 20.32600 43.02400
O  56.51600 19.30200 42.35800
C  58.01600 20.70200 43.25600
N  56.00600 25.60600 44.43400
C  56.95900 24.69200 44.40100
C  58.36000 25.27200 44.56200
C  58.00500 26.78900 44.91100
C  56.52100 26.83400 44.77300
C  59.30900 24.50500 45.62000
C  58.79800 27.82400 44.10100
C  59.64700 28.82100 44.83500
N  53.52900 27.09400 44.33300
C  54.32800 28.18100 44.58100
C  53.53900 29.35800 44.52200
C  52.22000 28.96000 44.33100
C  52.28300 27.57500 44.14900
C  54.04500 30.75200 44.78400
C  50.82000 29.35100 44.22300
O  50.31700 30.44200 44.40900
C  50.02400 28.18100 43.65400
C  49.71100 28.54000 42.23600
O  50.51400 28.92300 41.36700
O  48.37900 28.52800 42.13700
C  47.81400 29.13500 40.86600
H  51.43800 21.47200 43.29100
H  57.77400 22.88000 44.09900
H  56.28400 28.89800 45.08300
H  48.63300 25.41000 43.70600
H  49.24400 22.93300 42.78500
H  48.34700 22.51200 44.87100
H  48.86700 23.95400 45.57200
H  50.02800 22.68300 45.54400
H  49.77200 24.45300 41.01200
H  49.66600 26.12900 41.31700
H  47.31600 26.18100 41.34800
H  47.23200 24.47300 41.64400
H  54.05600 18.89800 42.57500
H  52.62800 19.76500 42.10200
H  52.84400 19.37500 43.80800
H  58.37800 21.57000 42.70500
H  58.58200 19.79000 43.06400
H  58.07300 20.92700 44.32100
H  58.82600 25.19000 43.58000
H  58.09400 27.02500 45.97100
H  58.95700 23.51400 45.90700
H  59.37000 25.14700 46.49900
H  60.28900 24.32300 45.17900
H  58.07800 28.35100 43.47600
H  59.48700 27.21700 43.51400
H  60.68700 28.50100 44.89800
H  59.23300 28.87200 45.84200
H  59.50700 29.85600 44.52300
H  54.07200 30.91200 45.86200
H  53.48400 31.46600 44.18200
H  55.04200 30.85400 44.35600
H  49.15300 28.06200 44.29800
H  46.81800 29.45800 41.17000
H  47.76400 28.48200 39.99500
H  48.22900 30.12500 40.67500
Mg 9.61300 47.80600 26.18800
C  7.38800 47.59100 29.10500
C  11.79800 49.36200 28.18800
C  11.33900 48.33500 23.43200
C  6.85900 46.54000 24.28300
N  9.58600 48.39800 28.41800
C  8.73400 48.10500 29.38500
C  9.29400 48.43700 30.81700
C  10.46400 49.37600 30.34700
C  10.63100 49.08500 28.87600
C  10.21000 50.86500 30.65600
C  9.79400 47.08300 31.59600
C  10.50400 47.54500 32.92600
H  9.76000 47.43200 34.31100
N  11.42600 48.69500 25.86000
C  12.18600 49.21300 26.82500
C  13.45600 49.65700 26.16900
C  13.36200 49.22600 24.84700
C  12.00200 48.70400 24.63900
C  14.55900 50.08800 27.06800
C  14.47500 49.11700 23.81100
O  14.19900 48.68600 22.67300
C  15.93000 49.64300 24.03800
N  9.10000 47.55000 24.15100
C  10.04600 47.82600 23.18100
C  9.64800 47.32700 21.80800
C  8.35200 46.51900 22.16800
C  8.04500 46.82800 23.63500
C  9.44400 48.48500 20.76800
C  8.36400 44.97800 21.81300
C  8.33500 43.90500 22.92200
N  7.47900 47.32600 26.54600
C  6.52900 46.82600 25.66900
C  5.27100 46.65200 26.37400
C  5.57200 46.86100 27.70100
C  6.89800 47.30500 27.81300
C  3.93500 46.15500 25.87000
C  5.01500 46.84500 29.03700
O  3.87900 46.61800 29.46000
C  6.23300 47.28100 30.00000
C  6.50900 46.05400 30.77000
O  6.97300 44.98000 30.31900
O  6.11900 46.27400 32.09200
C  6.43100 45.18100 33.02400
H  12.64900 49.67800 28.79400
H  11.87700 48.34900 22.48200
H  6.08300 46.05100 23.69100
H  8.49800 48.98100 31.32600
H  11.34100 48.90300 30.78800
H  10.96300 51.58000 30.32500
H  9.93100 50.92200 31.70800
H  9.29300 51.15700 30.14300
H  10.28600 46.45500 30.85300
H  8.88600 46.54700 31.87300
H  10.79100 48.59500 32.86700
H  11.41700 46.95500 32.99500
H  15.07200 49.16300 27.32800
H  14.29700 50.76800 27.87900
H  15.27700 50.67300 26.49200
H  15.89400 50.67700 24.38100
H  16.51600 49.62100 23.11900
H  16.51800 49.00100 24.69400
H  10.48900 46.72300 21.46600
H  7.45200 46.84300 21.64500
H  10.37800 48.68900 20.24400
H  9.01400 49.32200 21.31700
H  8.67600 48.27800 20.02200
H  9.34800 44.81100 21.37700
H  7.55400 44.80800 21.10400
H  8.13400 44.34300 23.90000
H  9.26700 43.35500 22.79900
H  7.54700 43.16800 22.77000
H  3.40800 45.55200 26.61000
H  4.10800 45.48300 25.02900
H  3.31400 47.01500 25.62100
H  6.05300 48.13300 30.65600
H  6.42400 45.57000 34.04200
H  7.35200 44.62700 32.84600
H  5.70700 44.37600 32.90000

