158

Mg 34.80300 2.22400 29.94100
C  32.64900 3.31200 32.50300
C  37.45100 2.55900 32.03500
C  36.86800 1.66200 27.26900
C  32.20900 3.05800 27.64200
N  35.02400 3.01400 31.99700
C  33.99100 3.12000 32.89700
C  34.56000 3.15000 34.39800
C  36.11400 3.07500 34.21200
C  36.22300 2.92600 32.66400
C  36.93300 4.27700 34.75600
C  34.01100 1.92300 35.25700
C  33.83900 2.07300 36.72500
H  34.34600 3.33400 37.33000
N  36.85200 1.97600 29.69500
C  37.78100 2.17500 30.73800
C  39.07900 1.95800 30.17800
C  38.97500 1.65200 28.81200
C  37.51300 1.73200 28.54500
C  40.34300 2.10700 31.01200
C  40.03500 1.44000 27.81700
O  39.82500 1.12100 26.62700
C  41.46200 1.48300 28.29400
N  34.53300 2.23000 27.84500
C  35.57800 1.86900 26.94000
C  35.12900 1.85600 25.46200
C  33.55500 2.24000 25.64500
C  33.40000 2.50000 27.14900
C  35.88200 2.87300 24.57800
C  32.58700 1.09700 25.15000
C  32.61000 -0.17800 26.02400
N  32.76300 2.94900 29.99900
C  31.89200 3.22300 28.97800
C  30.55300 3.49300 29.50600
C  30.81100 3.47100 30.92000
C  32.15700 3.26300 31.16900
C  29.29800 3.67700 28.72700
C  30.23300 3.73100 32.25600
O  29.08100 4.03500 32.61500
C  31.30200 3.46900 33.32800
C  31.30500 4.66900 34.25000
O  31.81000 5.74500 34.03000
O  30.68600 4.29200 35.47500
C  30.46200 5.49300 36.32400
H  38.32400 2.66500 32.68300
H  37.46100 1.39500 26.39200
H  31.35900 3.08400 26.95700
H  34.28500 4.06600 34.92000
H  36.43400 2.11200 34.60800
H  36.30100 5.11200 35.05600
H  37.58900 4.59200 33.94500
H  37.60000 4.00700 35.57500
H  34.62800 1.03000 35.16100
H  33.05600 1.59100 34.85000
H  34.27300 1.18900 37.19200
H  32.75200 2.03000 36.77900
H  40.82900 3.00200 30.62400
H  40.95200 1.22400 30.82000
H  40.12000 2.27700 32.06600
H  41.70500 2.41900 28.79700
H  42.06100 1.43000 27.38500
H  41.60000 0.66100 28.99600
H  35.32900 0.82100 25.18500
H  33.18200 3.11000 25.10500
H  35.14800 3.24500 23.86300
H  36.61700 2.55300 23.84000
H  36.23300 3.69900 25.19700
H  32.70600 0.79900 24.10900
H  31.57700 1.44400 25.37200
H  31.58600 -0.54100 26.11400
H  32.95800 0.00100 27.04100
H  33.25000 -0.94300 25.58500
H  29.41100 2.80300 28.08500
H  29.16700 4.55600 28.09700
H  28.43000 3.48000 29.35700
H  31.01000 2.56900 33.86900
H  29.64300 6.04600 35.86500
H  31.42100 6.00000 36.43700
H  30.15500 5.17400 37.32000
Mg 46.96900 25.96700 29.29500
C  47.78700 27.93600 32.06200
C  45.92100 23.47400 31.52100
C  45.93000 24.27200 26.63700
C  48.04100 28.45000 27.20600
N  46.80400 25.80200 31.56700
C  47.19200 26.72700 32.49700
C  46.68200 26.31900 33.88700
C  46.20200 24.87100 33.65600
C  46.28400 24.71500 32.13600
C  46.98000 23.82700 34.47800
C  45.63100 27.23100 34.47400
C  45.98700 27.95800 35.82300
H  46.39100 27.06700 37.02400
N  46.18600 24.08900 29.09700
C  45.82400 23.24100 30.13400
C  45.31800 22.00800 29.54500
C  45.14000 22.25400 28.11700
C  45.77900 23.57900 27.91300
C  44.98500 20.77400 30.39200
C  44.57600 21.35200 27.05300
O  44.61000 21.61600 25.84800
C  43.99900 20.11800 27.43200
N  47.22700 26.13400 27.11400
C  46.55800 25.39400 26.26400
C  46.53200 25.89800 24.83600
C  47.18300 27.32100 25.05400
C  47.47300 27.34100 26.57900
C  47.29700 25.01600 23.78500
C  46.29600 28.52200 24.63600
C  47.06900 29.63300 23.96000
N  47.96300 27.68500 29.50800
C  48.28300 28.58300 28.57700
C  48.91300 29.70100 29.22200
C  48.76800 29.48700 30.57700
C  48.14400 28.29500 30.74100
C  49.46400 30.89000 28.50300
C  49.00400 30.04900 31.92700
O  49.61500 31.06800 32.31900
C  48.32000 29.02100 32.97900
C  49.46300 28.39500 33.76900
O  50.28700 27.69900 33.25400
O  49.27700 28.76600 35.10700
C  50.29900 28.25100 35.99300
H  45.51000 22.75500 32.23300
H  45.50000 23.77000 25.76700
H  48.37900 29.16600 26.45400
H  47.45800 26.36900 34.65100
H  45.14700 24.71200 33.87900
H  47.48700 23.09900 33.84500
H  46.17600 23.39600 35.07400
H  47.73900 24.21700 35.15700
H  44.73500 26.63500 34.64700
H  45.44600 28.09100 33.83000
H  45.01500 28.37800 36.08100
H  46.72500 28.75800 35.75800
H  44.90200 19.83700 29.84100
H  43.99500 20.99400 30.79200
H  45.50900 20.61600 31.33400
H  44.72800 19.40500 27.81700
H  43.51000 19.62400 26.59300
H  43.26900 20.28900 28.22300
H  45.46600 25.96200 24.61800
H  48.11000 27.30300 24.48100
H  47.13400 25.11500 22.71200
H  47.22300 23.97000 24.08300
H  48.34700 25.30900 23.76400
H  45.85600 28.89300 25.56200
H  45.46600 28.18500 24.01400
H  46.54800 29.88600 23.03700
H  48.10200 29.33600 23.78100
H  47.05000 30.50100 24.62000
H  49.10600 31.74700 29.07300
H  49.21000 30.97000 27.44700
H  50.53800 30.92400 28.68900
H  47.60600 29.48800 33.65700
H  50.98400 29.00700 36.37800
H  50.89600 27.42200 35.61400
H  49.77300 27.92500 36.89000

