158

Mg 17.12700 -2.60700 27.30200
C  16.03100 -0.51500 29.91000
C  18.83400 -4.59000 29.48400
C  18.52200 -4.02100 24.62900
C  15.43000 -0.38400 25.07900
N  17.37700 -2.53800 29.52700
C  16.85500 -1.56800 30.34500
C  17.43500 -1.87300 31.76800
C  18.22900 -3.19800 31.65200
C  18.17600 -3.47200 30.10500
C  19.66300 -3.09800 32.23600
C  16.28200 -1.96100 32.79600
C  16.44100 -1.09600 34.06200
H  17.78500 -0.43200 34.45800
N  18.39200 -4.12000 27.03800
C  18.91400 -4.96500 28.03700
C  19.49600 -6.19500 27.48500
C  19.44300 -5.99800 26.08400
C  18.82300 -4.62900 25.86400
C  19.92900 -7.35300 28.37400
C  19.85700 -6.89400 24.96700
O  19.79700 -6.63500 23.76800
C  20.46000 -8.27000 25.32800
N  17.06600 -2.15800 25.16200
C  17.74000 -2.89200 24.25200
C  17.62500 -2.33500 22.80400
C  16.51800 -1.24900 22.98800
C  16.38500 -1.22100 24.46500
C  18.93600 -1.70600 22.31300
C  15.19700 -1.39800 22.15400
C  14.64000 -0.13400 21.34600
N  15.88500 -0.94100 27.36400
C  15.27300 -0.12800 26.43300
C  14.51300 0.93400 26.97500
C  14.83300 0.89400 28.30400
C  15.57400 -0.30300 28.53200
C  13.68500 1.97500 26.25700
C  14.68500 1.53800 29.54500
O  14.15700 2.59200 29.90900
C  15.49800 0.71000 30.62000
C  16.55400 1.57700 31.26800
O  17.75200 1.59300 30.95100
O  16.02600 2.28900 32.30400
C  16.87600 3.18600 33.14700
H  19.35600 -5.21400 30.21200
H  19.14600 -4.46800 23.85300
H  14.80600 0.31800 24.52200
H  18.09900 -1.03900 31.99500
H  17.82400 -3.98300 32.29100
H  19.76600 -2.43100 33.09200
H  20.40300 -2.78000 31.50100
H  19.92700 -4.07300 32.64700
H  16.11300 -2.96700 33.18000
H  15.37700 -1.67300 32.26100
H  16.20600 -1.77600 34.88100
H  15.68400 -0.32100 34.18700
H  19.83800 -8.34000 27.91900
H  19.33400 -7.31900 29.28600
H  20.96500 -7.16100 28.65300
H  21.39400 -8.09900 25.86300
H  20.75500 -8.80100 24.42300
H  19.71800 -8.90700 25.80800
H  17.27500 -3.19900 22.23900
H  16.87600 -0.28200 22.63500
H  19.02200 -2.15500 21.32300
H  19.71400 -1.94200 23.03900
H  19.01500 -0.64500 22.07600
H  14.40400 -1.85900 22.74200
H  15.45200 -2.13100 21.38800
H  13.59700 0.08100 21.57700
H  14.81000 -0.27500 20.27800
H  15.17700 0.75800 21.66900
H  13.06600 1.52700 25.48000
H  14.41100 2.59100 25.72600
H  13.12700 2.56200 26.98600
H  14.80100 0.36100 31.38200
H  16.78100 2.94800 34.20600
H  16.32000 4.12200 33.09700
H  17.94100 3.28400 32.93700
Mg 35.63300 1.75100 29.08000
C  33.60500 2.83700 31.65100
C  38.18700 1.30800 31.30900
C  37.70400 1.31300 26.61600
C  32.96200 2.24100 26.83500
N  35.83600 2.27200 31.21700
C  34.88900 2.54000 32.14300
C  35.39700 2.32300 33.57500
C  36.90500 2.11000 33.31800
C  37.00100 1.92000 31.84500
C  37.72600 3.38000 33.75000
C  34.69100 1.20300 34.40800
C  34.05800 1.59600 35.77400
H  34.64600 2.79000 36.50400
N  37.62500 1.16800 28.93500
C  38.46900 0.95900 29.98900
C  39.72200 0.59200 29.54500
C  39.66100 0.76200 28.09100
C  38.28500 1.05400 27.81800
C  40.93700 0.26800 30.49700
C  40.70200 0.48500 27.00800
O  40.48800 0.74000 25.88200
C  42.07300 -0.13800 27.32900
N  35.31500 1.83800 26.99800
C  36.42300 1.64900 26.19100
C  36.04700 1.75900 24.65800
C  34.52000 1.91000 24.77300
C  34.19000 1.92300 26.27100
C  36.75600 2.87600 23.83200
C  33.71400 0.83800 23.98600
C  33.06400 1.42800 22.71000
N  33.65600 2.47500 29.14500
C  32.66200 2.54200 28.21100
C  31.54200 3.18200 28.75600
C  31.80700 3.28100 30.12000
C  33.15500 2.77700 30.30400
C  30.24300 3.56400 27.99900
C  31.27500 3.62000 31.40600
O  30.11600 3.86100 31.75600
C  32.43200 3.36700 32.52200
C  32.67600 4.60000 33.34000
O  33.58300 5.42100 33.15600
O  31.69700 4.66200 34.32000
C  31.86400 5.89400 35.08900
H  38.89700 1.06600 32.10300
H  38.36400 1.17900 25.75700
H  32.24200 2.44700 26.04100
H  35.24000 3.20600 34.19500
H  37.33700 1.20700 33.74700
H  38.31500 3.63700 32.87000
H  38.46000 3.18500 34.53200
H  37.11300 4.27000 33.89000
H  35.43100 0.42300 34.58700
H  33.85500 0.84500 33.80800
H  34.27800 0.74500 36.41900
H  33.01400 1.69100 35.47400
H  41.18600 -0.79200 30.46000
H  40.71500 0.44700 31.54900
H  41.71100 0.94300 30.13200
H  42.08600 -0.78100 28.20900
H  42.76000 0.68100 27.54200
H  42.35300 -0.77400 26.49000
H  36.23300 0.76800 24.24400
H  34.23500 2.89700 24.41100
H  36.09100 3.45300 23.19000
H  37.40200 2.30100 23.16800
H  37.29400 3.64800 24.38300
H  33.02800 0.39400 24.70700
H  34.42900 0.08700 23.65000
H  33.37500 2.45300 22.50800
H  31.98300 1.40200 22.84600
H  33.40300 0.76800 21.91100
H  30.37900 4.23300 27.15000
H  29.42400 4.05400 28.52600
H  29.81700 2.71800 27.45800
H  32.08100 2.63100 33.24500
H  30.99900 6.01800 35.74000
H  31.98600 6.82600 34.53700
H  32.64100 5.54100 35.76700

