158

Mg 17.23500 -2.15500 27.58800
C  16.26300 0.13300 29.96600
C  19.53800 -3.51500 29.72100
C  18.51500 -3.94600 24.98400
C  15.46000 -0.17500 25.21400
N  17.79300 -1.74900 29.59600
C  17.16100 -0.83400 30.42500
C  17.58300 -0.97900 31.94600
C  18.69700 -2.09600 31.85400
C  18.73000 -2.49600 30.33800
C  20.12900 -1.71300 32.34000
C  16.35700 -1.41600 32.80800
C  16.24400 -0.66900 34.11800
H  17.52700 -0.32000 34.81800
N  18.71000 -3.65400 27.46100
C  19.57900 -4.07900 28.43200
C  20.32200 -5.15200 27.88900
C  19.93900 -5.37300 26.54900
C  19.00300 -4.30400 26.26300
C  21.46000 -5.91400 28.65800
C  20.33000 -6.52400 25.61500
O  19.92100 -6.55300 24.44300
C  21.29100 -7.71600 26.09000
N  17.15300 -1.92500 25.35600
C  17.75000 -2.85500 24.55000
C  17.29600 -2.59100 23.08900
C  16.24300 -1.43800 23.17700
C  16.23500 -1.14800 24.67500
C  18.47800 -2.34800 22.12900
C  14.78800 -1.79800 22.66800
C  14.34600 -1.27000 21.34500
N  16.07900 -0.36300 27.55900
C  15.40400 0.26400 26.56200
C  14.65600 1.39800 27.02800
C  14.98000 1.44500 28.36400
C  15.82900 0.33800 28.67600
C  13.66500 2.25400 26.19700
C  14.89100 2.09800 29.55600
O  14.35400 3.12500 29.81300
C  15.57000 1.32300 30.68800
C  16.44300 2.24700 31.44700
O  17.53500 2.68000 31.10900
O  15.75300 2.59200 32.59400
C  16.39800 3.50100 33.60200
H  20.21700 -4.07200 30.37100
H  18.87900 -4.57200 24.16700
H  14.95500 0.40600 24.43900
H  17.90100 0.05200 32.10300
H  18.42300 -2.95800 32.46200
H  20.12000 -0.68800 32.71100
H  20.79300 -1.61100 31.48200
H  20.59700 -2.42800 33.01600
H  16.41000 -2.48600 33.00700
H  15.38500 -1.21500 32.35800
H  15.58500 -1.16500 34.83100
H  15.66100 0.23000 33.91700
H  22.34400 -5.90300 28.02000
H  21.21200 -6.93400 28.94900
H  21.95200 -5.27600 29.39200
H  21.04600 -8.15000 27.06000
H  22.28100 -7.26100 26.13300
H  21.23500 -8.46900 25.30400
H  16.79300 -3.51100 22.79100
H  16.62300 -0.56100 22.65400
H  18.16400 -1.65800 21.34700
H  18.91800 -3.23600 21.67400
H  19.32600 -1.87300 22.62400
H  13.99600 -1.50700 23.35700
H  14.69200 -2.87200 22.50600
H  13.56400 -1.84700 20.85000
H  15.17600 -1.07900 20.66500
H  13.88500 -0.33400 21.65900
H  12.81100 1.66600 25.86300
H  14.09600 2.54900 25.24100
H  13.32800 3.12500 26.75900
H  14.85900 0.91500 31.40600
H  17.13700 4.15900 33.14500
H  16.81500 2.95700 34.44900
H  15.62600 4.17200 33.97800
Mg -1.47000 34.17400 25.70000
C  -3.15500 32.37400 28.41300
C  -0.19700 36.28200 28.09900
C  -0.16100 35.91200 23.18800
C  -2.99200 32.08500 23.50200
N  -1.74600 34.27500 28.02200
C  -2.33300 33.39100 28.89600
C  -1.94200 33.79900 30.30700
C  -1.07500 35.08900 30.18700
C  -1.02400 35.25100 28.67300
C  -1.54800 36.46400 30.88600
C  -1.28400 32.60000 31.09800
C  -1.71400 32.47900 32.63400
H  -0.75800 32.27300 33.78000
N  -0.24300 35.87400 25.70900
C  0.16300 36.55900 26.77900
C  1.01200 37.69300 26.34400
C  1.07300 37.55900 24.86900
C  0.25200 36.38700 24.51800
C  1.67900 38.72300 27.20700
C  1.76000 38.46300 23.87600
O  1.87900 38.23000 22.68200
C  2.42400 39.80200 24.29200
N  -1.62100 34.00300 23.65900
C  -0.99600 34.84300 22.78700
C  -1.40900 34.46300 21.34700
C  -1.85500 33.03900 21.53500
C  -2.14700 32.99700 23.02200
C  -2.29100 35.48700 20.58200
C  -0.79500 31.91300 21.09200
C  0.60300 32.02800 21.64800
N  -2.91500 32.65800 25.87000
C  -3.45900 31.94300 24.85400
C  -4.42800 31.02700 25.40300
C  -4.37700 31.15800 26.79300
C  -3.36500 32.12200 27.03300
C  -5.35400 30.17000 24.55100
C  -4.98500 30.81100 28.02700
O  -5.97700 30.17700 28.36000
C  -4.20700 31.48500 29.15300
C  -5.19500 32.13200 30.08200
O  -5.92400 33.06600 29.76300
O  -5.34100 31.42000 31.27100
C  -6.38400 31.90500 32.22400
H  0.16000 36.94200 28.89300
H  0.20600 36.45500 22.31500
H  -3.49400 31.47700 22.74600
H  -2.91700 34.05100 30.72400
H  -0.09000 34.90000 30.61300
H  -0.66700 37.07300 31.08800
H  -2.14200 36.40000 31.79800
H  -2.15100 37.06700 30.20700
H  -0.20600 32.75200 31.03800
H  -1.45100 31.68000 30.53800
H  -2.33900 31.58700 32.65300
H  -2.39700 33.29900 32.85500
H  1.38300 38.54100 28.24000
H  1.34600 39.75900 27.15100
H  2.76300 38.65900 27.11300
H  2.56700 40.41100 23.39900
H  3.35300 39.58400 24.81900
H  1.72000 40.28300 24.97100
H  -0.46800 34.46000 20.79600
H  -2.72100 32.87900 20.89200
H  -1.77700 35.81500 19.67900
H  -2.32200 36.33300 21.26900
H  -3.25500 35.06700 20.29600
H  -0.72000 31.93100 20.00400
H  -1.18800 30.95600 21.43500
H  1.29200 32.66400 21.09200
H  1.02600 31.03000 21.76400
H  0.45400 32.46800 22.63400
H  -5.16000 29.11100 24.71900
H  -5.29600 30.41300 23.49000
H  -6.37900 30.46500 24.77600
H  -3.69100 30.67800 29.67400
H  -5.73700 32.46300 32.90000
H  -6.91800 31.06900 32.67500
H  -7.13900 32.62200 31.90200

