158

Mg -2.55300 17.16100 27.25400
C  -3.07200 14.84600 29.84500
C  -2.95800 19.62000 29.55100
C  -2.71300 19.21400 24.68400
C  -2.65200 14.47000 24.92200
N  -3.10700 17.15500 29.39600
C  -3.07000 16.16500 30.24900
C  -3.21500 16.63700 31.72200
C  -3.26600 18.22100 31.56600
C  -3.12300 18.37800 30.03700
C  -4.58200 18.85100 32.10300
C  -2.12400 16.13100 32.67600
C  -1.79000 17.03400 33.92200
H  -1.40000 16.08900 35.11900
N  -2.62500 19.20000 27.13600
C  -2.71100 20.04200 28.24900
C  -2.53200 21.37800 27.74600
C  -2.38600 21.24500 26.29900
C  -2.55700 19.84100 25.97200
C  -2.45900 22.59500 28.65600
C  -1.96400 22.33500 25.22300
O  -1.79900 22.06100 24.05300
C  -1.82300 23.65600 25.60700
N  -2.75100 16.81600 25.03800
C  -2.78300 17.90600 24.25000
C  -2.91600 17.42300 22.77600
C  -2.56600 15.93100 22.78600
C  -2.66000 15.70000 24.34600
C  -4.29400 17.84000 22.15400
C  -1.23200 15.48700 22.07600
C  0.04600 16.10800 22.62500
N  -2.78300 15.09100 27.26400
C  -2.82000 14.15500 26.30500
C  -2.91200 12.88500 26.82500
C  -3.02200 13.05400 28.22200
C  -2.95100 14.48400 28.44500
C  -3.09900 11.61500 26.08100
C  -3.29300 12.39000 29.45700
O  -3.50400 11.22100 29.69200
C  -3.26500 13.50200 30.57400
C  -1.97900 13.19900 31.27300
O  -0.86600 13.61700 30.96700
O  -2.22500 12.53300 32.39700
C  -1.11700 12.36000 33.36000
H  -3.04700 20.36400 30.34600
H  -2.58900 19.82200 23.78600
H  -2.60200 13.55900 24.32200
H  -4.21500 16.32300 32.01800
H  -2.43100 18.69300 32.08300
H  -4.27100 19.69100 32.72300
H  -5.04000 18.07300 32.71300
H  -5.19900 19.20000 31.27500
H  -1.19200 15.83100 32.19700
H  -2.60200 15.24600 33.09600
H  -2.61500 17.61300 34.33800
H  -0.92100 17.64300 33.67300
H  -1.59700 23.19900 28.37400
H  -2.31000 22.24500 29.67800
H  -3.40400 23.13800 28.63400
H  -1.79500 24.43000 24.84000
H  -0.93900 23.68200 26.24500
H  -2.74200 23.94900 26.11300
H  -2.11500 17.77700 22.12800
H  -3.25800 15.38900 22.14200
H  -4.84600 18.45100 22.86800
H  -4.88100 16.96300 21.88100
H  -4.01300 18.51700 21.34600
H  -1.29700 15.78800 21.03000
H  -1.20400 14.39800 22.04300
H  0.59900 15.20000 22.86500
H  -0.05800 16.63700 23.57300
H  0.51800 16.73200 21.86600
H  -2.54000 10.86100 26.63600
H  -2.74100 11.63100 25.05100
H  -4.13600 11.28600 26.14800
H  -4.08300 13.43700 31.29200
H  -1.08900 11.28200 33.52000
H  -1.43400 12.86400 34.27300
H  -0.17100 12.61600 32.88300
Mg -5.44800 25.36900 26.06600
C  -4.41100 26.78500 29.07200
C  -7.63300 23.28400 28.08700
C  -6.14400 23.45800 23.31900
C  -3.08100 27.01700 24.25300
N  -5.78600 24.99500 28.32900
C  -5.34600 25.82900 29.32800
C  -5.91900 25.34000 30.70300
C  -6.82600 24.16900 30.38700
C  -6.82800 24.20800 28.81200
C  -6.22900 22.82000 30.82000
C  -6.61700 26.59900 31.30500
C  -6.74400 26.54900 32.83300
H  -6.07100 25.37200 33.62800
N  -6.76200 23.61400 25.72500
C  -7.48600 22.88800 26.70600
C  -8.28300 21.85400 25.98200
C  -7.88700 22.00500 24.61200
C  -6.98300 23.09500 24.50200
C  -9.34700 20.97300 26.60700
C  -8.42500 21.20700 23.44400
O  -8.17100 21.50900 22.30300
C  -9.28200 20.05000 23.69600
N  -4.74200 25.33400 24.01800
C  -5.18400 24.44200 23.11500
C  -4.36500 24.50100 21.80800
C  -3.54700 25.86000 21.93800
C  -3.82400 26.16700 23.49100
C  -3.54100 23.33000 21.29500
C  -4.03700 27.10900 21.11500
C  -3.03700 27.67000 19.99000
N  -4.04300 26.72900 26.47800
C  -3.11600 27.36200 25.60800
C  -2.22700 28.24400 26.43600
C  -2.69100 28.05700 27.78300
C  -3.80500 27.10500 27.74300
C  -1.05400 29.06800 26.07200
C  -2.52600 28.43000 29.25800
O  -1.74400 29.22000 29.67800
C  -3.55900 27.57800 30.11900
C  -2.74900 26.68000 31.01400
O  -2.07000 25.69300 30.70100
O  -2.71200 27.31800 32.23800
C  -1.64000 26.80700 33.05900
H  -8.29500 22.57100 28.58400
H  -6.28500 22.76600 22.48600
H  -2.39900 27.62700 23.65800
H  -5.02500 25.25900 31.32100
H  -7.84400 24.34100 30.73500
H  -6.15200 22.07400 30.02900
H  -6.83000 22.47800 31.66300
H  -5.16900 22.91000 31.05800
H  -7.61500 26.57200 30.86800
H  -6.09400 27.50100 30.98800
H  -7.80200 26.63600 33.08100
H  -6.22200 27.42800 33.21200
H  -9.07400 19.93600 26.41500
H  -10.36100 21.22800 26.29800
H  -9.25900 21.04700 27.69000
H  -8.85600 19.20100 24.23000
H  -9.67000 19.64700 22.76100
H  -10.13600 20.46900 24.22800
H  -5.07600 24.73500 21.01600
H  -2.46600 25.77500 21.82400
H  -2.54800 23.75100 21.13300
H  -4.02400 22.88100 20.42700
H  -3.51200 22.52000 22.02400
H  -4.31700 27.90800 21.80200
H  -5.01100 26.83700 20.70700
H  -2.81200 28.71200 20.21700
H  -3.57100 27.78300 19.04600
H  -2.03300 27.26200 20.10100
H  -1.32200 30.09100 25.80900
H  -0.47900 28.59500 25.27600
H  -0.35300 29.01100 26.90500
H  -4.18800 28.18700 30.76800
H  -1.68100 27.19800 34.07500
H  -0.67800 26.87600 32.55100
H  -1.79600 25.73900 33.21100

