158

Mg 39.42100 9.38500 29.51700
C  41.58200 10.93200 32.03500
C  37.58000 8.13400 31.93700
C  37.81100 7.67700 27.12800
C  42.05000 10.05300 27.26100
N  39.59100 9.67100 31.65300
C  40.40600 10.38300 32.53100
C  39.91200 10.29000 33.97200
C  38.84900 9.18300 33.89700
C  38.62500 8.98300 32.40400
C  39.16600 7.90700 34.69800
C  39.38500 11.62700 34.49000
C  39.12700 11.56400 36.00700
H  40.08100 12.29000 37.03600
N  37.82200 8.19800 29.49600
C  37.14000 7.82300 30.61600
C  35.93900 7.10800 30.23500
C  35.96200 7.06700 28.82800
C  37.25500 7.61900 28.43700
C  34.94400 6.50900 31.17900
C  34.92200 6.52400 27.85400
O  34.89500 6.78700 26.68800
C  33.80400 5.69000 28.38800
N  39.85600 8.93400 27.47300
C  39.04900 8.17800 26.66600
C  39.51400 8.13300 25.18000
C  40.91500 8.94800 25.31100
C  40.93800 9.35800 26.79800
C  39.56800 6.77600 24.54300
C  40.95100 10.15900 24.30600
C  40.34700 11.57200 24.75800
N  41.47300 10.30000 29.58000
C  42.37000 10.50400 28.58300
C  43.46600 11.27400 29.03000
C  43.23300 11.50200 30.43300
C  41.99500 10.86700 30.68200
C  44.60600 11.81100 28.22100
C  43.71400 12.08100 31.71800
O  44.73100 12.73000 31.93100
C  42.62000 11.74300 32.77600
C  43.35800 11.05500 33.92000
O  43.70400 9.89100 34.01000
O  43.59200 11.96100 34.91200
C  44.00900 11.50700 36.22500
H  36.91100 7.82500 32.74200
H  37.50800 6.98300 26.34100
H  42.80700 10.23500 26.49600
H  40.68900 9.96200 34.66200
H  37.89500 9.47800 34.33300
H  39.30100 7.03800 34.05400
H  38.32600 7.70400 35.36200
H  40.08000 8.05100 35.27400
H  38.45600 11.89700 33.98800
H  40.11700 12.39000 34.22700
H  39.07900 10.52700 36.33700
H  38.16700 12.05800 36.15400
H  33.97100 7.00000 31.15200
H  35.29700 6.67400 32.19600
H  34.84600 5.42600 31.10500
H  34.22100 4.98900 29.11200
H  33.43300 5.12400 27.53400
H  33.03000 6.33000 28.81100
H  38.77400 8.73000 24.64700
H  41.77600 8.30000 25.14800
H  39.62500 6.03900 25.34400
H  40.49800 6.68300 23.98000
H  38.66100 6.72200 23.94100
H  40.38600 9.80200 23.44500
H  41.94100 10.06400 23.86100
H  39.61200 11.24000 25.49100
H  39.91100 12.02800 23.86900
H  40.98400 12.33100 25.21400
H  44.31200 12.04400 27.19800
H  45.36000 11.06100 27.98000
H  44.91700 12.74000 28.69800
H  42.26900 12.71200 33.13000
H  43.57200 10.55200 36.51500
H  43.82500 12.23100 37.01900
H  45.09200 11.39800 36.28800
Mg 27.25400 51.91200 25.56200
C  25.44600 52.86500 28.43600
C  29.81000 50.86500 27.80900
C  29.15400 51.00100 22.84400
C  24.82200 53.16400 23.51700
N  27.51600 51.86100 27.86500
C  26.60000 52.16800 28.80700
C  27.15500 51.93300 30.26400
C  28.54100 51.34900 29.99200
C  28.64700 51.40900 28.45800
C  29.66500 52.12400 30.72300
C  26.18100 51.00900 31.11800
C  26.73800 50.37400 32.45500
H  25.90300 50.52700 33.73800
N  29.22300 51.08900 25.40900
C  30.08700 50.70800 26.43000
C  31.31600 50.22500 25.80700
C  31.00900 49.98200 24.45800
C  29.78900 50.73900 24.15800
C  32.51800 49.94800 26.68700
C  31.80000 49.16200 23.40000
O  31.38500 48.90300 22.26600
C  33.11700 48.45000 23.81400
N  27.13100 52.13500 23.51300
C  27.98800 51.71900 22.56300
C  27.45900 51.80300 21.14400
C  26.13300 52.53700 21.44100
C  25.98100 52.56600 22.97300
C  28.22900 52.48000 20.02000
C  24.98300 51.81200 20.66700
C  23.83200 52.69800 20.04800
N  25.57600 52.94600 25.86000
C  24.67900 53.35400 24.88400
C  23.47000 53.81300 25.59800
C  23.76000 53.79600 26.97200
C  25.05200 53.19500 27.07000
C  22.21100 54.35700 25.00400
C  23.13000 53.91300 28.29800
O  22.03400 54.27500 28.60600
C  24.24500 53.27800 29.24700
C  24.54500 54.12700 30.42500
O  25.33600 55.09200 30.35800
O  23.86200 53.77300 31.54600
C  24.11100 54.67900 32.74200
H  30.50200 50.47100 28.55600
H  29.65500 50.63500 21.94500
H  23.98500 53.51700 22.91000
H  27.29800 52.95000 30.63000
H  28.57100 50.29800 30.27900
H  29.39300 52.34900 31.75400
H  29.85700 53.14900 30.40600
H  30.61300 51.60300 30.58700
H  25.75200 50.26400 30.44800
H  25.36300 51.66200 31.42400
H  27.75500 50.74000 32.59600
H  26.77300 49.36800 32.03600
H  32.55600 50.81500 27.34700
H  33.45500 49.87600 26.13600
H  32.47100 49.00700 27.23600
H  33.78600 49.30100 23.94500
H  33.34800 47.73800 23.02200
H  33.01500 47.95800 24.78200
H  27.39300 50.75300 20.85600
H  26.18200 53.56300 21.07700
H  28.56200 51.80300 19.23300
H  29.15100 52.84900 20.46800
H  27.60700 53.28900 19.63500
H  24.52900 51.14400 21.39900
H  25.37300 51.03500 20.01000
H  24.23000 53.70300 19.90300
H  22.87400 52.75200 20.56600
H  23.46100 52.37500 19.07500
H  22.13400 54.31200 23.91800
H  22.12200 55.41100 25.26400
H  21.32100 53.81100 25.31700
H  23.72200 52.41000 29.64800
H  24.53700 55.64000 32.45300
H  24.75100 54.19300 33.47900
H  23.16800 54.83100 33.26700

