158

Mg 16.36200 -1.52300 28.19300
C  15.18000 0.22500 30.84300
C  18.54300 -3.16300 30.51200
C  17.88500 -3.10600 25.54700
C  14.18800 -0.02100 25.98700
N  16.82000 -1.42900 30.40900
C  16.17000 -0.67500 31.29000
C  16.61700 -0.96000 32.73900
C  17.85300 -1.87800 32.52200
C  17.76200 -2.14700 31.01000
C  19.22500 -1.41300 32.97100
C  15.37800 -1.32200 33.75900
C  15.43100 -0.73900 35.14800
H  16.67300 0.06300 35.62200
N  17.97400 -2.94600 28.05600
C  18.64500 -3.56300 29.13100
C  19.40600 -4.70100 28.56800
C  19.36600 -4.61300 27.16600
C  18.41400 -3.52200 26.84900
C  19.98700 -5.80400 29.51400
C  20.18100 -5.41200 26.12400
O  20.09400 -5.23300 24.87300
C  21.15700 -6.46900 26.62500
N  16.21200 -1.54700 26.08500
C  16.99000 -2.11400 25.18300
C  16.63600 -1.73200 23.76300
C  15.15500 -1.17600 23.98800
C  15.15500 -0.92900 25.43600
C  17.58600 -0.65500 23.04000
C  13.91900 -2.16200 23.68600
C  13.05700 -1.97500 22.47100
N  15.03300 -0.07400 28.26500
C  14.16600 0.43200 27.33600
C  13.37300 1.44600 27.88500
C  13.72300 1.39000 29.32400
C  14.76000 0.45600 29.48600
C  12.30600 2.36000 27.25400
C  13.47800 1.98400 30.62200
O  12.69200 2.89000 30.94400
C  14.42200 1.22800 31.60900
C  15.20000 2.22900 32.37300
O  16.40400 2.37500 32.34500
O  14.40600 2.99700 33.20000
C  15.12700 4.00300 34.10500
H  19.18500 -3.70800 31.20700
H  18.21600 -3.68400 24.68100
H  13.37400 0.26700 25.31800
H  17.05100 0.00200 33.01300
H  17.72600 -2.75100 33.16200
H  19.31600 -1.81500 33.98000
H  19.33900 -0.33100 32.90500
H  20.00800 -1.77200 32.30400
H  15.34500 -2.40900 33.82300
H  14.42800 -1.03700 33.30600
H  15.31700 -1.57400 35.83900
H  14.56300 -0.11100 35.35300
H  20.06400 -5.39400 30.52100
H  21.06300 -5.95400 29.42700
H  19.40100 -6.72300 29.53300
H  21.51700 -7.12800 25.83500
H  20.71200 -7.12300 27.37500
H  21.87000 -5.88600 27.20800
H  16.50600 -2.62400 23.14900
H  14.99800 -0.19700 23.53400
H  17.84800 -1.19700 22.13100
H  18.49300 -0.34600 23.55900
H  17.03100 0.26400 22.85200
H  13.32500 -2.17000 24.60000
H  14.46600 -3.09300 23.53900
H  12.56100 -1.00500 22.51000
H  12.18300 -2.61800 22.57900
H  13.64000 -2.16000 21.56900
H  11.33300 2.31500 27.74300
H  12.36500 2.09900 26.19700
H  12.62800 3.39900 27.33200
H  13.80300 0.65400 32.29700
H  14.52600 4.90600 34.21400
H  16.08000 4.34000 33.69800
H  15.32200 3.45500 35.02700
Mg 29.85400 58.32900 40.88800
C  26.96900 56.54000 39.95500
C  31.68400 56.03800 38.91800
C  32.42500 60.40800 40.98400
C  27.73900 61.01800 42.04400
N  29.39300 56.43800 39.82400
C  28.14100 55.96300 39.44800
C  28.25100 54.77000 38.45100
C  29.75800 54.32000 38.76600
C  30.36200 55.66600 39.21200
C  29.96000 53.15100 39.70600
C  27.95800 55.18000 36.97100
C  27.06400 54.35700 36.10300
H  26.94200 54.56100 34.64600
N  31.85600 58.12700 40.28600
C  32.37700 57.18300 39.46700
C  33.77600 57.52500 39.14900
C  34.05400 58.80700 39.76500
C  32.71000 59.17600 40.38200
C  34.68200 56.48200 38.29900
C  35.30600 59.55000 39.65500
O  36.25700 59.09400 38.96200
C  35.60700 60.83100 40.41700
N  30.00500 60.33900 41.56000
C  31.26600 60.77600 41.66100
C  31.29200 62.22400 42.29800
C  29.73900 62.50100 42.49500
C  29.12900 61.25700 42.00000
C  32.09300 62.25000 43.60100
C  29.30600 63.82900 41.71100
C  28.39900 64.87200 42.46800
N  27.76300 58.71200 41.02400
C  27.08300 59.83600 41.56200
C  25.69000 59.53900 41.57200
C  25.58800 58.28200 40.95700
C  26.85500 57.82000 40.61000
C  24.59600 60.44000 42.07400
C  24.64100 57.25200 40.50000
O  23.44200 57.23500 40.52500
C  25.52100 56.07700 39.83500
C  25.30000 54.82300 40.65200
O  25.96200 54.57100 41.65900
O  24.45800 53.90300 40.07700
C  24.47000 52.51700 40.60700
H  32.11600 55.31000 38.22800
H  33.20600 61.17100 40.98700
H  27.13100 61.73700 42.59700
H  27.48800 54.04700 38.73800
H  30.22500 53.92600 37.86300
H  28.99300 52.86400 40.12100
H  30.57200 53.43700 40.56100
H  30.43000 52.26100 39.28700
H  28.92300 55.24900 36.47000
H  27.75100 56.24600 36.86900
H  26.07900 54.41000 36.56700
H  27.39700 53.33800 36.30400
H  34.84400 56.78300 37.26400
H  34.27300 55.47200 38.33100
H  35.64000 56.29200 38.78200
H  35.11500 61.68100 39.94400
H  36.69300 60.89800 40.35600
H  35.30200 60.77000 41.46200
H  31.73400 62.95300 41.61800
H  29.34100 62.48600 43.50900
H  32.63700 61.32400 43.78600
H  31.39700 62.38500 44.42800
H  32.77800 63.09600 43.66700
H  28.75000 63.57800 40.80800
H  30.16600 64.40900 41.37700
H  28.24100 64.63000 43.51900
H  27.51000 65.11400 41.88600
H  29.06400 65.73600 42.46000
H  24.90500 60.97500 42.97200
H  23.71600 59.82500 42.26200
H  24.53400 61.23100 41.32700
H  25.13600 55.92800 38.82600
H  25.46900 52.21000 40.91600
H  24.19400 51.82400 39.81200
H  23.71700 52.43000 41.38900

