158

Mg 26.95000 50.55500 26.26100
C  25.04200 51.75900 28.95800
C  29.48400 49.68400 28.38200
C  28.61400 49.35900 23.70700
C  24.38900 51.82000 24.10600
N  27.19800 50.73400 28.43900
C  26.22700 51.09100 29.38300
C  26.74800 50.76900 30.79500
C  28.28800 50.32900 30.61600
C  28.32900 50.24600 29.01600
C  29.36600 51.22700 31.33700
C  25.91600 49.70600 31.63700
C  25.18500 50.26400 32.88200
H  25.94400 50.75800 34.11500
N  28.85800 49.67700 26.10300
C  29.76400 49.37700 27.06800
C  30.89800 48.70100 26.49100
C  30.61900 48.52600 25.12400
C  29.29900 49.18200 24.89600
C  32.04000 48.27900 27.41900
C  31.47300 47.86900 24.03000
O  31.17600 47.87400 22.83200
C  32.68200 47.22400 24.41300
N  26.67700 50.80200 24.08500
C  27.41400 50.01700 23.30200
C  26.81800 50.07700 21.82100
C  25.52400 50.92200 21.93700
C  25.47200 51.20300 23.48300
C  27.80700 50.43200 20.68700
C  24.20600 50.16800 21.43000
C  23.13600 50.99100 20.56500
N  25.12000 51.66500 26.38700
C  24.20900 52.09100 25.47400
C  23.16600 52.75800 26.10500
C  23.47200 52.71700 27.45000
C  24.67300 51.98400 27.60700
C  21.93200 53.22000 25.54400
C  22.94200 53.00200 28.70400
O  21.91700 53.50600 29.05500
C  23.91300 52.40100 29.81400
C  24.34700 53.47800 30.72700
O  25.34700 54.14000 30.54200
O  23.56300 53.50200 31.86800
C  24.13200 54.28200 33.04800
H  30.28100 49.30000 29.02200
H  28.98200 48.62000 22.99200
H  23.52200 52.18200 23.54900
H  26.74200 51.73900 31.29200
H  28.44700 49.30000 30.93800
H  29.48000 52.10700 30.70400
H  30.32200 50.70900 31.25100
H  29.16700 51.51000 32.37000
H  26.53200 48.86000 31.94200
H  25.21200 49.28300 30.92000
H  24.51000 49.46900 33.19900
H  24.62700 51.07000 32.40600
H  32.31000 49.00800 28.18300
H  32.98800 48.19300 26.88800
H  31.90300 47.27500 27.82100
H  32.43000 46.45100 25.13900
H  33.45600 47.88100 24.81000
H  33.12600 46.86500 23.48400
H  26.47500 49.04600 21.72300
H  25.74600 51.85000 21.41000
H  28.76700 50.59100 21.17800
H  27.55000 51.25300 20.01700
H  27.82700 49.55600 20.03900
H  23.74600 49.64900 22.27200
H  24.62100 49.29900 20.91900
H  22.94700 50.32200 19.72500
H  23.45400 52.00300 20.31700
H  22.20800 51.02900 21.13700
H  21.39000 52.48200 24.95300
H  22.23300 54.00200 24.84700
H  21.30200 53.64200 26.32700
H  23.26400 51.73600 30.38500
H  24.96700 53.70600 33.44700
H  23.41800 54.34800 33.86900
H  24.49700 55.27100 32.76900
Mg -5.66900 25.41700 26.26000
C  -4.44600 26.86700 29.25000
C  -7.65800 23.36800 28.16600
C  -6.43300 23.93900 23.37300
C  -3.42700 27.59800 24.53100
N  -5.90500 25.12000 28.52700
C  -5.41800 25.91200 29.50100
C  -6.04500 25.57400 30.80200
C  -6.88100 24.29800 30.40000
C  -6.82600 24.23500 28.94700
C  -6.43000 22.93700 31.01700
C  -6.85900 26.79300 31.44200
C  -6.79300 27.03900 32.92900
H  -6.27500 25.83200 33.77900
N  -6.88300 23.87600 25.78400
C  -7.68000 23.17500 26.71500
C  -8.51000 22.21600 26.05000
C  -8.06100 22.28800 24.64300
C  -7.12800 23.42300 24.49500
C  -9.45500 21.28900 26.71700
C  -8.40600 21.35000 23.47900
O  -8.08000 21.50000 22.29700
C  -9.35600 20.22300 23.66000
N  -5.05700 25.76100 24.20100
C  -5.52300 24.95000 23.21900
C  -4.80800 25.28300 21.87500
C  -4.13500 26.63200 22.21300
C  -4.25700 26.74800 23.74200
C  -3.88600 24.06300 21.53800
C  -4.84600 27.84700 21.58400
C  -4.49300 28.28800 20.15000
N  -4.20100 27.00500 26.81600
C  -3.36300 27.64200 25.95900
C  -2.47500 28.49900 26.77200
C  -2.89600 28.25200 28.05800
C  -3.93900 27.27900 28.00800
C  -1.45800 29.44900 26.09700
C  -2.70500 28.61800 29.45900
O  -1.99300 29.48000 29.91000
C  -3.66200 27.73500 30.26500
C  -2.88400 26.92300 31.21700
O  -2.44300 25.80400 31.02500
O  -2.63000 27.65000 32.33000
C  -2.00900 26.89000 33.42400
H  -8.40000 22.85700 28.78300
H  -6.73700 23.53400 22.40500
H  -2.83100 28.31500 23.96200
H  -5.22000 25.33500 31.47400
H  -7.90900 24.61000 30.58700
H  -6.66500 22.95000 32.08100
H  -5.34800 22.84200 30.92600
H  -7.02400 22.16600 30.52600
H  -7.91500 26.63000 31.22800
H  -6.58800 27.74100 30.97700
H  -7.76700 27.39800 33.26200
H  -6.18800 27.93200 33.08800
H  -10.40000 21.11600 26.20200
H  -9.53000 21.43100 27.79500
H  -8.92000 20.34300 26.63300
H  -10.39200 20.56000 23.62500
H  -9.05700 19.54600 24.46000
H  -9.29800 19.55400 22.80200
H  -5.48100 25.49400 21.04400
H  -3.10500 26.58900 21.86000
H  -2.84700 24.38600 21.59200
H  -4.10900 23.71800 20.52800
H  -4.00100 23.17200 22.15600
H  -4.63400 28.72400 22.19500
H  -5.90900 27.63200 21.48300
H  -5.27100 28.80800 19.59100
H  -3.95900 27.55800 19.54300
H  -3.77900 29.10800 20.22700
H  -2.07500 30.32200 25.89000
H  -0.92900 29.13400 25.19700
H  -0.76800 29.70600 26.90000
H  -4.35700 28.37600 30.80800
H  -0.92200 26.95800 33.38300
H  -2.32100 25.85200 33.54100
H  -1.97600 27.40500 34.38500

