158

Mg 0.07500 8.43700 26.82000
C  0.79600 10.51200 29.61100
C  0.64400 5.70300 28.83300
C  -0.13900 6.54600 24.08500
C  0.08300 11.40600 24.93500
N  0.48500 8.21900 28.95100
C  0.56200 9.10500 29.97100
C  0.65900 8.51600 31.32500
C  0.95200 6.98500 31.03700
C  0.72500 6.95100 29.50300
C  2.36300 6.49900 31.27600
C  -0.72200 8.78000 31.93200
C  -0.90900 8.59400 33.47400
H  0.16700 8.25500 34.44300
N  0.12200 6.36600 26.54500
C  0.36400 5.41800 27.45000
C  0.32700 4.09700 26.83500
C  0.07300 4.34100 25.46000
C  0.11500 5.82600 25.26100
C  0.49100 2.87200 27.64200
C  -0.11700 3.32100 24.38700
O  -0.23300 3.79800 23.23700
C  -0.21400 1.78200 24.60400
N  0.20800 8.89100 24.87800
C  -0.14300 7.94900 23.92800
C  -0.28900 8.61600 22.54700
C  -0.56400 10.09400 22.88800
C  0.02300 10.14000 24.27800
C  0.87500 8.46800 21.57100
C  -2.04400 10.59300 22.92500
C  -2.45800 11.37900 21.65100
N  0.38400 10.50600 27.17000
C  0.40800 11.60300 26.27500
C  0.72900 12.85800 26.88600
C  0.90300 12.42300 28.22400
C  0.62500 11.07400 28.34100
C  0.94300 14.28800 26.25100
C  1.31800 12.87700 29.54000
O  1.73200 14.00100 29.83100
C  1.10600 11.67500 30.52100
C  2.37900 11.52800 31.27600
O  3.45500 11.00600 30.94100
O  2.13500 12.17000 32.45300
C  3.21100 12.06400 33.53500
H  0.97200 4.91900 29.51800
H  -0.35500 5.97700 23.17800
H  -0.04300 12.23700 24.23700
H  1.46200 9.00200 31.88000
H  0.14800 6.42200 31.51100
H  2.25300 5.63300 31.93000
H  2.94400 7.32400 31.68700
H  2.85800 6.11900 30.38300
H  -1.51900 8.30200 31.36300
H  -0.85400 9.85800 31.84100
H  -1.69400 7.85600 33.63500
H  -1.27100 9.55800 33.83300
H  0.98500 3.02000 28.60200
H  1.13800 2.19600 27.08100
H  -0.48700 2.42200 27.80900
H  0.81900 1.48400 24.78500
H  -0.44600 1.38500 23.61700
H  -1.05300 1.58200 25.27100
H  -1.22200 8.27700 22.09700
H  0.06400 10.72700 22.26000
H  1.22900 7.43700 21.55000
H  1.74200 9.03300 21.91100
H  0.55100 8.70600 20.55800
H  -2.34300 11.16200 23.80600
H  -2.58800 9.65700 23.05600
H  -1.66100 11.50700 20.91900
H  -2.74200 12.35400 22.04800
H  -3.26900 10.88200 21.11800
H  1.37700 14.95200 26.99900
H  0.06000 14.76100 25.82100
H  1.74600 14.24000 25.51600
H  0.31700 12.00700 31.19500
H  3.60800 13.04900 33.78100
H  4.00600 11.38200 33.23200
H  2.69300 11.68500 34.41600
Mg 53.62700 24.36100 43.86700
C  50.98100 26.52800 43.48100
C  51.72900 21.70600 42.95700
C  56.47500 22.49700 43.34600
C  55.63200 27.15100 44.46200
N  51.63400 24.19000 43.25300
C  50.61600 25.17600 43.27800
C  49.30400 24.52100 42.95900
C  49.54900 22.96900 43.07500
C  51.08000 22.92500 43.10900
C  48.85100 22.29000 44.23000
C  48.60500 25.10900 41.60300
C  49.52900 25.24600 40.37800
H  49.31100 24.28900 39.22700
N  54.00000 22.28700 43.46400
C  53.05400 21.36400 43.22000
C  53.64900 20.07900 43.14100
C  55.06600 20.26500 43.19300
C  55.25100 21.71300 43.34700
C  52.73800 18.82900 42.95900
C  56.03600 19.11900 43.02700
O  55.64700 17.97400 42.73900
C  57.53000 19.44000 43.04700
N  55.76700 24.81600 43.86500
C  56.66900 23.87900 43.52200
C  58.12600 24.55800 43.48300
C  57.82100 26.01800 44.06400
C  56.28600 26.03400 44.11500
C  59.19200 23.77600 44.36700
C  58.38400 27.19800 43.25200
C  59.45500 28.06700 44.06600
N  53.35500 26.42600 44.01100
C  54.19200 27.39600 44.37600
C  53.54100 28.72700 44.56900
C  52.25600 28.42100 44.21800
C  52.18100 27.04800 43.84500
C  54.18000 29.98200 45.09400
C  50.85400 28.85900 44.19400
O  50.42000 29.95400 44.60500
C  50.00300 27.70500 43.60000
C  49.75300 28.25000 42.20000
O  50.60600 28.59800 41.38900
O  48.37300 28.46800 41.98300
C  48.10200 29.34600 40.80800
H  50.98900 20.91400 42.82700
H  57.40100 22.00500 43.03800
H  56.17700 28.05700 44.73600
H  48.58700 24.96200 43.65100
H  49.13600 22.57800 42.14600
H  49.56600 21.78500 44.87900
H  48.27600 21.52600 43.70900
H  48.12500 22.80600 44.85900
H  48.16000 26.08500 41.79700
H  47.90900 24.32500 41.30300
H  50.54300 25.07600 40.73900
H  49.46700 26.23900 39.93300
H  51.75800 18.95600 43.41900
H  52.98900 17.94100 43.53800
H  52.73500 18.40800 41.95300
H  58.04500 18.51200 42.79800
H  57.75900 19.60700 44.09900
H  57.71700 20.16500 42.25500
H  58.40100 24.50200 42.43000
H  58.10500 26.08900 45.11400
H  60.10200 23.63300 43.78500
H  58.82200 22.75900 44.50200
H  59.57500 24.27600 45.25600
H  57.57500 27.84200 42.90500
H  58.97700 26.78300 42.43700
H  60.38400 28.16700 43.50500
H  59.77200 27.63300 45.01400
H  58.98400 29.05000 44.02800
H  55.05500 30.25400 44.50400
H  54.44500 29.77500 46.13100
H  53.42700 30.76900 45.14500
H  49.04800 27.63900 44.12000
H  48.68500 30.26700 40.79100
H  47.10300 29.77400 40.88500
H  48.12400 28.84400 39.84100

