158

Mg 17.25500 -1.67700 27.08700
C  16.24800 0.10600 29.88700
C  19.30900 -3.64500 28.97400
C  18.62300 -2.81900 24.16000
C  15.25400 0.51100 25.13900
N  17.87500 -1.59500 29.18000
C  17.28300 -0.86400 30.16400
C  17.69600 -1.42500 31.60600
C  18.82800 -2.50400 31.27200
C  18.67800 -2.62400 29.72500
C  20.28800 -2.14700 31.80900
C  16.53700 -2.04100 32.43500
C  16.50500 -1.70400 33.94100
H  17.64900 -0.91300 34.64900
N  18.53400 -3.22100 26.61300
C  19.27000 -3.86600 27.56000
C  19.91400 -4.96000 26.81400
C  19.74200 -4.72600 25.41400
C  18.90600 -3.54900 25.36000
C  20.82900 -5.90600 27.53800
C  20.23900 -5.59600 24.30000
O  20.00500 -5.39800 23.09300
C  20.97400 -6.87000 24.55900
N  16.95400 -1.30300 25.01400
C  17.78300 -1.71200 24.04600
C  17.30200 -1.20700 22.64800
C  16.09900 -0.28300 22.99700
C  16.07000 -0.37100 24.47400
C  18.37700 -0.56400 21.85100
C  14.82900 -0.74500 22.27300
C  14.49100 -0.07000 20.96000
N  15.99200 -0.01300 27.43500
C  15.20400 0.72600 26.49500
C  14.56700 1.78500 27.21300
C  14.87500 1.51700 28.59900
C  15.76700 0.44700 28.64300
C  13.69500 2.92700 26.64200
C  14.77200 2.07000 29.99400
O  14.15700 3.01900 30.43100
C  15.58900 1.12800 30.87200
C  16.61100 1.93500 31.54300
O  17.72900 2.26200 31.07200
O  16.07000 2.34700 32.80900
C  16.98700 3.27800 33.56700
H  19.92400 -4.26900 29.62600
H  19.07200 -3.21100 23.24500
H  14.58000 1.16600 24.58400
H  18.09200 -0.66500 32.27800
H  18.60400 -3.45400 31.75500
H  21.02200 -2.39000 31.04100
H  20.68100 -2.62100 32.70800
H  20.25000 -1.08300 32.04200
H  16.47700 -3.12900 32.39800
H  15.57000 -1.60300 32.18500
H  16.23300 -2.55000 34.57200
H  15.64600 -1.04400 34.06000
H  20.45400 -6.92700 27.46900
H  20.70100 -5.66500 28.59400
H  21.87100 -5.89600 27.22200
H  21.78000 -6.68600 25.26900
H  21.47900 -7.20000 23.65100
H  20.31000 -7.62900 24.97400
H  17.03900 -2.15600 22.18100
H  16.39800 0.74400 22.78800
H  18.84900 -1.18700 21.09100
H  19.20000 -0.25400 22.49600
H  17.87400 0.21100 21.27300
H  13.96000 -0.63100 22.92100
H  14.92700 -1.82800 22.19800
H  15.08600 0.84200 20.91700
H  13.43400 0.19000 21.01500
H  14.66600 -0.72900 20.11000
H  13.16800 2.62900 25.73600
H  14.28200 3.83500 26.49700
H  12.93200 3.29600 27.32800
H  14.96500 0.59200 31.58600
H  17.76800 2.67300 34.02700
H  16.37500 3.69800 34.36500
H  17.31100 4.12700 32.96500
Mg -8.81100 18.18200 43.35600
C  -5.35300 17.65100 43.30800
C  -8.28100 21.43100 42.54200
C  -12.03600 18.43200 42.63300
C  -9.17400 14.53000 43.70000
N  -7.01200 19.28400 42.71700
C  -5.69900 18.87000 42.79200
C  -4.72500 20.09400 42.68200
C  -5.72900 21.25800 42.83300
C  -7.09200 20.64500 42.58500
C  -5.68100 22.01000 44.22300
C  -3.94300 20.08600 41.38000
C  -4.31700 19.12500 40.16400
H  -3.79000 19.47600 38.71500
N  -10.02400 19.71400 42.83200
C  -9.62300 20.97600 42.57500
C  -10.77500 21.80900 42.28200
C  -11.84700 20.99900 42.08200
C  -11.37300 19.66100 42.51900
C  -10.66700 23.30700 42.11600
C  -13.18800 21.34900 41.63800
O  -13.41100 22.54700 41.46800
C  -14.33700 20.40900 41.46900
N  -10.44500 16.63100 43.18300
C  -11.69500 17.08400 42.96000
C  -12.60700 15.86900 43.14700
C  -11.74800 14.55400 43.34900
C  -10.36800 15.30200 43.41600
C  -13.64000 16.10400 44.23900
C  -11.72700 13.48000 42.15900
C  -11.85600 12.04900 42.66900
N  -7.54200 16.48300 43.49200
C  -7.84900 15.07700 43.77400
C  -6.59700 14.39800 44.03100
C  -5.57000 15.36700 43.77800
C  -6.20300 16.62800 43.55200
C  -6.48800 12.91700 44.32800
C  -4.16700 15.59300 43.78200
O  -3.24100 14.85400 43.96000
C  -3.94800 17.15900 43.57700
C  -3.20200 17.89100 44.64100
O  -2.02700 18.28500 44.54500
O  -4.00300 18.09100 45.77700
C  -3.65400 19.23600 46.59900
H  -7.96000 22.46600 42.40700
H  -13.08400 18.60700 42.37800
H  -9.25700 13.49300 44.03100
H  -4.02100 20.13600 43.51200
H  -5.63400 21.98200 42.02300
H  -6.53000 22.64400 44.47800
H  -4.82900 22.68600 44.16500
H  -5.56300 21.29200 45.03500
H  -2.92400 19.82700 41.66800
H  -3.74000 21.08200 40.98800
H  -5.39900 19.00200 40.12400
H  -3.88400 18.13700 40.31800
H  -11.12500 23.57300 41.16400
H  -9.61500 23.59400 42.13700
H  -11.32900 23.75300 42.85800
H  -14.65100 20.04600 42.44800
H  -14.17200 19.54800 40.82100
H  -15.19000 20.99900 41.13600
H  -13.16600 15.71900 42.22300
H  -11.89100 14.15900 44.35500
H  -13.16300 16.09400 45.21900
H  -14.34300 15.27200 44.23400
H  -14.34300 16.92100 44.07500
H  -10.82700 13.54300 41.54800
H  -12.56100 13.68100 41.48600
H  -12.84200 11.67800 42.39200
H  -11.84500 11.89000 43.74700
H  -11.10700 11.43300 42.17100
H  -5.58100 12.77200 44.91600
H  -6.28700 12.40500 43.38700
H  -7.35400 12.51500 44.85400
H  -3.41600 17.24100 42.63000
H  -3.35200 20.13700 46.06400
H  -2.78000 18.99000 47.20100
H  -4.52000 19.46700 47.21800

