158

Mg 47.71500 16.24100 28.49200
C  45.76000 16.16800 31.39000
C  50.14000 17.85900 30.28000
C  49.72100 16.23100 25.70400
C  45.19400 14.80900 26.72600
N  47.81200 17.12000 30.62400
C  46.96500 16.80000 31.69000
C  47.54300 17.15800 33.05900
C  48.78500 17.98600 32.63800
C  48.93500 17.63600 31.06100
C  48.80800 19.43300 33.03200
C  47.84700 16.02900 33.95700
C  47.41000 16.28700 35.47400
H  47.34200 17.74600 36.02800
N  49.66800 16.81500 28.06600
C  50.43100 17.51600 28.95700
C  51.76300 17.77000 28.36900
C  51.66200 17.42000 27.03200
C  50.36000 16.72900 26.83900
C  52.94700 18.22000 29.21800
C  52.76400 17.55400 25.99700
O  52.74100 17.07200 24.88500
C  53.95400 18.43900 26.27000
N  47.44300 15.63900 26.54200
C  48.43200 15.64400 25.53300
C  47.97500 15.17000 24.20300
C  46.58200 14.56300 24.55600
C  46.39400 14.96900 26.01000
C  48.05800 16.31500 23.20900
C  46.46900 13.02400 24.43500
C  45.99100 12.51300 23.03400
N  45.84700 15.67900 28.88200
C  44.93300 15.07400 28.10100
C  43.77700 14.74800 28.86800
C  44.03900 15.02500 30.21700
C  45.31900 15.69800 30.12000
C  42.53900 14.08200 28.25500
C  43.56600 14.90300 31.50900
O  42.57800 14.34200 31.99900
C  44.73800 15.74300 32.33400
C  44.07300 16.90400 33.05800
O  44.09900 18.08300 32.79500
O  43.50400 16.41800 34.19100
C  42.87800 17.51200 34.95500
H  50.86100 18.40200 30.89400
H  50.26300 16.33300 24.76100
H  44.36400 14.39300 26.15200
H  46.84100 17.88300 33.47100
H  49.63200 17.53800 33.15800
H  48.94000 20.01700 32.12100
H  49.53400 19.55600 33.83600
H  47.83900 19.79500 33.37600
H  48.89500 15.75400 33.83100
H  47.19200 15.20300 33.68000
H  48.12000 15.84900 36.17600
H  46.39500 15.89700 35.54400
H  52.93100 17.81600 30.23000
H  52.99100 19.30700 29.27800
H  53.92100 17.97800 28.79200
H  53.56600 19.27100 26.85700
H  54.30900 18.72300 25.28000
H  54.69400 17.82000 26.77800
H  48.67600 14.42700 23.82300
H  45.80900 15.06000 23.97000
H  49.05900 16.39800 22.78500
H  47.72800 17.26100 23.63900
H  47.31800 16.01800 22.46600
H  45.82700 12.61500 25.21600
H  47.44500 12.56100 24.58100
H  46.77700 11.82300 22.72600
H  45.93000 13.28800 22.27100
H  45.05000 11.96600 22.97500
H  41.85200 13.87400 29.07500
H  42.84300 13.17500 27.73200
H  41.99000 14.72000 27.56300
H  45.04300 15.06200 33.12800
H  42.05500 17.84300 34.32100
H  43.61800 18.29000 35.14300
H  42.44800 17.14200 35.88600
Mg -13.10000 16.13400 41.41700
C  -10.24200 14.57300 40.56400
C  -12.19500 18.85300 39.65900
C  -16.27900 17.42600 41.70400
C  -14.49600 13.01700 42.39200
N  -11.34000 16.69600 40.45900
C  -10.32000 15.93700 40.13300
C  -9.20900 16.65800 39.42800
C  -9.83800 18.14400 39.20000
C  -11.22100 17.93000 39.82000
C  -9.02300 19.26700 39.91700
C  -8.56800 15.83300 38.20900
C  -7.15100 15.53100 38.20800
H  -6.15700 16.13500 37.21800
N  -14.05600 17.84700 40.74400
C  -13.48900 18.86200 40.12300
C  -14.38200 19.98900 39.98700
C  -15.51000 19.65400 40.72600
C  -15.29600 18.24200 41.07300
C  -14.05700 21.32800 39.28600
C  -16.67200 20.66000 41.00000
O  -16.65900 21.83200 40.71600
C  -17.88000 20.27300 41.78900
N  -15.11600 15.33300 42.08700
C  -16.23800 16.08500 42.00600
C  -17.52200 15.21600 42.36900
C  -16.88000 13.87200 42.31600
C  -15.41000 14.05400 42.28000
C  -18.01000 15.63100 43.82700
C  -17.38900 13.13400 41.02600
C  -18.19200 11.83800 41.24400
N  -12.50600 14.13400 41.60000
C  -13.16800 13.01400 42.01900
C  -12.31700 11.87600 41.93400
C  -11.08600 12.46500 41.39800
C  -11.33400 13.83200 41.20800
C  -12.60800 10.47500 42.36800
C  -9.64600 12.22200 40.99900
O  -8.97900 11.21500 40.95500
C  -9.02700 13.57000 40.50000
C  -7.86600 13.87800 41.38400
O  -7.84300 14.68700 42.34200
O  -6.67700 13.19500 41.00900
C  -5.45700 13.60200 41.82100
H  -11.96100 19.83800 39.25000
H  -17.26600 17.88200 41.60800
H  -15.07500 12.10000 42.52400
H  -8.38000 16.81000 40.12000
H  -9.96700 18.30800 38.13000
H  -9.52000 19.51800 40.85400
H  -9.08200 20.20300 39.36200
H  -7.96600 19.06000 40.08700
H  -8.75300 16.52600 37.38800
H  -9.17600 14.98100 37.90700
H  -7.11100 14.45600 38.03200
H  -6.90100 15.54400 39.26800
H  -13.29200 21.16600 38.52700
H  -13.71500 22.09600 39.98000
H  -14.89500 21.83500 38.80800
H  -18.53300 19.61300 41.21800
H  -18.53100 21.09200 42.09400
H  -17.61100 19.79400 42.73100
H  -18.30500 15.34100 41.62100
H  -17.05300 13.33900 43.25000
H  -17.68200 16.67000 43.85100
H  -17.64400 15.09300 44.70100
H  -19.09600 15.67300 43.92000
H  -16.50600 12.84800 40.45500
H  -17.94900 13.85800 40.43500
H  -17.90700 11.13700 40.45900
H  -19.24300 12.12200 41.19900
H  -17.92900 11.43800 42.22400
H  -13.65900 10.36600 42.63700
H  -11.89500 10.22900 43.15600
H  -12.52200 9.90200 41.44500
H  -8.76600 13.32600 39.47100
H  -4.59200 13.60300 41.15800
H  -5.18400 12.94400 42.64600
H  -5.54700 14.53800 42.37300

