158

Mg 39.64700 9.87500 29.89700
C  41.74500 11.19300 32.48000
C  37.52400 8.91700 32.56300
C  37.82200 8.23800 27.61300
C  41.90800 10.97800 27.55100
N  39.75100 9.90600 32.34400
C  40.66300 10.57100 33.09700
C  40.22600 10.58100 34.55400
C  38.89000 9.73700 34.51800
C  38.71300 9.56600 33.01200
C  38.85700 8.34600 35.23300
C  40.01900 11.99900 35.16400
C  40.92600 12.32900 36.37000
H  40.25300 12.72800 37.69700
N  37.86700 8.71400 30.08500
C  37.07800 8.53500 31.26400
C  35.90300 7.84100 30.76000
C  36.09200 7.53900 29.35500
C  37.28200 8.17700 28.93900
C  34.79300 7.48000 31.75400
C  35.14900 6.70800 28.50700
O  35.43600 6.35200 27.35700
C  33.87100 6.37500 29.02500
N  39.78000 9.84800 27.78000
C  38.89700 8.99800 27.08700
C  39.30500 8.98100 25.58700
C  40.54100 10.02400 25.57900
C  40.79500 10.24700 27.03900
C  39.61300 7.60400 25.03400
C  40.22900 11.25800 24.71000
C  41.39500 12.19600 24.44000
N  41.47900 10.80800 29.96600
C  42.26400 11.22100 28.89100
C  43.47100 11.94800 29.38600
C  43.25800 11.99700 30.78900
C  42.01300 11.26900 31.07600
C  44.57600 12.45500 28.49700
C  43.83300 12.48300 32.00900
O  44.86100 13.17300 32.17200
C  42.84800 12.03800 33.18100
C  43.59500 11.13600 34.07300
O  43.80200 9.92400 33.97600
O  43.96300 11.80300 35.23500
C  44.72200 11.11300 36.23500
H  36.75000 8.85300 33.33000
H  37.16900 7.83300 26.83800
H  42.58500 11.20900 26.72600
H  41.00400 9.98000 35.02400
H  38.03300 10.29800 34.88800
H  39.85900 7.93500 35.36200
H  38.46200 7.51300 34.65300
H  38.30700 8.35500 36.17400
H  38.98700 12.11900 35.49400
H  40.12400 12.76800 34.39900
H  41.30500 13.31200 36.09100
H  41.65300 11.53700 36.54800
H  34.80100 8.18000 32.58900
H  34.96100 6.44800 32.05900
H  33.83600 7.58900 31.24300
H  33.41100 7.31500 29.33100
H  34.02200 5.63000 29.80600
H  33.26100 5.85400 28.28800
H  38.39300 9.34400 25.11400
H  41.38200 9.51000 25.11400
H  39.71600 6.86100 25.82500
H  40.41400 7.56700 24.29500
H  38.70000 7.29000 24.53000
H  39.40100 11.86000 25.08300
H  39.89300 10.83300 23.76400
H  41.16700 12.68500 23.49300
H  42.36500 11.70100 24.39400
H  41.41200 13.03700 25.13200
H  45.52600 11.99000 28.76300
H  44.57200 13.48300 28.85900
H  44.48500 12.35300 27.41500
H  42.41400 12.94400 33.60500
H  45.56200 10.62200 35.74300
H  44.15100 10.27500 36.63500
H  45.06600 11.74300 37.05500
Mg -1.90900 33.77700 26.85400
C  -3.87800 31.97400 29.06600
C  -0.80200 35.76900 29.47600
C  -0.17700 35.46300 24.62800
C  -3.43600 32.02600 24.32900
N  -2.26300 33.83100 28.99100
C  -3.07700 32.98900 29.71200
C  -2.95200 33.25400 31.22700
C  -2.17700 34.63400 31.31200
C  -1.69300 34.75300 29.85000
C  -2.90300 35.88100 31.78800
C  -2.20800 31.98900 31.95300
C  -2.82800 31.64200 33.36300
H  -1.88300 31.38000 34.61200
N  -0.59900 35.25500 27.02200
C  -0.24200 35.92900 28.16100
C  0.75900 36.91600 27.90900
C  1.08300 36.76500 26.52300
C  0.09600 35.78900 25.97700
C  1.35000 37.85500 28.99200
C  2.04300 37.51600 25.69900
O  2.20100 37.30800 24.52400
C  2.73800 38.64900 26.23600
N  -1.87100 33.84100 24.82200
C  -1.00000 34.52800 24.12500
C  -1.13600 34.34600 22.60100
C  -2.06600 33.13800 22.55500
C  -2.46900 32.95500 23.98200
C  -1.61800 35.59800 21.87900
C  -1.51600 31.79600 21.95200
C  -2.50800 30.88200 21.17900
N  -3.45500 32.33500 26.60500
C  -3.86500 31.67800 25.54900
C  -4.84000 30.67500 25.93500
C  -4.90900 30.69500 27.32200
C  -3.98500 31.72900 27.65100
C  -5.63200 29.75000 25.05700
C  -5.45300 30.16800 28.52000
O  -6.27000 29.24600 28.70400
C  -4.75800 30.90700 29.69800
C  -5.76800 31.38200 30.60600
O  -6.59000 32.19400 30.23400
O  -5.56300 30.90900 31.88400
C  -6.54800 31.31100 32.85800
H  -0.43300 36.35300 30.32100
H  0.38600 35.97100 23.84300
H  -3.95300 31.50800 23.51800
H  -3.93200 33.30000 31.70200
H  -1.30900 34.57700 31.96800
H  -3.62200 36.06200 30.98900
H  -2.33900 36.81000 31.86600
H  -3.52700 35.72500 32.66800
H  -1.20300 32.27100 32.26800
H  -2.30200 31.14200 31.27300
H  -3.32200 30.71400 33.07700
H  -3.63000 32.33600 33.61500
H  1.07900 38.88800 28.77600
H  2.43700 37.92000 28.94500
H  1.09500 37.64100 30.03000
H  3.16800 38.32200 27.18200
H  1.92100 39.36600 26.32800
H  3.58600 39.02900 25.66600
H  -0.17500 34.09300 22.15300
H  -2.99500 33.41500 22.05500
H  -2.47800 35.51000 21.21600
H  -0.79500 36.00000 21.28800
H  -1.91100 36.39300 22.56300
H  -1.05600 31.23200 22.76300
H  -0.73200 32.09700 21.25600
H  -1.97000 30.49700 20.31300
H  -3.38400 31.34500 20.72500
H  -2.69200 30.04800 21.85600
H  -6.51400 29.52500 25.65600
H  -5.02900 28.91200 24.70800
H  -5.99600 30.15700 24.11400
H  -4.19100 30.14700 30.23700
H  -7.26400 30.55300 33.17700
H  -7.04000 32.26400 32.66600
H  -5.96400 31.34500 33.77800

