158

Mg 9.70200 47.77700 28.14700
C  7.91000 47.37800 31.20400
C  12.46700 48.42500 29.99400
C  11.21800 48.96900 25.34500
C  6.55900 48.02900 26.45100
N  10.14800 47.70600 30.38200
C  9.28600 47.55500 31.44100
C  10.04500 47.60400 32.76900
C  11.46500 48.06200 32.39800
C  11.38400 48.03000 30.81700
C  11.94400 49.42200 32.97900
C  9.86800 46.28100 33.59900
C  11.01600 45.92000 34.57200
H  10.69900 45.16900 35.91400
N  11.63000 48.24600 27.66000
C  12.61200 48.46000 28.57200
C  13.82400 48.68400 27.81100
C  13.52400 48.82000 26.45400
C  12.03200 48.70400 26.43100
C  15.16400 49.01100 28.51900
C  14.43700 49.21000 25.20200
O  14.08200 49.50700 24.05400
C  15.89000 49.21000 25.48000
N  8.99300 48.39200 26.08400
C  9.80400 48.75300 25.07400
C  9.03800 49.10200 23.75800
C  7.64000 48.75000 24.22600
C  7.66700 48.30900 25.66300
C  9.09300 50.52800 23.31800
C  6.87600 47.73700 23.32800
C  6.33200 48.32500 21.99100
N  7.63700 47.55100 28.62400
C  6.45800 47.68400 27.84700
C  5.30300 47.59100 28.68600
C  5.86000 47.35300 29.94900
C  7.23800 47.48500 29.93600
C  3.91600 47.78400 28.31300
C  5.51900 47.20500 31.37200
O  4.43900 47.13100 31.85200
C  6.80600 47.07100 32.16900
C  6.81900 45.65400 32.54200
O  7.18300 44.73200 31.88100
O  6.31700 45.58000 33.79800
C  6.23600 44.27700 34.40700
H  13.33700 48.51300 30.64800
H  11.62300 49.35000 24.40500
H  5.54900 48.16700 26.05900
H  9.49900 48.32600 33.37600
H  12.20700 47.30400 32.65200
H  11.23100 49.87500 33.66800
H  12.01800 50.23400 32.25600
H  12.86800 49.23100 33.52400
H  9.72700 45.51900 32.83300
H  8.95600 46.27900 34.19600
H  11.40500 46.89500 34.86500
H  11.70300 45.31200 33.98400
H  15.45500 50.01700 28.21700
H  15.96100 48.27900 28.39000
H  14.92800 49.06400 29.58200
H  16.26400 49.10500 24.46200
H  16.20600 48.33000 26.04100
H  15.95100 50.14300 26.04000
H  9.50100 48.44600 23.02100
H  7.00300 49.63500 24.23500
H  8.18600 50.89900 22.84000
H  9.87200 50.35800 22.57400
H  9.49400 51.18700 24.08800
H  5.98900 47.37000 23.84300
H  7.55800 46.93900 23.03200
H  6.83300 47.65200 21.29600
H  6.67900 49.35700 21.94500
H  5.25600 48.16300 21.91800
H  3.23600 47.50600 29.11800
H  3.77100 47.29600 27.34900
H  3.71100 48.83600 28.11400
H  6.78500 47.70900 33.05200
H  5.51000 43.75100 33.78700
H  5.79900 44.33100 35.40400
H  7.20300 43.77900 34.47000
Mg -9.86100 40.96000 42.02900
C  -9.21500 37.70700 40.80800
C  -7.09100 42.00400 40.21100
C  -10.89900 44.20200 42.32600
C  -13.10100 39.85900 42.71200
N  -8.34600 39.88800 40.66100
C  -8.20100 38.60600 40.47700
C  -6.87600 38.35500 39.69400
C  -6.15500 39.75300 39.74100
C  -7.23400 40.61500 40.25900
C  -4.86200 39.69800 40.54600
C  -6.99900 37.74000 38.26700
C  -6.42700 36.31300 38.09100
H  -5.30900 36.16200 37.06300
N  -9.09500 42.89800 41.43700
C  -7.91400 43.04400 40.75400
C  -7.69900 44.51600 40.53200
C  -8.79000 45.16600 41.11100
C  -9.62400 44.10400 41.69200
C  -6.43800 45.06100 39.93600
C  -9.07200 46.63100 41.17700
O  -8.44600 47.41000 40.47400
C  -10.18100 47.32600 41.91500
N  -11.69400 41.92500 42.38900
C  -11.88000 43.22900 42.59400
C  -13.34300 43.62600 42.93100
C  -14.07700 42.22000 42.97500
C  -12.85900 41.28300 42.69100
C  -13.65200 44.51100 44.23100
C  -15.26200 42.04800 42.00000
C  -16.33500 40.99700 42.49900
N  -10.93200 39.08400 42.05900
C  -12.21400 38.77600 42.33300
C  -12.48900 37.36400 42.13800
C  -11.27200 36.87300 41.56900
C  -10.42600 37.99400 41.45500
C  -13.75500 36.58200 42.46800
C  -10.55000 35.75500 41.06600
O  -10.87600 34.59300 41.02000
C  -9.21500 36.18700 40.49000
C  -8.12400 35.44200 41.07900
O  -7.67300 35.62900 42.20200
O  -7.71200 34.44900 40.23300
C  -7.01800 33.34900 41.05400
H  -6.17500 42.36000 39.73500
H  -11.38100 45.15800 42.53700
H  -14.14000 39.54400 42.83100
H  -6.22500 37.63900 40.19700
H  -5.85700 39.92200 38.70600
H  -3.97900 39.38300 39.99000
H  -4.99900 39.00600 41.37700
H  -4.71400 40.69600 40.95800
H  -6.52700 38.33300 37.48400
H  -8.08300 37.74300 38.15200
H  -7.25100 35.65400 37.81700
H  -5.98900 35.91900 39.00800
H  -6.59200 44.80400 38.88800
H  -5.58700 44.59800 40.43500
H  -6.30100 46.14100 39.98100
H  -10.21000 47.07000 42.97400
H  -11.02200 46.79200 41.47100
H  -10.21600 48.38000 41.64100
H  -13.72500 44.21600 42.09700
H  -14.47900 42.16700 43.98700
H  -14.07200 43.89300 45.02500
H  -14.36900 45.29400 43.98600
H  -12.82600 45.10700 44.61900
H  -14.89600 41.66000 41.05000
H  -15.69200 43.04600 41.91500
H  -17.30600 41.48300 42.59300
H  -15.98300 40.52700 43.41700
H  -16.53400 40.26600 41.71500
H  -13.53900 35.66600 43.01900
H  -14.23600 36.28500 41.53600
H  -14.38200 37.15900 43.14800
H  -9.25500 35.92800 39.43100
H  -6.07700 33.74300 41.43800
H  -6.77700 32.56100 40.34100
H  -7.72000 32.99600 41.81000

