158

Mg 35.03800 2.59000 29.55400
C  33.16000 3.68700 32.40100
C  37.72100 2.69200 31.64500
C  36.90900 1.36800 27.06900
C  32.37700 3.23600 27.51000
N  35.29100 2.89400 31.83600
C  34.47700 3.29500 32.78400
C  35.05600 3.41100 34.20900
C  36.54900 3.33300 33.83800
C  36.54700 3.04800 32.33700
C  37.42500 4.53900 34.17300
C  34.57300 2.16700 35.05700
C  34.40000 2.29800 36.58100
H  35.30900 3.30900 37.29000
N  36.99000 1.92000 29.43700
C  37.91200 2.07800 30.39500
C  39.16900 1.53600 29.96800
C  38.98400 1.16000 28.60500
C  37.62000 1.46200 28.31800
C  40.42100 1.41300 30.81700
C  39.98400 0.53600 27.57800
O  39.65600 0.31900 26.43700
C  41.45900 0.27800 27.87200
N  34.77200 2.50500 27.57500
C  35.63500 1.79200 26.75800
C  34.99400 1.67300 25.33400
C  33.52500 1.84200 25.64800
C  33.52600 2.57900 26.93300
C  35.56700 2.81100 24.34800
C  32.77600 0.53400 25.72900
C  31.56200 0.22500 24.79700
N  33.22600 3.39500 29.79800
C  32.21100 3.57100 28.86500
C  31.02800 4.05400 29.54000
C  31.40000 4.19100 30.88400
C  32.73700 3.67900 31.01500
C  29.64400 4.35300 29.05900
C  30.78100 4.56700 32.11700
O  29.68900 4.97800 32.44800
C  31.96000 4.30400 33.13500
C  32.31600 5.55000 33.76600
O  33.23500 6.38000 33.51000
O  31.28000 5.85100 34.61500
C  31.27500 7.18600 35.19500
H  38.64600 2.60300 32.21900
H  37.47400 1.01500 26.20400
H  31.50600 3.40000 26.87300
H  34.83000 4.37400 34.66700
H  36.96000 2.45300 34.33300
H  38.38900 4.28900 34.61400
H  36.94900 5.07500 34.99300
H  37.64900 5.28300 33.40800
H  35.06300 1.21700 34.84400
H  33.55100 2.07200 34.68800
H  34.62700 1.32100 37.00600
H  33.34200 2.42400 36.81500
H  40.98000 0.53700 30.48600
H  40.25400 1.12300 31.85400
H  41.05000 2.30200 30.77500
H  41.93600 1.17200 28.27400
H  41.92600 0.16900 26.89300
H  41.53000 -0.57000 28.55400
H  35.20600 0.69600 24.90000
H  32.98900 2.44300 24.91300
H  36.48600 3.25600 24.73000
H  34.89700 3.61100 24.03400
H  35.87200 2.24500 23.46800
H  32.33000 0.47300 26.72200
H  33.43000 -0.33100 25.61900
H  31.63300 -0.81800 24.48700
H  31.58600 0.97900 24.01000
H  30.58800 0.26000 25.28500
H  29.19400 3.44600 28.65600
H  29.67600 5.08800 28.25500
H  29.02200 4.71300 29.87900
H  31.76100 3.61700 33.95700
H  32.26800 7.63200 35.24900
H  30.79300 7.08500 36.16700
H  30.60500 7.83200 34.62600
Mg -2.68100 33.70600 26.09400
C  -4.44000 32.15600 28.77700
C  -1.32800 35.93300 28.55400
C  -1.52400 35.66500 23.75600
C  -4.29900 31.66400 23.92700
N  -2.90900 34.00800 28.42500
C  -3.58200 33.19500 29.26400
C  -3.41200 33.57900 30.73200
C  -2.53300 34.92300 30.57000
C  -2.19900 34.98000 29.08100
C  -3.12100 36.20800 31.20300
C  -2.77300 32.40900 31.57000
C  -3.58600 31.76500 32.64700
H  -2.91100 31.87900 34.01200
N  -1.45200 35.46200 26.08500
C  -1.01100 36.21600 27.17700
C  -0.15200 37.35200 26.72000
C  -0.18700 37.25100 25.28900
C  -1.04500 36.07600 24.95500
C  0.35200 38.42400 27.68100
C  0.53000 38.06600 24.18600
O  0.61500 37.84500 22.97100
C  1.40600 39.20500 24.69000
N  -3.08300 33.78100 24.10400
C  -2.36300 34.63800 23.32100
C  -2.51000 34.29000 21.84100
C  -3.02800 32.86000 21.99100
C  -3.53900 32.73900 23.43300
C  -3.41900 35.30600 21.07400
C  -1.89400 31.75600 21.62000
C  -1.19600 30.86800 22.62000
N  -4.07700 32.18600 26.28700
C  -4.65900 31.41800 25.27300
C  -5.45100 30.34100 25.78100
C  -5.45100 30.58300 27.17900
C  -4.57400 31.74200 27.44400
C  -6.20100 29.32100 25.08100
C  -5.86700 30.15400 28.44900
O  -6.47900 29.12900 28.70300
C  -5.25000 31.14700 29.56200
C  -6.40300 31.63700 30.29200
O  -7.20800 32.44600 29.81700
O  -6.46200 31.02000 31.59700
C  -7.59600 31.15300 32.45400
H  -0.66300 36.49500 29.21400
H  -1.16800 36.22400 22.88800
H  -4.79100 30.90100 23.31900
H  -4.41000 33.79000 31.11700
H  -1.57600 34.71900 31.05000
H  -2.41400 36.60300 31.93300
H  -3.98500 35.99800 31.83300
H  -3.31600 36.96500 30.44300
H  -1.81500 32.72800 31.98200
H  -2.47700 31.57900 30.92900
H  -3.83500 30.74200 32.36700
H  -4.63700 32.05300 32.64600
H  1.35600 38.77300 27.43600
H  0.25500 38.31300 28.76100
H  -0.27100 39.24700 27.33200
H  0.72800 39.89800 25.18800
H  1.99500 39.71100 23.92600
H  2.07900 38.77700 25.43400
H  -1.54300 34.41000 21.35200
H  -3.85500 32.71000 21.29800
H  -3.47400 36.16800 21.73900
H  -4.42300 34.90100 20.94800
H  -2.92200 35.73200 20.20200
H  -1.10000 32.33100 21.14400
H  -2.21300 31.10300 20.80800
H  -1.82300 30.95500 23.50800
H  -0.16000 31.12600 22.83700
H  -1.26000 29.83800 22.27000
H  -5.47700 29.13600 24.28800
H  -7.08200 29.77800 24.63100
H  -6.40100 28.40200 25.63200
H  -4.64900 30.54000 30.23900
H  -7.25600 31.76000 33.29300
H  -8.06300 30.30500 32.95500
H  -8.40200 31.79300 32.09500

