158

Mg -1.68700 17.53600 27.26800
C  -2.38800 15.12200 29.84300
C  -2.66100 19.96700 29.47500
C  -1.55900 19.76500 24.71900
C  -1.47800 14.97900 25.01200
N  -2.52800 17.45800 29.40100
C  -2.66300 16.44600 30.26400
C  -2.95600 17.01900 31.65400
C  -3.47600 18.44100 31.38500
C  -2.86700 18.65600 30.00500
C  -5.02500 18.61500 31.48400
C  -1.70400 16.79300 32.61900
C  -1.46900 17.74600 33.81900
H  -1.01500 17.17400 35.08600
N  -2.03400 19.63600 27.08700
C  -2.21400 20.41900 28.18100
C  -2.19900 21.76800 27.60000
C  -1.74200 21.77200 26.30400
C  -1.74900 20.37400 25.96300
C  -2.51800 22.94200 28.55400
C  -1.45000 22.93400 25.34100
O  -1.02000 22.78100 24.16500
C  -1.39900 24.44400 25.78900
N  -1.83200 17.48700 25.08800
C  -1.69400 18.52300 24.24100
C  -1.59700 17.93700 22.80400
C  -1.41900 16.43700 23.01800
C  -1.56100 16.27200 24.46700
C  -2.67400 18.57700 21.90500
C  -0.06300 15.90700 22.44500
C  -0.18400 14.64500 21.62800
N  -1.76700 15.51700 27.33800
C  -1.71100 14.63000 26.32200
C  -1.76300 13.26100 26.85200
C  -2.01700 13.43000 28.21900
C  -2.03600 14.83700 28.42600
C  -1.65000 12.01000 26.04100
C  -2.25700 12.73900 29.46200
O  -2.15700 11.52500 29.72200
C  -2.34300 13.80800 30.52500
C  -1.12800 13.78500 31.40500
O  -0.01300 14.23500 31.12200
O  -1.53400 13.33900 32.69800
C  -0.45100 13.34100 33.68200
H  -2.99600 20.68800 30.22400
H  -1.36100 20.46900 23.90800
H  -1.32100 14.19300 24.27000
H  -3.63700 16.24400 32.00600
H  -3.00300 19.21800 31.98500
H  -5.50500 18.53500 30.50900
H  -5.12400 19.65600 31.79100
H  -5.51700 17.97200 32.21300
H  -0.80800 16.74200 32.00100
H  -1.77300 15.79700 33.05600
H  -2.44700 18.22300 33.89400
H  -0.67200 18.43800 33.54900
H  -2.77800 22.72200 29.59000
H  -3.40900 23.46200 28.20200
H  -1.69400 23.65600 28.56200
H  -1.46700 24.50500 26.87500
H  -2.29000 24.92100 25.38000
H  -0.42800 24.82300 25.47200
H  -0.66200 18.40500 22.49700
H  -2.29800 15.89700 22.66600
H  -3.67600 18.31000 22.24200
H  -2.51300 18.09900 20.93900
H  -2.53100 19.65700 21.94200
H  0.67700 15.73700 23.22700
H  0.26800 16.68000 21.75100
H  -1.01600 13.97900 21.85800
H  0.64900 13.96900 21.82200
H  -0.11500 14.90900 20.57300
H  -0.76300 12.06000 25.41000
H  -2.50700 11.93100 25.37300
H  -1.55200 11.14100 26.69200
H  -3.27600 13.63300 31.06200
H  -0.10800 12.30600 33.71100
H  -0.86400 13.60900 34.65500
H  0.28300 14.12800 33.51100
Mg 49.01500 35.07300 27.17300
C  46.82400 34.42000 29.84000
C  49.92000 38.00200 28.78100
C  50.86400 35.78300 24.59000
C  47.76900 32.18300 25.63300
N  48.52100 36.10100 29.14400
C  47.66200 35.58900 30.09600
C  47.55200 36.47700 31.32900
C  48.31300 37.79000 30.85200
C  49.00300 37.27900 29.50500
C  47.47600 39.08800 30.66300
C  48.23900 35.88500 32.63100
C  47.44500 35.77300 33.86600
H  47.60600 36.81900 34.99900
N  50.20400 36.69100 26.74800
C  50.50800 37.73000 27.55500
C  51.32300 38.70300 26.80000
C  51.67900 38.03600 25.62000
C  50.98400 36.77900 25.62000
C  51.77500 39.99000 27.33900
C  52.61100 38.54500 24.50900
O  52.85700 37.80300 23.54500
C  53.25700 39.93300 24.54800
N  49.28800 34.14200 25.25900
C  50.10900 34.63000 24.34600
C  50.18700 33.81400 23.10600
C  49.26600 32.56600 23.40900
C  48.79000 32.88800 24.85600
C  49.76800 34.59000 21.89600
C  49.93000 31.15400 23.42500
C  51.09900 30.77700 22.47300
N  47.43100 33.66700 27.50400
C  47.13900 32.51800 26.88400
C  46.07900 31.78000 27.63200
C  45.87100 32.59100 28.72900
C  46.74300 33.66400 28.64500
C  45.55800 30.38800 27.42500
C  45.16800 32.60200 29.98400
O  44.43100 31.74200 30.43000
C  45.70200 33.83500 30.71100
C  46.18800 33.27700 31.97300
O  47.29300 32.80000 32.13800
O  45.18100 33.30500 32.89500
C  45.46500 32.61700 34.18400
H  50.13600 38.93800 29.30000
H  51.43800 36.11500 23.72200
H  47.54000 31.24300 25.12700
H  46.53300 36.76500 31.58800
H  49.09400 38.07500 31.55700
H  46.46500 38.85900 31.00000
H  47.38400 39.45600 29.64100
H  47.91200 39.87300 31.28200
H  49.02500 36.57300 32.94200
H  48.79800 34.95500 32.52900
H  47.58100 34.83200 34.40000
H  46.39000 35.84400 33.60200
H  51.46700 40.76700 26.63900
H  52.85000 40.16500 27.34600
H  51.48600 40.20600 28.36800
H  52.42700 40.63800 24.51100
H  53.84000 39.97700 23.62900
H  53.90600 39.90500 25.42300
H  51.21200 33.44900 23.03000
H  48.39100 32.56100 22.76000
H  49.20000 35.47500 22.18200
H  49.07200 34.14100 21.18800
H  50.59300 35.01700 21.32500
H  49.05400 30.59300 23.09800
H  50.27100 30.94100 24.43800
H  51.18500 31.48000 21.64400
H  51.05500 29.75100 22.10900
H  51.93900 30.82200 23.16600
H  46.07200 30.02900 26.53400
H  44.55300 30.35300 27.00500
H  45.68500 29.70300 28.26300
H  44.88600 34.55100 30.81000
H  46.44800 32.16600 34.32400
H  44.60300 32.05400 34.54300
H  45.57600 33.47800 34.84300

