158

Mg -0.68400 7.64900 25.39400
C  0.49700 9.21300 28.30600
C  -0.98400 4.67400 27.05600
C  -1.21400 6.08600 22.40900
C  -0.02500 10.54400 23.66800
N  -0.17100 6.97100 27.40300
C  0.04200 7.88100 28.41300
C  -0.11500 7.17800 29.74300
C  -0.47700 5.61100 29.40500
C  -0.61800 5.76000 27.87600
C  0.65300 4.57100 29.74500
C  -1.06000 7.72900 30.83900
C  -0.32600 7.71000 32.27400
H  0.75900 6.59800 32.50400
N  -1.03300 5.64300 24.77700
C  -1.16000 4.52000 25.62700
C  -1.50800 3.30300 24.93900
C  -1.46300 3.67700 23.58000
C  -1.24600 5.17600 23.53100
C  -1.72500 1.98700 25.68800
C  -1.69000 2.86500 22.34200
O  -1.58300 3.35200 21.24900
C  -2.01500 1.43400 22.36400
N  -0.58500 8.24500 23.30100
C  -1.02000 7.47800 22.32000
C  -1.20100 8.27400 21.04100
C  -1.01200 9.75000 21.46000
C  -0.50400 9.53000 22.90600
C  -0.12600 7.85800 19.86100
C  -2.29800 10.69700 21.51600
C  -2.49000 11.59600 20.33000
N  0.12000 9.53500 25.87400
C  0.35800 10.60700 25.06800
C  0.90100 11.70600 25.85300
C  0.86500 11.15200 27.19900
C  0.41600 9.87700 27.13400
C  1.19900 13.11900 25.41900
C  1.23200 11.49200 28.53900
O  1.70500 12.51200 29.01400
C  0.93800 10.15800 29.33800
C  2.18000 9.62600 30.01600
O  3.08100 9.17300 29.36300
O  2.16400 9.89200 31.37200
C  3.43100 9.72100 32.10300
H  -0.95300 3.71100 27.57000
H  -1.51100 5.67300 21.44200
H  -0.02200 11.50400 23.14700
H  0.90600 7.09700 30.11600
H  -1.41400 5.30700 29.87300
H  1.48800 4.90400 30.36200
H  1.11400 4.30500 28.79300
H  0.12000 3.72000 30.16800
H  -1.98100 7.14500 30.83200
H  -1.16100 8.78300 30.58100
H  -1.01500 7.61100 33.11300
H  0.05900 8.71600 32.44800
H  -1.92400 2.28400 26.71800
H  -0.79800 1.43600 25.53100
H  -2.54200 1.41000 25.25600
H  -1.41900 0.91700 23.11700
H  -1.76000 0.95900 21.41700
H  -3.08400 1.36200 22.56300
H  -2.18900 8.10700 20.61200
H  -0.24600 10.27700 20.89100
H  0.75900 7.35600 20.25100
H  0.15300 8.72700 19.26600
H  -0.58700 7.15700 19.16500
H  -2.28400 11.30200 22.42200
H  -3.18300 10.06500 21.58900
H  -3.26400 11.14100 19.71100
H  -1.61100 11.62700 19.68700
H  -2.80400 12.57200 20.70100
H  0.24700 13.60500 25.20500
H  1.99400 13.13100 24.67400
H  1.59400 13.74600 26.21800
H  0.14700 10.32800 30.06800
H  3.63600 10.72000 32.48700
H  4.26000 9.41800 31.46300
H  3.46600 9.02800 32.94400
Mg 26.86800 49.73700 26.98300
C  24.79200 50.84400 29.50200
C  29.25300 48.94300 29.30800
C  29.01300 49.03600 24.39800
C  24.67400 51.24100 24.56700
N  27.02200 49.83500 29.13800
C  25.94200 50.13500 29.98100
C  26.23300 49.98600 31.51800
C  27.80200 49.52300 31.39400
C  28.05000 49.41600 29.88400
C  28.92800 50.43400 32.06900
C  25.27100 48.94400 32.08700
C  24.60700 49.45900 33.44600
H  24.43300 48.49800 34.60300
N  28.79200 48.90300 26.87900
C  29.60700 48.58400 27.95600
C  30.81700 48.07700 27.42700
C  30.81400 48.21600 26.02500
C  29.45100 48.66400 25.67100
C  31.94000 47.61000 28.34700
C  31.88100 47.94300 25.03900
O  31.75300 48.02600 23.81600
C  33.22700 47.56600 25.54900
N  26.85500 50.04700 24.79600
C  27.87000 49.67300 23.99600
C  27.44000 49.90100 22.46600
C  25.99700 50.47400 22.56600
C  25.81600 50.59400 24.07300
C  28.46200 50.64800 21.50900
C  24.85800 49.69200 21.83200
C  24.62900 48.28600 22.38400
N  25.14000 50.88700 27.02100
C  24.31500 51.45900 25.97200
C  23.22800 52.13900 26.51800
C  23.38400 51.91800 27.87600
C  24.44400 51.07500 28.12000
C  22.25600 52.95500 25.77300
C  22.81500 52.21700 29.18600
O  21.84300 52.90400 29.37800
C  23.63000 51.57300 30.28200
C  24.01200 52.56000 31.27500
O  24.93800 53.36200 31.19400
O  23.13600 52.47100 32.35600
C  23.37600 53.43400 33.43700
H  29.96700 48.64000 30.07700
H  29.58300 48.64900 23.55100
H  23.93700 51.62000 23.85700
H  26.18900 50.96500 31.99600
H  27.96800 48.58500 31.92300
H  29.55800 50.92300 31.32700
H  29.56400 49.77700 32.66200
H  28.40800 51.14500 32.71200
H  25.78900 48.06200 32.46500
H  24.54500 48.68500 31.31600
H  23.64500 49.91600 33.21100
H  25.19700 50.27900 33.85500
H  32.90200 48.08700 28.16000
H  32.14700 46.54200 28.27700
H  31.61700 47.73100 29.38100
H  33.99900 47.41100 24.79500
H  33.07300 46.63100 26.08700
H  33.56300 48.30900 26.27200
H  27.40600 48.92400 21.98200
H  26.00600 51.53300 22.30600
H  28.04100 51.38400 20.82400
H  28.91300 49.94800 20.80600
H  29.23500 51.20500 22.03800
H  25.06000 49.54500 20.77100
H  23.96300 50.30700 21.92900
H  25.33600 48.05900 23.18200
H  24.73800 47.46100 21.68100
H  23.61600 48.24700 22.78500
H  21.32800 52.40800 25.94100
H  22.38200 53.07400 24.69700
H  22.18700 53.91600 26.28300
H  22.95600 50.80700 30.66400
H  23.47000 54.48800 33.17400
H  24.30300 53.06500 33.87700
H  22.57400 53.37400 34.17300

