158

Mg 9.28400 48.52600 26.06200
C  6.97100 48.87200 28.70500
C  11.64000 49.97300 28.16800
C  11.56600 48.61500 23.35800
C  6.75600 47.75000 23.83000
N  9.25500 49.35000 28.18600
C  8.31600 49.11500 29.13100
C  8.77600 49.54800 30.54300
C  10.17200 50.23600 30.31300
C  10.38600 49.82300 28.77000
C  10.11300 51.80100 30.40600
C  8.89800 48.27600 31.40400
C  8.62500 48.53300 32.86600
H  8.82200 47.40200 33.90700
N  11.29500 49.05800 25.90600
C  12.09200 49.69500 26.86300
C  13.38200 49.82400 26.29700
C  13.43500 49.38500 24.94600
C  12.05600 49.00200 24.65700
C  14.58900 50.13700 27.16700
C  14.67000 49.10900 23.94400
O  14.51500 48.60400 22.81500
C  16.00800 49.61900 24.24400
N  9.14900 48.29000 23.94200
C  10.22200 48.33600 23.04200
C  9.83400 47.83100 21.61000
C  8.36300 47.45400 21.82800
C  8.02300 47.81600 23.34500
C  9.99200 48.86300 20.45800
C  8.06800 45.99000 21.48200
C  8.67900 44.91600 22.35600
N  7.29200 48.29000 26.16300
C  6.36100 47.96500 25.15300
C  5.05900 47.81500 25.83000
C  5.30300 48.17200 27.16700
C  6.61900 48.53600 27.35700
C  3.82900 47.46800 25.12500
C  4.65000 48.26100 28.40300
O  3.49100 48.05400 28.74900
C  5.73700 48.88900 29.49700
C  5.69800 48.00000 30.61100
O  5.80200 46.79700 30.65800
O  5.18900 48.75100 31.69900
C  4.72500 47.96500 32.87200
H  12.38600 50.31800 28.88700
H  12.18100 48.66700 22.45600
H  6.03400 47.30500 23.14300
H  8.14200 50.31500 30.98800
H  11.01900 49.80100 30.84200
H  10.80100 52.25200 31.12100
H  9.09400 52.13800 30.59200
H  10.38300 52.26500 29.45700
H  9.90900 47.89000 31.26900
H  8.34500 47.38500 31.10800
H  7.55500 48.72600 32.93400
H  9.24700 49.39300 33.11100
H  15.15200 50.97400 26.75400
H  15.36100 49.36800 27.19100
H  14.33600 50.41000 28.19100
H  16.73500 49.34200 23.48200
H  16.39100 49.22500 25.18500
H  15.76400 50.66700 24.42300
H  10.39200 46.91300 21.42800
H  7.63000 47.86000 21.13200
H  9.02700 49.05200 19.98700
H  10.75300 48.52800 19.75300
H  10.25700 49.82400 20.90000
H  8.34400 45.78900 20.44700
H  6.98600 45.89400 21.57000
H  9.22800 45.23100 23.24300
H  9.37700 44.41400 21.68600
H  7.87200 44.22500 22.59800
H  3.38100 46.69000 25.74200
H  4.06400 47.02900 24.15600
H  3.13400 48.26800 24.86700
H  5.41800 49.90300 29.73600
H  5.57400 47.60100 33.45200
H  4.13400 47.12600 32.50500
H  4.07100 48.63600 33.42900
Mg -4.31300 26.02600 25.83700
C  -3.10700 27.47700 28.82800
C  -6.19500 23.86900 27.82800
C  -5.13800 24.09300 23.09200
C  -2.10900 27.92300 23.99900
N  -4.51800 25.67700 28.08800
C  -3.99500 26.43500 29.03400
C  -4.60700 26.07800 30.39200
C  -5.31700 24.66600 30.12400
C  -5.44900 24.76600 28.56900
C  -4.57900 23.40600 30.56900
C  -5.59800 27.23100 30.94100
C  -5.47500 27.45900 32.53100
H  -4.99500 26.32100 33.40100
N  -5.66700 24.40300 25.48300
C  -6.29300 23.68000 26.46900
C  -7.17700 22.69500 25.78300
C  -6.87600 22.70200 24.39300
C  -5.88700 23.76900 24.23500
C  -8.17300 21.77000 26.59900
C  -7.34100 21.77500 23.32800
O  -6.88000 21.91600 22.17000
C  -8.44700 20.71000 23.49600
N  -3.62400 25.91800 23.89000
C  -4.10000 25.01300 22.91800
C  -3.39100 25.32800 21.53500
C  -2.32700 26.52600 21.90100
C  -2.66700 26.82300 23.32300
C  -2.85400 24.02800 20.77800
C  -2.29300 27.67900 20.88900
C  -3.15200 28.91700 21.18600
N  -2.91900 27.45000 26.22300
C  -2.21200 28.21700 25.38200
C  -1.47800 29.20300 26.15400
C  -1.79100 28.89400 27.51600
C  -2.66900 27.80000 27.51300
C  -0.58800 30.32400 25.67500
C  -1.55300 29.29300 28.87600
O  -1.05600 30.28000 29.37900
C  -2.39500 28.27700 29.75000
C  -1.51300 27.39500 30.45000
O  -0.56500 26.72900 29.97100
O  -1.87700 27.54000 31.77000
C  -0.86800 26.88300 32.61900
H  -6.91000 23.29200 28.41700
H  -5.16500 23.41400 22.23700
H  -1.42400 28.57800 23.45500
H  -3.84800 25.88700 31.15000
H  -6.21800 24.61900 30.73600
H  -4.64700 22.65600 29.78200
H  -5.07000 23.00200 31.45400
H  -3.51400 23.52100 30.77400
H  -6.63200 27.02000 30.66600
H  -5.30700 28.14000 30.41400
H  -6.43000 27.83900 32.89600
H  -4.71200 28.17700 32.83100
H  -7.84700 21.56200 27.61900
H  -8.23500 20.78800 26.13000
H  -9.14000 22.27200 26.62200
H  -8.06200 19.75000 23.83900
H  -8.83000 20.50100 22.49600
H  -9.22900 21.04500 24.17700
H  -4.23600 25.72700 20.97400
H  -1.29900 26.18000 22.00200
H  -1.83800 24.31100 20.50300
H  -3.52600 23.87600 19.93400
H  -2.85900 23.19000 21.47600
H  -2.70000 27.18100 20.00900
H  -1.28700 27.94200 20.56500
H  -2.52000 29.68000 21.64100
H  -3.88900 28.53100 21.89000
H  -3.62100 29.26400 20.26500
H  0.09800 30.59400 26.47800
H  -1.18800 31.21400 25.48400
H  -0.09900 29.96900 24.76800
H  -2.97700 28.94100 30.38900
H  0.08700 27.40300 32.53300
H  -0.76800 25.83200 32.34900
H  -1.18900 26.95200 33.65800

