158

Mg 34.56300 48.70200 26.39000
C  35.01900 46.51700 29.11100
C  33.16000 50.97800 28.51100
C  33.75700 50.52800 23.74900
C  35.62200 45.99800 24.25200
N  34.04100 48.67000 28.57900
C  34.45100 47.73100 29.48800
C  34.00200 48.17700 30.88800
C  33.33400 49.58200 30.64600
C  33.49000 49.76300 29.14500
C  31.87500 49.72100 31.25500
C  35.22900 48.29300 31.85000
C  35.20800 47.66500 33.27600
H  35.29000 48.58100 34.44500
N  33.87500 50.59500 26.20100
C  33.31100 51.39300 27.16200
C  32.90300 52.65600 26.65100
C  33.15400 52.53300 25.21800
C  33.52600 51.20400 25.03100
C  32.24400 53.83000 27.49900
C  33.06800 53.54400 24.20100
O  33.21800 53.39100 22.97900
C  32.85400 54.91100 24.52200
N  34.54800 48.24800 24.23600
C  34.17000 49.25500 23.38000
C  34.52600 48.82900 21.89000
C  35.34300 47.47600 22.08900
C  35.13400 47.17800 23.61000
C  33.18300 48.74800 20.99300
C  36.86900 47.52200 21.62600
C  37.55800 46.29900 20.94900
N  35.15900 46.65700 26.60000
C  35.55500 45.69000 25.67500
C  35.86600 44.39700 26.30100
C  35.65700 44.69300 27.67800
C  35.28900 46.09300 27.81300
C  36.38600 43.16300 25.68800
C  35.74200 44.17800 29.05100
O  36.08600 43.07400 29.44900
C  35.20900 45.36600 29.99200
C  34.02900 44.81600 30.69700
O  33.07000 44.33800 30.13500
O  34.23700 44.96100 31.99500
C  33.15500 44.55700 32.90900
H  32.78800 51.63400 29.30200
H  33.46800 51.12800 22.88400
H  36.01600 45.20100 23.61700
H  33.33600 47.39300 31.24900
H  33.90200 50.39600 31.09600
H  31.13100 49.93700 30.48800
H  31.82600 50.52500 31.98900
H  31.71600 48.85800 31.90100
H  35.65400 49.29100 31.96400
H  36.03800 47.77200 31.33800
H  35.82800 46.76900 33.24500
H  34.23800 47.16700 33.28100
H  31.84100 53.44300 28.43500
H  31.45400 54.32900 26.93700
H  33.02400 54.55000 27.74300
H  33.66700 55.19200 25.19100
H  31.90900 55.09700 25.03200
H  32.80200 55.62200 23.69700
H  35.14600 49.61300 21.45500
H  34.87500 46.62100 21.60000
H  33.10600 47.82100 20.42500
H  33.35600 49.58800 20.32000
H  32.30900 49.05500 21.56800
H  37.39900 47.68000 22.56500
H  37.05000 48.50600 21.19300
H  36.84000 45.49600 20.78300
H  38.30800 45.78800 21.55300
H  37.99400 46.68400 20.02800
H  36.84300 43.36500 24.72000
H  35.60800 42.43000 25.47400
H  37.08400 42.63800 26.34000
H  35.98900 45.60600 30.71400
H  33.15700 43.46700 32.90800
H  32.26000 44.99800 32.47100
H  33.24700 44.93700 33.92600
Mg -1.99600 34.91400 26.23100
C  -4.07400 33.20700 28.38600
C  -1.39000 37.15700 28.56100
C  -0.19700 36.67100 23.90100
C  -3.22600 32.82200 23.64700
N  -2.74300 35.08700 28.18500
C  -3.44500 34.24600 28.99500
C  -3.31400 34.55900 30.50100
C  -2.74900 36.00600 30.45800
C  -2.22500 36.06800 29.03400
C  -3.74300 37.11800 30.77400
C  -2.39400 33.55200 31.33400
C  -3.00500 33.14900 32.74600
H  -3.35300 34.25400 33.78900
N  -0.83100 36.56600 26.28900
C  -0.72300 37.38400 27.32900
C  0.03900 38.57100 26.97400
C  0.46600 38.43200 25.66100
C  -0.12400 37.16600 25.26200
C  0.38100 39.64100 28.05100
C  1.40600 39.30300 24.85600
O  1.65400 38.98300 23.69300
C  1.98700 40.45900 25.42200
N  -1.61900 34.67300 24.21300
C  -0.88000 35.54500 23.42600
C  -0.77500 34.96700 22.01500
C  -1.39400 33.57800 22.08600
C  -2.16200 33.72100 23.38700
C  -1.45900 35.84900 20.78700
C  -0.39500 32.38700 22.14900
C  0.50700 32.12200 23.36500
N  -3.50000 33.44700 25.98000
C  -3.87900 32.64800 24.88500
C  -4.74700 31.61300 25.33600
C  -4.92000 31.83200 26.69800
C  -4.10200 32.89300 27.03500
C  -5.50700 30.61800 24.45500
C  -5.63400 31.44900 27.92100
O  -6.41200 30.59100 28.08000
C  -5.02800 32.15300 29.02200
C  -6.06500 32.96800 29.80800
O  -6.44800 34.03600 29.50200
O  -6.42900 32.24700 30.94500
C  -7.43900 32.85900 31.85400
H  -1.25200 37.85200 29.39200
H  0.27500 37.27100 23.11900
H  -3.41000 32.12100 22.83000
H  -4.31000 34.65600 30.93400
H  -1.97800 36.00300 31.22900
H  -4.69700 36.83600 30.32800
H  -3.53500 38.07100 30.28800
H  -3.92500 37.15100 31.84800
H  -1.34600 33.80300 31.50000
H  -2.45600 32.56100 30.88400
H  -2.29000 32.48200 33.22800
H  -3.96300 32.62900 32.71900
H  -0.42200 40.35700 28.22600
H  1.26100 40.25300 27.85400
H  0.52700 39.21200 29.04200
H  2.75900 40.72700 24.70200
H  2.60100 40.05100 26.22500
H  1.30600 41.22900 25.78400
H  0.28600 34.85300 21.79000
H  -2.06900 33.36800 21.25600
H  -0.56600 36.08500 20.20800
H  -1.93500 36.72700 21.22300
H  -2.16700 35.26200 20.20100
H  0.23500 32.46300 21.26300
H  -0.93500 31.45700 21.97200
H  0.19900 32.84400 24.12100
H  1.55700 32.37100 23.21500
H  0.45300 31.07300 23.65800
H  -5.16700 29.59900 24.64100
H  -5.35900 30.75100 23.38300
H  -6.58900 30.67500 24.56900
H  -4.53100 31.43800 29.67700
H  -8.29100 33.14100 31.23600
H  -7.14900 33.74200 32.42300
H  -7.80900 32.05700 32.49300

