158

Mg -10.52400 40.80900 42.55600
C  -9.19600 37.78900 41.46900
C  -8.26100 42.44000 40.61400
C  -12.26000 43.76400 42.96100
C  -13.31400 39.03400 43.72800
N  -8.93900 40.18400 41.18700
C  -8.55500 38.88800 40.90000
C  -7.43200 38.89500 39.93300
C  -6.94700 40.42300 39.90600
C  -8.07600 41.07800 40.65200
C  -5.47300 40.67700 40.41900
C  -7.79100 38.29000 38.52400
C  -6.96800 37.04000 38.18800
H  -5.78700 37.17000 37.19300
N  -10.15200 42.87600 42.09600
C  -9.11400 43.33500 41.33700
C  -9.16400 44.78700 41.24100
C  -10.39000 45.18000 41.97800
C  -10.99000 43.91200 42.37800
C  -8.19000 45.66900 40.57400
C  -10.88400 46.65100 42.02800
O  -10.23300 47.55800 41.60600
C  -12.11600 47.07400 42.64300
N  -12.47600 41.34200 43.45400
C  -12.97400 42.60500 43.39300
C  -14.39500 42.62000 43.86500
C  -14.76900 41.11600 44.21700
C  -13.44500 40.41900 43.75900
C  -14.73700 43.57300 45.02700
C  -16.00400 40.57900 43.46000
C  -17.03500 39.78100 44.35100
N  -11.05300 38.84900 42.86600
C  -12.19500 38.25300 43.34900
C  -12.07500 36.84300 43.24800
C  -10.85900 36.59800 42.62500
C  -10.30400 37.83500 42.35400
C  -13.01600 35.73600 43.75200
C  -10.06900 35.54600 41.98500
O  -10.27000 34.33100 41.95400
C  -8.85400 36.25200 41.28400
C  -7.60400 35.77000 42.04500
O  -7.19800 36.21000 43.12100
O  -6.85400 34.79000 41.36100
C  -5.50900 34.32800 41.85000
H  -7.49100 43.03600 40.12000
H  -12.91400 44.63800 42.96700
H  -14.20400 38.43900 43.94200
H  -6.64300 38.25000 40.32100
H  -6.92600 40.75600 38.86900
H  -5.12300 39.67400 40.66300
H  -5.42500 41.34800 41.27600
H  -4.83200 41.10900 39.65000
H  -7.58300 39.08300 37.80600
H  -8.83800 38.05600 38.33000
H  -7.61700 36.26100 37.78700
H  -6.40600 36.46700 38.92500
H  -8.58500 46.14900 39.67900
H  -7.30800 45.08000 40.32400
H  -7.92700 46.49200 41.24000
H  -12.06000 46.61400 43.62900
H  -13.01000 46.72200 42.13000
H  -12.35200 48.13200 42.75700
H  -14.92500 42.96600 42.97700
H  -14.92600 40.89400 45.27300
H  -13.85700 44.20500 45.14400
H  -14.94300 43.09200 45.98300
H  -15.60900 44.20800 44.87000
H  -15.67400 39.92200 42.65600
H  -16.50100 41.40500 42.95100
H  -16.65700 39.66500 45.36700
H  -17.08800 38.76500 43.96200
H  -18.00100 40.27700 44.26000
H  -12.84100 35.63800 44.82400
H  -12.78600 34.73900 43.37700
H  -14.06100 35.91100 43.49600
H  -8.74500 35.94000 40.24500
H  -5.49400 33.97700 42.88200
H  -4.76800 35.11900 41.73700
H  -5.28700 33.50600 41.16900
Mg -0.69100 44.01900 24.87500
C  1.75000 43.24900 27.28600
C  -3.14800 43.25100 27.26800
C  -2.94700 44.55600 22.53200
C  1.80500 44.43300 22.59000
N  -0.66600 43.22300 26.94400
C  0.44000 43.05200 27.74900
C  0.01900 42.93900 29.17600
C  -1.51700 42.65400 29.12200
C  -1.82500 42.99400 27.67000
C  -1.92400 41.23600 29.49100
C  0.30900 44.32500 29.92500
C  1.03100 44.12600 31.32400
H  0.69600 42.81500 32.07100
N  -2.78200 43.96100 24.93200
C  -3.61600 43.62400 25.99400
C  -5.00100 43.79400 25.51500
C  -4.96400 44.20800 24.18400
C  -3.51600 44.26700 23.81100
C  -6.15600 43.51600 26.44700
C  -6.10500 44.50700 23.15000
O  -5.92200 44.86100 21.96100
C  -7.49800 44.44800 23.66400
N  -0.55200 44.40700 22.79800
C  -1.58200 44.52700 22.02200
C  -1.30400 44.76000 20.53000
C  0.28000 44.87900 20.63100
C  0.56700 44.55600 22.08600
C  -1.84600 43.46700 19.71000
C  0.81000 46.26000 20.18600
C  1.14500 47.30700 21.33300
N  1.29000 43.81000 24.88400
C  2.15500 44.00600 23.85800
C  3.54200 43.87500 24.38000
C  3.44300 43.64300 25.72300
C  2.05400 43.57500 25.95200
C  4.83500 44.04800 23.57600
C  4.15600 43.42100 26.93100
O  5.37700 43.29600 27.09400
C  3.05800 43.27400 27.99000
C  3.35000 42.03400 28.75500
O  2.95600 40.93600 28.39900
O  4.30800 42.25000 29.70400
C  4.67200 41.17800 30.65000
H  -3.85900 43.04600 28.07000
H  -3.66000 44.60000 21.70600
H  2.66500 44.54400 21.92600
H  0.48700 42.10600 29.70100
H  -2.06900 43.25600 29.84300
H  -2.59800 40.93900 28.68800
H  -2.34700 41.11900 30.48800
H  -1.11200 40.51500 29.38900
H  -0.61900 44.87900 30.06700
H  0.91500 45.00500 29.32500
H  0.74100 44.91200 32.02200
H  2.10900 44.15100 31.16500
H  -6.78500 42.86000 25.84600
H  -6.64500 44.47600 26.61800
H  -5.93100 43.09400 27.42700
H  -8.23700 44.94500 23.03500
H  -7.55400 44.93000 24.64000
H  -7.76400 43.39600 23.76500
H  -1.77700 45.67300 20.16700
H  0.78700 44.14600 20.00400
H  -1.91900 42.57700 20.33500
H  -1.12700 43.20300 18.93500
H  -2.75600 43.71000 19.16000
H  0.18800 46.77800 19.45500
H  1.76600 46.09200 19.69000
H  1.26600 48.33400 20.98800
H  2.08900 46.86500 21.65300
H  0.43600 47.31700 22.16100
H  4.69600 43.36900 22.73500
H  5.75700 43.71600 24.05300
H  4.85200 45.05900 23.16800
H  3.13200 44.14400 28.64300
H  5.23700 40.39400 30.14500
H  3.77500 40.79900 31.13900
H  5.33900 41.60900 31.39700

