158

Mg 54.99600 24.91700 44.12400
C  51.93200 26.88700 43.36200
C  53.13400 22.23000 43.03600
C  57.86100 23.43600 43.89100
C  56.48900 27.93200 44.77600
N  52.84000 24.73100 43.06900
C  51.82100 25.59900 42.89800
C  50.60300 24.86200 42.29900
C  50.91000 23.41700 42.90900
C  52.37500 23.44000 43.12700
C  50.13500 23.07600 44.30100
C  50.48600 24.90600 40.71800
C  49.06900 24.49000 40.29000
H  48.65300 24.64300 38.80100
N  55.42700 23.05900 43.63300
C  54.51800 22.05200 43.18100
C  55.24800 20.79800 43.08800
C  56.61400 21.06700 43.38400
C  56.67800 22.53200 43.60900
C  54.59000 19.45700 42.66500
C  57.66400 20.03400 43.48900
O  57.39900 18.88100 43.41200
C  59.06700 20.40800 43.83200
N  56.93600 25.62400 44.12100
C  57.96400 24.76600 44.15100
C  59.22200 25.41100 44.65900
C  58.79300 26.95800 44.67300
C  57.23600 26.88400 44.52800
C  59.70900 24.90400 46.06000
C  59.43100 27.74300 43.46100
C  60.15800 29.07200 43.86400
N  54.35300 26.95700 44.21300
C  55.13200 28.02800 44.55900
C  54.31400 29.23000 44.62500
C  53.05800 28.77200 44.18200
C  53.11500 27.39500 43.91100
C  54.72800 30.64100 44.98300
C  51.75800 29.29700 43.86100
O  51.33500 30.45800 43.93200
C  50.91300 28.02000 43.36100
C  50.42000 28.27100 41.99800
O  51.16700 28.68000 41.12200
O  49.10000 27.90200 41.82400
C  48.71200 27.97400 40.42400
H  52.44500 21.39300 42.90800
H  58.78800 22.93000 44.16900
H  57.03300 28.87100 44.89800
H  49.74200 25.26800 42.83100
H  50.74400 22.68400 42.12000
H  49.37600 23.82500 44.52800
H  50.86900 23.02100 45.10500
H  49.65200 22.10400 44.20600
H  51.05000 24.02500 40.41100
H  50.85800 25.81800 40.25300
H  48.26900 24.88800 40.91500
H  48.91400 23.41600 40.38800
H  53.70700 19.70800 42.07700
H  54.19900 18.99000 43.56900
H  55.19600 18.73700 42.11600
H  59.45000 21.11300 43.09400
H  59.70000 19.53700 44.00400
H  58.89600 20.95400 44.75900
H  59.88100 25.07800 43.85600
H  59.10000 27.42500 45.60900
H  60.14800 23.90600 46.06500
H  58.93100 25.06700 46.80500
H  60.52200 25.48100 46.50100
H  58.68600 27.93400 42.68900
H  60.18100 27.08000 43.03000
H  59.82200 29.77600 43.10400
H  61.21500 28.93400 44.09100
H  59.62400 29.38400 44.76200
H  53.94400 31.28100 44.57900
H  55.71300 30.87200 44.57600
H  54.83200 30.72900 46.06400
H  50.19900 27.83200 44.16300
H  47.86200 27.33400 40.19100
H  49.51300 27.69000 39.74200
H  48.41500 28.99300 40.17300
Mg 49.91200 46.56900 43.59400
C  46.76300 46.90900 42.05900
C  50.26500 43.45600 41.92700
C  53.33300 46.80500 43.93500
C  49.58700 49.91000 44.51500
N  48.64200 45.38200 42.16500
C  47.38500 45.70300 41.71100
C  46.76900 44.53600 40.85400
C  47.97000 43.49500 40.92100
C  49.04000 44.15000 41.76900
C  47.68900 42.00800 41.45600
C  46.30100 44.94200 39.41500
C  44.87400 44.58600 39.07200
H  44.71900 43.38800 38.11300
N  51.53800 45.28600 43.07700
C  51.50500 44.05700 42.44900
C  52.75000 43.39100 42.44500
C  53.68600 44.34300 42.89200
C  52.87700 45.56600 43.37800
C  53.07900 42.08500 41.72400
C  55.14100 44.16400 42.92300
O  55.74000 43.11500 42.63100
C  56.10700 45.28200 43.34300
N  51.23700 48.00400 44.22600
C  52.58300 47.93600 44.26900
C  53.24800 49.21900 44.85300
C  51.99100 50.09200 45.12600
C  50.86800 49.26500 44.59100
C  54.11900 48.89600 46.11600
C  52.11500 51.50500 44.47300
C  51.72500 52.73600 45.38800
N  48.30900 48.05800 43.61600
C  48.37900 49.41200 43.99800
C  47.13500 50.06300 43.73200
C  46.48600 49.12400 42.88800
C  47.27800 47.98000 42.85600
C  46.62300 51.35800 44.12500
C  45.26200 48.94300 42.07400
O  44.29600 49.66700 41.80400
C  45.36000 47.38800 41.66600
C  44.25100 46.61800 42.31500
O  44.36500 45.85800 43.25300
O  43.08000 46.84400 41.62800
C  41.93600 46.09600 42.14600
H  50.28800 42.46900 41.46200
H  54.35700 47.16600 44.05600
H  49.46800 50.89600 44.97000
H  45.93100 44.17800 41.45100
H  48.51500 43.44200 39.97800
H  46.62900 41.79700 41.59800
H  48.02800 41.89900 42.48600
H  48.27100 41.35500 40.80600
H  46.99300 44.55700 38.66600
H  46.44100 46.01600 39.29600
H  44.25000 45.36600 38.63700
H  44.33500 44.44000 40.00800
H  53.62300 42.46600 40.85900
H  52.18900 41.61400 41.30700
H  53.81900 41.41600 42.16200
H  57.09400 44.98500 42.99000
H  56.00700 45.32600 44.42800
H  55.97800 46.21100 42.78800
H  53.94900 49.63900 44.13100
H  51.74600 50.23000 46.17900
H  55.16900 48.93200 45.82400
H  53.93700 47.88200 46.47000
H  53.92500 49.48700 47.01100
H  51.52200 51.50900 43.55900
H  53.14100 51.68400 44.15200
H  51.33800 53.52600 44.74500
H  52.72200 53.02400 45.72100
H  51.07200 52.42200 46.20300
H  46.28000 52.04300 43.35100
H  47.39400 51.90100 44.67200
H  45.65700 51.15600 44.58700
H  45.13600 47.41500 40.60000
H  41.17300 46.01800 41.37200
H  41.54500 46.63100 43.01200
H  42.15800 45.07000 42.44000

