158

Mg 1.17900 -1.98000 43.43100
C  4.60400 -1.64500 42.87500
C  0.52000 0.63700 41.23000
C  -2.06600 -3.04700 43.03900
C  1.90800 -5.23600 44.66300
N  2.44300 -0.72400 42.25800
C  3.78900 -0.75400 42.13100
C  4.24400 0.16300 41.03400
C  2.95300 1.07200 40.84300
C  1.88500 0.33700 41.55500
C  3.17300 2.53600 41.34800
C  4.73200 -0.67400 39.87800
C  6.13400 -0.26500 39.37700
H  6.27700 0.45500 38.01800
N  -0.52000 -1.20600 42.45300
C  -0.60900 -0.05700 41.71500
C  -1.96100 0.16300 41.31600
C  -2.74900 -0.91600 41.77700
C  -1.79600 -1.77900 42.55100
C  -2.33400 1.27600 40.36400
C  -4.25000 -1.17900 41.43400
O  -4.77500 -0.39300 40.63800
C  -5.15100 -2.24800 42.10400
N  0.12400 -3.96300 43.74700
C  -1.26200 -4.03300 43.60400
C  -1.76000 -5.40200 43.95500
C  -0.51900 -6.06200 44.64600
C  0.59700 -5.08000 44.34500
C  -3.03500 -5.53600 44.76100
C  -0.14100 -7.54100 44.27100
C  -0.25500 -8.66200 45.26000
N  2.84200 -3.09300 44.00600
C  2.97600 -4.34000 44.45300
C  4.39100 -4.75500 44.54500
C  5.02700 -3.69500 43.93600
C  4.09700 -2.70200 43.64800
C  4.97800 -6.04200 45.05500
C  6.35800 -3.17600 43.59600
O  7.45000 -3.51500 43.96800
C  6.05200 -1.93200 42.67200
C  6.81100 -0.76800 43.30900
O  7.93000 -0.45500 43.03300
O  6.14300 -0.24200 44.42100
C  6.86500 0.86800 45.14000
H  0.25300 1.40200 40.49800
H  -3.00400 -3.53100 42.76100
H  2.22700 -6.18800 45.09500
H  5.02100 0.80000 41.45600
H  2.74400 1.02100 39.77400
H  3.10200 3.19500 40.48300
H  4.10000 2.72500 41.89100
H  2.38600 2.68000 42.08800
H  3.97500 -0.61500 39.09600
H  4.82800 -1.73900 40.08900
H  6.74900 -1.16400 39.39300
H  6.56300 0.39900 40.12700
H  -1.61800 2.07500 40.55800
H  -3.35100 1.65400 40.46800
H  -2.31000 0.76600 39.40100
H  -6.16600 -1.85400 42.16200
H  -4.86400 -2.41700 43.14200
H  -5.02500 -3.23500 41.66100
H  -1.82700 -5.82900 42.95400
H  -0.63500 -6.09600 45.72900
H  -3.65500 -4.64000 44.73500
H  -2.88300 -5.74400 45.82000
H  -3.59600 -6.42700 44.48100
H  0.87200 -7.55700 43.86800
H  -0.74300 -7.73900 43.38400
H  -0.56700 -8.30100 46.24000
H  0.67100 -9.20900 45.43600
H  -0.98800 -9.38200 44.89400
H  6.06300 -5.94000 45.07700
H  4.74500 -6.80900 44.31700
H  4.60300 -6.26600 46.05400
H  6.33400 -1.98700 41.62100
H  6.27600 1.49100 45.81300
H  7.50200 1.53700 44.56200
H  7.51800 0.33800 45.83400
Mg 50.18700 46.70700 42.86500
C  46.94500 47.26300 41.53900
C  50.25200 43.78200 41.21000
C  53.23500 46.45900 43.83700
C  50.18200 50.18300 43.75800
N  48.81800 45.69600 41.43100
C  47.50600 45.98800 41.20600
C  46.75500 44.98700 40.40200
C  47.67500 43.77500 40.60800
C  48.99700 44.41500 41.11000
C  47.16600 42.63100 41.55200
C  46.61800 45.45100 38.89000
C  45.27100 45.74400 38.34100
H  44.70500 44.63300 37.39200
N  51.58700 45.30200 42.51100
C  51.46000 44.12200 41.81800
C  52.64700 43.27700 42.07400
C  53.53400 44.04300 42.87200
C  52.83400 45.32200 43.08800
C  52.88900 41.89400 41.51900
C  54.92800 43.59700 43.41200
O  55.32900 42.46700 43.21100
C  55.73000 44.48200 44.36400
N  51.54800 48.21400 43.48300
C  52.76300 47.75700 43.90100
C  53.72700 48.84500 44.42300
C  52.64900 50.05600 44.47200
C  51.35800 49.47100 43.88800
C  54.52400 48.43200 45.71200
C  53.15900 51.30400 43.60500
C  53.43100 52.59100 44.33500
N  48.84900 48.42200 42.67500
C  49.00400 49.76200 43.06300
C  47.83200 50.52200 42.76300
C  46.92600 49.59400 42.22500
C  47.64800 48.33600 42.11700
C  47.63900 51.92800 43.03800
C  45.65300 49.42100 41.57900
O  44.66200 50.11800 41.36800
C  45.58200 47.85600 41.20600
C  44.42500 47.23200 41.80500
O  44.25400 46.93300 42.99500
O  43.39600 47.15600 40.86100
C  42.10100 46.77400 41.32500
H  50.30800 42.77400 40.79400
H  54.30300 46.44600 44.06300
H  50.19000 51.20800 44.13400
H  45.81800 44.70200 40.88100
H  47.91500 43.35200 39.63300
H  46.17800 42.85400 41.95300
H  47.87100 42.52100 42.37700
H  46.96200 41.80100 40.87600
H  47.22900 44.70100 38.38700
H  47.18600 46.37500 38.77900
H  45.35700 46.71900 37.86100
H  44.44800 45.84600 39.04800
H  53.95100 41.78200 41.29700
H  52.36800 41.61300 40.60400
H  52.64200 41.16000 42.28600
H  55.20800 44.79300 45.26900
H  55.89500 45.37800 43.76600
H  56.69900 44.08200 44.66300
H  54.49200 48.97500 43.65800
H  52.51200 50.34600 45.51400
H  54.39600 49.25500 46.41500
H  55.58900 48.37900 45.48500
H  54.19800 47.51800 46.20800
H  52.44900 51.58100 42.82500
H  54.14500 51.11300 43.18100
H  54.48600 52.85500 44.26400
H  53.13200 52.44400 45.37300
H  52.80300 53.40700 43.97800
H  48.46400 52.30600 43.64000
H  46.78800 52.04900 43.70800
H  47.52400 52.44300 42.08400
H  45.51300 47.86200 40.11800
H  42.24400 45.87100 41.91800
H  41.50500 46.62700 40.42400
H  41.48600 47.44700 41.92300

