158

Mg 1.30800 42.89900 25.95400
C  2.67600 42.89400 29.14900
C  -1.40000 41.37700 26.98700
C  0.62000 42.03300 22.75400
C  4.41400 44.01600 24.80800
N  0.71200 42.32800 27.83500
C  1.32200 42.39800 29.06000
C  0.40300 42.21900 30.31000
C  -0.78500 41.60400 29.50200
C  -0.48300 41.77400 28.01600
C  -1.17900 40.18200 29.98100
C  0.15600 43.62100 31.01200
C  0.30000 43.65100 32.53300
H  0.40300 42.26400 33.29100
N  -0.24800 41.88100 24.94900
C  -1.29400 41.30900 25.55700
C  -2.14400 40.66300 24.57100
C  -1.48400 40.74600 23.33800
C  -0.29300 41.62600 23.64800
C  -3.30900 39.88800 25.01400
C  -1.73600 40.05200 22.03500
O  -0.96200 40.03300 21.06300
C  -2.98200 39.28500 21.80600
N  2.30000 43.07000 24.03700
C  1.77500 42.86200 22.87900
C  2.67300 43.21700 21.65900
C  3.72200 44.16300 22.43500
C  3.43600 43.77000 23.84200
C  3.26900 42.03300 20.87400
C  3.58300 45.76200 22.14400
C  2.95900 46.73200 23.20800
N  3.16900 43.49600 26.74400
C  4.31600 43.90600 26.14600
C  5.39400 43.99400 27.13900
C  4.76000 43.62000 28.33600
C  3.44900 43.22800 28.00400
C  6.78500 44.51900 26.90400
C  4.92300 43.57800 29.73000
O  5.85400 43.87000 30.48100
C  3.58900 42.97300 30.32800
C  3.99100 41.74500 30.99700
O  3.94500 40.58600 30.66900
O  4.56900 42.13100 32.20100
C  5.06100 40.99500 32.95700
H  -2.23700 40.87100 27.47300
H  0.43300 41.73800 21.71900
H  5.35100 44.47500 24.48500
H  0.92300 41.41400 30.83000
H  -1.65100 42.22000 29.74200
H  -1.22900 39.44200 29.18200
H  -2.21300 40.33700 30.29100
H  -0.51200 39.83000 30.76800
H  -0.86400 43.96000 30.83200
H  0.83600 44.33500 30.54700
H  -0.60200 44.08100 32.96800
H  1.11800 44.31500 32.81300
H  -3.04000 38.83600 25.11000
H  -4.17300 39.99000 24.35600
H  -3.62900 40.25800 25.98800
H  -3.00800 38.41300 22.46000
H  -3.06500 39.03000 20.74900
H  -3.82400 39.92400 22.07000
H  1.98000 43.72800 20.99100
H  4.73300 43.75600 22.40400
H  2.93500 41.10000 21.32700
H  4.34900 41.95600 20.99900
H  2.90100 42.05300 19.84800
H  3.04400 45.77300 21.19700
H  4.64600 45.98100 22.04500
H  2.99100 46.28700 24.20200
H  1.91100 46.91000 22.96500
H  3.50000 47.67800 23.20900
H  6.78900 45.60100 27.03400
H  7.18000 44.08900 25.98300
H  7.45600 44.19900 27.70100
H  3.22300 43.72800 31.02300
H  4.25100 40.28600 33.12700
H  5.27000 41.44800 33.92600
H  5.98800 40.64200 32.50500
Mg -5.11800 25.59400 26.58800
C  -3.65500 26.82600 29.64000
C  -7.26100 23.64300 28.48800
C  -6.18300 24.21100 23.70300
C  -2.98300 27.50300 24.81900
N  -5.27200 25.18000 28.74400
C  -4.62900 25.84400 29.77400
C  -5.24100 25.38900 31.11900
C  -6.22000 24.22500 30.71900
C  -6.29200 24.32400 29.22000
C  -5.70400 22.86800 31.22900
C  -5.98100 26.58600 31.91800
C  -7.04100 26.31500 33.03000
H  -6.70400 25.24500 34.10000
N  -6.51500 24.26200 26.15200
C  -7.31600 23.58100 27.08800
C  -8.25300 22.76700 26.38300
C  -7.96000 22.87700 25.00800
C  -6.81600 23.79200 24.90500
C  -9.32100 22.06300 27.15200
C  -8.60500 22.22700 23.81700
O  -8.30400 22.50500 22.63700
C  -9.55200 21.06700 24.13500
N  -4.62400 25.77300 24.55100
C  -5.18000 25.11700 23.53100
C  -4.46700 25.39100 22.27000
C  -3.63300 26.68300 22.52400
C  -3.79300 26.76200 24.04900
C  -3.64400 24.16800 21.72400
C  -4.09100 27.96100 21.77300
C  -3.10200 28.41500 20.72800
N  -3.56600 26.87300 27.03500
C  -2.84900 27.65400 26.17500
C  -1.89300 28.50500 26.97200
C  -2.24400 28.26000 28.34000
C  -3.25500 27.28200 28.29400
C  -0.83400 29.38600 26.41000
C  -1.97300 28.64200 29.72900
O  -1.24900 29.53900 30.20500
C  -2.93600 27.70400 30.65900
C  -2.13200 27.01200 31.70500
O  -1.45300 26.00100 31.63100
O  -2.27600 27.71400 32.88100
C  -2.21000 26.93700 34.13200
H  -7.87400 22.91400 29.02100
H  -6.47800 23.90900 22.69600
H  -2.18500 27.98300 24.24800
H  -4.48400 25.09900 31.84700
H  -7.22200 24.32100 31.13900
H  -4.98100 22.99100 32.03600
H  -5.21100 22.42300 30.36400
H  -6.54900 22.27500 31.57800
H  -6.40500 27.09500 31.05200
H  -5.26000 27.28000 32.34900
H  -7.86400 25.97900 32.39900
H  -7.32300 27.27400 33.46600
H  -9.01000 21.07400 27.49000
H  -10.20000 21.76000 26.58300
H  -9.68900 22.65800 27.98800
H  -9.87100 20.63600 23.18600
H  -10.48200 21.36400 24.61900
H  -9.05200 20.30400 24.73200
H  -5.28900 25.68100 21.61500
H  -2.56700 26.51500 22.36700
H  -3.38300 23.45600 22.50700
H  -2.77900 24.56100 21.19000
H  -4.27700 23.68000 20.98300
H  -4.25400 28.81200 22.43500
H  -5.04200 27.81900 21.26000
H  -3.42400 28.09100 19.73800
H  -2.07700 28.09100 20.90200
H  -3.09100 29.50500 20.68800
H  -0.43700 28.98800 25.47600
H  -0.03600 29.58600 27.12500
H  -1.30600 30.35600 26.25700
H  -3.73700 28.28500 31.11600
H  -1.29600 27.22200 34.65400
H  -2.32800 25.86700 33.96200
H  -3.08500 27.20800 34.72300

