158

Mg 1.33900 -1.32100 43.36700
C  4.77300 -0.72500 42.68300
C  0.65300 1.74400 41.95600
C  -1.83100 -2.35500 43.06400
C  2.21100 -4.58400 44.41000
N  2.55700 0.25700 42.32300
C  3.88800 0.24700 42.09400
C  4.32500 1.58000 41.47700
C  3.04600 2.49300 41.54500
C  2.04000 1.51600 42.05000
C  3.13900 3.66800 42.53300
C  5.08000 1.42600 40.10100
C  4.36500 0.50700 39.08000
H  4.65300 0.68500 37.58600
N  -0.38200 -0.43300 42.60300
C  -0.44700 0.90600 42.16400
C  -1.84800 1.18800 41.92400
C  -2.53900 -0.01000 42.24500
C  -1.59600 -1.01800 42.70200
C  -2.45200 2.55000 41.54000
C  -4.02600 -0.25600 41.98900
O  -4.66300 0.72100 41.59600
C  -4.83300 -1.49600 42.21200
N  0.36300 -3.10900 43.59300
C  -0.98600 -3.34700 43.46300
C  -1.42900 -4.71600 43.98000
C  -0.07400 -5.43700 44.16800
C  0.88800 -4.31100 44.19100
C  -2.34400 -4.72100 45.23300
C  0.21200 -6.57800 43.21500
C  0.67100 -7.91000 43.87400
N  3.09000 -2.40600 43.62200
C  3.33300 -3.68000 44.16400
C  4.75200 -3.82800 44.38000
C  5.32200 -2.75000 43.73000
C  4.31400 -1.87400 43.35400
C  5.44000 -5.02800 44.90000
C  6.62500 -2.23100 43.26800
O  7.75800 -2.74100 43.27600
C  6.29200 -0.83300 42.53400
C  7.05500 0.20900 43.23500
O  8.24300 0.54100 42.96500
O  6.32900 0.74200 44.22900
C  6.88300 1.79200 45.07200
H  0.38000 2.78500 41.76900
H  -2.83400 -2.77600 42.96900
H  2.45900 -5.53700 44.88200
H  5.09000 1.91300 42.17800
H  2.73800 3.01900 40.64100
H  2.99300 3.36300 43.56900
H  2.39000 4.41300 42.26600
H  4.14300 4.09300 42.52500
H  6.08300 1.00900 40.19900
H  5.17200 2.39600 39.61400
H  3.28500 0.61100 39.18400
H  4.75400 -0.48300 39.32000
H  -1.75800 3.37600 41.69300
H  -3.28000 2.81800 42.19600
H  -2.88900 2.42000 40.55000
H  -5.73100 -1.27600 41.63500
H  -5.04800 -1.66400 43.26700
H  -4.33600 -2.32700 41.71000
H  -2.03400 -5.20600 43.21800
H  -0.04300 -5.84200 45.17900
H  -1.78800 -4.77300 46.16900
H  -3.21500 -5.36700 45.11800
H  -2.79800 -3.73500 45.12900
H  0.98300 -6.30700 42.49300
H  -0.71800 -6.68900 42.65800
H  1.74800 -8.01400 43.73800
H  0.15600 -8.66800 43.28400
H  0.42700 -7.82300 44.93300
H  4.78400 -5.39600 45.68700
H  6.42300 -4.71800 45.25500
H  5.49200 -5.71400 44.05400
H  6.73800 -1.07100 41.56800
H  6.23200 2.02400 45.91500
H  7.09700 2.62800 44.40600
H  7.76200 1.26900 45.44700
Mg 16.82900 -1.22100 28.54200
C  15.82600 0.53400 31.30900
C  18.96200 -2.96600 30.57200
C  18.18300 -2.59600 25.77100
C  14.95600 0.86500 26.48200
N  17.32000 -1.14000 30.72700
C  16.82400 -0.43000 31.65000
C  17.31500 -0.81500 33.04700
C  18.63900 -1.60000 32.75100
C  18.36400 -1.88900 31.30600
C  20.06200 -1.10100 33.13600
C  16.28900 -1.39800 34.02000
C  16.31800 -0.77300 35.44600
H  17.61600 -0.22100 35.93000
N  18.28600 -2.68500 28.28700
C  19.06300 -3.34800 29.21900
C  19.99500 -4.25700 28.47000
C  19.68400 -4.21500 27.10800
C  18.69100 -3.14000 26.97800
C  21.06300 -5.13800 29.22900
C  20.26800 -5.07600 25.90400
O  19.89600 -5.07800 24.72700
C  21.39800 -6.02400 26.13800
N  16.55600 -0.98400 26.37900
C  17.25100 -1.61000 25.48100
C  16.86200 -1.18400 24.06800
C  15.69600 -0.25700 24.27800
C  15.75000 -0.04200 25.80200
C  18.09500 -0.60600 23.16800
C  14.26700 -0.70600 23.85000
C  14.02300 -0.66800 22.34200
N  15.67300 0.37500 28.74100
C  14.93200 1.09500 27.85000
C  14.07200 2.10400 28.55200
C  14.38600 1.83600 29.90300
C  15.37400 0.81100 29.98500
C  13.12400 3.17300 27.93000
C  14.07700 2.20100 31.29700
O  13.20800 2.98900 31.70700
C  14.98600 1.44000 32.20000
C  15.88200 2.41200 32.82100
O  16.93200 2.76400 32.39300
O  15.25800 2.90000 33.94600
C  16.11800 3.80500 34.75600
H  19.69000 -3.56400 31.12500
H  18.55500 -3.05900 24.85500
H  14.48300 1.62200 25.85300
H  17.72600 0.09500 33.48700
H  18.44900 -2.52100 33.30200
H  20.57500 -0.78800 32.22600
H  20.61700 -1.88400 33.65400
H  19.93300 -0.24100 33.79300
H  16.33500 -2.48300 34.11100
H  15.30800 -1.29700 33.55500
H  16.02400 -1.50600 36.19700
H  15.58800 0.03200 35.36800
H  21.21600 -4.86700 30.27400
H  21.99300 -4.81300 28.76400
H  20.86600 -6.20800 29.17200
H  22.34200 -5.50900 26.31700
H  21.51600 -6.59100 25.21400
H  21.11700 -6.71200 26.93500
H  16.46200 -2.11700 23.67100
H  15.96600 0.68700 23.80600
H  18.59100 -1.44900 22.68700
H  18.85900 -0.22700 23.84800
H  17.61200 0.09800 22.49000
H  13.54900 0.00600 24.25600
H  14.07600 -1.76000 24.05100
H  13.37100 0.13800 22.00500
H  13.67900 -1.64700 22.00700
H  14.95700 -0.45300 21.82500
H  13.61600 3.56600 27.04000
H  12.96600 4.06800 28.53200
H  12.20400 2.66800 27.63500
H  14.39400 0.92200 32.95500
H  16.02100 3.52000 35.80300
H  15.81200 4.83400 34.57100
H  17.16600 3.67600 34.48600

