158

Mg 44.83400 2.31000 46.89400
C  42.69500 5.07200 46.87300
C  42.06300 0.33800 46.66600
C  46.89900 -0.26500 46.60900
C  47.63500 4.60000 46.66900
N  42.53700 2.78100 46.47900
C  41.95500 3.92600 46.74000
C  40.40300 3.72600 46.87000
C  40.27000 2.17200 47.00800
C  41.71500 1.66800 46.65600
C  39.82300 1.65800 48.37800
C  39.46100 4.33200 45.71100
C  39.68300 3.72200 44.33400
H  40.42200 4.74800 43.50000
N  44.48800 0.28400 46.58000
C  43.29100 -0.34900 46.54200
C  43.51800 -1.76100 46.44600
C  44.88300 -1.96100 46.61000
C  45.50000 -0.60300 46.59900
C  42.44200 -2.80800 46.49600
C  45.61100 -3.27200 46.82700
O  45.01200 -4.35800 46.99400
C  47.09100 -3.49000 47.12000
N  46.97500 2.19600 46.72200
C  47.59100 0.96000 46.67900
C  49.09200 1.06300 46.73500
C  49.40500 2.56300 46.41300
C  47.94500 3.22100 46.64400
C  49.60500 0.45800 48.07900
C  49.89000 2.83200 44.99300
C  51.44900 3.16000 44.82600
N  45.18800 4.46400 46.77300
C  46.35600 5.20500 46.78700
C  45.98000 6.61500 46.83900
C  44.62100 6.63700 46.91900
C  44.12500 5.26300 46.88500
C  46.99000 7.78700 47.02700
C  43.39400 7.47300 46.99400
O  43.28900 8.70600 46.99600
C  42.18200 6.51000 46.88800
C  41.33400 6.81900 48.07300
O  41.29300 6.13400 49.08100
O  40.43700 7.82300 47.78100
C  39.68800 8.16500 48.99800
H  41.10600 -0.18700 46.68100
H  47.64300 -1.05500 46.48400
H  48.52600 5.23200 46.65700
H  39.91700 4.05500 47.78900
H  39.63200 1.77500 46.21800
H  40.70000 1.29000 48.91100
H  39.13700 0.81700 48.27800
H  39.40400 2.34000 49.11800
H  39.70800 5.39000 45.61300
H  38.44000 4.29500 46.09100
H  38.74000 3.41000 43.88300
H  40.25700 2.79700 44.38800
H  42.56200 -3.70400 47.10500
H  42.28600 -3.08900 45.45400
H  41.54200 -2.34100 46.89500
H  47.50700 -3.34400 46.12400
H  47.27000 -4.49100 47.51300
H  47.39500 -2.71500 47.82400
H  49.38700 0.42700 45.89900
H  49.99100 3.13600 47.13100
H  50.36900 1.06800 48.56100
H  50.03600 -0.51300 47.83900
H  48.72800 0.26200 48.69500
H  49.28900 3.65300 44.60200
H  49.57500 1.97300 44.40100
H  51.88400 2.67500 43.95200
H  51.87800 2.76400 45.74600
H  51.53300 4.23000 44.63600
H  46.37100 8.68200 46.96000
H  47.74800 7.83700 46.24500
H  47.49500 7.83300 47.99200
H  41.61600 6.72700 45.98200
H  38.75100 7.60700 48.99300
H  39.44800 9.22800 48.98300
H  40.16800 7.94200 49.95000
Mg 41.20700 40.73800 27.53600
C  40.25600 43.30900 29.76600
C  41.88700 38.75400 30.22800
C  42.14000 38.39400 25.37000
C  40.82800 43.11300 24.92200
N  41.04000 40.97300 29.65000
C  40.48700 42.06100 30.34900
C  40.69200 41.86900 31.83400
C  41.10600 40.36000 31.95000
C  41.48500 40.02500 30.55300
C  42.22900 39.98600 32.91300
C  39.29800 42.12300 32.59300
C  39.34800 43.13300 33.74200
H  38.49400 42.79100 35.00400
N  41.89400 38.75600 27.77600
C  42.06900 38.10400 29.00600
C  42.49500 36.74900 28.69800
C  42.53700 36.68000 27.27000
C  42.19200 37.96100 26.71900
C  42.58000 35.74400 29.75600
C  42.73300 35.41400 26.46300
O  42.67200 35.42600 25.25900
C  43.18600 34.16000 27.17800
N  41.49300 40.75900 25.48100
C  41.91400 39.66500 24.81400
C  42.02700 39.90300 23.26000
C  41.46500 41.37000 23.18000
C  41.18300 41.77800 24.60000
C  43.43500 39.48700 22.71000
C  40.24200 41.67500 22.25400
C  38.91100 40.97400 22.70700
N  40.51800 42.74900 27.30100
C  40.59800 43.54500 26.23800
C  40.20000 44.83600 26.59300
C  40.06500 44.75900 27.99100
C  40.31100 43.49800 28.38100
C  39.84100 46.03700 25.72900
C  39.74000 45.57000 29.16700
O  39.32700 46.70100 29.21900
C  40.02100 44.70200 30.41300
C  41.29700 45.15000 31.09300
O  42.41400 45.11600 30.63300
O  40.88300 45.65600 32.28700
C  41.88000 46.17600 33.16400
H  42.25200 38.09300 31.01700
H  42.43400 37.71300 24.56800
H  40.64200 43.87000 24.15800
H  41.54100 42.49300 32.11400
H  40.23500 39.76800 32.23100
H  43.10900 39.84100 32.28700
H  42.08500 39.16100 33.61100
H  42.32300 40.85700 33.56200
H  38.93300 41.13200 32.86300
H  38.59300 42.55900 31.88500
H  38.95200 44.07000 33.35100
H  40.41900 43.20800 33.93100
H  42.24400 34.78100 29.37200
H  42.08300 36.03400 30.68200
H  43.61200 35.65700 30.09600
H  43.98400 34.38700 27.88500
H  43.52000 33.51200 26.36800
H  42.24100 33.70700 27.47800
H  41.30900 39.26500 22.74500
H  42.33900 41.93100 22.84900
H  44.08000 39.19300 23.53800
H  44.02700 40.21400 22.15500
H  43.42800 38.62900 22.03700
H  40.50000 41.35600 21.24400
H  39.95800 42.72600 22.20400
H  38.23300 41.61300 23.27300
H  39.12300 40.13600 23.37000
H  38.46200 40.58000 21.79600
H  39.58100 45.64400 24.74600
H  40.73900 46.63700 25.58300
H  39.05700 46.67400 26.13800
H  39.11900 44.72900 31.02300
H  41.62100 47.21000 33.39200
H  42.85300 46.10400 32.67800
H  42.12800 45.59100 34.04900

