158

Mg 41.25000 8.67300 30.18900
C  42.73100 9.59400 33.30900
C  38.92600 6.95300 31.99000
C  40.00300 7.49300 27.29700
C  44.06100 9.95000 28.49700
N  41.07100 8.27900 32.36500
C  41.62400 8.80600 33.47400
C  40.97200 8.36200 34.74200
C  39.90500 7.29600 34.28700
C  39.92300 7.51700 32.76000
C  40.32100 5.80200 34.63100
C  40.38500 9.48000 35.55500
C  40.85200 9.61500 36.99300
H  41.03600 11.02200 37.54500
N  39.67400 7.43900 29.72900
C  38.71000 6.91800 30.58400
C  37.60100 6.24900 29.84000
C  37.89100 6.51200 28.44300
C  39.25500 7.12100 28.45100
C  36.37000 5.73400 30.46700
C  37.11000 6.06200 27.17600
O  37.50300 6.17300 26.00900
C  35.71400 5.67400 27.34800
N  41.97700 8.53800 28.19800
C  41.26900 8.06000 27.12800
C  41.91400 8.41000 25.77700
C  43.23000 9.11400 26.23700
C  43.08700 9.20600 27.72100
C  42.22500 7.22900 24.87500
C  43.34700 10.52100 25.50900
C  42.53700 11.66800 26.02000
N  43.09300 9.54500 30.75700
C  44.05600 10.05200 29.92900
C  44.91900 10.84300 30.79300
C  44.50600 10.70400 32.10300
C  43.40800 9.86500 32.02300
C  46.03800 11.71600 30.30300
C  44.75500 10.98100 33.48600
O  45.61400 11.72200 33.96100
C  43.61500 10.27100 34.33200
C  44.31400 9.32400 35.16600
O  44.98300 8.37000 34.79500
O  44.25500 9.82300 36.49000
C  45.00500 9.04100 37.54300
H  38.21500 6.45000 32.64800
H  39.53500 7.36500 26.31900
H  44.78900 10.53700 27.93300
H  41.68200 7.86700 35.40400
H  38.85100 7.47000 34.50500
H  41.34700 5.72800 34.99200
H  40.18500 5.07300 33.83200
H  39.71200 5.48900 35.47900
H  39.31400 9.31800 35.68200
H  40.52100 10.45900 35.09600
H  41.77800 9.10700 37.26000
H  40.06500 9.17300 37.60500
H  36.38800 5.66300 31.55500
H  36.25500 4.75200 30.00800
H  35.41500 6.24800 30.35500
H  35.21200 5.73400 26.38200
H  35.12200 6.27200 28.04100
H  35.61300 4.64100 27.68000
H  41.33600 9.18500 25.27300
H  44.19100 8.63800 26.04300
H  41.75800 6.32000 25.25300
H  43.30600 7.10500 24.80800
H  41.78600 7.42800 23.89700
H  42.91800 10.40100 24.51400
H  44.37800 10.87500 25.49300
H  43.22600 12.48600 26.23100
H  41.95900 11.57300 26.93900
H  41.75200 11.99000 25.33600
H  46.85500 11.70300 31.02400
H  45.70300 12.74500 30.43900
H  46.46600 11.35800 29.36700
H  43.15100 11.10900 34.85200
H  45.17200 8.00800 37.23700
H  44.62900 8.94600 38.56200
H  45.98200 9.52300 37.58500
Mg 49.35500 46.73100 42.35900
C  46.05000 47.15000 41.14800
C  49.39000 43.59800 40.92900
C  52.60100 46.66800 42.96800
C  49.06600 50.05000 43.61400
N  47.82500 45.41400 41.14300
C  46.56600 45.89800 40.71000
C  45.89600 44.85500 39.83200
C  46.94100 43.63200 39.85000
C  48.13600 44.19000 40.72900
C  46.41800 42.31100 40.37600
C  45.47200 45.41600 38.41800
C  44.10900 45.02500 37.92800
H  43.98100 44.83300 36.45400
N  50.75700 45.31000 42.14500
C  50.56900 44.10000 41.54100
C  51.72700 43.25800 41.74800
C  52.69200 44.08900 42.33900
C  52.04800 45.41900 42.52500
C  51.70000 41.77500 41.31000
C  54.12400 43.58600 42.75400
O  54.53700 42.46000 42.60600
C  55.02500 44.50800 43.59000
N  50.59500 48.16800 43.19700
C  51.90900 47.89700 43.27900
C  52.70100 49.17100 43.67400
C  51.52900 50.14300 44.15800
C  50.30700 49.42600 43.64500
C  53.77900 48.94300 44.76900
C  51.69900 51.56900 43.65600
C  51.79600 52.70200 44.64500
N  47.93800 48.24200 42.42600
C  47.89400 49.43400 43.03200
C  46.70400 50.17400 42.85900
C  45.88300 49.25500 42.16300
C  46.75400 48.14200 41.86800
C  46.33100 51.49900 43.32700
C  44.52500 49.07900 41.64000
O  43.49700 49.77500 41.60600
C  44.60200 47.64000 40.96400
C  43.58000 46.80200 41.64000
O  43.48300 46.72700 42.83400
O  42.64000 46.21000 40.77900
C  41.37900 45.84400 41.36000
H  49.46500 42.63400 40.42100
H  53.68800 46.59200 43.03900
H  49.02600 51.11200 43.86500
H  45.06600 44.54200 40.46500
H  47.29400 43.51600 38.82500
H  45.49200 42.49500 40.92100
H  47.11400 41.74000 40.99100
H  46.21500 41.64100 39.54100
H  46.14800 44.90300 37.73400
H  45.58100 46.49900 38.35300
H  43.41300 45.80900 38.22500
H  43.92000 44.16100 38.56600
H  51.60200 41.66800 40.23000
H  50.73400 41.29800 41.47600
H  52.44200 41.09300 41.72400
H  55.44000 45.26000 42.91900
H  55.88800 44.03200 44.05600
H  54.45400 45.03500 44.35400
H  53.17600 49.56700 42.77600
H  51.38400 50.12800 45.23900
H  53.65400 49.58100 45.64400
H  54.82800 49.00700 44.48000
H  53.63000 47.96000 45.21700
H  50.95200 51.74100 42.88100
H  52.59900 51.74600 43.06800
H  51.78800 52.26300 45.64200
H  51.03200 53.47300 44.53600
H  52.75200 53.21600 44.54400
H  45.25900 51.30500 43.36100
H  46.64700 52.14800 42.51100
H  46.86800 51.82600 44.21700
H  44.17900 47.69200 39.96000
H  40.76100 45.48200 40.53900
H  40.94600 46.65600 41.94400
H  41.50100 44.95300 41.97600

