158

Mg 2.91800 -1.71600 43.55700
C  6.35700 -0.60900 43.54300
C  2.13600 1.33300 42.30600
C  -0.08300 -2.98000 43.00900
C  4.18700 -4.84600 44.33100
N  4.14100 0.06700 43.03200
C  5.49700 0.44300 43.19900
C  5.79900 1.86200 42.92700
C  4.40000 2.41500 42.65300
C  3.50100 1.20400 42.73000
C  3.91700 3.57400 43.62400
C  6.72200 2.23600 41.68500
C  6.70800 1.30400 40.47000
H  6.27500 1.83100 39.06200
N  1.30300 -0.93900 42.61000
C  1.18700 0.30100 42.20100
C  -0.21700 0.52700 41.74500
C  -0.84000 -0.80700 41.85300
C  0.12400 -1.64400 42.51400
C  -0.82000 1.79200 41.25400
C  -2.23000 -1.17400 41.40200
O  -3.05200 -0.35000 40.98100
C  -2.73300 -2.51500 41.33700
N  2.16900 -3.69000 43.66400
C  0.84600 -3.91500 43.54600
C  0.55900 -5.43000 43.87200
C  1.98100 -6.00400 44.10100
C  2.86600 -4.76900 44.03200
C  -0.46400 -5.42500 45.11400
C  2.49400 -7.02900 43.17700
C  2.35700 -8.48600 43.69100
N  4.90800 -2.63700 43.95900
C  5.20800 -3.86400 44.26400
C  6.57900 -3.95500 44.58600
C  7.18700 -2.71200 44.23300
C  6.04800 -1.92500 43.89100
C  7.18600 -5.29000 44.99600
C  8.42000 -1.94400 44.06300
O  9.61800 -2.29900 44.20600
C  7.92700 -0.51500 43.59100
C  8.51400 0.57200 44.48300
O  9.21100 1.47600 44.07000
O  8.23600 0.33100 45.84600
C  8.99200 1.19200 46.82400
H  1.82100 2.32200 41.96800
H  -1.14000 -3.24700 43.07600
H  4.58100 -5.82100 44.62500
H  6.25800 2.17000 43.86600
H  4.21600 2.74800 41.63200
H  3.21600 3.25300 44.39500
H  3.58400 4.37400 42.96300
H  4.74600 3.99500 44.19200
H  7.65900 1.99900 42.18900
H  6.57900 3.23600 41.27600
H  6.16500 0.37200 40.62900
H  7.73500 0.94100 40.42300
H  -0.09500 2.59300 41.40000
H  -1.62000 2.14900 41.90300
H  -1.21800 1.47500 40.29000
H  -3.10300 -2.96200 42.26000
H  -1.97100 -3.19000 40.94900
H  -3.54000 -2.51400 40.60400
H  0.14100 -5.93900 43.00300
H  2.12100 -6.40400 45.10500
H  -0.31000 -6.28200 45.76900
H  -1.43900 -5.63700 44.67400
H  -0.55200 -4.42600 45.54000
H  3.57500 -6.96100 43.05200
H  1.96000 -6.99700 42.22800
H  1.83400 -9.13600 42.98900
H  1.88100 -8.50100 44.67200
H  3.35200 -8.92300 43.76800
H  8.19900 -5.11100 45.35400
H  7.31200 -5.88500 44.09100
H  6.60700 -5.77500 45.78100
H  8.34300 -0.30600 42.60500
H  10.06700 1.01200 46.80900
H  8.61800 0.88900 47.80300
H  8.72800 2.24800 46.77600
Mg 46.48800 35.24600 28.79000
C  45.00300 33.46400 31.11300
C  46.66600 37.92800 31.15000
C  48.10200 37.16200 26.48300
C  46.11100 32.75000 26.42800
N  46.00100 35.63100 30.91900
C  45.43700 34.65200 31.65600
C  45.55200 35.03900 33.11100
C  45.58200 36.60100 33.06000
C  46.15700 36.76200 31.64000
C  44.13000 37.17400 33.29100
C  46.91500 34.43800 33.65300
C  46.86700 34.09200 35.13300
H  45.89900 34.70300 36.09100
N  47.09200 37.23300 28.73900
C  47.07700 38.11600 29.79300
C  47.58700 39.41400 29.29600
C  48.03700 39.21600 27.97600
C  47.74300 37.77700 27.61900
C  47.54300 40.56700 30.20700
C  48.55900 40.24000 26.98600
O  48.94900 39.92300 25.85800
C  48.75700 41.58400 27.40400
N  46.99100 34.95700 26.68500
C  47.73200 35.89900 25.98700
C  48.22300 35.29500 24.64900
C  47.57100 33.89000 24.67000
C  46.81600 33.86100 25.98000
C  47.78800 36.20900 23.54200
C  48.56600 32.67000 24.42400
C  48.26200 31.79300 23.14800
N  45.83200 33.48700 28.74500
C  45.58900 32.54700 27.72300
C  45.09000 31.27400 28.30500
C  44.79800 31.62100 29.64900
C  45.25800 32.95200 29.82400
C  44.86400 29.91600 27.56700
C  44.23900 31.17100 30.85700
O  43.83200 30.06200 31.13100
C  44.27200 32.33000 31.85400
C  44.98100 31.76000 32.97500
O  46.14900 31.41400 33.01800
O  44.12800 31.73000 33.97200
C  44.59100 30.80700 35.01300
H  46.69500 38.74500 31.87400
H  48.76200 37.69800 25.79800
H  45.85500 31.88800 25.80900
H  44.67900 34.64000 33.62800
H  46.29600 36.97400 33.79500
H  43.93500 37.20600 34.36300
H  43.43900 36.55600 32.71800
H  44.11100 38.22100 32.99000
H  47.65800 35.22500 33.52600
H  47.30800 33.64100 33.02100
H  47.84300 34.42900 35.48200
H  46.72100 33.01200 35.11400
H  47.75800 41.53000 29.74500
H  48.19700 40.34000 31.04900
H  46.49500 40.53200 30.50400
H  49.30100 42.12500 26.63000
H  49.38100 41.40100 28.27800
H  47.78800 42.03400 27.62400
H  49.31300 35.29500 24.61000
H  46.77200 33.96200 23.93100
H  47.01700 36.90600 23.87200
H  47.37500 35.57800 22.75500
H  48.54200 36.70200 22.92900
H  48.47400 32.07600 25.33200
H  49.62800 32.91700 24.40700
H  48.12400 30.76100 23.47100
H  49.04100 31.83500 22.38700
H  47.39500 32.15200 22.59400
H  44.95500 29.04700 28.21700
H  45.54900 29.92400 26.71900
H  43.86200 29.92200 27.13800
H  43.24000 32.64600 32.00600
H  44.98700 29.89400 34.56900
H  43.67400 30.61000 35.56900
H  45.29700 31.26200 35.70700

