158

Mg 25.44400 -0.15200 29.80100
C  27.47700 -0.14100 32.55600
C  22.81400 0.24200 31.88300
C  23.64800 -0.09800 27.02600
C  28.29600 -1.04000 27.76000
N  25.21400 -0.09600 31.99700
C  26.13000 -0.05600 32.95400
C  25.57800 0.06900 34.45800
C  24.01600 0.05900 34.08600
C  24.01700 0.03200 32.60600
C  23.04300 -1.00800 34.68500
C  26.00000 1.34600 35.23200
C  26.82800 1.37700 36.53200
H  26.39500 2.47000 37.65600
N  23.40600 0.04900 29.49000
C  22.47700 0.22000 30.48400
C  21.16600 0.44300 29.89300
C  21.42200 0.50500 28.44400
C  22.88600 0.13200 28.23000
C  19.87200 0.59000 30.66600
C  20.50700 0.71900 27.24100
O  20.89700 0.63400 26.07800
C  19.11600 1.19500 27.50300
N  25.84000 -0.59700 27.58600
C  24.93700 -0.40900 26.67800
C  25.56200 -0.45600 25.25300
C  27.04700 -0.73900 25.55500
C  27.10700 -0.90700 27.03400
C  25.01800 -1.48900 24.27100
C  28.07200 0.35200 24.95900
C  29.34200 -0.09800 24.27800
N  27.46800 -0.57300 30.03500
C  28.49100 -0.95800 29.18200
C  29.77300 -0.96700 29.89300
C  29.36900 -0.64700 31.19500
C  27.96800 -0.46000 31.26400
C  31.20700 -1.30800 29.35000
C  29.95600 -0.40000 32.52000
O  31.11900 -0.35900 32.94600
C  28.71000 -0.15700 33.51500
C  28.54600 -1.22200 34.51000
O  28.00300 -2.30800 34.30000
O  29.21100 -0.86400 35.64100
C  28.98300 -1.70300 36.86300
H  22.01700 0.33600 32.62400
H  23.08700 0.19700 26.13700
H  29.18700 -1.26600 27.17100
H  25.85800 -0.83700 34.99700
H  23.68100 1.07100 34.31000
H  23.54500 -1.27400 35.61500
H  23.00200 -1.86200 34.01000
H  22.06700 -0.58700 34.92700
H  25.07600 1.85800 35.50300
H  26.58400 2.01200 34.59600
H  27.85500 1.59300 36.23800
H  26.83400 0.43000 37.07200
H  20.02400 -0.16400 31.43800
H  18.91400 0.24600 30.27600
H  19.77100 1.57700 31.11900
H  18.43900 0.44000 27.90200
H  18.67000 1.61900 26.60400
H  19.17200 1.94300 28.29500
H  25.51900 0.50800 24.74700
H  27.36000 -1.75500 25.31300
H  24.42500 -2.29900 24.69600
H  25.89100 -1.96000 23.81900
H  24.47100 -0.96700 23.48600
H  28.38200 1.01900 25.76400
H  27.45900 0.90300 24.24600
H  29.51500 -1.16900 24.16600
H  30.20800 0.26300 24.83200
H  29.30100 0.19200 23.22800
H  31.32500 -0.70400 28.45000
H  31.16400 -2.33600 28.98900
H  31.93600 -1.01600 30.10500
H  28.89000 0.82400 33.95600
H  27.96000 -1.76600 37.23200
H  29.65700 -1.37300 37.65300
H  29.34000 -2.70600 36.62800
Mg 41.68000 41.21400 26.68000
C  41.33900 43.79700 29.01200
C  42.25400 39.14900 29.27300
C  42.16200 38.76600 24.41700
C  41.07700 43.40500 24.12200
N  41.85200 41.42300 28.96600
C  41.60100 42.56500 29.69300
C  41.55700 42.29100 31.22500
C  42.10900 40.81500 31.26300
C  42.23700 40.45600 29.75000
C  43.37600 40.65400 32.12800
C  40.16200 42.53300 31.91300
C  40.36600 43.13700 33.29400
H  39.71800 42.61300 34.54900
N  42.16100 39.23400 26.85100
C  42.22200 38.50400 27.98200
C  42.62800 37.10600 27.59300
C  42.71200 37.02100 26.17400
C  42.31300 38.37300 25.74900
C  42.84600 36.04500 28.64000
C  43.26900 35.90100 25.25400
O  43.51100 36.07100 24.05900
C  43.58800 34.52100 25.81300
N  41.58000 41.14700 24.54800
C  41.89400 40.03300 23.85600
C  41.74600 40.19800 22.37300
C  41.33100 41.66700 22.18700
C  41.25500 42.12500 23.72900
C  43.02000 39.83600 21.58200
C  40.07600 41.78400 21.34600
C  38.70600 41.24300 22.00000
N  41.44200 43.22900 26.52000
C  41.19200 44.03300 25.39000
C  40.94300 45.36800 25.90500
C  40.98900 45.30500 27.24700
C  41.32600 44.02300 27.61100
C  40.73200 46.54300 25.00500
C  40.75300 46.09100 28.43100
O  40.36800 47.26600 28.51000
C  41.06500 45.21900 29.65800
C  42.33800 45.71700 30.36500
O  43.47400 45.85500 29.91700
O  42.03100 46.00300 31.70200
C  43.14200 46.45000 32.57800
H  42.28500 38.41500 30.08100
H  42.33800 37.99000 23.67000
H  40.88100 44.05100 23.26400
H  42.28300 42.95400 31.69600
H  41.37800 40.08200 31.60500
H  44.24500 40.35000 31.54500
H  43.13100 39.83500 32.80500
H  43.58500 41.57400 32.67400
H  39.71500 41.55800 32.10800
H  39.49800 43.19600 31.36000
H  39.89800 44.10000 33.08700
H  41.36500 43.49400 33.54300
H  42.69400 36.41600 29.65400
H  43.90600 35.80100 28.56100
H  42.26400 35.13500 28.49300
H  42.70600 33.88900 25.70900
H  43.73200 34.56700 26.89300
H  44.53500 34.13800 25.43600
H  40.90100 39.58500 22.05800
H  42.08200 42.27800 21.68600
H  43.73500 39.30300 22.20800
H  43.52400 40.71100 21.17300
H  42.79100 39.22900 20.70700
H  40.22000 41.25200 20.40600
H  40.04600 42.81500 20.99300
H  38.32400 40.43400 21.37700
H  38.02000 42.08800 21.96300
H  38.76800 40.93700 23.04500
H  40.07100 47.32200 25.38500
H  40.29500 46.10900 24.10600
H  41.71200 46.87200 24.66000
H  40.32200 45.21900 30.45600
H  42.85200 47.35700 33.10800
H  44.10900 46.60000 32.09900
H  43.34300 45.73100 33.37300

