158

Mg 47.40100 16.00900 28.19300
C  45.68100 15.37300 31.20100
C  49.73700 17.75100 30.11200
C  48.99600 16.80000 25.42100
C  45.01600 14.26100 26.39500
N  47.62800 16.46900 30.43700
C  46.82500 16.05800 31.46300
C  47.20600 16.69400 32.78000
C  48.50300 17.55100 32.36500
C  48.70900 17.25600 30.83500
C  48.59500 19.05900 32.72800
C  47.33700 15.66000 34.01000
C  48.52200 15.81200 34.96700
H  48.61300 17.12600 35.74900
N  49.10900 17.25100 27.80300
C  49.94700 17.82900 28.71100
C  50.96000 18.62000 27.96500
C  50.59300 18.47100 26.57500
C  49.49300 17.49600 26.52700
C  51.99200 19.47100 28.60100
C  51.08900 19.17100 25.34800
O  50.66600 18.83800 24.22200
C  52.12700 20.19800 25.47300
N  47.07300 15.45900 26.19300
C  47.89400 15.94200 25.23700
C  47.32300 15.60800 23.78500
C  46.05200 14.64600 24.11400
C  46.07400 14.76400 25.65800
C  46.97400 16.80100 22.87500
C  46.04800 13.25300 23.48700
C  45.36300 13.19900 22.09800
N  45.75000 14.90900 28.64200
C  44.85600 14.29200 27.79200
C  43.74200 13.84700 28.62500
C  44.00600 14.16200 29.95900
C  45.27200 14.81700 29.92900
C  42.52400 13.20900 28.17900
C  43.52300 14.10400 31.27600
O  42.46600 13.65200 31.69500
C  44.55100 14.86600 32.12500
C  43.84100 15.96200 32.83300
O  43.29900 16.89300 32.34100
O  43.89300 15.88000 34.24500
C  43.37900 16.93400 35.06600
H  50.48700 18.34100 30.64300
H  49.34800 16.97000 24.40200
H  44.17500 13.95600 25.76900
H  46.45800 17.47200 32.93100
H  49.33400 17.00200 32.80800
H  47.78900 19.58000 32.21100
H  49.62000 19.28300 32.43000
H  48.43200 19.19500 33.79700
H  47.51000 14.72500 33.47700
H  46.39900 15.79200 34.54900
H  49.45000 15.68900 34.40800
H  48.55700 14.93400 35.61200
H  52.92100 19.43800 28.03000
H  52.03100 19.17100 29.64800
H  51.68000 20.51300 28.66800
H  51.77100 20.97100 26.15500
H  52.09800 20.73600 24.52600
H  53.11200 19.80600 25.72600
H  48.11600 14.97200 23.39300
H  45.09200 15.04900 23.79100
H  47.18200 17.75300 23.36500
H  45.93500 16.82000 22.54600
H  47.59700 16.81500 21.98100
H  45.65400 12.59700 24.26400
H  47.08500 12.92800 23.41100
H  46.18600 13.15700 21.38300
H  44.73500 14.06300 21.88200
H  44.71700 12.32100 22.11700
H  42.49300 12.93500 27.12400
H  41.61500 13.77500 28.38100
H  42.40900 12.32600 28.80800
H  44.93900 14.14500 32.84400
H  43.16300 17.84100 34.50200
H  44.14500 17.10800 35.82100
H  42.50600 16.69100 35.67100
Mg 5.83400 55.93600 41.01800
C  3.28500 53.35500 41.10900
C  7.91700 53.47800 39.39500
C  8.10000 58.36200 40.38000
C  3.49400 58.21700 41.89200
N  5.57300 53.61500 40.28600
C  4.45000 52.85600 40.45900
C  4.66800 51.44700 39.78700
C  6.27700 51.47600 39.54800
C  6.62400 52.96100 39.69900
C  7.06000 50.65100 40.51900
C  3.89200 51.41000 38.35500
C  3.15900 50.16600 37.96600
H  3.71100 49.43900 36.78200
N  7.75000 55.91400 40.06800
C  8.42400 54.80200 39.53900
C  9.77600 55.25600 39.20600
C  9.80400 56.65300 39.36600
C  8.51800 57.03700 39.90100
C  10.90800 54.27000 38.99400
C  11.00900 57.58300 39.06400
O  12.03300 57.02000 38.58200
C  11.10100 59.02600 39.32500
N  5.73000 58.02700 40.95100
C  6.85600 58.81000 40.78800
C  6.53000 60.33200 40.99600
C  5.08100 60.24200 41.49000
C  4.73700 58.75000 41.51000
C  7.49500 60.92600 42.01200
C  4.02800 61.15100 40.74400
C  3.61900 62.45900 41.55600
N  3.86000 55.87400 41.59900
C  3.00600 56.85400 41.96700
C  1.76500 56.25400 42.38300
C  1.82600 54.92700 42.06500
C  3.10400 54.72600 41.46300
C  0.62400 57.03900 42.84800
C  1.15800 53.62500 42.09800
O  0.03500 53.39000 42.52900
C  2.07900 52.56400 41.52500
C  1.27000 51.89900 40.49700
O  0.98100 52.46900 39.48300
O  1.04600 50.57900 40.74600
C  0.19200 49.82600 39.78000
H  8.66200 52.82100 38.94100
H  8.82400 59.17900 40.33200
H  2.79600 58.95300 42.29600
H  4.29400 50.63400 40.40900
H  6.48200 51.34200 38.48600
H  7.52000 51.30100 41.26400
H  7.87000 50.08300 40.06300
H  6.41600 50.04100 41.15200
H  4.62800 51.62300 37.57900
H  3.21700 52.26400 38.30800
H  2.15000 50.37300 37.60900
H  3.01000 49.43100 38.75700
H  11.19200 54.12900 37.95200
H  10.76500 53.25700 39.37100
H  11.75900 54.63400 39.57000
H  11.96900 59.56200 38.94000
H  11.04000 59.30900 40.37600
H  10.27900 59.46800 38.76200
H  6.60000 60.90800 40.07300
H  4.99600 60.46500 42.55400
H  8.19600 60.19000 42.40500
H  6.90400 61.29800 42.84900
H  8.13500 61.72700 41.64000
H  3.16100 60.53200 40.51400
H  4.47500 61.49500 39.81200
H  4.32300 62.72000 42.34700
H  2.61500 62.40300 41.97500
H  3.51500 63.25400 40.81700
H  0.99700 57.91900 43.37000
H  0.06100 56.39600 43.52500
H  -0.01200 57.35600 42.02100
H  2.32500 51.95800 42.39700
H  -0.74000 50.25600 40.14700
H  0.09400 48.74500 39.88400
H  0.31400 50.05000 38.72000

