158

Mg 25.66400 0.13000 29.18700
C  27.77700 -0.64700 31.95600
C  23.06800 0.59300 31.24800
C  23.90500 0.45000 26.49900
C  28.50400 -0.87600 27.17200
N  25.51500 0.02400 31.31800
C  26.48900 -0.22300 32.33100
C  25.96600 -0.07600 33.76900
C  24.47500 0.38000 33.43000
C  24.30600 0.30800 31.90100
C  23.39900 -0.27900 34.29000
C  26.77600 1.00700 34.65300
C  27.48100 0.56200 35.85000
H  27.36400 1.45900 37.06900
N  23.78700 0.51200 28.88700
C  22.83200 0.74200 29.84400
C  21.56300 1.05300 29.17900
C  21.88000 1.23200 27.81500
C  23.22800 0.67000 27.65300
C  20.26200 1.31200 30.04000
C  21.06000 1.75900 26.64300
O  21.48000 1.94000 25.50900
C  19.59900 1.94400 26.89800
N  26.19100 -0.06700 27.11200
C  25.22300 0.17300 26.18200
C  25.78000 0.02600 24.71500
C  27.30600 -0.09600 24.99100
C  27.37400 -0.32100 26.51600
C  25.02700 -1.09300 23.95400
C  28.17100 1.12700 24.50200
C  28.07100 2.45900 25.35200
N  27.65400 -0.92500 29.43900
C  28.68700 -1.18500 28.54600
C  29.87000 -1.72200 29.23800
C  29.53600 -1.54000 30.61200
C  28.21900 -0.96000 30.63500
C  31.14000 -2.27100 28.61000
C  30.04100 -1.66200 32.01500
O  31.14800 -1.98200 32.41900
C  28.82800 -1.09000 32.88700
C  28.48700 -2.12100 33.85600
O  27.61600 -2.93300 33.87400
O  29.37600 -1.98500 34.86000
C  29.13900 -2.74400 36.08800
H  22.19700 0.83400 31.86000
H  23.28300 0.73800 25.64800
H  29.32500 -1.19600 26.52700
H  25.82500 -1.01300 34.30600
H  24.33600 1.44400 33.61700
H  22.94100 -1.03000 33.64700
H  22.65200 0.50700 34.40400
H  23.70500 -0.69700 35.24900
H  26.05000 1.72500 35.03400
H  27.42000 1.58900 33.99400
H  28.51300 0.44700 35.51900
H  26.99600 -0.38900 36.06800
H  20.00700 2.37100 30.01100
H  20.33300 0.83500 31.01700
H  19.44000 0.82300 29.51800
H  19.15100 2.12300 25.92000
H  19.67500 2.90600 27.40600
H  19.15500 1.08200 27.39400
H  25.68600 0.95400 24.15100
H  27.60500 -1.05100 24.55900
H  24.09000 -1.12700 24.50900
H  25.54500 -2.05000 24.01200
H  24.66600 -0.92000 22.94000
H  27.93500 1.42700 23.48100
H  29.18400 0.75200 24.65100
H  27.35200 2.40500 26.16900
H  27.70600 3.22600 24.66900
H  29.02200 2.82900 25.73500
H  32.04900 -1.94700 29.11700
H  31.12800 -2.02200 27.54800
H  31.07300 -3.35100 28.47900
H  29.20600 -0.23600 33.45000
H  29.37000 -3.80300 35.97500
H  28.08400 -2.90600 36.30900
H  29.60000 -2.29500 36.96700
Mg 42.08300 7.06800 30.54800
C  43.88700 9.23500 32.60300
C  39.87900 6.40900 33.10200
C  40.25600 5.34400 28.41900
C  44.32600 7.89200 27.94500
N  41.88400 7.88500 32.58900
C  42.71200 8.73900 33.22600
C  42.30200 8.82100 34.72700
C  41.05600 7.93400 34.81800
C  40.94600 7.25200 33.42500
C  40.97100 6.90000 35.92000
C  42.09500 10.25400 35.27100
C  41.05900 10.53300 36.42700
H  41.67100 11.34900 37.59100
N  40.41200 5.89000 30.73900
C  39.55100 5.84300 31.82700
C  38.43400 4.92300 31.51900
C  38.56600 4.55900 30.19000
C  39.76200 5.29400 29.69100
C  37.38400 4.49000 32.57000
C  37.76800 3.61400 29.35800
O  38.05400 3.36300 28.15600
C  36.72900 2.77700 29.90200
N  42.34500 6.65700 28.54900
C  41.40200 5.91000 27.86100
C  41.68000 5.78700 26.41200
C  42.77500 6.93900 26.28300
C  43.31500 7.04400 27.64500
C  42.14400 4.31800 25.96000
C  42.11200 8.29600 25.87300
C  42.12400 8.68100 24.36700
N  43.90400 8.19300 30.27500
C  44.64900 8.44900 29.13600
C  45.72900 9.35900 29.46800
C  45.44400 9.70500 30.85100
C  44.36200 8.97200 31.25600
C  46.82100 9.95000 28.59600
C  45.92000 10.47200 31.96200
O  46.80100 11.34400 32.05300
C  45.04000 10.06700 33.18300
C  45.78700 9.41000 34.27800
O  46.21200 8.28800 34.17100
O  45.78200 10.22700 35.36700
C  45.79900 9.41500 36.60000
H  39.15700 6.23000 33.90100
H  39.58400 4.87100 27.69900
H  45.04500 8.27400 27.21600
H  43.13700 8.31500 35.21100
H  40.14200 8.52200 34.90300
H  41.77200 7.09600 36.63300
H  40.96300 5.84800 35.63500
H  40.03600 7.15800 36.41800
H  41.83300 10.82200 34.37800
H  43.07500 10.64800 35.54100
H  40.59800 9.63700 36.84200
H  40.22200 10.95500 35.87100
H  36.59300 5.21100 32.36300
H  37.74400 4.68200 33.58100
H  37.06400 3.45800 32.42000
H  37.18700 1.92200 30.40000
H  36.07600 2.39900 29.11500
H  36.00800 3.28800 30.54100
H  40.78200 6.01300 25.83700
H  43.56600 6.70500 25.57100
H  42.58700 3.82200 26.82400
H  42.97500 4.38300 25.25900
H  41.27000 3.76800 25.61200
H  42.58700 9.11900 26.40700
H  41.04600 8.22000 26.08700
H  42.99200 8.27100 23.85100
H  42.22300 9.76300 24.27500
H  41.31000 8.29800 23.75200
H  47.72800 9.99400 29.19900
H  46.66200 10.96800 28.24000
H  46.96600 9.32400 27.71600
H  44.80200 11.07300 33.52900
H  45.37000 8.41400 36.60700
H  45.15600 10.08500 37.17100
H  46.77100 9.39100 37.09200

