158

Mg 48.79500 44.95900 42.79800
C  45.27600 45.24400 42.01700
C  48.85500 41.99400 41.31500
C  52.07700 45.28000 43.00100
C  48.59900 48.51400 43.66800
N  47.17300 43.74600 41.93500
C  45.91800 44.05700 41.58300
C  45.31200 42.91900 40.70700
C  46.31900 41.71300 41.03700
C  47.54300 42.53300 41.38800
C  45.93100 40.78700 42.25200
C  45.16300 43.31300 39.19100
C  43.75000 43.08800 38.60300
H  43.36700 43.99400 37.44700
N  50.26500 43.69200 42.35100
C  50.10700 42.51500 41.72100
C  51.44000 41.86900 41.57700
C  52.39800 42.71600 42.20200
C  51.62000 43.97800 42.48300
C  51.63600 40.41700 40.97300
C  53.87400 42.37000 42.41700
O  54.37700 41.35100 41.93800
C  54.82000 43.30800 43.09300
N  50.06800 46.70700 43.14700
C  51.43300 46.48200 43.16600
C  52.16800 47.74300 43.36400
C  51.14800 48.81800 43.73400
C  49.84800 47.99100 43.57100
C  53.47400 47.60400 44.20700
C  51.25300 50.07600 42.93200
C  52.11900 51.20500 43.54100
N  47.31300 46.52200 42.98400
C  47.37100 47.85700 43.41600
C  46.07100 48.50300 43.35800
C  45.25000 47.45900 42.80700
C  46.04000 46.30300 42.60400
C  45.73700 49.92600 43.71300
C  43.94900 47.30000 42.26400
O  42.99100 48.08900 42.26000
C  43.92500 45.83100 41.68400
C  42.74800 44.99400 42.12500
O  41.88900 44.54700 41.43100
O  42.74900 44.84600 43.51200
C  41.45900 44.73500 44.12300
H  49.01800 40.99200 40.91200
H  53.16400 45.31800 42.90700
H  48.40900 49.48400 44.13100
H  44.36200 42.63200 41.15700
H  46.51700 41.08900 40.16600
H  44.97500 41.06500 42.69700
H  46.74700 40.94300 42.95900
H  45.90600 39.73500 41.96900
H  45.80300 42.83500 38.44900
H  45.27400 44.39700 39.20900
H  42.99600 43.17300 39.38500
H  43.58100 42.04700 38.32800
H  52.56500 40.25000 40.42800
H  50.82800 40.31200 40.25000
H  51.63800 39.64400 41.74100
H  55.20600 44.04600 42.39100
H  55.72000 42.74400 43.34000
H  54.40500 43.79200 43.97800
H  52.54900 47.94800 42.36400
H  51.32300 49.11300 44.76900
H  53.55800 48.41300 44.93200
H  54.26100 47.77100 43.47100
H  53.61600 46.62200 44.65900
H  50.28000 50.54900 42.79700
H  51.65400 49.79200 41.95900
H  52.31100 51.08700 44.60700
H  51.63600 52.16900 43.37900
H  53.06900 51.29400 43.01500
H  45.26700 50.33400 42.81800
H  46.59700 50.50500 44.05100
H  44.99800 49.88600 44.51400
H  44.04300 45.99800 40.61300
H  41.46200 43.87400 44.79200
H  40.60500 44.80600 43.45100
H  41.36900 45.56700 44.82200
Mg 30.38700 57.62500 40.45100
C  27.60800 55.64000 39.59300
C  32.39800 55.16600 38.98000
C  33.01100 59.78600 40.67800
C  28.25500 60.32900 40.90400
N  29.99600 55.72000 39.09500
C  28.81900 54.99600 39.11500
C  28.91800 53.56100 38.79300
C  30.51200 53.42300 38.77000
C  30.98800 54.84800 38.97100
C  31.05200 52.52600 39.88600
C  28.16300 53.00100 37.53700
C  28.72600 53.05400 36.13200
H  27.80400 53.71100 35.03900
N  32.39600 57.48000 39.94000
C  32.99200 56.38700 39.30900
C  34.41700 56.64700 39.16500
C  34.65000 58.01300 39.64900
C  33.32500 58.53600 40.13200
C  35.51700 55.65300 38.67900
C  35.95600 58.63600 39.66800
O  36.96000 58.03200 39.31900
C  36.16000 60.08500 40.03000
N  30.56200 59.63900 40.77100
C  31.75000 60.26200 40.98800
C  31.64400 61.68400 41.57700
C  30.08600 61.87300 41.57400
C  29.62400 60.55200 40.94100
C  32.43500 61.84100 42.93000
C  29.48600 63.17300 40.97600
C  29.66100 64.48900 41.76200
N  28.33100 57.87400 40.41400
C  27.62200 59.07800 40.72800
C  26.28300 58.78000 40.55400
C  26.15300 57.46200 40.15200
C  27.50200 56.92800 40.07800
C  25.14700 59.66100 40.87200
C  25.26900 56.48200 39.74200
O  24.06200 56.43200 39.55000
C  26.18300 55.19200 39.43500
C  25.74500 54.03800 40.24500
O  26.34200 53.62500 41.22200
O  24.54900 53.46000 39.77200
C  23.73000 52.78900 40.85200
H  33.03800 54.29900 38.80600
H  33.84000 60.48700 40.79500
H  27.57000 61.17800 40.93200
H  28.68800 53.03700 39.72100
H  30.88400 53.13100 37.78800
H  31.59200 53.06700 40.66300
H  31.80600 51.91000 39.39500
H  30.29100 51.86800 40.30600
H  27.16800 53.44100 37.46900
H  28.00200 51.93300 37.68800
H  28.89200 52.05700 35.72300
H  29.69600 53.54500 36.05700
H  35.92800 56.00900 37.73400
H  35.15700 54.63700 38.51700
H  36.29400 55.39500 39.39900
H  35.81600 60.41300 41.01100
H  35.64400 60.60800 39.22500
H  37.20800 60.38200 40.01600
H  31.99600 62.31200 40.75900
H  29.66200 61.79100 42.57500
H  32.87100 60.94100 43.36600
H  31.70500 62.17600 43.66700
H  33.17200 62.64200 42.87300
H  28.43400 62.99000 40.75900
H  29.84800 63.27000 39.95300
H  28.72500 64.74700 42.25700
H  29.87100 65.23600 40.99700
H  30.53900 64.46100 42.40700
H  24.89200 60.12800 39.92000
H  25.38800 60.51500 41.50500
H  24.32900 59.09300 41.31500
H  25.95900 54.87600 38.41700
H  23.38400 53.61100 41.47900
H  24.36400 52.03300 41.31500
H  22.91900 52.24300 40.36900

