158

Mg 17.15200 -2.22600 28.43500
C  16.19600 -0.01700 30.94200
C  18.91900 -3.96300 30.80400
C  18.42100 -3.86400 25.83000
C  15.74300 0.04700 26.02000
N  17.44500 -2.03200 30.64700
C  16.91000 -1.07200 31.41700
C  17.37100 -1.23600 32.91200
C  18.39500 -2.36600 32.86300
C  18.18700 -2.87100 31.40900
C  19.89800 -2.02000 33.11700
C  16.17600 -1.52100 33.90700
C  16.68100 -1.80800 35.37500
H  17.82400 -1.07700 35.94300
N  18.49300 -3.69900 28.35400
C  19.05000 -4.33900 29.45800
C  19.80700 -5.47700 28.96600
C  19.70400 -5.43600 27.53500
C  18.78900 -4.30400 27.17300
C  20.58500 -6.43500 29.93900
C  20.30600 -6.40400 26.60900
O  19.91800 -6.61500 25.43700
C  21.10700 -7.41900 27.08200
N  16.91500 -2.01200 26.20800
C  17.58900 -2.90700 25.35900
C  17.62500 -2.38700 23.96500
C  16.59100 -1.16600 24.07500
C  16.35800 -1.03100 25.53900
C  19.03700 -1.96700 23.53300
C  15.35100 -1.12900 23.14100
C  13.95800 -1.22300 23.86300
N  16.15100 -0.38900 28.43400
C  15.67300 0.42300 27.39800
C  14.86700 1.46200 27.97500
C  15.02300 1.31400 29.39600
C  15.95100 0.24600 29.58000
C  13.87200 2.37000 27.27200
C  14.65300 1.88900 30.68700
O  13.93600 2.87200 30.89100
C  15.50800 1.01400 31.73600
C  16.28500 1.88100 32.61600
O  17.40200 2.18400 32.33900
O  15.54300 2.35900 33.67300
C  16.28900 3.19100 34.66200
H  19.39000 -4.42600 31.67300
H  18.93700 -4.48400 25.09400
H  15.29300 0.76800 25.33500
H  17.70500 -0.30600 33.37200
H  18.04200 -3.13300 33.55300
H  20.37600 -2.95800 33.39900
H  20.01200 -1.09900 33.68700
H  20.23500 -1.51400 32.21200
H  15.57100 -2.35900 33.56000
H  15.48900 -0.69200 34.07900
H  16.98400 -2.85200 35.46100
H  15.88400 -1.63200 36.09700
H  21.65800 -6.24500 29.91500
H  20.45700 -7.47600 29.63900
H  20.19100 -6.37700 30.95400
H  21.97100 -6.90100 27.49900
H  21.35900 -8.10200 26.27100
H  20.55300 -8.04700 27.78000
H  17.19200 -3.10600 23.27000
H  17.10400 -0.23200 23.84700
H  19.45400 -2.77400 22.93100
H  19.61600 -1.71400 24.42100
H  18.91900 -1.06600 22.93100
H  15.43100 -1.87300 22.34800
H  15.58200 -0.12200 22.79200
H  13.26800 -1.63200 23.12500
H  13.57700 -0.26200 24.21100
H  13.88500 -1.85700 24.74600
H  13.57000 3.20900 27.89900
H  12.99300 1.81000 26.95100
H  14.31600 2.85600 26.40400
H  14.85000 0.51800 32.44900
H  17.08100 3.72900 34.14200
H  16.60800 2.52300 35.46200
H  15.63500 3.92300 35.13600
Mg -10.60100 16.17600 42.94100
C  -7.16000 16.89100 43.10700
C  -11.20500 19.38500 42.22000
C  -13.78500 15.30700 42.61500
C  -9.69100 12.77200 43.16100
N  -9.21900 17.95300 42.41700
C  -7.89000 18.03100 42.69800
C  -7.38400 19.46500 42.75000
C  -8.75800 20.26500 42.42300
C  -9.82000 19.17100 42.38400
C  -9.06500 21.48100 43.39600
C  -6.11100 19.68200 41.77400
C  -5.81300 21.09300 41.31200
H  -6.01100 21.50300 39.86800
N  -12.24600 17.15400 42.22300
C  -12.30700 18.50500 42.04100
C  -13.64000 18.84200 41.66600
C  -14.42500 17.67700 41.57900
C  -13.50400 16.66000 42.20800
C  -14.06300 20.33900 41.48100
C  -15.86200 17.53200 41.04900
O  -16.46800 18.40700 40.47300
C  -16.47000 16.14900 41.09400
N  -11.61800 14.22900 42.73800
C  -12.98100 14.17900 42.93500
C  -13.47400 12.79400 43.36800
C  -12.17500 12.01800 43.46600
C  -11.06500 13.05400 43.13200
C  -14.35200 12.75900 44.64600
C  -12.12400 10.72600 42.58000
C  -12.59500 9.50200 43.28800
N  -8.81900 15.03400 43.17000
C  -8.63800 13.68300 43.19500
C  -7.28200 13.33600 43.41600
C  -6.67400 14.56700 43.41200
C  -7.63200 15.58400 43.22400
C  -6.72400 12.00800 43.68900
C  -5.34500 15.22000 43.70800
O  -4.30500 14.70300 43.94400
C  -5.67500 16.76800 43.57000
C  -5.34700 17.37900 44.88200
O  -5.82100 17.11800 45.90800
O  -4.42500 18.44200 44.68100
C  -3.91600 19.10200 45.88900
H  -11.28700 20.45600 42.01900
H  -14.84900 15.07700 42.53200
H  -9.34200 11.76300 43.39100
H  -7.11600 19.73700 43.77100
H  -8.60500 20.65500 41.41600
H  -8.14400 21.83500 43.86000
H  -9.74100 21.21400 44.20800
H  -9.61000 22.23100 42.82300
H  -6.46400 19.09600 40.92600
H  -5.17100 19.33500 42.20300
H  -4.81100 21.45900 41.53800
H  -6.46400 21.82700 41.78500
H  -13.87500 20.78100 40.50300
H  -13.54600 21.02500 42.15100
H  -15.09200 20.45300 41.82400
H  -15.93300 15.33400 40.60900
H  -17.31500 16.32400 40.42800
H  -16.99300 15.91600 42.02200
H  -14.11200 12.47700 42.54300
H  -12.03100 11.77000 44.51700
H  -13.90100 12.12600 45.41100
H  -15.37000 12.53600 44.32900
H  -14.25100 13.80100 44.94800
H  -11.15300 10.48000 42.15000
H  -12.77300 10.90800 41.72400
H  -12.83900 9.76600 44.31800
H  -11.87900 8.68100 43.28900
H  -13.53500 9.17900 42.84200
H  -7.05500 11.32000 42.91100
H  -6.97900 11.63900 44.68200
H  -5.63900 11.97100 43.59600
H  -4.94900 17.18600 42.87400
H  -2.83700 19.24500 45.82100
H  -4.13200 18.57800 46.82000
H  -4.28000 20.12800 45.93200

