158

Mg 2.78400 -2.56700 44.80200
C  6.23800 -1.71000 44.51100
C  1.96300 -0.00200 42.72800
C  -0.28600 -3.93300 44.50400
C  3.86600 -5.41400 46.65800
N  4.02900 -1.09500 43.59000
C  5.36300 -0.88200 43.71400
C  5.74700 0.27500 42.83200
C  4.41000 0.91600 42.43000
C  3.36800 -0.03800 43.02300
C  4.11200 2.27700 43.03100
C  6.75700 -0.12500 41.67500
C  7.79500 0.93000 41.39900
H  7.41500 1.77700 40.20700
N  1.03500 -1.98500 43.83200
C  0.90200 -0.86400 43.04000
C  -0.44600 -0.77000 42.52300
C  -1.15300 -1.85700 43.07900
C  -0.16800 -2.66500 43.85000
C  -0.99400 0.31700 41.56900
C  -2.61200 -2.04100 42.96000
O  -3.27400 -1.25200 42.33500
C  -3.38200 -3.09800 43.71000
N  1.80500 -4.45200 45.67200
C  0.56900 -4.79100 45.25800
C  0.25000 -6.22700 45.75000
C  1.64300 -6.71300 46.37400
C  2.50500 -5.52100 46.17300
C  -0.94900 -6.17200 46.74100
C  2.23000 -7.95100 45.59800
C  2.38300 -9.26900 46.38900
N  4.54500 -3.37100 45.47700
C  4.82200 -4.42900 46.29500
C  6.26600 -4.58800 46.54100
C  6.77500 -3.47300 45.95000
C  5.78000 -2.82800 45.25400
C  6.86100 -5.75500 47.24700
C  8.04400 -2.68700 45.78000
O  9.12800 -2.90300 46.22600
C  7.71000 -1.48700 44.86500
C  7.76200 -0.19600 45.64400
O  6.87900 0.07800 46.46100
O  8.74400 0.62100 45.19500
C  8.70000 1.97600 45.73800
H  1.68100 0.92400 42.22200
H  -1.31100 -4.31000 44.47200
H  4.06200 -6.31600 47.24200
H  6.25600 0.95600 43.51400
H  4.29800 0.99700 41.34800
H  3.49500 2.75800 42.27100
H  5.02600 2.74700 43.39300
H  3.56000 2.22100 43.96900
H  6.20800 -0.22100 40.73800
H  7.20900 -1.08300 41.93400
H  8.75100 0.41200 41.32600
H  7.91000 1.60200 42.25000
H  -0.45100 1.26100 41.62200
H  -2.00300 0.62300 41.84300
H  -0.87400 0.00300 40.53200
H  -3.13500 -2.87700 44.74800
H  -3.14900 -4.07900 43.29700
H  -4.44600 -2.87800 43.61400
H  -0.19900 -6.85900 44.98400
H  1.50700 -6.90600 47.43800
H  -1.75600 -6.82400 46.40600
H  -1.35400 -5.16100 46.79200
H  -0.63800 -6.42300 47.75500
H  3.23500 -7.70500 45.25300
H  1.62100 -8.14100 44.71400
H  1.91000 -9.15400 47.36400
H  3.42000 -9.57900 46.51100
H  1.93100 -10.10300 45.85100
H  7.73300 -5.42300 47.81100
H  7.20100 -6.47300 46.50000
H  6.23500 -6.33700 47.92400
H  8.42900 -1.49300 44.04600
H  9.67900 2.16100 46.17800
H  7.93600 2.30500 46.44300
H  8.45200 2.66300 44.92900
Mg 27.10500 50.23800 26.66500
C  25.12800 51.29600 29.23200
C  29.58300 49.57200 28.88800
C  29.16100 49.57600 23.99900
C  24.73900 51.46900 24.39500
N  27.30600 50.30300 28.83300
C  26.36200 50.74700 29.64800
C  26.79100 50.55800 31.18000
C  28.31800 50.24400 31.10800
C  28.45300 50.02700 29.59300
C  29.16300 51.40500 31.75100
C  25.90700 49.46500 31.90300
C  25.17900 50.01200 33.15900
H  24.99400 49.05500 34.38000
N  29.00100 49.50200 26.48700
C  29.84400 49.30000 27.53000
C  31.01300 48.60900 26.99900
C  30.97200 48.71700 25.61400
C  29.69900 49.26600 25.29100
C  31.99000 47.91700 27.93200
C  32.04800 48.34500 24.59500
O  32.00200 48.75000 23.44100
C  33.30700 47.70900 25.09300
N  26.91400 50.37800 24.53700
C  27.88000 50.10400 23.63400
C  27.35500 50.19700 22.16400
C  25.86700 50.57400 22.33800
C  25.81000 50.84100 23.83700
C  28.21100 50.97500 21.15200
C  24.78600 49.57500 21.78800
C  24.08700 49.99800 20.47400
N  25.42600 51.34200 26.72800
C  24.53700 51.68400 25.75100
C  23.34700 52.31800 26.33500
C  23.52800 52.18400 27.69800
C  24.84800 51.58200 27.91300
C  22.10600 52.80700 25.55600
C  22.94200 52.35500 28.98800
O  21.85900 52.86000 29.30900
C  23.89100 51.83700 30.05300
C  24.34800 52.96500 30.94400
O  25.36300 53.63500 30.74300
O  23.46900 53.04200 32.04300
C  23.77400 54.20000 32.97100
H  30.40400 49.30800 29.55800
H  29.71000 49.30400 23.09500
H  23.88100 51.75600 23.78400
H  26.68700 51.52300 31.67500
H  28.42200 49.37500 31.75700
H  29.74600 50.97000 32.56300
H  28.55400 52.24700 32.07600
H  29.94500 51.61000 31.01900
H  26.49000 48.62800 32.28500
H  25.06900 49.17800 31.26700
H  24.21400 50.40700 32.84100
H  25.68500 50.88900 33.56200
H  32.98100 48.36900 27.89200
H  32.23500 46.88300 27.68600
H  31.70400 47.95500 28.98300
H  33.89800 47.45000 24.21500
H  33.04500 46.82200 25.67100
H  33.81700 48.40800 25.75600
H  27.49200 49.14900 21.89800
H  25.81300 51.49800 21.76200
H  29.04100 51.48900 21.63700
H  27.76800 51.74300 20.51800
H  28.51400 50.26200 20.38400
H  24.08800 49.33700 22.59100
H  25.31600 48.67100 21.48600
H  23.98700 49.18200 19.75800
H  24.53100 50.85900 19.97500
H  23.08800 50.33900 20.74600
H  22.02700 53.88100 25.72500
H  21.15300 52.35400 25.82900
H  22.18800 52.65200 24.48100
H  23.50600 51.00200 30.63900
H  23.57900 53.85100 33.98500
H  23.20600 55.09500 32.71900
H  24.83600 54.44200 33.01800

