158

Mg 46.44300 4.78900 47.60100
C  44.89200 7.87600 46.53600
C  43.58800 3.20900 46.68900
C  48.31200 1.99600 47.64600
C  49.35100 6.75700 48.41400
N  44.53500 5.43700 46.64400
C  44.11900 6.78300 46.29900
C  42.71000 6.70700 45.70800
C  42.28700 5.20600 45.88500
C  43.53300 4.56300 46.50700
C  40.98800 4.95600 46.68800
C  42.58700 7.26100 44.26500
C  41.41500 8.27900 44.12000
H  40.28700 8.04100 43.14800
N  46.03900 2.88400 47.23600
C  44.74000 2.42100 46.98300
C  44.87000 0.98600 46.86800
C  46.19100 0.52600 47.11200
C  46.92900 1.78800 47.35000
C  43.72900 -0.00800 46.41100
C  46.77000 -0.86700 47.11400
O  46.05200 -1.79600 46.90000
C  48.18100 -1.22000 47.29500
N  48.55900 4.44200 47.93300
C  49.08300 3.19900 47.74400
C  50.62300 3.23000 47.96700
C  50.93400 4.74000 48.37000
C  49.54100 5.36400 48.27700
C  51.15500 2.17900 49.01600
C  52.12800 5.29900 47.55900
C  51.82100 5.96300 46.22300
N  46.99300 6.89700 47.68500
C  48.22900 7.48700 48.02700
C  48.06400 8.93900 48.10400
C  46.76300 9.12100 47.50000
C  46.21200 7.86800 47.21100
C  49.11300 9.94100 48.54300
C  45.74000 10.08400 47.07900
O  45.75600 11.34200 47.19900
C  44.45500 9.27600 46.46400
C  43.29000 9.62400 47.21400
O  42.97100 9.11200 48.27600
O  42.64900 10.59300 46.42100
C  41.37900 11.10700 46.99900
H  42.68500 2.65300 46.42700
H  48.91600 1.09600 47.77300
H  50.24500 7.25500 48.79800
H  42.21100 7.35400 46.42900
H  42.17900 4.76900 44.89200
H  40.48200 4.29500 45.98500
H  40.48600 5.89300 46.93000
H  41.18800 4.44400 47.62900
H  42.26300 6.44900 43.61500
H  43.43500 7.77600 43.81200
H  41.80800 9.26100 43.85500
H  40.84700 8.36300 45.04600
H  42.82500 0.57900 46.24700
H  43.56500 -0.74300 47.19900
H  44.08800 -0.61900 45.58300
H  48.22200 -2.30900 47.31000
H  48.36200 -0.88300 48.31600
H  48.73500 -0.78800 46.46100
H  50.90900 2.93900 46.95700
H  51.16100 4.71800 49.43600
H  51.45900 1.25500 48.52400
H  50.30700 2.01400 49.68100
H  51.99200 2.42500 49.67000
H  52.72200 4.44200 47.23900
H  52.76700 5.81800 48.27400
H  52.25000 6.96100 46.30700
H  50.76400 6.13100 46.01700
H  52.23200 5.45100 45.35200
H  48.61000 10.88200 48.76400
H  49.85400 10.20400 47.78800
H  49.51700 9.59800 49.49500
H  44.44800 9.56800 45.41400
H  41.51300 11.14600 48.08000
H  40.47000 10.54600 46.78300
H  41.29300 12.09400 46.54500
Mg 35.45900 3.12500 29.50700
C  33.43300 4.20900 32.18300
C  38.20700 3.03800 31.60500
C  37.58300 2.73200 26.87600
C  32.77900 3.36400 27.38500
N  35.77100 3.47100 31.69300
C  34.78300 3.86300 32.55200
C  35.32500 3.80700 33.93800
C  36.84600 3.79300 33.74000
C  37.01000 3.47300 32.27900
C  37.61400 5.03400 34.25000
C  34.59300 2.63400 34.74600
C  34.25200 2.92600 36.23400
H  35.25300 3.84000 37.05500
N  37.51200 2.76400 29.26200
C  38.46500 2.70700 30.25300
C  39.66000 2.09500 29.68500
C  39.62300 2.13000 28.30900
C  38.20000 2.67100 28.04200
C  40.89400 1.66500 30.56500
C  40.71300 1.82400 27.23100
O  40.59100 1.83700 26.01000
C  42.08400 1.41900 27.74500
N  35.24000 3.13300 27.48300
C  36.19100 2.88200 26.56500
C  35.72000 2.93700 25.10500
C  34.17200 2.85300 25.34000
C  34.02400 3.16400 26.84200
C  36.19400 4.16800 24.25400
C  33.60300 1.40900 25.03400
C  32.51800 1.39000 23.95700
N  33.44800 3.60600 29.70500
C  32.47300 3.68600 28.76200
C  31.16200 4.03600 29.34900
C  31.44800 4.26000 30.72400
C  32.91900 4.11400 30.82600
C  29.80100 4.06500 28.56200
C  30.97100 4.65700 32.04200
O  29.83800 4.84900 32.52800
C  32.19000 4.60800 32.99400
C  32.31500 5.90200 33.71900
O  32.31600 7.02700 33.26500
O  32.23300 5.68000 35.04500
C  32.35700 6.85500 35.90900
H  39.04400 2.90100 32.29400
H  38.12700 2.42400 25.98100
H  31.87000 3.42900 26.78400
H  35.06200 4.78700 34.33500
H  37.25800 3.02300 34.39300
H  36.90800 5.85900 34.35000
H  38.46400 5.22700 33.59600
H  38.03300 4.78300 35.22400
H  35.28800 1.79500 34.78300
H  33.66200 2.41000 34.22600
H  34.31300 1.97100 36.75700
H  33.24100 3.31600 36.34400
H  41.16900 0.67300 30.20800
H  40.55700 1.66900 31.60100
H  41.71400 2.37800 30.65600
H  42.66800 2.08000 28.38600
H  42.62300 1.03600 26.87800
H  41.98300 0.49800 28.31900
H  36.14700 2.01800 24.70400
H  33.76800 3.66700 24.73800
H  37.16000 4.35100 24.72400
H  35.55900 5.04900 24.16400
H  36.52700 3.92400 23.24600
H  33.13400 1.10400 25.96900
H  34.40700 0.72100 24.77400
H  32.20500 2.43400 23.92600
H  31.63800 0.79400 24.20200
H  32.95500 0.99900 23.03900
H  29.70200 3.14300 27.98900
H  29.95400 4.88100 27.85500
H  28.97800 4.08400 29.27700
H  32.01900 3.81900 33.72600
H  33.39700 7.17000 35.83200
H  32.13300 6.56800 36.93700
H  31.66200 7.67900 35.74400

