158

Mg 47.72200 14.86400 28.29600
C  45.59600 14.51600 30.98000
C  49.54600 17.10300 30.12300
C  49.79400 15.18900 25.63800
C  45.68300 12.90000 26.43600
N  47.58100 15.70900 30.34900
C  46.65000 15.34900 31.33200
C  47.01700 15.95000 32.65700
C  47.98700 17.15200 32.20600
C  48.42500 16.63500 30.82900
C  47.53400 18.62100 32.17000
C  47.80800 14.98900 33.60100
C  47.56500 15.27700 35.06300
H  48.81800 15.25600 36.01600
N  49.54100 15.86600 28.06600
C  50.07400 16.79300 28.86400
C  51.31300 17.30400 28.26100
C  51.43500 16.63800 27.06000
C  50.23400 15.85300 26.86400
C  52.02700 18.43900 28.84600
C  52.59400 16.82200 26.02100
O  52.57200 16.24600 24.92100
C  53.77500 17.62800 26.32400
N  47.72000 14.33500 26.24900
C  48.61800 14.50200 25.33900
C  48.34600 13.78800 23.98400
C  46.98100 13.19800 24.23800
C  46.76100 13.43900 25.72000
C  48.47400 14.74000 22.81000
C  46.79200 11.71500 23.80200
C  47.67100 10.64300 24.50900
N  45.93900 13.98400 28.60000
C  45.21400 13.14900 27.75900
C  44.01300 12.64200 28.39100
C  44.10700 13.22900 29.76500
C  45.27300 14.05200 29.73400
C  42.93100 11.91100 27.59100
C  43.52400 13.31300 31.08100
O  42.48600 12.96800 31.57000
C  44.47000 14.18800 31.89600
C  43.69800 15.46900 32.23300
O  43.54300 16.36400 31.44600
O  43.27800 15.49400 33.46900
C  42.51700 16.62500 33.97400
H  50.09300 17.89500 30.63900
H  50.56100 15.23800 24.86200
H  45.01800 12.29700 25.81400
H  46.18400 16.27800 33.27900
H  48.85900 17.10700 32.85800
H  47.47400 19.08100 31.18300
H  48.13900 19.22000 32.85000
H  46.54400 18.51800 32.61600
H  48.87800 14.85900 33.43500
H  47.45000 13.99500 33.33500
H  46.99400 14.45900 35.50200
H  46.89600 16.11300 35.26700
H  51.75200 19.38200 28.37300
H  53.10000 18.38800 28.65800
H  52.04900 18.37500 29.93400
H  54.22400 17.90800 25.37200
H  54.34100 17.16700 27.13400
H  53.39300 18.62400 26.55100
H  49.07800 12.98700 23.88300
H  46.20900 13.71400 23.66600
H  47.87800 14.49700 21.93100
H  49.53600 14.76100 22.56300
H  48.19700 15.72500 23.18500
H  46.99000 11.74300 22.73100
H  45.71900 11.54900 23.89000
H  48.20500 10.99300 25.39300
H  48.41800 10.23300 23.82900
H  46.97500 9.89300 24.88600
H  42.75000 10.91500 27.99400
H  43.06300 11.77400 26.51800
H  42.00000 12.46400 27.71800
H  44.56400 13.54100 32.76800
H  41.77900 16.31700 34.71500
H  42.04300 17.09300 33.11200
H  43.21800 17.30800 34.45300
Mg 36.29500 49.53400 24.65700
C  36.46400 48.02200 27.81300
C  35.46700 52.56000 26.34500
C  36.02800 50.98900 21.64800
C  36.94900 46.38300 23.14300
N  35.91600 50.18000 26.81300
C  36.10300 49.38900 27.94200
C  35.73400 50.18500 29.19900
C  35.50800 51.64900 28.70400
C  35.63100 51.45200 27.16300
C  34.25500 52.36000 29.17700
C  36.64700 50.02600 30.49700
C  35.96000 49.65500 31.84700
H  34.43400 49.98400 32.05300
N  35.78600 51.51100 24.04400
C  35.54400 52.56600 24.87400
C  35.28100 53.70900 23.95100
C  35.37200 53.22200 22.62600
C  35.76900 51.84700 22.71000
C  35.00800 55.09700 24.48200
C  35.31500 54.10500 21.42100
O  35.44800 53.63100 20.31500
C  35.18700 55.59800 21.47500
N  36.44600 48.81600 22.65900
C  36.24900 49.63800 21.61700
C  36.38200 48.78800 20.30500
C  36.82300 47.34600 20.77000
C  36.80600 47.53600 22.25800
C  35.11500 48.74500 19.45400
C  38.29100 47.03100 20.37100
C  38.48600 45.58200 19.80500
N  36.65100 47.69300 25.24500
C  36.85200 46.47400 24.52700
C  36.92700 45.40500 25.41700
C  36.81100 45.99700 26.69400
C  36.64100 47.39100 26.55000
C  37.06200 43.92900 25.13500
C  36.83800 45.66000 28.12100
O  37.03800 44.62700 28.70300
C  36.44800 46.93300 28.85700
C  35.13800 46.77600 29.50700
O  34.07100 47.21500 29.14600
O  35.27800 45.96200 30.61500
C  34.08700 45.54400 31.27800
H  35.28000 53.49400 26.88000
H  35.91100 51.37900 20.63500
H  37.13300 45.37400 22.76800
H  34.74300 49.83700 29.49200
H  36.34300 52.30800 28.94400
H  33.54400 52.40300 28.35200
H  34.60900 53.30200 29.59500
H  33.81500 51.69000 29.91600
H  37.40900 50.80600 30.51100
H  37.23200 49.14200 30.24400
H  36.40900 50.21100 32.67000
H  36.14900 48.61600 32.11600
H  33.98900 55.28100 24.14100
H  35.73900 55.81200 24.10400
H  34.98900 55.07700 25.57100
H  34.33500 55.94900 22.05700
H  35.00800 55.96200 20.46300
H  36.02400 56.14800 21.90500
H  37.14000 49.30600 19.71600
H  36.12300 46.58800 20.41700
H  34.48200 47.92000 19.77900
H  35.62900 48.48300 18.52900
H  34.69200 49.74100 19.31900
H  38.81500 47.19100 21.31400
H  38.76500 47.73100 19.68300
H  37.62600 44.93200 19.97000
H  39.26600 45.08000 20.37700
H  38.71100 45.58100 18.73900
H  37.86900 43.68000 24.44600
H  36.17200 43.45600 24.72100
H  37.23100 43.36600 26.05300
H  37.17300 47.17800 29.63400
H  33.99100 46.19500 32.14700
H  34.25500 44.55400 31.70400
H  33.16200 45.63600 30.70900

