158

Mg 0.59100 41.99900 25.87000
C  3.17700 41.78400 28.38700
C  -1.56100 40.95600 28.27400
C  -1.66900 41.64700 23.48500
C  3.16200 42.21000 23.53500
N  0.80400 41.63600 28.15200
C  1.90100 41.64300 28.91900
C  1.59400 41.52400 30.40300
C  0.14900 40.92700 30.30600
C  -0.31700 41.24300 28.82900
C  0.14300 39.38200 30.54200
C  1.74700 42.92300 31.07500
C  1.82500 42.91200 32.63900
H  1.21800 41.70900 33.35900
N  -1.32800 41.55900 25.90300
C  -2.06100 41.14700 26.96300
C  -3.46400 41.19100 26.59600
C  -3.49000 41.44400 25.15300
C  -2.10600 41.51800 24.83000
C  -4.66700 40.94700 27.58100
C  -4.69500 41.58400 24.28100
O  -4.62300 41.79300 23.09800
C  -6.12000 41.55400 24.89400
N  0.73200 42.01000 23.81900
C  -0.36500 41.96700 22.99500
C  -0.02100 42.28000 21.58700
C  1.43800 42.82500 21.70200
C  1.81700 42.36700 23.11000
C  -0.13900 41.08700 20.56700
C  1.67700 44.38700 21.51100
C  1.74100 45.35500 22.72800
N  2.78800 42.02800 25.87000
C  3.66900 42.04700 24.85000
C  5.05200 41.88400 25.35600
C  4.91200 41.81700 26.80700
C  3.47700 41.77600 27.01900
C  6.24300 41.72000 24.50000
C  5.59200 41.74500 28.03500
O  6.78500 41.61000 28.20600
C  4.50000 41.80400 29.13800
C  4.59600 40.71900 30.20600
O  4.28800 39.54400 30.09700
O  5.03100 41.27100 31.38800
C  4.79900 40.40400 32.55900
H  -2.31900 40.59900 28.97400
H  -2.42400 41.67800 22.69700
H  3.96400 42.41100 22.82200
H  2.20300 40.80000 30.94400
H  -0.62200 41.30100 30.98000
H  1.13900 39.04800 30.83300
H  -0.05500 38.97000 29.55200
H  -0.61400 39.08800 31.26900
H  0.90000 43.51800 30.73600
H  2.65100 43.39100 30.68600
H  1.29900 43.80100 32.98700
H  2.87500 42.92200 32.92800
H  -5.25400 41.82300 27.86100
H  -4.26900 40.65500 28.55300
H  -5.30300 40.19900 27.10800
H  -6.36800 40.51500 25.11200
H  -6.84900 41.84000 24.13600
H  -6.25500 42.12100 25.81500
H  -0.71200 43.04600 21.23300
H  2.04200 42.27400 20.98100
H  0.54900 40.25100 20.69400
H  -0.10000 41.44200 19.53700
H  -1.14100 40.68600 20.72000
H  0.89900 44.75600 20.84300
H  2.60700 44.40300 20.94300
H  1.73800 44.90100 23.71900
H  0.77500 45.86000 22.72400
H  2.46100 46.15200 22.54400
H  6.55900 42.72300 24.21400
H  6.00000 41.05300 23.67300
H  7.07000 41.28300 25.06000
H  4.62100 42.80100 29.56300
H  5.04400 40.83700 33.52900
H  5.49500 39.56500 32.58900
H  3.78300 40.01100 32.60700
Mg -0.91700 33.52400 26.67100
C  -2.48500 31.97900 29.52200
C  0.68900 35.45300 28.80500
C  -0.14100 35.31500 24.03500
C  -2.78800 31.31900 24.63000
N  -0.96700 33.65100 28.95100
C  -1.57400 32.97400 29.91500
C  -1.08200 33.18500 31.30100
C  -0.06800 34.40000 31.12100
C  -0.05300 34.57000 29.53000
C  -0.30000 35.71600 31.98900
C  -0.43700 31.93800 31.98200
C  -1.06100 31.55700 33.38100
H  -0.26000 32.09100 34.66500
N  0.12400 35.21400 26.50800
C  0.76700 35.85800 27.46300
C  1.53500 36.92500 26.91500
C  1.23300 36.91700 25.53600
C  0.37100 35.75400 25.31300
C  2.37600 37.83900 27.77000
C  1.71400 37.80000 24.43300
O  1.36400 37.73000 23.24600
C  2.66000 38.84600 24.84400
N  -1.65800 33.49800 24.55800
C  -0.99900 34.26800 23.66800
C  -1.47500 33.91500 22.27600
C  -2.09500 32.51500 22.46900
C  -2.22300 32.41000 23.96200
C  -2.42100 34.92800 21.67900
C  -1.23600 31.27300 21.95000
C  0.22200 31.07100 22.30500
N  -2.32700 31.95400 26.97700
C  -2.94700 31.14800 26.02900
C  -3.75200 30.24500 26.72400
C  -3.68400 30.54300 28.09400
C  -2.73800 31.58000 28.23300
C  -4.77400 29.29400 26.10200
C  -4.19900 30.28800 29.46400
O  -5.00900 29.49600 29.82800
C  -3.34800 31.14800 30.46500
C  -4.33200 31.91400 31.22800
O  -5.07200 32.82300 30.75900
O  -4.29400 31.62700 32.52900
C  -5.23900 32.43400 33.28800
H  1.46500 35.89600 29.43200
H  0.08700 35.82100 23.09500
H  -3.07900 30.52900 23.93400
H  -1.94000 33.49500 31.89900
H  0.98400 34.14100 31.24600
H  -0.66800 36.46600 31.29000
H  0.68600 36.03900 32.32400
H  -0.90500 35.53000 32.87700
H  0.60600 32.17500 32.19100
H  -0.50400 31.10600 31.28000
H  -1.04300 30.47500 33.50800
H  -2.04400 32.00700 33.52000
H  3.44700 37.67300 27.88600
H  2.03600 37.82300 28.80600
H  2.02100 38.80900 27.42200
H  2.94500 39.43000 23.96900
H  3.58800 38.35300 25.13400
H  2.20100 39.52600 25.56200
H  -0.65100 33.81200 21.57100
H  -3.06800 32.47600 21.97800
H  -1.94000 35.83300 21.30700
H  -3.12500 35.18100 22.47300
H  -3.03300 34.49000 20.89100
H  -1.25600 31.44100 20.87300
H  -1.80100 30.36500 22.16300
H  0.47600 31.90200 22.96300
H  0.84100 31.22700 21.42200
H  0.30800 30.13600 22.85900
H  -4.82400 29.33000 25.01300
H  -5.81600 29.48800 26.35300
H  -4.59200 28.29800 26.50600
H  -2.80000 30.44800 31.09600
H  -6.27000 32.08300 33.23500
H  -5.20200 33.49800 33.05400
H  -5.05800 32.34600 34.35900

