158

Mg 2.64100 -1.03900 43.89500
C  6.04800 -0.17500 43.53100
C  1.81200 1.95700 42.38800
C  -0.47700 -2.08300 43.85700
C  3.64800 -4.30000 44.88700
N  3.83900 0.66500 43.10400
C  5.19800 0.78700 42.96200
C  5.57600 2.07700 42.26800
C  4.20100 2.93000 42.37700
C  3.17000 1.83400 42.70600
C  4.19500 4.21000 43.26000
C  6.23800 1.91600 40.81700
C  6.04900 0.58900 40.14200
H  6.49900 0.58200 38.70600
N  0.88000 -0.15100 43.20000
C  0.69900 1.09000 42.61700
C  -0.70200 1.25600 42.28500
C  -1.35500 0.05400 42.65800
C  -0.33500 -0.78400 43.28600
C  -1.18700 2.51600 41.70500
C  -2.82400 -0.28100 42.23800
O  -3.50300 0.55400 41.79200
C  -3.45000 -1.70200 42.35600
N  1.71500 -2.91400 44.25800
C  0.40900 -3.08000 44.23300
C  -0.06100 -4.46500 44.71800
C  1.29400 -5.21300 44.70500
C  2.34400 -4.07200 44.58600
C  -0.75500 -4.44200 46.14300
C  1.51600 -6.17600 43.49400
C  1.89900 -7.65800 43.79100
N  4.46500 -1.99400 44.43300
C  4.69300 -3.31900 44.74100
C  6.11800 -3.56500 44.75400
C  6.72700 -2.28400 44.48900
C  5.64000 -1.44800 44.09500
C  6.87000 -4.78500 45.16300
C  7.94500 -1.59300 44.36400
O  9.07900 -1.89900 44.81500
C  7.60000 -0.26000 43.58800
C  8.36800 0.81200 44.34300
O  9.44600 1.30200 43.93900
O  7.72700 1.23000 45.46700
C  8.41000 2.33800 46.29000
H  1.56400 2.97600 42.08400
H  -1.49200 -2.48500 43.82900
H  4.11900 -5.27800 45.00900
H  6.32600 2.52200 42.92100
H  3.77600 3.23100 41.41900
H  3.84300 3.92600 44.25100
H  3.59500 5.01900 42.84300
H  5.22800 4.54000 43.36300
H  7.30900 2.11900 40.84400
H  5.74300 2.67300 40.20800
H  4.99000 0.33200 40.16900
H  6.70100 -0.15700 40.59500
H  -2.24600 2.75500 41.60800
H  -0.77200 2.69900 40.71400
H  -0.87000 3.36400 42.31300
H  -3.48900 -2.05100 43.38800
H  -2.95100 -2.49200 41.79400
H  -4.51100 -1.71600 42.10900
H  -0.73200 -4.76800 43.91500
H  1.51800 -5.75700 45.62200
H  -0.17900 -5.02200 46.86400
H  -1.78300 -4.79600 46.21600
H  -0.52200 -3.40800 46.39600
H  2.40200 -5.73600 43.03700
H  0.62400 -6.00500 42.89100
H  1.07300 -8.24200 43.38600
H  2.02100 -7.78900 44.86600
H  2.75300 -7.88000 43.15200
H  7.79800 -4.90400 44.60300
H  6.18100 -5.62700 45.10700
H  7.19200 -4.65800 46.19700
H  7.94600 -0.38200 42.56200
H  8.49000 2.14300 47.35900
H  7.78800 3.22300 46.15300
H  9.40400 2.62500 45.94800
Mg 46.63500 34.85600 28.59700
C  44.82600 33.14900 31.00700
C  46.55400 37.57700 30.66800
C  47.60100 36.90800 26.00900
C  45.73900 32.45800 26.31800
N  45.97300 35.20400 30.71700
C  45.22700 34.38100 31.50400
C  44.99400 34.95400 32.85900
C  45.12500 36.45900 32.50300
C  45.95200 36.41000 31.22500
C  43.85600 37.36200 32.33800
C  46.02700 34.38400 33.88800
C  45.42000 34.34600 35.30000
H  45.40900 35.69800 36.01400
N  47.31500 36.89100 28.46200
C  47.19300 37.84100 29.45500
C  47.87800 39.04500 29.00100
C  48.25800 38.79900 27.64500
C  47.78800 37.47400 27.31100
C  48.02800 40.23200 29.93500
C  49.02100 39.65900 26.70000
O  49.29900 39.34500 25.56700
C  49.31200 41.01100 27.05100
N  46.66700 34.75400 26.46800
C  47.15600 35.65100 25.59700
C  47.20400 35.09200 24.18000
C  46.75200 33.63000 24.32600
C  46.39100 33.59500 25.82300
C  46.42100 35.89700 23.00200
C  47.75500 32.54400 23.78900
C  47.16600 31.68400 22.68600
N  45.49400 33.17700 28.58800
C  45.32000 32.22500 27.60900
C  44.55700 31.05200 28.20500
C  44.41700 31.40600 29.53800
C  44.98700 32.65900 29.74400
C  44.06500 29.81300 27.40300
C  43.84300 30.89200 30.76700
O  43.33700 29.83900 31.07600
C  43.96600 32.09900 31.77900
C  44.64100 31.59700 32.99300
O  45.84000 31.33900 33.11500
O  43.63000 31.36500 33.88400
C  44.04000 30.77100 35.16100
H  46.42300 38.37700 31.39900
H  47.99100 37.54700 25.21400
H  45.53200 31.68900 25.57100
H  43.97800 34.65400 33.11600
H  45.63800 36.90300 33.35600
H  43.02500 36.70100 32.58200
H  43.83900 37.67900 31.29500
H  43.91900 38.26800 32.94100
H  46.84400 35.10400 33.94100
H  46.42700 33.41200 33.60000
H  46.02400 33.62700 35.85300
H  44.41400 33.92600 35.31500
H  48.02500 41.17300 29.38500
H  48.88400 40.07100 30.59000
H  47.08500 40.23200 30.48100
H  48.43900 41.55500 27.41100
H  49.72100 41.57800 26.21500
H  50.06100 40.96200 27.84100
H  48.25300 35.09300 23.88100
H  45.84200 33.52200 23.73600
H  45.63200 35.35000 22.48700
H  47.22200 36.05300 22.27800
H  45.89900 36.80900 23.29400
H  48.07100 31.99100 24.67400
H  48.65300 33.05500 23.44500
H  46.15200 31.95300 22.39200
H  47.24100 30.61500 22.88700
H  47.75600 31.72800 21.77100
H  44.78800 29.04300 27.67300
H  43.99900 29.93900 26.32300
H  43.11700 29.44200 27.79300
H  42.96000 32.43800 32.02800
H  43.50000 29.84100 35.34100
H  43.83200 31.37700 36.04300
H  45.08800 30.50700 35.30800

