158

Mg 25.87800 1.15500 29.26200
C  27.83200 0.75000 32.13100
C  23.14000 1.55800 31.26600
C  24.13500 1.37600 26.43800
C  28.78600 0.22300 27.40800
N  25.58800 0.97400 31.51800
C  26.55300 1.04700 32.44600
C  25.96200 1.30700 33.82700
C  24.40900 1.33500 33.54800
C  24.33900 1.29100 32.03700
C  23.57300 0.21000 34.30200
C  26.45400 2.58100 34.50400
C  26.91600 2.51600 35.99000
H  26.37100 3.61700 36.97700
N  23.92500 1.39200 28.89400
C  22.88800 1.59000 29.81600
C  21.61200 1.84500 29.15800
C  21.87200 1.75600 27.75700
C  23.35600 1.51900 27.63200
C  20.37400 2.15800 29.98700
C  20.92400 1.87600 26.59600
O  21.29000 1.65300 25.44200
C  19.47100 2.19500 26.73300
N  26.41400 0.78500 27.23700
C  25.49200 1.01300 26.22800
C  26.12600 0.82000 24.91300
C  27.64200 0.62700 25.22100
C  27.63300 0.49900 26.71700
C  25.53000 -0.33500 23.98800
C  28.64100 1.78000 24.73900
C  28.48600 3.16800 25.29100
N  27.86200 0.50600 29.60600
C  28.89900 0.21200 28.76100
C  30.12300 0.07700 29.53300
C  29.73000 0.37400 30.85100
C  28.33800 0.52500 30.82600
C  31.47400 -0.23000 29.06900
C  30.25300 0.61100 32.17700
O  31.41300 0.57000 32.60000
C  29.05500 0.81800 33.07000
C  28.98600 -0.15800 34.16200
O  28.83600 -1.36900 34.03700
O  29.12700 0.53700 35.33700
C  29.44400 -0.31600 36.47400
H  22.26400 1.75500 31.88700
H  23.60200 1.48300 25.49000
H  29.66100 0.01300 26.78900
H  26.16500 0.42100 34.42800
H  24.05600 2.31700 33.86300
H  23.07000 -0.42400 33.57300
H  22.78800 0.65600 34.91200
H  24.20600 -0.39500 34.95100
H  25.61300 3.27300 34.50200
H  27.19100 3.02100 33.83200
H  27.99500 2.65200 35.91000
H  26.88300 1.58600 36.55600
H  20.32700 3.22500 30.20800
H  20.42400 1.66700 30.95900
H  19.48100 1.92800 29.40500
H  18.88500 1.95800 25.84600
H  19.18300 3.13800 27.19900
H  19.20800 1.42100 27.45300
H  26.04000 1.75600 24.36100
H  28.01500 -0.38500 25.07000
H  24.96500 -0.99800 24.64300
H  26.34500 -0.86400 23.49300
H  24.84500 0.11300 23.26700
H  28.50500 1.83100 23.65900
H  29.61700 1.30000 24.81800
H  27.81300 3.17700 26.14900
H  28.20500 3.94600 24.58100
H  29.41800 3.51900 25.73400
H  31.44900 -1.29900 28.85500
H  32.27000 -0.09900 29.80200
H  31.68900 0.36400 28.18100
H  29.22000 1.80700 33.49900
H  28.65000 -0.37100 37.21800
H  30.21800 0.05500 37.14500
H  29.74500 -1.33100 36.21500
Mg 26.29700 49.98600 27.16900
C  24.47900 51.27700 29.80600
C  28.72000 49.15500 29.67300
C  28.37500 49.10800 24.74400
C  24.08100 51.35600 24.84300
N  26.54500 50.28900 29.57700
C  25.62800 50.78100 30.42700
C  25.97000 50.47700 31.83200
C  27.40500 49.99500 31.76900
C  27.59200 49.72800 30.24100
C  28.52700 51.01300 32.11300
C  24.92400 49.47100 32.45100
C  24.58300 49.83900 33.89000
H  25.54100 50.39000 34.92200
N  28.27400 49.22600 27.25300
C  29.11800 49.01300 28.29400
C  30.36700 48.46400 27.80200
C  30.32600 48.44200 26.36600
C  28.97000 48.98500 26.07100
C  31.58200 48.20600 28.70500
C  31.33600 47.96600 25.35400
O  31.14500 47.97200 24.16200
C  32.60600 47.57400 25.81800
N  26.22800 50.23000 25.13300
C  27.15000 49.65400 24.34100
C  26.72100 49.74700 22.87200
C  25.20400 50.17000 23.02300
C  25.15400 50.67600 24.43000
C  27.63200 50.84900 22.22400
C  24.11700 49.03000 22.79600
C  22.81500 49.46400 22.04500
N  24.54900 51.03600 27.28100
C  23.72900 51.48700 26.23200
C  22.62600 52.17400 26.79800
C  22.77000 52.07000 28.19400
C  24.05600 51.46300 28.46700
C  21.49900 52.76000 25.97500
C  22.18400 52.32500 29.52200
O  21.17000 52.78800 29.76000
C  23.19400 51.74900 30.56100
C  23.49300 52.75100 31.52700
O  24.22500 53.74500 31.40700
O  22.75900 52.49600 32.63700
C  22.80600 53.45300 33.73200
H  29.47700 48.79200 30.37100
H  29.03500 48.85500 23.91200
H  23.19900 51.47400 24.21100
H  25.99700 51.46800 32.28400
H  27.46900 49.13400 32.43400
H  28.90400 50.80900 33.11500
H  28.10500 52.01800 32.12000
H  29.30200 51.04300 31.34700
H  25.35600 48.47200 32.38600
H  24.01300 49.48600 31.85300
H  24.13000 48.98300 34.38900
H  23.65400 50.39800 33.78200
H  31.45700 48.66500 29.68600
H  32.43700 48.76500 28.32400
H  31.72800 47.14300 28.89300
H  33.11200 46.97500 25.06100
H  32.67600 46.91100 26.68000
H  33.21000 48.47500 25.92500
H  26.74700 48.75500 22.42000
H  24.98600 50.96200 22.30600
H  28.63800 50.92900 22.63600
H  27.14400 51.81300 22.36900
H  27.81300 50.66500 21.16500
H  23.77800 48.54700 23.71200
H  24.62200 48.25600 22.21900
H  22.86300 49.52600 20.95800
H  22.35300 50.42500 22.26800
H  22.15200 48.61800 22.23000
H  21.99800 53.48500 25.33300
H  20.83800 53.34500 26.61400
H  20.99900 52.02700 25.34200
H  22.67200 50.91700 31.03300
H  23.63400 53.36400 34.43600
H  21.87900 53.23700 34.26400
H  22.81600 54.42700 33.24300

