158

Mg 52.38900 24.06100 44.19600
C  49.35600 25.99100 43.88400
C  50.49500 21.21700 44.06100
C  55.29500 22.39200 43.76700
C  54.19800 27.15900 43.99300
N  50.13500 23.66400 43.86300
C  49.10100 24.55100 43.91600
C  47.71300 23.86000 43.85100
C  48.16700 22.41900 44.30000
C  49.69000 22.40900 43.99700
C  47.97800 22.04400 45.79100
C  47.04400 23.97500 42.43800
C  47.96800 23.58800 41.22400
H  47.40900 23.79600 39.83600
N  52.75000 22.06900 43.89600
C  51.88500 21.07100 43.98100
C  52.61600 19.79300 43.78600
C  53.99100 20.13300 43.66500
C  54.09600 21.56400 43.83900
C  52.00300 18.43600 43.87400
C  55.11500 19.06000 43.44200
O  54.82400 17.84900 43.30500
C  56.54400 19.35900 43.38300
N  54.45700 24.67800 43.78400
C  55.46800 23.80700 43.76300
C  56.85700 24.47500 43.88900
C  56.48600 26.04600 43.72200
C  54.95500 25.95500 43.83200
C  57.66100 24.02900 45.16100
C  57.04900 26.64900 42.39900
C  58.02600 27.84800 42.59400
N  51.93900 26.13000 44.12900
C  52.81300 27.24800 44.13000
C  51.96900 28.42100 44.24000
C  50.63900 27.96900 44.05800
C  50.64400 26.57000 44.02600
C  52.36800 29.83300 44.23700
C  49.23900 28.50100 43.92600
O  48.77700 29.55500 43.72200
C  48.44000 27.16700 43.73400
C  47.80400 27.23400 42.42800
O  48.35400 27.24200 41.34600
O  46.39700 27.54900 42.63100
C  45.76000 28.13400 41.46800
H  49.92900 20.29400 44.20000
H  56.24900 21.86100 43.79000
H  54.74200 28.06700 44.26400
H  47.07500 24.39000 44.55900
H  47.71100 21.69700 43.62200
H  47.40600 22.88300 46.18600
H  48.97900 21.96900 46.21600
H  47.50800 21.06500 45.88500
H  46.46300 24.88900 42.32100
H  46.34900 23.13600 42.39600
H  47.95700 22.51500 41.41700
H  48.90000 24.10700 41.44600
H  52.43000 17.73800 43.15300
H  50.92600 18.51100 43.72400
H  52.25700 18.04100 44.85800
H  57.22900 18.51100 43.36800
H  56.82100 20.02100 44.20300
H  56.80700 19.92100 42.48700
H  57.44500 24.00000 43.10400
H  56.89900 26.54600 44.59800
H  57.01500 23.58800 45.92000
H  58.13700 24.92000 45.56900
H  58.46200 23.32800 44.92700
H  56.26100 26.94100 41.70500
H  57.65000 25.96800 41.79700
H  59.02400 27.46900 42.37300
H  57.82600 28.38300 43.52200
H  57.92800 28.63800 41.84900
H  53.31700 29.98200 44.75200
H  51.70600 30.50700 44.77900
H  52.40600 30.16100 43.19800
H  47.61200 27.23400 44.44000
H  46.26300 29.04600 41.14800
H  44.74800 28.33800 41.81800
H  45.85700 27.52400 40.57000
Mg 0.17100 42.34900 25.76300
C  2.58100 42.40000 28.32300
C  -2.02800 41.25300 28.13300
C  -2.10200 42.29800 23.48400
C  2.71500 43.15800 23.44800
N  0.31700 41.77600 27.97900
C  1.35200 41.99500 28.88100
C  0.87300 42.06300 30.31200
C  -0.51400 41.42200 30.24300
C  -0.77400 41.49000 28.70100
C  -0.71000 39.96200 30.68500
C  0.92900 43.50800 30.96100
C  1.88400 43.57700 32.19600
H  1.82600 42.48500 33.27600
N  -1.78000 41.83500 25.80100
C  -2.48700 41.35400 26.81400
C  -3.82300 41.00300 26.42100
C  -3.91500 41.52400 25.10300
C  -2.58000 41.99300 24.74600
C  -4.76900 40.43500 27.39800
C  -5.18400 41.58400 24.23200
O  -5.07400 42.04500 23.06500
C  -6.57400 41.13200 24.67400
N  0.26400 42.82700 23.73700
C  -0.84100 42.68400 22.97300
C  -0.50300 43.04700 21.50500
C  1.03500 43.44700 21.58600
C  1.42400 43.13400 22.97700
C  -0.91300 41.98200 20.52800
C  1.37000 44.92300 21.18600
C  1.01900 46.12900 22.14000
N  2.15600 42.59400 25.75900
C  3.06600 42.89900 24.78500
C  4.37700 43.04900 25.38800
C  4.22700 42.78200 26.74000
C  2.87200 42.57500 26.94400
C  5.59700 43.40000 24.56700
C  4.96300 42.66600 27.96300
O  6.19100 42.81800 28.20200
C  3.93900 42.51800 29.08000
C  4.33500 41.30000 29.87300
O  4.28400 40.13100 29.46600
O  4.83600 41.69300 31.10800
C  5.33200 40.61300 31.96600
H  -2.77800 40.89800 28.84200
H  -2.83300 42.10600 22.69500
H  3.46400 43.42200 22.69900
H  1.55100 41.36800 30.80800
H  -1.34000 41.98100 30.68400
H  0.12300 39.75100 31.35500
H  -0.94200 39.20700 29.93200
H  -1.57500 39.91400 31.34700
H  -0.06700 43.94100 31.05800
H  1.34200 44.17600 30.20600
H  1.72500 44.55700 32.64800
H  2.85400 43.59200 31.70000
H  -4.41700 39.61100 28.01800
H  -5.70500 40.08300 26.96500
H  -4.92900 41.26000 28.09200
H  -6.65200 40.07100 24.91100
H  -7.33100 41.49200 23.97700
H  -6.72400 41.59900 25.64700
H  -1.17000 43.90100 21.39300
H  1.63100 42.89100 20.86100
H  -1.35700 41.07800 20.94500
H  0.01200 41.64300 20.06300
H  -1.66400 42.36800 19.83900
H  0.94200 45.04600 20.19100
H  2.45200 45.02500 21.09400
H  1.71100 46.39900 22.93800
H  0.02400 46.02000 22.57200
H  0.84000 46.99000 21.49700
H  6.55300 43.34100 25.08700
H  5.45700 44.43900 24.26900
H  5.56600 42.85400 23.62400
H  3.88800 43.42200 29.68600
H  6.20100 40.15600 31.49400
H  4.63800 39.79300 32.15500
H  5.51700 41.13400 32.90600

