158

Mg 26.70200 50.85300 25.86900
C  24.94200 52.09000 28.69900
C  29.27400 50.24400 28.00900
C  28.34500 49.73600 23.23000
C  24.21500 52.21300 23.91700
N  27.03400 51.18600 28.08600
C  26.17900 51.50800 29.03900
C  26.71000 51.33500 30.49400
C  28.19200 51.06800 30.24200
C  28.18600 50.74500 28.65300
C  29.16000 52.20600 30.72200
C  25.89700 50.26900 31.24900
C  25.36100 50.61200 32.61600
H  26.43200 51.05700 33.63900
N  28.58700 50.17900 25.68400
C  29.51900 50.01100 26.64100
C  30.64600 49.41300 26.03500
C  30.39700 48.97800 24.70900
C  29.12500 49.66200 24.49200
C  31.84500 49.12800 26.88500
C  31.21200 48.14500 23.74300
O  30.88900 47.91200 22.58400
C  32.48700 47.48100 24.18100
N  26.36400 50.97300 23.81600
C  27.15700 50.32300 22.93300
C  26.44700 50.30100 21.52300
C  25.15600 51.18500 21.79800
C  25.21700 51.47700 23.23400
C  27.39800 50.72800 20.37500
C  23.74300 50.45400 21.44400
C  22.56900 51.34100 20.97900
N  25.00000 51.91300 26.18200
C  24.04300 52.36700 25.28500
C  23.00600 53.08100 25.92700
C  23.29200 52.99100 27.28400
C  24.51200 52.29300 27.37600
C  21.91300 53.80600 25.28500
C  22.84700 53.31700 28.55200
O  21.81300 53.93400 28.86700
C  23.92400 52.78800 29.55800
C  24.43400 53.82500 30.54300
O  25.23600 54.72000 30.30100
O  23.93500 53.59400 31.80400
C  24.32300 54.57900 32.85700
H  30.03800 50.08200 28.77200
H  28.96100 49.25200 22.46900
H  23.47100 52.67400 23.26500
H  26.52600 52.25600 31.04700
H  28.38500 50.11700 30.73700
H  28.77500 53.21800 30.59500
H  30.04500 52.14400 30.08800
H  29.49700 52.12900 31.75500
H  26.53100 49.38900 31.36200
H  25.08500 49.91400 30.61400
H  24.91200 49.67400 32.94400
H  24.52300 51.30700 32.67400
H  31.89500 49.75100 27.77700
H  32.78000 49.40700 26.39900
H  31.88600 48.10000 27.24600
H  33.02900 48.31800 24.62200
H  32.98400 47.06800 23.30400
H  32.30200 46.64000 24.84800
H  26.10400 49.31700 21.20300
H  25.22100 52.12600 21.25000
H  28.32200 51.06400 20.84500
H  26.90600 51.48200 19.76000
H  27.62300 49.89800 19.70600
H  23.36400 49.93700 22.32600
H  23.88800 49.74300 20.63100
H  22.15600 50.93200 20.05700
H  22.77200 52.41200 20.98900
H  21.64400 51.30900 21.55400
H  21.39700 53.24500 24.50700
H  22.30800 54.74000 24.88500
H  21.15100 53.96600 26.04900
H  23.34900 52.12900 30.20900
H  24.24700 55.60800 32.50600
H  25.31500 54.33200 33.23400
H  23.63500 54.52600 33.70000
Mg -11.08300 17.50700 40.38100
C  -7.56100 17.09200 40.55300
C  -10.52300 20.93300 39.66700
C  -14.28400 17.81800 39.53300
C  -11.41700 14.03700 40.54000
N  -9.11800 18.85900 40.13300
C  -7.89500 18.47000 40.30400
C  -6.95900 19.64200 39.97000
C  -7.93100 20.88500 40.04500
C  -9.30800 20.24000 39.94500
C  -7.87800 21.80900 41.29900
C  -6.37700 19.50900 38.45600
C  -4.94700 19.04000 38.26300
H  -4.67000 17.96400 37.21700
N  -12.29300 19.23000 39.81600
C  -11.85100 20.51900 39.49900
C  -12.95800 21.23100 39.04000
C  -14.08100 20.38100 38.91200
C  -13.63100 19.07900 39.42900
C  -12.77200 22.67900 38.67900
C  -15.37100 20.76700 38.34600
O  -15.65800 21.95600 38.06900
C  -16.46900 19.84400 38.01900
N  -12.61400 16.14700 40.13200
C  -13.88200 16.52000 39.89700
C  -14.88700 15.28600 39.80300
C  -13.93200 14.09600 40.02500
C  -12.54700 14.73100 40.31500
C  -16.05100 15.55800 40.79800
C  -13.81500 13.02600 38.87800
C  -14.25400 11.61000 39.42800
N  -9.83000 15.81600 40.56300
C  -10.13900 14.49100 40.60100
C  -8.93100 13.74500 40.85000
C  -7.87700 14.69500 40.77800
C  -8.47300 15.96500 40.60000
C  -8.85200 12.27200 40.96500
C  -6.43300 14.95700 40.81000
O  -5.49100 14.24100 40.82800
C  -6.15500 16.44100 40.71900
C  -5.35100 16.93800 41.90300
O  -4.61100 17.84400 41.89800
O  -5.41800 16.04300 42.94800
C  -4.22100 16.11300 43.82800
H  -10.37200 22.01300 39.60000
H  -15.31500 17.97900 39.21000
H  -11.54600 12.95300 40.54800
H  -6.16700 19.70900 40.71600
H  -7.82300 21.45400 39.12200
H  -7.76000 22.86000 41.03400
H  -7.01700 21.44400 41.85900
H  -8.68900 21.57200 41.98700
H  -6.51000 20.44800 37.91700
H  -6.90800 18.66500 38.01700
H  -4.62500 18.59700 39.20500
H  -4.27100 19.86900 38.04900
H  -13.28100 22.84900 37.73100
H  -11.71400 22.88700 38.51500
H  -13.22600 23.29400 39.45600
H  -16.10800 18.96200 37.49000
H  -17.14800 20.39100 37.36500
H  -17.08300 19.74600 38.91500
H  -15.32300 15.17900 38.80900
H  -14.29700 13.51300 40.87000
H  -15.95800 16.62900 40.98200
H  -16.11300 14.84800 41.62300
H  -17.01900 15.46000 40.30700
H  -12.85000 12.95700 38.37500
H  -14.52800 13.23400 38.08000
H  -15.31500 11.37100 39.50800
H  -13.83700 11.38300 40.40900
H  -13.75100 10.93100 38.74000
H  -7.93500 11.82400 40.58100
H  -9.59100 11.69200 40.41100
H  -8.99800 11.97500 42.00400
H  -5.57300 16.46000 39.79700
H  -3.77700 15.12500 43.95000
H  -4.55700 16.47700 44.79800
H  -3.46000 16.83700 43.53500

