158

Mg 17.06200 -2.72000 29.01500
C  15.93200 -0.50200 31.54700
C  18.75600 -4.45500 31.29300
C  18.33400 -4.50300 26.44300
C  15.53600 -0.60400 26.66100
N  17.39900 -2.45100 31.21100
C  16.77200 -1.50400 32.04600
C  17.14300 -1.76800 33.55100
C  18.21000 -2.99300 33.45100
C  18.08100 -3.38800 31.93600
C  19.72300 -2.72100 33.82000
C  15.92400 -2.07800 34.43400
C  16.06700 -1.67000 35.90400
H  17.47200 -1.21800 36.45200
N  18.25800 -4.33100 28.93000
C  18.82400 -4.97600 29.96400
C  19.40100 -6.17700 29.43600
C  19.22600 -6.23100 28.04700
C  18.58200 -4.94400 27.75300
C  19.94400 -7.26800 30.33200
C  19.48500 -7.37400 27.12600
O  19.27700 -7.30900 25.92700
C  19.99300 -8.65400 27.63700
N  16.99700 -2.53400 26.83700
C  17.53500 -3.47100 26.01000
C  17.27000 -3.21800 24.55800
C  16.53200 -1.79100 24.60800
C  16.20800 -1.73000 26.12300
C  18.55600 -3.25600 23.69000
C  15.27600 -1.54700 23.66600
C  15.72500 -1.32300 22.15800
N  15.90200 -0.96500 29.01500
C  15.26200 -0.23200 28.00500
C  14.64000 0.96500 28.59800
C  14.87600 0.76100 29.91900
C  15.68400 -0.31300 30.18000
C  13.93500 2.10300 27.82300
C  14.58100 1.49500 31.14700
O  14.04800 2.57500 31.33700
C  15.13500 0.52500 32.22500
C  16.04500 1.45600 33.05400
O  17.20600 1.78700 32.80400
O  15.42200 1.80900 34.24400
C  16.13700 2.62800 35.15100
H  19.17000 -5.05900 32.10300
H  18.83000 -5.09200 25.67000
H  15.05600 0.08200 25.95900
H  17.68500 -0.89600 33.91700
H  17.82800 -3.84600 34.01200
H  19.86400 -1.74700 34.28900
H  20.37600 -2.81200 32.95200
H  19.95900 -3.44300 34.60200
H  15.72800 -3.15000 34.44500
H  15.03000 -1.52800 34.14100
H  15.80000 -2.56100 36.47300
H  15.30500 -0.91500 36.09400
H  19.13200 -7.98000 30.47600
H  20.20600 -6.90600 31.32700
H  20.90800 -7.64200 29.98700
H  19.35000 -9.11800 28.38600
H  20.99400 -8.49000 28.03600
H  20.03500 -9.29900 26.76000
H  16.51900 -3.96100 24.29200
H  17.22600 -0.98500 24.37000
H  19.40300 -2.80400 24.20600
H  18.27000 -2.52300 22.93600
H  18.76700 -4.23900 23.26900
H  14.66200 -0.69600 23.95800
H  14.65200 -2.44000 23.64200
H  15.14600 -0.47400 21.79400
H  15.50500 -2.20700 21.55900
H  16.78500 -1.07500 22.09900
H  12.87600 1.93800 28.01900
H  14.13400 1.97000 26.76000
H  14.27800 3.06700 28.19900
H  14.41800 0.20400 32.98100
H  17.20700 2.61300 34.94500
H  15.98400 2.30600 36.18100
H  15.86000 3.67500 35.02500
Mg 46.99400 14.82300 27.15400
C  45.17300 15.04800 30.14300
C  49.26800 17.03900 28.39500
C  48.35000 15.07200 23.99900
C  44.41300 12.85400 25.76200
N  47.17400 15.90300 29.01500
C  46.30200 15.90500 30.08400
C  46.91300 16.59900 31.35000
C  48.11000 17.37100 30.65800
C  48.19500 16.72600 29.25500
C  47.91100 18.87900 30.66000
C  47.38400 15.63500 32.49600
C  47.02000 16.10900 33.95500
H  48.06400 15.77700 35.01800
N  48.68300 15.70100 26.39900
C  49.54200 16.48400 27.09700
C  50.62600 16.94500 26.24400
C  50.40500 16.36800 24.96100
C  49.06600 15.69400 25.08100
C  51.78100 17.94700 26.69500
C  51.05100 16.75200 23.62100
O  50.63100 16.50800 22.52000
C  52.32400 17.51400 23.70700
N  46.44700 14.08000 25.17100
C  47.19400 14.29800 24.09600
C  46.66000 13.55300 22.84500
C  45.41500 12.80300 23.40600
C  45.42000 13.17900 24.90000
C  46.36100 14.42000 21.65300
C  45.42100 11.24300 23.22500
C  46.46800 10.48700 24.11000
N  45.10900 14.07500 27.73800
C  44.29000 13.26600 27.11000
C  43.17400 12.98500 28.09300
C  43.52700 13.61800 29.25700
C  44.67000 14.32100 29.02100
C  41.95500 12.10800 27.83000
C  43.17500 13.78100 30.61300
O  42.13300 13.40100 31.23700
C  44.22200 14.67600 31.29800
C  43.44700 15.84000 31.92200
O  43.20200 16.84300 31.29600
O  43.14900 15.57900 33.22400
C  42.72100 16.76600 34.04200
H  50.07500 17.66000 28.79100
H  48.84900 15.02500 23.02900
H  43.70700 12.06500 25.49500
H  46.26600 17.33400 31.82900
H  49.09000 17.15100 31.08200
H  47.85900 19.14900 29.60500
H  48.66400 19.33100 31.30500
H  46.95400 19.19200 31.07900
H  48.44900 15.40600 32.47900
H  46.93800 14.64300 32.44200
H  46.11500 15.56600 34.22800
H  46.74800 17.16500 33.94700
H  52.70800 17.37400 26.71100
H  51.64600 18.24700 27.73400
H  51.83500 18.85700 26.09800
H  52.21700 18.58900 23.84800
H  52.73000 17.36000 22.70800
H  53.10100 17.03600 24.30500
H  47.37800 12.79700 22.52900
H  44.49000 13.10600 22.91700
H  47.08000 14.07700 20.90900
H  46.37400 15.45700 21.99000
H  45.37900 14.24900 21.21400
H  45.81000 10.98100 22.24200
H  44.48800 10.73700 23.47700
H  46.10900 9.68800 24.75900
H  46.99700 11.15300 24.79200
H  47.27000 10.00500 23.55200
H  42.42300 11.35600 27.19500
H  41.30600 12.72100 27.20500
H  41.62300 11.64800 28.76100
H  44.67000 14.04500 32.06600
H  42.34300 16.52900 35.03600
H  41.97600 17.36900 33.52300
H  43.52500 17.46700 34.26700

