158

Mg 16.76400 -1.99500 27.67200
C  15.55600 0.16100 30.19900
C  18.43900 -3.78300 29.87400
C  17.73000 -3.90900 25.12600
C  15.05200 0.17000 25.45500
N  16.88700 -1.84800 29.71500
C  16.38800 -0.87000 30.56300
C  16.84900 -1.19500 31.99700
C  17.89100 -2.29700 31.87000
C  17.85600 -2.67100 30.39700
C  19.33900 -1.84800 32.22500
C  15.64800 -1.58400 32.92900
C  15.64100 -1.15000 34.36700
H  16.91200 -0.82800 35.18500
N  18.00900 -3.63900 27.46200
C  18.52000 -4.33200 28.52800
C  19.24900 -5.47100 28.09100
C  19.05700 -5.57600 26.70000
C  18.20200 -4.36700 26.33200
C  20.00700 -6.38700 29.07000
C  19.55400 -6.54900 25.69300
O  19.26500 -6.54700 24.50300
C  20.45500 -7.67900 26.15800
N  16.43800 -1.86400 25.64600
C  16.96700 -2.74000 24.78800
C  16.90900 -2.17600 23.36200
C  15.63600 -1.19700 23.48300
C  15.74600 -0.90500 24.96100
C  18.19600 -1.47800 22.91400
C  14.32900 -1.85700 22.94500
C  13.34500 -2.59600 23.86700
N  15.53900 -0.10600 27.76200
C  14.89600 0.62800 26.72900
C  13.99600 1.66700 27.32600
C  14.33400 1.50400 28.68500
C  15.24400 0.46600 28.86400
C  12.96900 2.54400 26.62400
C  14.04700 2.11100 29.97300
O  13.36100 3.04900 30.21800
C  14.78600 1.17300 31.01900
C  15.58400 2.11900 31.84400
O  16.51500 2.79600 31.39700
O  15.19300 2.14300 33.14100
C  15.95000 2.91000 34.07900
H  19.06800 -4.35000 30.56200
H  18.18300 -4.34200 24.23100
H  14.58900 0.78300 24.67900
H  17.23300 -0.27400 32.43600
H  17.64000 -3.18900 32.44400
H  19.34700 -0.95800 32.85400
H  19.93400 -1.60700 31.34400
H  19.78700 -2.61100 32.86200
H  15.49600 -2.66200 32.87500
H  14.76400 -1.10200 32.51100
H  15.23600 -2.00000 34.91600
H  14.86800 -0.43900 34.65900
H  19.97500 -6.04800 30.10600
H  21.01500 -6.59000 28.70800
H  19.52000 -7.36100 29.02000
H  20.02400 -8.30400 26.94000
H  21.29400 -7.26200 26.71400
H  20.77000 -8.31000 25.32700
H  16.83700 -3.03700 22.69700
H  15.90300 -0.29800 22.92700
H  19.05600 -1.56000 23.57900
H  18.10900 -0.45600 22.54400
H  18.55100 -2.02200 22.03900
H  14.68500 -2.53600 22.17000
H  13.71300 -1.01600 22.62800
H  12.68600 -1.86800 24.34000
H  13.90100 -3.10400 24.65500
H  12.87900 -3.28500 23.16200
H  12.09800 2.07000 27.07600
H  12.92300 2.44600 25.54000
H  12.99200 3.57900 26.96600
H  13.98900 0.76800 31.64200
H  15.24000 3.44800 34.70800
H  16.58900 3.75000 33.80800
H  16.39600 2.12800 34.69400
Mg 49.99800 44.72200 42.28600
C  46.51500 45.14500 41.51200
C  49.68400 41.45600 41.69800
C  53.27000 44.69400 42.28100
C  50.05600 48.30300 42.70700
N  48.26900 43.44700 41.67100
C  46.95100 43.77600 41.39300
C  46.16600 42.59700 40.99200
C  47.02300 41.45800 41.55600
C  48.42500 42.10000 41.71900
C  46.55000 40.62000 42.77200
C  45.99800 42.52100 39.42900
C  44.63500 42.00300 38.89500
H  44.52900 41.33500 37.57600
N  51.33000 43.29900 41.81800
C  51.03000 41.99400 41.65200
C  52.28200 41.29100 41.45400
C  53.38400 42.18500 41.53500
C  52.68100 43.47200 41.88900
C  52.30100 39.77200 41.32200
C  54.88800 41.90000 41.36700
O  55.28900 40.73500 41.26400
C  55.93100 42.99600 41.25000
N  51.42500 46.23100 42.43100
C  52.69700 45.97200 42.55800
C  53.59500 47.20300 42.86400
C  52.55300 48.37000 43.06500
C  51.26800 47.57800 42.76900
C  54.54500 47.11600 44.01400
C  52.74700 49.66600 42.21700
C  52.80400 50.98200 43.09600
N  48.59800 46.41500 42.23600
C  48.79800 47.77900 42.44600
C  47.59700 48.51000 42.33700
C  46.65200 47.53300 41.86400
C  47.35500 46.24200 41.85200
C  47.40900 50.04200 42.55600
C  45.27400 47.25500 41.49800
O  44.32500 47.99800 41.43900
C  45.22300 45.75300 41.18500
C  43.97800 45.12900 41.77300
O  42.99400 44.70800 41.20800
O  43.94300 45.45800 43.10300
C  42.71200 45.13500 43.78100
H  49.60800 40.37300 41.57900
H  54.34900 44.63000 42.43900
H  50.14800 49.38400 42.83600
H  45.18700 42.68400 41.46400
H  47.25400 40.65900 40.85100
H  45.89800 41.20000 43.42400
H  47.33900 40.35100 43.47400
H  46.08800 39.71700 42.37400
H  46.75900 41.82700 39.07000
H  46.24500 43.51600 39.06000
H  43.92000 42.82500 38.94900
H  44.22700 41.22600 39.54200
H  52.69000 39.45100 40.35500
H  51.30700 39.32700 41.28100
H  52.91700 39.30100 42.08800
H  55.43900 43.83500 40.75700
H  56.70300 42.52000 40.64500
H  56.25000 43.36800 42.22400
H  54.11400 47.43800 41.93500
H  52.52300 48.65500 44.11700
H  54.45100 46.08300 44.34700
H  54.25500 47.62200 44.93600
H  55.57500 47.45600 43.91300
H  51.87800 49.79900 41.57200
H  53.72300 49.50900 41.75800
H  53.49600 51.67100 42.61200
H  53.03300 50.86300 44.15500
H  51.78200 51.36000 43.08800
H  46.38200 50.21600 42.23300
H  48.07000 50.76300 42.07600
H  47.32100 50.24100 43.62400
H  44.96400 45.64200 40.13200
H  42.86500 45.32400 44.84400
H  42.61500 44.05100 43.71800
H  41.98900 45.83600 43.36300

