158

Mg 26.66600 49.83400 26.00700
C  24.61000 51.36000 28.41200
C  28.84700 48.98400 28.49100
C  28.95400 48.86900 23.59100
C  24.57900 51.03200 23.56500
N  26.70800 50.13000 28.14000
C  25.72400 50.69900 28.93500
C  25.94400 50.39000 30.45500
C  27.39800 49.79100 30.50600
C  27.69700 49.63000 28.98100
C  28.55500 50.55900 31.30700
C  24.81500 49.46600 31.01000
C  23.84000 50.10000 32.14100
H  23.63200 49.20500 33.29900
N  28.64900 49.00000 26.02700
C  29.34300 48.66600 27.20400
C  30.61000 48.07600 26.80200
C  30.70800 48.19700 25.39600
C  29.39200 48.66200 24.92300
C  31.62800 47.55600 27.79900
C  31.84200 47.71600 24.47100
O  31.84300 47.81900 23.25400
C  33.13200 47.15700 25.12400
N  26.76300 49.98600 23.97300
C  27.75900 49.51200 23.17900
C  27.51800 49.73700 21.67300
C  26.07200 50.31600 21.68200
C  25.76000 50.39000 23.16600
C  28.57000 50.55400 20.94100
C  25.00600 49.47700 20.88200
C  24.49600 48.15600 21.44500
N  24.94000 51.01500 25.98400
C  24.16800 51.27800 24.90300
C  23.02800 52.06700 25.39000
C  23.14300 52.05100 26.84800
C  24.30800 51.42000 27.09200
C  21.92500 52.67300 24.62200
C  22.60100 52.58100 28.07300
O  21.55400 53.20900 28.33500
C  23.38300 51.92100 29.18500
C  23.77800 52.96800 30.19900
O  24.85800 53.53200 30.30800
O  22.70300 53.26800 30.98200
C  22.99000 54.09800 32.12400
H  29.46200 48.62200 29.31800
H  29.66900 48.50400 22.85000
H  23.93800 51.38000 22.75200
H  26.05800 51.28400 31.06900
H  27.35200 48.89000 31.11800
H  29.11900 49.83200 31.89100
H  28.14000 51.26000 32.03200
H  29.25000 51.05800 30.63300
H  25.14700 48.49500 31.37700
H  24.17100 49.21900 30.16600
H  22.84900 50.32300 31.74600
H  24.24300 51.07400 32.41800
H  31.72500 46.54200 27.41000
H  31.23000 47.51700 28.81300
H  32.57500 48.08600 27.69900
H  33.77000 46.82700 24.30400
H  32.98600 46.30400 25.78600
H  33.63900 47.99900 25.59500
H  27.57600 48.74600 21.22200
H  26.04200 51.36700 21.39600
H  28.12400 51.52000 20.70300
H  29.07500 50.07500 20.10300
H  29.39500 50.77800 21.61800
H  25.52200 49.20900 19.96000
H  24.22300 50.15400 20.54200
H  24.45700 47.32300 20.74300
H  23.48800 48.35900 21.80600
H  25.08300 47.80500 22.29400
H  21.82700 52.32800 23.59300
H  22.23200 53.70600 24.45900
H  20.97600 52.74000 25.15300
H  22.73200 51.19700 29.67400
H  22.91000 55.15400 31.86700
H  24.00800 53.98800 32.49700
H  22.26600 53.93100 32.92200
Mg -1.38800 34.62600 26.04400
C  -3.08700 32.84200 28.54800
C  -0.11000 36.79800 28.39400
C  -0.34000 36.74200 23.63100
C  -2.97100 32.59000 23.61700
N  -1.51500 34.69000 28.22200
C  -2.16800 33.77800 29.06300
C  -1.71300 34.07800 30.56300
C  -0.89600 35.44200 30.43500
C  -0.82300 35.68200 28.92900
C  -1.43200 36.57100 31.32000
C  -0.99000 32.91100 31.30400
C  -1.65000 32.48000 32.64500
H  -0.77000 32.60700 33.95900
N  -0.26100 36.52000 25.98500
C  0.06200 37.19100 27.09600
C  0.72200 38.45700 26.66000
C  0.63600 38.50100 25.26500
C  -0.01200 37.24200 24.88200
C  1.24300 39.55200 27.65600
C  1.33700 39.47200 24.32800
O  1.46100 39.23000 23.09900
C  1.94700 40.72400 24.87300
N  -1.56300 34.62400 23.93200
C  -1.03100 35.57200 23.18700
C  -1.18700 35.28400 21.66300
C  -1.87600 33.85600 21.64600
C  -2.14800 33.66700 23.16700
C  -2.00000 36.30200 20.85600
C  -0.94700 32.76300 21.11300
C  0.30800 32.44900 21.86200
N  -2.85000 33.17600 25.98600
C  -3.36400 32.38200 24.93000
C  -4.23500 31.43900 25.44700
C  -4.12600 31.51000 26.88700
C  -3.30000 32.61700 27.12600
C  -5.13500 30.49000 24.61300
C  -4.71200 31.01700 28.07600
O  -5.35600 30.00900 28.25700
C  -3.90700 31.75300 29.15700
C  -4.92000 32.16700 30.23400
O  -6.05500 32.68300 30.09300
O  -4.49200 31.66500 31.40500
C  -5.45400 31.61000 32.53700
H  0.28500 37.43900 29.18500
H  -0.10800 37.50100 22.88000
H  -3.35100 31.95900 22.81100
H  -2.54000 34.33500 31.22400
H  0.07700 35.09100 30.77800
H  -2.23400 36.19600 31.95700
H  -1.80500 37.38900 30.70500
H  -0.65800 37.04100 31.92700
H  0.02000 33.26000 31.52100
H  -1.00400 32.08700 30.59000
H  -2.20000 31.53900 32.63700
H  -2.39900 33.21200 32.94700
H  2.30800 39.52700 27.42700
H  1.10800 39.24600 28.69400
H  0.65900 40.44400 27.42900
H  2.77200 40.44800 25.53100
H  1.07600 41.22900 25.29000
H  2.32400 41.22400 23.98100
H  -0.20600 35.28600 21.18800
H  -2.75800 33.89700 21.00600
H  -3.03800 36.07400 20.61300
H  -1.55700 36.47000 19.87400
H  -2.00800 37.21700 21.44800
H  -0.58000 33.03600 20.12300
H  -1.52500 31.84600 21.00000
H  0.43600 33.04800 22.76400
H  1.19100 32.74700 21.29700
H  0.34000 31.38400 22.09400
H  -5.29600 30.93900 23.63300
H  -6.08700 30.37300 25.13000
H  -4.76100 29.46900 24.54100
H  -3.18200 31.03200 29.53600
H  -4.91300 31.95200 33.41900
H  -5.90300 30.64300 32.76200
H  -6.16400 32.42200 32.38400

