158

Mg 46.97300 16.79400 28.47000
C  45.27200 16.84200 31.44200
C  49.45600 18.67500 30.21700
C  48.72000 17.40500 25.63700
C  44.47200 15.30500 26.79200
N  47.25500 17.63400 30.60800
C  46.51300 17.42000 31.68800
C  47.09500 17.94700 32.97600
C  48.16500 18.97300 32.45900
C  48.28300 18.46500 30.95500
C  47.79200 20.38300 32.61000
C  47.70000 16.78800 33.87900
C  47.32000 16.70400 35.34600
H  46.97400 18.07900 36.02400
N  48.88000 17.75100 28.00000
C  49.68000 18.51000 28.83600
C  50.80100 18.94800 28.09600
C  50.65300 18.52800 26.71900
C  49.42600 17.86100 26.72900
C  51.95200 19.84000 28.66400
C  51.52600 18.86500 25.52900
O  51.35600 18.36400 24.45900
C  52.63800 19.74100 25.72100
N  46.69400 16.27900 26.48500
C  47.49300 16.68800 25.49800
C  46.94100 16.27600 24.12700
C  45.61100 15.56900 24.48700
C  45.59800 15.56300 25.99500
C  46.66800 17.51600 23.17300
C  45.44400 14.11300 23.96500
C  44.47200 13.84100 22.78900
N  45.29600 16.14100 28.94600
C  44.33300 15.47300 28.16600
C  43.23400 15.18300 28.97900
C  43.51100 15.70900 30.26700
C  44.81200 16.20000 30.21600
C  42.05700 14.39300 28.57700
C  43.03700 15.84300 31.59900
O  41.98500 15.41700 32.07300
C  44.19700 16.53100 32.43000
C  43.64000 17.74000 33.17400
O  43.57300 18.91400 32.77800
O  43.03300 17.26500 34.32200
C  42.23100 18.25500 35.01900
H  50.26700 19.16700 30.75700
H  49.15600 17.63600 24.66300
H  43.60100 14.97600 26.22100
H  46.31800 18.43500 33.56500
H  49.16300 18.83800 32.87500
H  48.62000 20.88000 33.11500
H  46.84500 20.42600 33.14800
H  47.78700 21.00900 31.71800
H  48.78200 16.76800 33.74900
H  47.35700 15.87700 33.38900
H  48.30300 16.45300 35.74300
H  46.61100 15.91500 35.59800
H  51.89400 20.82000 28.19100
H  52.91300 19.32500 28.65100
H  51.70600 19.94500 29.72100
H  52.30500 20.77800 25.76800
H  53.17600 19.62200 24.78100
H  53.28700 19.42200 26.53700
H  47.70000 15.64600 23.66300
H  44.67400 16.03400 24.18000
H  45.63800 17.55200 22.81800
H  47.35000 17.42900 22.32700
H  46.81100 18.52600 23.55700
H  45.08200 13.40400 24.71000
H  46.43700 13.74400 23.70800
H  45.04400 13.38800 21.98000
H  43.83300 14.68400 22.52600
H  43.76800 13.09600 23.15900
H  41.61000 14.79800 27.66900
H  41.26900 14.23800 29.31400
H  42.44500 13.45600 28.17900
H  44.65600 15.82300 33.12000
H  41.82000 17.67300 35.84400
H  41.35900 18.48400 34.40700
H  42.75200 19.16700 35.31200
Mg 49.20000 35.36400 27.63800
C  46.84700 34.08000 30.09100
C  49.78100 38.03500 29.74200
C  51.16100 36.71000 25.30000
C  48.22400 32.85000 25.52800
N  48.45300 35.91900 29.70900
C  47.48400 35.26900 30.47300
C  47.28200 36.07400 31.80400
C  48.05300 37.44200 31.51100
C  48.80100 37.17600 30.15400
C  47.23200 38.76900 31.56500
C  47.64300 35.47400 33.18800
C  48.85300 34.56700 33.26000
H  50.15400 35.22700 33.80500
N  50.30700 37.08300 27.54300
C  50.50600 38.06100 28.56200
C  51.24300 39.16100 28.05700
C  51.80800 38.77500 26.76700
C  51.10400 37.52400 26.49600
C  51.40700 40.49400 28.80700
C  52.87900 39.39100 26.04300
O  53.28900 38.88400 25.04500
C  53.39300 40.74400 26.43400
N  49.65800 34.85700 25.76000
C  50.45900 35.56300 24.94900
C  50.87900 34.86100 23.73700
C  49.76100 33.73600 23.76100
C  49.21200 33.72600 25.12900
C  50.74200 35.67900 22.39600
C  50.34100 32.37500 23.41000
C  49.58900 31.58700 22.24000
N  48.00600 33.65900 27.82000
C  47.63000 32.83900 26.82600
C  46.69800 31.80000 27.39800
C  46.38900 32.28200 28.68000
C  47.17800 33.38600 28.87000
C  46.03100 30.62500 26.65900
C  45.60200 31.98500 29.83000
O  44.85600 31.02100 30.05200
C  45.77600 33.20900 30.82900
C  45.95400 32.67200 32.23900
O  46.98800 32.10300 32.62300
O  44.87300 32.91000 33.04300
C  44.76300 32.41400 34.40900
H  49.88600 38.87800 30.42900
H  51.80200 37.08200 24.49700
H  47.94000 32.09100 24.79600
H  46.22100 36.32200 31.77300
H  48.77900 37.67000 32.29100
H  47.59800 39.43500 32.34600
H  46.17700 38.60800 31.78300
H  47.26600 39.22500 30.57600
H  46.78600 35.00700 33.67300
H  47.78600 36.32400 33.85400
H  49.06400 34.09200 32.30200
H  48.71900 33.73500 33.95200
H  50.68800 40.66300 29.60800
H  51.22600 41.26900 28.06200
H  52.43600 40.51800 29.16500
H  54.02800 40.74400 27.31900
H  52.59400 41.48500 26.39500
H  54.09200 41.14800 25.70100
H  51.88000 34.43300 23.78600
H  48.97600 34.07800 23.08700
H  51.54100 36.41000 22.27300
H  49.79100 36.21000 22.41200
H  50.91500 34.95900 21.59500
H  50.20700 31.71100 24.26400
H  51.38200 32.46400 23.09900
H  48.92700 30.85000 22.69500
H  50.29900 31.02200 21.63500
H  49.00500 32.23900 21.59000
H  46.84500 29.92400 26.47300
H  45.62100 31.08900 25.76200
H  45.18700 30.25700 27.24400
H  44.88900 33.83700 30.74500
H  44.14300 31.52400 34.52100
H  44.39200 33.20200 35.06500
H  45.78500 32.15000 34.68100

