158

Mg 45.34600 3.57700 47.66300
C  43.43100 6.42200 47.17300
C  42.33800 1.65600 47.54200
C  47.19300 0.82600 47.47500
C  48.18400 5.60100 47.64400
N  43.20900 4.02200 47.32300
C  42.63100 5.24600 47.11400
C  41.13800 5.08000 46.76000
C  40.71200 3.58500 47.03000
C  42.16900 3.05300 47.29200
C  39.69900 3.36100 48.14100
C  40.83500 5.65600 45.29300
C  39.67000 6.59700 45.22300
H  38.76300 6.56700 43.98700
N  44.86800 1.56100 47.50600
C  43.60300 0.93900 47.53400
C  43.79900 -0.50400 47.38000
C  45.21300 -0.70400 47.40100
C  45.80600 0.57200 47.45600
C  42.66800 -1.46600 47.16000
C  45.86000 -2.19800 47.23900
O  45.20700 -3.20100 47.14900
C  47.35700 -2.39200 47.27400
N  47.43100 3.23200 47.62000
C  47.98800 2.01200 47.63100
C  49.51700 1.98000 47.84400
C  49.81100 3.53700 47.84300
C  48.37600 4.21000 47.77200
C  49.93600 1.19500 49.00700
C  50.88300 4.03100 46.78900
C  52.17400 4.36200 47.33600
N  45.77800 5.62400 47.46400
C  46.97300 6.30300 47.51800
C  46.66800 7.68200 47.37600
C  45.31900 7.79700 47.21000
C  44.80200 6.47900 47.33700
C  47.72000 8.74200 47.12700
C  44.24700 8.69300 46.98700
O  44.31000 9.86100 46.83000
C  42.91500 7.86300 46.88900
C  41.92600 8.41500 47.85600
O  41.55000 7.85500 48.88200
O  41.35800 9.55600 47.36500
C  39.95900 9.88900 47.90300
H  41.42100 1.06300 47.52400
H  47.88900 -0.01400 47.52800
H  49.10500 6.17700 47.76100
H  40.58000 5.74300 47.42100
H  40.42400 3.06700 46.11500
H  39.78100 4.23400 48.78800
H  39.93100 2.47800 48.73700
H  38.66100 3.36900 47.81100
H  40.58900 4.80800 44.65300
H  41.73800 6.15700 44.94500
H  40.04700 7.61700 45.30300
H  39.01500 6.55000 46.09300
H  42.47700 -2.03300 48.07000
H  42.89700 -2.13400 46.32900
H  41.80300 -0.93600 46.76100
H  47.89100 -1.75700 46.56800
H  47.56300 -3.42500 46.99400
H  47.63600 -2.34700 48.32700
H  49.99200 1.49700 46.99000
H  50.27800 3.74200 48.80600
H  49.15000 1.09900 49.75500
H  50.84600 1.52600 49.50800
H  50.13100 0.21400 48.57400
H  50.43800 4.73500 46.08600
H  50.93500 3.18200 46.10700
H  52.51000 5.03100 46.54400
H  52.87600 3.54800 47.51800
H  52.04600 5.01800 48.19700
H  47.26300 9.59900 46.63500
H  48.51900 8.33800 46.50500
H  48.02500 8.93700 48.15500
H  42.73700 8.09000 45.83700
H  39.29400 9.13700 47.48100
H  39.63000 10.88300 47.59800
H  40.00600 9.74300 48.98200
Mg 49.19200 45.33200 42.71200
C  45.94400 45.86200 41.57600
C  49.07100 42.04300 41.28300
C  52.51600 45.27000 42.89300
C  49.27900 48.86200 43.66500
N  47.76800 44.19800 41.33000
C  46.49700 44.66200 41.10500
C  45.72900 43.53600 40.38000
C  46.55500 42.25900 40.65400
C  47.90400 42.84300 41.06000
C  46.00700 41.35100 41.81100
C  45.54600 43.78200 38.89500
C  44.15100 43.47900 38.39000
H  44.08000 42.29100 37.36900
N  50.54800 43.81200 42.23800
C  50.34100 42.49400 41.74300
C  51.60400 41.80700 41.77500
C  52.61600 42.71600 42.23800
C  51.90100 44.02700 42.49500
C  51.69200 40.39400 41.29100
C  54.02000 42.38200 42.41600
O  54.47700 41.23700 42.18700
C  54.99100 43.38800 42.91500
N  50.64400 46.88200 43.26500
C  51.98800 46.50800 43.28600
C  52.87100 47.71300 43.66000
C  51.75100 48.72300 44.19300
C  50.47300 48.12600 43.71200
C  53.97600 47.47900 44.73200
C  52.00400 50.23900 44.01600
C  53.54700 50.73000 43.91400
N  47.86100 47.03700 42.72900
C  48.02600 48.36700 43.14200
C  46.82500 49.11100 42.95500
C  45.90500 48.14100 42.36800
C  46.59700 46.92200 42.19800
C  46.53400 50.49500 43.50900
C  44.54300 47.85200 41.90400
O  43.55200 48.54000 42.00800
C  44.54700 46.36400 41.27700
C  43.45100 45.64100 41.90900
O  43.32600 45.48000 43.08700
O  42.46200 45.38500 40.96400
C  41.18900 44.87900 41.46800
H  49.02000 40.95900 41.15900
H  53.60700 45.30800 42.87400
H  49.39600 49.82200 44.17000
H  44.76200 43.30900 40.82700
H  46.71700 41.60600 39.79700
H  46.72200 41.26300 42.62900
H  45.64200 40.38000 41.47600
H  45.10300 41.86700 42.13300
H  46.35500 43.14600 38.53600
H  45.84000 44.80800 38.67300
H  43.85500 44.38900 37.86700
H  43.53900 43.29200 39.27200
H  51.86400 40.35300 40.21600
H  50.74900 39.95200 41.61300
H  52.45600 39.81700 41.81200
H  54.63400 43.84200 43.84000
H  55.16000 44.10600 42.11300
H  55.94800 42.96300 43.21700
H  53.30200 48.00600 42.70300
H  51.60600 48.44300 45.23600
H  54.88500 48.07500 44.81200
H  54.27700 46.44200 44.58300
H  53.53400 47.66800 45.71100
H  51.61400 50.72500 44.91000
H  51.38500 50.58400 43.18800
H  53.73400 51.34200 44.79600
H  53.69500 51.45000 43.10900
H  54.25900 49.92400 43.73400
H  47.20100 51.29500 43.18600
H  46.41400 50.31700 44.57700
H  45.58900 50.88400 43.13100
H  44.32500 46.46000 40.21400
H  41.24100 43.87500 41.88700
H  40.47800 44.80800 40.64500
H  40.67200 45.60600 42.09500

