158

Mg 54.79100 23.38400 45.29100
C  52.34400 25.71600 44.27300
C  52.65600 20.90300 44.32700
C  57.23400 21.22200 45.89300
C  56.87400 26.03200 46.26300
N  52.87500 23.35300 44.12000
C  51.95400 24.42300 44.03900
C  50.58500 23.89000 43.40400
C  50.58500 22.43700 43.94500
C  52.13800 22.21700 44.09600
C  49.87400 22.18900 45.22100
C  50.39900 24.13000 41.87200
C  49.05200 24.63600 41.40000
H  48.50700 23.98100 40.14200
N  54.88800 21.29600 45.09000
C  53.93500 20.39600 44.72900
C  54.44100 19.05200 44.80200
C  55.76200 19.11800 45.17700
C  56.01700 20.58400 45.45600
C  53.58900 17.86400 44.55100
C  56.73500 17.95400 45.46900
O  56.38000 16.75700 45.38600
C  58.18300 18.15300 45.84700
N  56.79400 23.64100 45.74600
C  57.53400 22.53600 46.09200
C  58.93600 22.92600 46.50500
C  58.83500 24.48500 46.47000
C  57.39800 24.78500 46.25500
C  59.39700 22.41900 47.92700
C  59.75300 25.23900 45.45500
C  60.79800 26.24200 46.06900
N  54.70000 25.50700 45.22900
C  55.59100 26.37300 45.74900
C  54.99400 27.73100 45.62600
C  53.69700 27.47200 44.99700
C  53.62000 26.09800 44.79500
C  55.54600 29.06400 46.04000
C  52.45100 28.11700 44.58100
O  52.09800 29.26400 44.72100
C  51.67000 26.97400 43.91500
C  51.69100 27.21300 42.48600
O  52.54800 26.90200 41.67700
O  50.57000 27.98100 42.22200
C  50.44900 28.35900 40.80900
H  51.90200 20.11400 44.30300
H  58.05200 20.54900 46.16000
H  57.55500 26.86200 46.45900
H  49.82400 24.40400 43.99200
H  50.23200 21.73600 43.18900
H  48.98100 22.79400 45.37400
H  50.50200 22.39200 46.08900
H  49.46600 21.18000 45.27200
H  50.72300 23.16400 41.48500
H  51.16300 24.82400 41.52000
H  49.17100 25.67100 41.08000
H  48.34500 24.52200 42.22200
H  52.69300 18.04800 45.14400
H  54.03300 16.98500 45.01800
H  53.38000 17.76000 43.48600
H  58.77600 18.77700 45.17900
H  58.68300 17.22000 46.10800
H  58.15900 18.57400 46.85200
H  59.58500 22.56600 45.70700
H  59.12200 24.60400 47.51400
H  59.29100 23.12800 48.74800
H  60.40200 22.01000 47.82800
H  58.78900 21.53900 48.13700
H  59.14800 25.73500 44.69600
H  60.31100 24.44700 44.95400
H  61.78600 26.08000 45.63600
H  60.74400 26.09100 47.14700
H  60.46400 27.24200 45.79200
H  56.57300 29.21700 45.71100
H  55.48000 29.17700 47.12200
H  54.94200 29.87900 45.64000
H  50.66200 27.01200 44.32700
H  50.33100 29.43200 40.65600
H  49.60600 27.77800 40.43400
H  51.32500 28.29600 40.16300
Mg 36.27000 49.20600 25.40300
C  36.30700 47.11300 28.20700
C  35.07000 51.67300 27.41500
C  35.80900 50.87100 22.63100
C  36.91900 46.26900 23.45600
N  35.55500 49.35900 27.51300
C  35.90600 48.39900 28.48700
C  35.71300 48.96300 29.90100
C  35.15100 50.38600 29.57500
C  35.34300 50.52900 28.06400
C  33.69000 50.60800 29.98800
C  36.98200 49.00500 30.82800
C  36.86800 48.39100 32.26900
H  36.87800 49.45800 33.35100
N  35.51100 51.02000 25.10300
C  35.22300 51.95200 26.02500
C  35.19600 53.24200 25.42900
C  35.23800 52.97300 23.98100
C  35.53500 51.55000 23.81700
C  34.92300 54.45400 26.32300
C  34.93600 53.87500 22.80100
O  34.85500 53.57500 21.60200
C  34.74800 55.46200 23.08000
N  36.33800 48.67900 23.28500
C  36.13000 49.54900 22.38000
C  36.23500 48.91800 20.91500
C  36.76000 47.46700 21.26100
C  36.73700 47.46000 22.79500
C  34.96400 48.89000 20.01500
C  38.05400 47.00900 20.57200
C  38.02200 46.00100 19.42800
N  36.55300 47.12600 25.68400
C  36.91700 46.10500 24.84600
C  37.20100 44.91900 25.52500
C  36.99900 45.27200 26.86000
C  36.56900 46.63600 26.92600
C  37.66700 43.62500 24.97000
C  37.02400 44.86800 28.23900
O  37.12300 43.76600 28.75500
C  36.67800 46.02100 29.13100
C  35.54400 45.67200 30.00000
O  34.34700 45.71000 29.65600
O  35.90800 45.26700 31.24600
C  34.93700 44.64500 32.11500
H  34.64500 52.44600 28.05900
H  35.72500 51.45800 21.71400
H  36.93400 45.39200 22.80600
H  34.98600 48.34500 30.42900
H  35.67100 51.18800 30.09900
H  33.50300 49.97500 30.85500
H  32.88300 50.45100 29.27300
H  33.46100 51.63500 30.27200
H  37.37600 50.01700 30.92000
H  37.73900 48.37000 30.37000
H  37.71000 47.73200 32.47800
H  35.93200 47.84300 32.37700
H  35.02600 55.36000 25.72500
H  35.65800 54.52300 27.12500
H  33.89700 54.41000 26.68800
H  33.92900 55.66600 23.77000
H  34.33700 55.73800 22.10900
H  35.64100 55.99100 23.41500
H  37.00100 49.49600 20.39800
H  35.96600 46.79400 20.93900
H  35.07800 49.81700 19.45300
H  34.20000 49.08100 20.76900
H  34.77000 48.09300 19.29700
H  38.83300 46.72100 21.27800
H  38.49200 47.93300 20.19500
H  37.04400 45.51900 19.41600
H  38.75500 45.20700 19.57300
H  38.27800 46.44100 18.46500
H  38.59800 43.27300 25.41600
H  37.72100 43.56300 23.88300
H  36.96300 42.81800 25.17300
H  37.63200 46.28000 29.59200
H  34.09700 45.23900 32.47700
H  35.46900 44.34900 33.01900
H  34.43100 43.86900 31.54100

