158

Mg 35.27900 1.15600 28.74400
C  33.16200 2.77900 30.96700
C  37.73700 1.39000 31.22400
C  37.62800 0.45100 26.46500
C  32.94300 1.57200 26.19500
N  35.44500 1.95700 30.92500
C  34.37900 2.53500 31.57500
C  34.64900 2.62300 33.06500
C  36.23000 2.45500 33.03100
C  36.50000 1.82300 31.66900
C  36.81200 3.91800 33.25200
C  33.84000 1.42500 33.87600
C  33.10300 1.93400 35.15600
H  33.92100 2.92200 36.02100
N  37.42500 0.78100 28.84000
C  38.18700 0.89100 29.97000
C  39.46100 0.34200 29.65100
C  39.56100 0.11900 28.22000
C  38.20700 0.53300 27.73500
C  40.49800 0.20800 30.68800
C  40.73300 -0.43500 27.40700
O  40.65500 -0.69100 26.18900
C  41.99000 -0.69300 28.20700
N  35.31800 1.13000 26.59500
C  36.35600 0.62300 25.90100
C  36.02000 0.51700 24.44500
C  34.50400 0.59200 24.39200
C  34.18900 1.07100 25.77700
C  36.73800 1.58500 23.51500
C  33.78700 -0.78000 24.21400
C  32.81000 -0.78500 22.98200
N  33.46300 1.98000 28.56800
C  32.56200 1.97700 27.52300
C  31.32700 2.54300 27.93000
C  31.48600 2.82100 29.32000
C  32.77500 2.45100 29.65200
C  30.19300 2.66500 27.00500
C  30.84900 3.35500 30.47100
O  29.78000 3.75400 30.67300
C  31.86200 3.27800 31.61700
C  32.01000 4.48600 32.49800
O  32.86100 5.33800 32.42100
O  31.07800 4.39300 33.50800
C  31.27800 5.39600 34.58100
H  38.46300 1.48000 32.03400
H  38.30600 -0.01100 25.74500
H  32.09700 1.40200 25.52700
H  34.35400 3.59300 33.46300
H  36.69500 1.84300 33.80300
H  36.05100 4.60500 33.62200
H  37.09100 4.32700 32.28100
H  37.66100 3.94800 33.93500
H  34.62700 0.71700 34.13400
H  33.11500 1.00900 33.17600
H  32.75100 1.06900 35.71800
H  32.23800 2.48800 34.79000
H  41.18900 -0.62300 30.55200
H  40.04500 -0.17400 31.60300
H  40.97100 1.18600 30.78100
H  42.71700 -1.00100 27.45600
H  41.71500 -1.55600 28.81500
H  42.40000 0.18300 28.70800
H  36.38900 -0.44300 24.08200
H  34.15500 1.34000 23.67900
H  36.06700 2.29800 23.03700
H  37.28400 1.17500 22.66500
H  37.49200 2.26400 23.91300
H  33.23400 -1.07400 25.10600
H  34.45000 -1.63200 24.05900
H  33.15500 -1.38600 22.14100
H  32.61600 0.24700 22.69200
H  31.91200 -1.26100 23.37700
H  30.30100 3.62800 26.50700
H  29.28600 2.68000 27.60900
H  30.10600 1.77900 26.37700
H  31.54100 2.48600 32.29400
H  30.93000 6.35500 34.19600
H  32.31900 5.32300 34.89500
H  30.66300 5.14000 35.44300
Mg 47.07100 44.47500 43.52000
C  43.52000 44.13800 43.14400
C  47.19500 41.06900 42.58900
C  50.41400 44.76700 43.25200
C  46.70100 47.92100 43.58600
N  45.53200 42.84600 42.92000
C  44.22000 42.95200 42.88200
C  43.60800 41.60300 42.68200
C  44.72600 40.54000 42.77800
C  45.92500 41.54900 42.75700
C  44.68200 39.44400 43.88400
C  42.61400 41.34500 41.45500
C  42.86600 42.14800 40.15700
H  42.89700 41.44700 38.85100
N  48.66400 43.14400 43.00200
C  48.43300 41.84700 42.54900
C  49.73700 41.25500 42.27600
C  50.71000 42.25200 42.52600
C  49.97000 43.45000 42.96400
C  49.89600 39.75800 42.01300
C  52.16500 42.04000 42.49700
O  52.62200 41.04900 41.92500
C  53.15600 43.05300 43.05500
N  48.44900 46.12800 43.58800
C  49.76000 46.02200 43.51000
C  50.46300 47.34600 43.45600
C  49.26700 48.30200 43.15400
C  48.06200 47.41900 43.44800
C  51.18000 47.62900 44.74000
C  49.26600 48.97600 41.78600
C  49.66700 50.45000 41.77600
N  45.49300 45.83200 43.47900
C  45.44300 47.19100 43.61800
C  44.07300 47.59900 43.94600
C  43.31700 46.43800 43.70100
C  44.16600 45.36000 43.44800
C  43.64300 49.09600 44.25300
C  41.98600 45.93100 43.65100
O  40.94100 46.52000 43.78500
C  42.01300 44.43300 43.26700
C  41.35300 43.58900 44.22600
O  40.71300 42.63200 43.95600
O  41.43100 44.00900 45.49500
C  41.16000 42.99600 46.47100
H  47.12500 40.01400 42.31500
H  51.49800 44.89300 43.21600
H  46.77600 49.00900 43.64300
H  43.06400 41.56400 43.62600
H  44.76500 40.04200 41.80800
H  43.66400 39.40700 44.27300
H  45.33400 39.60100 44.74300
H  44.91000 38.60500 43.22600
H  41.59100 41.47900 41.80700
H  42.74200 40.26700 41.36000
H  43.76800 42.75900 40.16400
H  42.09700 42.91900 40.10900
H  50.00600 39.52800 40.95300
H  49.11400 39.17300 42.49800
H  50.81700 39.48900 42.53000
H  53.33000 43.87000 42.35400
H  54.09000 42.52400 43.24200
H  52.78200 43.38700 44.02300
H  51.16800 47.31600 42.62600
H  49.33500 49.15000 43.83500
H  51.44200 46.73500 45.30500
H  50.72100 48.37100 45.39400
H  52.17500 48.02900 44.55000
H  48.28900 48.88700 41.31000
H  49.91000 48.42400 41.10100
H  50.11400 50.75800 42.72200
H  48.75900 51.04500 41.67000
H  50.35900 50.70200 40.97300
H  43.29100 49.59300 43.34900
H  44.42400 49.73300 44.66800
H  42.78100 49.01900 44.91500
H  41.56300 44.36600 42.27600
H  41.41300 41.97700 46.17900
H  40.08300 42.98800 46.63400
H  41.66700 43.24900 47.40200

