158

Mg 35.62800 1.87100 30.45500
C  33.33600 3.10200 32.79900
C  38.06100 2.21000 32.80700
C  38.03300 1.03900 28.12300
C  33.26100 2.16800 28.01800
N  35.69200 2.47200 32.54200
C  34.60600 2.91900 33.34000
C  34.95600 3.06700 34.85200
C  36.46300 3.06600 34.71800
C  36.77500 2.52900 33.27500
C  37.17400 4.48200 35.03800
C  34.24400 2.01900 35.76000
C  33.78600 2.41100 37.16100
H  34.47900 3.56800 37.88400
N  37.75200 1.57700 30.47900
C  38.51100 1.69000 31.58000
C  39.84500 1.20000 31.27600
C  39.88300 0.88300 29.88900
C  38.56800 1.16400 29.40200
C  40.96000 1.08800 32.27900
C  41.00300 0.18200 29.09600
O  41.01000 -0.02700 27.83500
C  42.14300 -0.38500 29.85800
N  35.63500 1.61200 28.40300
C  36.75300 1.31200 27.66500
C  36.36500 1.02000 26.17800
C  34.76700 1.16600 26.15800
C  34.52900 1.66100 27.60600
C  37.07300 1.90000 25.18800
C  34.06000 -0.18100 25.78400
C  32.76800 0.00200 25.04700
N  33.66400 2.44400 30.35500
C  32.83500 2.51700 29.31600
C  31.53000 3.00100 29.77500
C  31.66500 3.24900 31.14900
C  33.02500 2.92000 31.44300
C  30.36200 3.18300 28.92200
C  31.01700 3.74700 32.28200
O  29.89900 4.15300 32.61000
C  32.08100 3.67000 33.42500
C  32.26000 5.09700 33.80900
O  33.17800 5.86700 33.47700
O  31.23900 5.39000 34.67200
C  31.18600 6.67800 35.33700
H  38.80800 2.29500 33.59800
H  38.67200 0.63500 27.33500
H  32.54300 2.23500 27.19800
H  34.53500 4.00500 35.21400
H  36.77700 2.30900 35.43700
H  37.73400 4.74300 34.14000
H  37.90200 4.32800 35.83400
H  36.56300 5.37100 35.19800
H  34.83300 1.10200 35.74500
H  33.34100 1.64100 35.28100
H  33.67400 1.52700 37.78900
H  32.76900 2.75800 36.97800
H  41.79200 1.67100 31.88500
H  41.19100 0.05400 32.53500
H  40.62100 1.49000 33.23400
H  42.80900 0.32100 30.35300
H  42.74500 -0.88400 29.09800
H  41.80500 -1.21000 30.48500
H  36.68600 -0.00100 25.97500
H  34.55000 1.93900 25.42000
H  38.05900 1.43500 25.16000
H  37.27200 2.84800 25.68900
H  36.57700 2.13200 24.24600
H  33.79700 -0.80100 26.64100
H  34.75700 -0.87700 25.31700
H  32.96600 -0.56500 24.13700
H  32.49600 1.04000 24.85900
H  31.94700 -0.35800 25.66700
H  30.60500 3.37700 27.87700
H  29.75800 3.94800 29.40900
H  29.73400 2.29900 29.04000
H  31.65800 3.18600 34.30500
H  32.20000 6.84100 35.70200
H  30.42500 6.72600 36.11600
H  30.91100 7.46900 34.64000
Mg 53.25700 23.51700 43.55400
C  50.64200 25.56600 42.94400
C  51.53000 20.95300 42.19400
C  56.15100 21.75900 43.50600
C  55.12000 26.33500 44.36500
N  51.34700 23.40100 42.39100
C  50.36900 24.34700 42.48900
C  49.13100 23.85500 41.68600
C  49.32200 22.24100 41.74600
C  50.85400 22.18300 42.07100
C  48.39600 21.40900 42.69500
C  48.93300 24.47800 40.21200
C  50.17300 24.70000 39.39900
H  50.12500 25.38600 37.97200
N  53.80300 21.53900 43.10900
C  52.87100 20.61800 42.64800
C  53.44800 19.36500 42.80500
C  54.80700 19.47700 43.30700
C  55.04100 20.92500 43.31400
C  52.73200 18.11700 42.33500
C  55.72500 18.39800 43.65600
O  55.25600 17.24000 43.52700
C  57.15100 18.69000 44.23500
N  55.35300 24.05200 43.57100
C  56.36600 23.13300 43.67700
C  57.70100 23.77600 44.09700
C  57.41800 25.28700 44.04400
C  55.85000 25.22500 43.93400
C  58.14400 23.31400 45.53200
C  57.98600 26.09400 42.88100
C  59.13000 27.19300 43.20100
N  52.93100 25.55400 43.82300
C  53.72400 26.56600 44.27800
C  52.91800 27.74800 44.50700
C  51.65200 27.37200 44.07000
C  51.74900 26.06000 43.57700
C  53.36800 29.02100 45.21500
C  50.28300 27.81300 43.84900
O  49.71600 28.86600 44.08800
C  49.58400 26.67200 43.16200
C  49.22000 27.38300 41.94100
O  50.02500 27.83500 41.12500
O  47.90700 27.59200 41.96400
C  47.26700 28.37900 40.89900
H  50.86000 20.14600 41.89100
H  57.08600 21.19900 43.56900
H  55.77400 27.17800 44.60000
H  48.30400 24.21300 42.29900
H  49.17300 21.81200 40.75500
H  48.00000 22.04300 43.48800
H  48.88300 20.68300 43.34600
H  47.56200 21.00700 42.12100
H  48.25500 25.32400 40.10300
H  48.48200 23.68900 39.61000
H  50.75400 23.79000 39.25000
H  50.84900 25.32200 39.98600
H  52.83100 18.13100 41.24900
H  51.71200 18.22200 42.70300
H  53.21300 17.18900 42.64600
H  57.50800 17.76700 44.69200
H  57.06500 19.43500 45.02600
H  57.76200 19.10600 43.43500
H  58.52100 23.43200 43.46600
H  57.79400 25.67800 44.98900
H  59.11600 22.84200 45.38800
H  57.53100 22.63600 46.12500
H  58.29900 24.10200 46.26900
H  57.23500 26.51600 42.21300
H  58.69300 25.47600 42.32700
H  58.86900 27.82500 44.05000
H  59.12000 27.73400 42.25500
H  60.04600 26.64800 43.43200
H  53.44800 29.82300 44.48200
H  54.28500 28.85500 45.78100
H  52.57100 29.31000 45.89900
H  48.74700 26.31300 43.76200
H  46.18100 28.34700 40.99200
H  47.50100 28.02700 39.89400
H  47.55600 29.42200 41.03000

