158

Mg 25.95800 0.49800 29.11000
C  28.05100 0.29000 32.10700
C  23.36100 0.79800 31.20800
C  24.31200 1.11800 26.35000
C  28.99000 0.35800 27.31800
N  25.82800 0.55900 31.43000
C  26.67300 0.45300 32.45700
C  26.02500 0.52800 33.81100
C  24.52100 0.29800 33.39000
C  24.52900 0.48300 31.86700
C  23.74400 -0.93300 33.78200
C  26.23300 1.87400 34.53300
C  25.50700 1.95000 35.84600
H  26.30400 2.27100 37.12200
N  23.99100 0.87600 28.81700
C  23.08400 1.04900 29.85900
C  21.83800 1.33500 29.21700
C  22.07700 1.43500 27.76300
C  23.49300 1.03700 27.56300
C  20.60300 1.55500 30.03000
C  21.24400 1.81100 26.63600
O  21.63600 1.76700 25.51600
C  19.78700 2.06600 26.86300
N  26.56500 0.54700 27.16800
C  25.65700 0.93200 26.17300
C  26.37600 1.24700 24.88000
C  27.81400 0.78700 25.15500
C  27.82200 0.59900 26.62800
C  25.76100 0.61200 23.56700
C  28.88600 1.77900 24.52900
C  30.16300 1.11600 23.88200
N  28.09200 0.23000 29.56800
C  29.20700 0.22000 28.71600
C  30.47500 0.06000 29.47700
C  30.04000 0.10800 30.78300
C  28.58600 0.19200 30.74100
C  31.86900 -0.08300 28.98300
C  30.44500 0.21600 32.14600
O  31.59700 0.17400 32.59700
C  29.18000 0.26300 33.03800
C  29.09900 -0.70400 34.11100
O  28.84900 -1.89900 34.01600
O  29.20200 -0.08800 35.38200
C  28.89100 -0.79300 36.59600
H  22.56700 0.73300 31.95400
H  23.88100 1.48200 25.41500
H  29.93700 0.31400 26.77500
H  26.34500 -0.24500 34.51100
H  23.86600 1.11800 33.68600
H  22.82500 -0.78100 34.34700
H  24.21600 -1.64900 34.45400
H  23.44000 -1.56100 32.94400
H  26.01900 2.73400 33.89900
H  27.31000 1.97800 34.67100
H  25.10600 0.95200 36.02400
H  24.70800 2.67800 35.70500
H  19.82700 0.91900 29.60400
H  20.28300 2.59600 29.98500
H  20.90000 1.37900 31.06400
H  19.62300 2.71000 27.72700
H  19.23000 1.13500 26.96400
H  19.28000 2.58800 26.05100
H  26.38700 2.33100 24.76900
H  28.06500 -0.18400 24.73000
H  24.89500 -0.01100 23.79000
H  26.40700 -0.14500 23.12300
H  25.51400 1.27800 22.74000
H  29.16800 2.37400 25.39800
H  28.35800 2.43600 23.83800
H  30.17400 1.09500 22.79200
H  30.37200 0.06500 24.08300
H  31.03000 1.71400 24.16300
H  31.81500 0.06100 27.90400
H  32.33700 -1.00500 29.32800
H  32.40300 0.80600 29.31700
H  29.21100 1.28400 33.41800
H  29.37000 -1.74900 36.80900
H  27.87500 -1.16600 36.45900
H  28.95400 -0.20700 37.51300
Mg -5.19600 25.78400 26.98000
C  -3.66400 27.08200 29.88100
C  -6.70100 23.29400 28.74800
C  -5.86400 24.29500 24.05500
C  -2.82000 27.89600 25.09800
N  -5.01400 25.24800 29.04400
C  -4.54400 26.04700 30.11200
C  -5.11300 25.47200 31.43900
C  -6.04500 24.31800 31.04100
C  -5.82500 24.20800 29.47400
C  -5.85100 23.04300 31.83000
C  -5.60200 26.61900 32.41000
C  -6.72300 26.27700 33.44200
H  -6.39300 25.36400 34.69500
N  -6.25200 24.08600 26.44800
C  -6.87500 23.23300 27.34400
C  -7.70400 22.31200 26.63200
C  -7.49100 22.49900 25.21900
C  -6.51800 23.67700 25.19900
C  -8.76400 21.53200 27.34200
C  -8.03400 21.78900 24.05100
O  -7.78000 22.11200 22.86800
C  -9.07700 20.73600 24.05400
N  -4.50000 26.06200 24.92400
C  -4.97600 25.31800 23.89400
C  -4.57200 25.79700 22.52300
C  -3.50300 26.87000 22.93400
C  -3.61200 26.97400 24.38900
C  -4.01000 24.65500 21.56300
C  -3.70000 28.21400 22.18800
C  -3.68100 28.31900 20.66500
N  -3.61500 27.27200 27.36100
C  -2.76900 27.97900 26.51300
C  -2.09100 28.90900 27.31400
C  -2.27800 28.50500 28.65400
C  -3.28600 27.56900 28.60100
C  -1.12700 30.01300 26.82600
C  -1.91500 28.86100 29.97800
O  -1.10300 29.60600 30.48500
C  -2.81100 28.02600 30.86500
C  -2.00800 27.21900 31.85600
O  -1.21000 26.36200 31.56600
O  -2.14600 27.74100 33.13300
C  -1.10100 27.37500 34.06800
H  -7.11800 22.46500 29.32300
H  -6.16000 23.77800 23.14000
H  -2.16300 28.59100 24.57100
H  -4.37000 24.96600 32.05600
H  -7.09300 24.61700 31.01900
H  -6.71500 22.85500 32.46800
H  -5.02200 23.02300 32.53700
H  -5.64400 22.18900 31.18600
H  -5.99600 27.35900 31.71300
H  -4.86800 27.15400 33.01200
H  -7.54400 25.87400 32.84800
H  -7.11300 27.18700 33.89800
H  -8.83400 20.52700 26.92600
H  -9.70700 22.02500 27.10500
H  -8.61400 21.56400 28.42100
H  -8.55700 19.78300 24.14700
H  -9.77300 20.81500 23.21900
H  -9.63400 20.98000 24.95900
H  -5.46500 26.17400 22.02400
H  -2.59200 26.42000 22.54000
H  -4.71300 24.34700 20.78800
H  -3.86600 23.75600 22.16100
H  -3.06000 24.91900 21.09900
H  -2.91800 28.88900 22.53700
H  -4.68800 28.61500 22.41700
H  -4.70900 28.33000 20.30400
H  -3.30800 27.34200 20.35800
H  -3.11500 29.16400 20.27300
H  -0.27100 29.90600 27.49100
H  -1.70700 30.93600 26.84100
H  -0.77800 29.78900 25.81800
H  -3.36300 28.81500 31.37600
H  -1.17500 26.28700 34.09800
H  -1.23200 27.86800 35.03100
H  -0.19600 27.78800 33.62200

