158

Mg 26.24200 50.91800 25.72200
C  24.06600 52.26400 28.05600
C  28.43700 50.13500 28.30200
C  28.54700 50.00300 23.41100
C  24.23400 52.08500 23.19900
N  26.23600 51.18900 27.95700
C  25.19800 51.64900 28.68900
C  25.46600 51.44100 30.22700
C  26.99800 50.99800 30.28800
C  27.23400 50.70600 28.76900
C  27.98500 52.16200 30.61200
C  24.54800 50.32900 30.97000
C  24.19400 50.41800 32.48000
H  25.10200 51.19300 33.41600
N  28.18100 50.15500 25.84800
C  28.89100 49.87100 27.01900
C  30.17300 49.25800 26.65400
C  30.30400 49.44200 25.24900
C  28.97900 49.90700 24.74700
C  31.23200 48.77200 27.69200
C  31.43500 49.12100 24.31200
O  31.41100 49.33000 23.10800
C  32.76100 48.57900 24.90600
N  26.46400 51.11900 23.63300
C  27.39600 50.55800 22.86000
C  27.06100 50.71600 21.37500
C  25.63600 51.34000 21.35500
C  25.43800 51.53600 22.81700
C  28.24300 51.51000 20.64900
C  24.57900 50.47200 20.50700
C  24.00800 49.17400 21.04100
N  24.42600 51.98600 25.61300
C  23.69100 52.44700 24.53500
C  22.39500 53.00400 25.04100
C  22.50400 52.91000 26.39300
C  23.75300 52.32500 26.70800
C  21.38300 53.65400 24.14600
C  21.80400 53.27200 27.57300
O  20.67400 53.79400 27.76500
C  22.83300 52.83000 28.77200
C  23.23100 53.98500 29.64000
O  24.03300 54.88800 29.43500
O  22.70100 53.92000 30.84200
C  23.09600 54.78800 31.95400
H  29.14100 49.85900 29.09000
H  29.24400 49.57500 22.68800
H  23.61800 52.45400 22.37600
H  25.26300 52.41300 30.67700
H  27.20300 50.10700 30.88000
H  28.10400 52.24600 31.69200
H  27.54600 53.07100 30.19800
H  28.94200 52.07600 30.09800
H  25.08100 49.38000 30.90600
H  23.55600 50.24800 30.52400
H  24.15300 49.43200 32.94300
H  23.17000 50.77700 32.59000
H  31.69900 47.82200 27.43400
H  30.80900 48.59600 28.68100
H  31.96100 49.58100 27.74700
H  33.52100 48.46000 24.13300
H  32.51700 47.57700 25.25600
H  33.07000 49.20600 25.74200
H  26.99600 49.73700 20.89900
H  25.55900 52.34900 20.94800
H  28.99500 51.82500 21.37300
H  27.77900 52.43700 20.31300
H  28.64700 50.97000 19.79300
H  25.02600 50.28200 19.53100
H  23.72100 51.14100 20.45100
H  22.92500 49.16500 20.92200
H  24.04900 49.03200 22.12100
H  24.46700 48.31700 20.54800
H  21.73400 53.84900 23.13300
H  21.10800 54.57300 24.66400
H  20.51600 53.00100 24.04900
H  22.33600 52.12600 29.44000
H  22.12000 55.22700 32.15800
H  23.93500 55.44400 31.72000
H  23.35200 54.20800 32.84000
Mg -9.86600 40.29600 42.59200
C  -9.16000 36.89800 41.78600
C  -7.02400 41.18200 40.93600
C  -10.90800 43.39800 42.96000
C  -13.08900 39.11800 43.76500
N  -8.33700 39.14900 41.40500
C  -8.17800 37.78100 41.29100
C  -6.93100 37.46300 40.43600
C  -6.22700 38.84900 40.39800
C  -7.25200 39.81100 40.93300
C  -4.89500 38.89500 41.22900
C  -7.33600 36.82400 38.96800
C  -6.38500 35.76200 38.38300
H  -5.53700 36.08300 37.13300
N  -9.11700 42.05600 41.98400
C  -7.91200 42.25500 41.39700
C  -7.57400 43.64900 41.44900
C  -8.71000 44.30100 41.90300
C  -9.62800 43.18100 42.30500
C  -6.38600 44.17000 40.68700
C  -8.94000 45.84500 41.89800
O  -8.10500 46.59300 41.44400
C  -10.21900 46.50400 42.45500
N  -11.70100 41.11000 43.36000
C  -11.82600 42.48300 43.42800
C  -13.18600 42.83000 44.04400
C  -13.84100 41.48200 44.24000
C  -12.86700 40.52200 43.74300
C  -12.95600 43.65200 45.32100
C  -15.29900 41.53900 43.61800
C  -16.29600 42.14900 44.61600
N  -10.95600 38.42000 42.69600
C  -12.17900 38.14400 43.25600
C  -12.38200 36.69000 43.27400
C  -11.23500 36.13900 42.69000
C  -10.39600 37.26200 42.33000
C  -13.46600 35.90100 43.94200
C  -10.55000 34.92200 42.38300
O  -10.79200 33.74100 42.58900
C  -9.20600 35.35800 41.68700
C  -8.04200 34.64000 42.30600
O  -7.86000 34.39400 43.55100
O  -7.25200 34.08900 41.33900
C  -6.09100 33.34100 41.71600
H  -6.06000 41.55200 40.58100
H  -11.22000 44.42900 43.14000
H  -14.06300 38.79600 44.14000
H  -6.27400 36.77400 40.96700
H  -6.05100 39.08000 39.34700
H  -4.89000 39.80400 41.83000
H  -4.07200 38.90300 40.51400
H  -4.88300 38.11400 41.98800
H  -7.34600 37.58600 38.18800
H  -8.32600 36.37500 39.04000
H  -6.98000 34.87500 38.16800
H  -5.65200 35.51000 39.14900
H  -6.48300 45.18400 40.29800
H  -6.11500 43.63300 39.77800
H  -5.54600 44.10400 41.37700
H  -10.34100 46.26100 43.51000
H  -11.07500 46.11000 41.90700
H  -10.19300 47.58900 42.35900
H  -13.70700 43.43900 43.30400
H  -14.07300 41.50700 45.30500
H  -12.02500 44.19900 45.17400
H  -12.80400 43.01200 46.19100
H  -13.76600 44.32500 45.60100
H  -15.64100 40.53900 43.35000
H  -15.33300 42.14100 42.71000
H  -15.79800 42.49800 45.52000
H  -16.96800 41.35200 44.93400
H  -16.88000 42.99300 44.24700
H  -14.38200 36.08200 43.38000
H  -13.58400 36.36400 44.92100
H  -13.36200 34.81900 44.02400
H  -9.26000 35.23100 40.60600
H  -5.88700 33.36700 42.78700
H  -5.20600 33.72000 41.20400
H  -6.20600 32.31300 41.37300

