158

Mg 55.47000 22.71100 44.27100
C  53.31100 25.44300 43.27500
C  53.05700 20.58400 43.10900
C  57.66200 20.32300 44.81000
C  57.79600 25.10200 45.31900
N  53.49200 23.04300 43.18500
C  52.81200 24.20600 42.95700
C  51.33700 23.94800 42.57900
C  51.19100 22.38600 42.95900
C  52.68800 21.96800 42.97200
C  50.33600 21.98000 44.26000
C  50.99900 24.32400 41.07800
C  49.56500 24.67300 40.76400
H  48.84200 23.98100 39.62500
N  55.45100 20.70400 43.84900
C  54.36700 19.96400 43.42500
C  54.65400 18.56200 43.51600
C  55.99300 18.43800 43.99300
C  56.45800 19.85500 44.26500
C  53.66300 17.56600 42.99600
C  56.80000 17.14100 44.00400
O  56.29500 16.08200 43.68200
C  58.19700 17.12600 44.23300
N  57.47300 22.68400 44.83400
C  58.19800 21.58500 44.96400
C  59.68500 21.85000 45.25000
C  59.62500 23.36400 45.56700
C  58.22900 23.78500 45.24900
C  60.35900 21.02000 46.40300
C  60.70000 24.20000 44.69300
C  61.09300 25.62200 45.23400
N  55.60700 24.82000 44.29900
C  56.56500 25.62000 44.82100
C  56.18500 27.00800 44.61900
C  54.87400 26.94500 44.21900
C  54.57100 25.61300 43.94200
C  57.01300 28.31700 44.87000
C  53.69700 27.73600 43.89900
O  53.47600 28.90800 44.08000
C  52.68700 26.81400 43.17200
C  52.57300 27.26600 41.75700
O  53.44500 27.06800 40.92500
O  51.27300 27.77200 41.57400
C  50.99900 28.21100 40.16000
H  52.34000 19.76900 42.99100
H  58.44300 19.61500 45.09500
H  58.46200 25.91100 45.62800
H  50.71800 24.50900 43.27900
H  50.70600 21.79600 42.18100
H  51.03200 21.55900 44.98500
H  49.52700 21.27900 44.05300
H  49.92500 22.85800 44.75900
H  51.09200 23.36700 40.56500
H  51.80900 24.93100 40.67200
H  49.78700 25.68800 40.43500
H  48.99600 24.43200 41.66200
H  52.61000 17.80100 43.14800
H  53.78100 16.64900 43.57400
H  53.87000 17.30200 41.95900
H  58.56200 17.91500 43.57400
H  58.75200 16.22200 43.98400
H  58.43400 17.35700 45.27100
H  60.16300 21.71500 44.28000
H  59.75500 23.54900 46.63400
H  59.72000 20.29200 46.90200
H  60.89000 21.44700 47.25400
H  60.94000 20.21000 45.96100
H  60.23700 24.39700 43.72600
H  61.63500 23.70000 44.43900
H  60.49600 26.32100 44.64800
H  62.12200 25.81300 44.92900
H  60.99400 25.81900 46.30100
H  57.48200 28.20000 45.84700
H  56.36400 29.18400 44.74900
H  57.81600 28.47000 44.14900
H  51.71400 26.80500 43.66300
H  51.88700 28.71400 39.77800
H  50.23100 28.98500 40.14900
H  50.74000 27.39300 39.48800
Mg 34.97800 49.37500 26.74500
C  35.42600 46.82800 29.13200
C  34.00000 51.49000 29.29100
C  34.38900 51.60000 24.50000
C  35.80000 46.96800 24.36000
N  34.78300 49.20600 28.96500
C  35.05600 48.08400 29.73400
C  35.01000 48.37700 31.20300
C  34.18400 49.71800 31.19600
C  34.30500 50.24300 29.71000
C  32.70100 49.50100 31.55700
C  36.47000 48.54600 31.85700
C  36.55400 47.94600 33.25300
H  36.33500 48.98900 34.39300
N  34.30100 51.36100 26.84900
C  34.06300 52.10800 28.03000
C  33.91300 53.50800 27.61100
C  34.00500 53.55300 26.18900
C  34.25900 52.14100 25.76800
C  33.71100 54.64800 28.58700
C  34.03400 54.75000 25.27500
O  34.43900 54.72400 24.08100
C  33.63100 56.12600 25.90900
N  34.68900 49.16900 24.69400
C  34.56200 50.30200 23.95700
C  34.75400 49.97800 22.45600
C  35.60500 48.71800 22.60000
C  35.42200 48.27100 23.98200
C  33.40200 49.75700 21.69100
C  37.12900 48.91400 22.39200
C  37.85200 47.95200 21.52800
N  35.58100 47.36100 26.72900
C  35.87100 46.54300 25.67500
C  36.24300 45.19000 26.12900
C  36.09400 45.30500 27.53800
C  35.66800 46.61100 27.77600
C  36.62200 44.03700 25.30900
C  36.20700 44.62800 28.83000
O  36.55100 43.49500 29.09800
C  35.79000 45.62000 29.89200
C  34.59300 45.10900 30.61800
O  33.48300 44.95200 30.18300
O  35.07400 44.63800 31.83000
C  34.16300 43.77100 32.54700
H  33.64200 52.19600 30.04300
H  34.49000 52.38700 23.75000
H  36.15600 46.28300 23.58700
H  34.53900 47.59000 31.79300
H  34.58700 50.40800 31.93700
H  32.05400 49.78600 30.72700
H  32.47400 50.15100 32.40100
H  32.54200 48.46100 31.84200
H  36.72400 49.60200 31.76400
H  37.09400 47.87900 31.26300
H  37.56400 47.54900 33.35100
H  35.85200 47.13800 33.46200
H  34.48600 55.41200 28.51600
H  33.73700 54.26300 29.60700
H  32.68400 54.99600 28.48100
H  32.58400 56.08000 26.20900
H  33.69100 56.82200 25.07200
H  34.33800 56.44800 26.67300
H  35.41600 50.73300 22.03400
H  35.32700 47.95100 21.87700
H  32.65500 49.70800 22.48400
H  33.45500 48.82600 21.12700
H  33.19700 50.54400 20.96500
H  37.68300 48.88800 23.33100
H  37.44100 49.86300 21.95600
H  38.17600 48.49000 20.63700
H  37.37100 46.99900 21.30700
H  38.70300 47.60800 22.11600
H  36.09200 44.07200 24.35700
H  36.44400 43.07400 25.78900
H  37.68700 44.03200 25.07700
H  36.60000 45.78000 30.60300
H  33.49400 44.35300 33.18100
H  34.78800 43.14100 33.18000
H  33.66600 43.15700 31.79500

