158

Mg -2.24600 17.16100 25.73300
C  -2.59700 14.90900 28.37100
C  -3.11800 19.69100 27.82300
C  -2.34300 19.14900 23.08100
C  -2.02900 14.36100 23.54000
N  -2.78100 17.23400 27.88300
C  -2.81000 16.28000 28.76100
C  -3.28100 16.72800 30.15500
C  -3.50600 18.27800 29.93900
C  -3.16300 18.44000 28.45400
C  -4.91200 18.78100 30.42500
C  -2.17500 16.53600 31.33800
C  -2.33200 17.38000 32.61600
H  -2.25500 16.68500 33.96300
N  -2.41100 19.18900 25.49500
C  -2.73300 20.06700 26.50100
C  -2.58800 21.37900 25.97500
C  -2.33800 21.24300 24.60400
C  -2.35500 19.79000 24.33100
C  -2.51500 22.65600 26.84100
C  -2.02800 22.35800 23.54300
O  -1.82500 22.08100 22.34600
C  -1.73800 23.72300 24.01800
N  -2.22000 16.82900 23.60100
C  -2.16700 17.83500 22.68100
C  -2.17200 17.30100 21.23100
C  -2.14300 15.71700 21.42200
C  -2.14900 15.57300 22.95400
C  -3.25700 17.84600 20.21500
C  -1.31000 14.89200 20.49100
C  0.12200 14.46600 20.99200
N  -2.26100 15.01700 25.83400
C  -2.06800 14.02700 24.90600
C  -1.98000 12.72600 25.63300
C  -2.28700 13.00200 26.97400
C  -2.35400 14.45100 27.04300
C  -1.88700 11.35200 24.94300
C  -2.38200 12.54200 28.33200
O  -2.11600 11.39800 28.78600
C  -2.53200 13.68700 29.31700
C  -1.31700 13.66700 30.20200
O  -0.15800 13.90700 29.83100
O  -1.66100 13.29000 31.44100
C  -0.54100 13.04100 32.36500
H  -3.24100 20.55400 28.48100
H  -2.45200 19.80300 22.21300
H  -1.90700 13.57500 22.79100
H  -4.20200 16.18300 30.36000
H  -2.78300 18.89200 30.47700
H  -5.39700 19.22900 29.55800
H  -4.81300 19.60500 31.13200
H  -5.70200 18.09500 30.73100
H  -1.20400 16.89200 30.99500
H  -2.36000 15.50800 31.64800
H  -3.36000 17.73600 32.53900
H  -1.57600 18.16500 32.59500
H  -2.52300 22.39800 27.90000
H  -3.21700 23.39200 26.44800
H  -1.51300 23.07800 26.76700
H  -0.81900 23.66400 24.60200
H  -2.61900 23.94400 24.61900
H  -1.56700 24.45500 23.22800
H  -1.17600 17.46400 20.82000
H  -3.10100 15.20800 21.31300
H  -3.92700 17.02400 19.96000
H  -2.81500 18.19700 19.28200
H  -3.79900 18.66700 20.68400
H  -1.37800 15.50600 19.59300
H  -1.92100 14.04300 20.18200
H  0.23400 13.39600 20.81300
H  0.24900 14.62200 22.06300
H  0.94300 14.98200 20.49400
H  -0.84500 11.15500 25.19500
H  -1.97700 11.41600 23.85900
H  -2.55000 10.59800 25.36700
H  -3.43600 13.46300 29.88400
H  -0.54300 13.84100 33.10600
H  0.47700 12.79000 32.06800
H  -0.97600 12.18700 32.88400
Mg 17.23200 -2.12200 27.41500
C  15.98200 -0.01400 30.07700
C  19.21700 -3.54800 29.82500
C  18.66900 -3.98600 24.96200
C  15.60400 -0.10900 25.19400
N  17.58300 -1.76800 29.69100
C  16.90600 -0.91500 30.54500
C  17.32500 -1.14400 32.00100
C  18.52900 -2.12000 31.82000
C  18.54000 -2.44100 30.33900
C  19.91600 -1.54500 32.17900
C  16.15300 -1.79300 32.83800
C  16.23600 -1.63000 34.39200
H  17.44000 -0.82300 35.02100
N  18.62200 -3.69700 27.42700
C  19.39300 -4.09100 28.52300
C  20.16500 -5.28800 28.13900
C  19.92800 -5.51100 26.72900
C  19.05000 -4.42000 26.31500
C  21.01100 -6.09300 29.14100
C  20.52800 -6.58000 25.72000
O  20.10800 -6.58100 24.55500
C  21.50800 -7.63200 26.13700
N  17.12000 -2.08500 25.34200
C  17.92000 -2.86600 24.51900
C  17.61400 -2.58900 23.04900
C  16.53400 -1.44600 23.13500
C  16.34400 -1.21800 24.66300
C  18.92500 -2.28700 22.32600
C  15.27600 -1.85400 22.30900
C  13.93000 -2.13000 23.10500
N  16.01000 -0.47400 27.53000
C  15.34200 0.20300 26.51900
C  14.55300 1.23900 27.04600
C  14.72900 1.17800 28.44200
C  15.58000 0.07900 28.70200
C  13.88900 2.34300 26.25400
C  14.43200 1.79500 29.73500
O  13.71400 2.82500 29.92400
C  15.17700 0.93600 30.82400
C  15.98100 1.82200 31.68400
O  17.10600 2.21100 31.50600
O  15.23300 2.17800 32.76900
C  15.84600 3.17700 33.67700
H  19.96600 -3.83300 30.56700
H  19.16700 -4.55900 24.17800
H  15.08000 0.54100 24.49000
H  17.64000 -0.17600 32.39100
H  18.36100 -3.04100 32.37900
H  19.74600 -0.52400 32.52300
H  20.51600 -1.42900 31.27600
H  20.39900 -2.06100 33.00900
H  16.09100 -2.82900 32.50400
H  15.23200 -1.28800 32.54900
H  16.29600 -2.66400 34.73100
H  15.25100 -1.26400 34.68300
H  20.61600 -6.15700 30.15500
H  22.03500 -5.72500 29.06900
H  21.19200 -7.10600 28.78100
H  21.07500 -8.38500 26.79600
H  22.36000 -7.10300 26.56400
H  21.91100 -8.09500 25.23600
H  17.27500 -3.47500 22.51300
H  17.03800 -0.54300 22.79000
H  19.76100 -2.40200 23.01600
H  18.92600 -1.25300 21.98200
H  19.12000 -2.93800 21.47400
H  15.41100 -2.74600 21.69700
H  15.12100 -1.01100 21.63600
H  14.20300 -2.38900 24.12800
H  13.59200 -3.05100 22.63100
H  13.14600 -1.37300 23.07100
H  13.34100 3.04500 26.88400
H  13.27100 1.88300 25.48300
H  14.67000 2.97500 25.83300
H  14.44100 0.37500 31.40100
H  15.80800 4.15200 33.19100
H  16.88400 2.91200 33.87900
H  15.30500 3.26600 34.61900

