158

Mg 49.56800 35.47800 27.44000
C  47.54100 34.15800 29.97400
C  50.26600 38.15200 29.40000
C  51.42900 36.64500 24.79100
C  48.45600 32.83300 25.32100
N  48.97900 36.03600 29.44200
C  48.22000 35.31200 30.31800
C  48.22500 35.96900 31.62700
C  48.61600 37.46000 31.30100
C  49.35800 37.24000 30.00400
C  47.40300 38.36100 31.11700
C  49.15000 35.33300 32.70200
C  48.80000 35.30500 34.24700
H  47.94100 36.47900 34.69100
N  50.78000 37.19200 27.21300
C  50.89800 38.12500 28.14100
C  51.80300 39.13200 27.55600
C  52.24700 38.63900 26.28300
C  51.47600 37.45800 26.01600
C  52.17400 40.35600 28.38200
C  53.27500 39.27500 25.33200
O  53.58700 38.77200 24.24200
C  54.12000 40.47600 25.83800
N  49.72100 34.90800 25.34100
C  50.71600 35.48400 24.52100
C  50.77000 34.75500 23.16500
C  49.88200 33.51000 23.35900
C  49.36600 33.73500 24.78600
C  50.36600 35.63600 21.92800
C  50.68500 32.10200 23.24400
C  50.10100 31.05700 22.24500
N  48.21700 33.84300 27.56300
C  47.95900 32.85700 26.62700
C  47.06600 31.91900 27.18300
C  46.80400 32.39100 28.47800
C  47.65600 33.47300 28.70600
C  46.43100 30.70400 26.51800
C  45.96700 32.19600 29.66600
O  45.07200 31.35300 29.78500
C  46.39200 33.33800 30.63200
C  46.75900 32.66500 31.94000
O  47.84400 32.15800 32.06300
O  45.76800 32.79900 32.85000
C  46.10100 32.21000 34.18100
H  50.50200 38.92800 30.13100
H  51.98700 36.95300 23.90500
H  48.07700 32.12500 24.58200
H  47.19200 35.78400 31.92300
H  49.30300 37.93700 31.99900
H  47.11900 38.25300 30.07000
H  47.64200 39.41500 31.26200
H  46.55100 38.06500 31.72900
H  50.12400 35.81600 32.62300
H  49.18700 34.28300 32.41300
H  49.78200 35.43700 34.70200
H  48.44400 34.32300 34.55800
H  53.22500 40.19800 28.62200
H  51.64500 40.57300 29.31000
H  51.95800 41.27200 27.83300
H  53.56000 41.38700 26.05000
H  54.98300 40.71300 25.21700
H  54.61700 40.16300 26.75600
H  51.84100 34.60000 23.03200
H  49.01700 33.67000 22.71600
H  50.45100 36.72000 21.99900
H  49.34500 35.39300 21.63500
H  51.09900 35.35600 21.17200
H  50.72500 31.59100 24.20600
H  51.70000 32.43900 23.03500
H  49.34500 31.54400 21.62900
H  49.67200 30.18600 22.73800
H  50.93700 30.76400 21.61000
H  46.53900 29.79100 27.10400
H  46.72900 30.45100 25.50100
H  45.38900 30.95800 26.32300
H  45.55400 34.01600 30.79700
H  47.17100 32.11500 34.36900
H  45.74500 31.20000 34.38300
H  45.60900 32.91300 34.85200
Mg -5.34800 25.75800 26.12600
C  -4.33100 27.05200 29.17300
C  -6.96500 23.26700 27.59400
C  -5.90900 24.49200 23.07400
C  -2.87600 27.90500 24.64200
N  -5.37800 25.15800 28.07200
C  -5.10800 25.91900 29.19500
C  -5.68200 25.29800 30.45100
C  -6.17500 23.88200 29.92500
C  -6.15200 24.08400 28.37700
C  -5.33600 22.60400 30.34500
C  -6.85900 26.24200 31.16100
C  -6.62000 26.68500 32.57500
H  -6.15700 25.60900 33.64300
N  -6.34500 24.13000 25.43700
C  -7.13200 23.30400 26.22300
C  -7.94900 22.53600 25.37500
C  -7.60200 22.78000 24.06400
C  -6.53000 23.83300 24.12700
C  -8.99100 21.65100 25.94000
C  -8.12300 22.20100 22.84200
O  -7.60900 22.54500 21.76600
C  -9.25900 21.23500 22.86600
N  -4.52400 26.20700 24.17100
C  -5.01000 25.54400 23.05300
C  -4.04200 25.88300 21.85600
C  -3.40600 27.19400 22.31000
C  -3.58300 27.07400 23.79600
C  -3.06900 24.74600 21.60600
C  -4.10500 28.47100 21.74200
C  -4.34800 28.63200 20.25800
N  -3.93900 27.23700 26.70000
C  -2.99100 28.00300 26.01200
C  -2.29200 28.87100 26.92200
C  -2.80700 28.53900 28.14800
C  -3.74400 27.52600 27.94600
C  -1.33600 29.99200 26.61200
C  -2.80300 28.98100 29.59000
O  -2.10800 29.86000 30.15500
C  -3.80600 27.96300 30.33600
C  -3.04700 27.28300 31.51400
O  -2.44400 26.22400 31.37600
O  -3.08700 28.09700 32.61500
C  -2.37200 27.60500 33.87100
H  -7.55100 22.56000 28.18500
H  -6.15800 24.02000 22.12100
H  -2.18500 28.53400 24.07700
H  -4.93600 25.24600 31.24500
H  -7.19700 23.67200 30.24200
H  -4.54900 23.02600 30.96900
H  -4.84900 22.00000 29.58000
H  -5.90500 21.93500 30.99000
H  -7.82800 25.74200 31.14500
H  -6.82300 27.08300 30.46800
H  -7.58800 27.01100 32.95600
H  -5.86800 27.47000 32.49900
H  -9.94300 22.00400 25.54200
H  -9.07100 21.77700 27.02000
H  -8.77500 20.61900 25.66300
H  -8.82500 20.28700 23.18400
H  -9.71600 20.97900 21.91000
H  -9.97300 21.68200 23.55800
H  -4.67300 25.99700 20.97500
H  -2.33000 27.11300 22.15700
H  -2.14900 25.06900 21.11900
H  -3.57700 24.12200 20.87100
H  -2.86900 24.03200 22.40500
H  -3.42100 29.29000 21.96000
H  -5.07300 28.67100 22.20000
H  -5.33700 29.02300 20.02000
H  -4.03900 27.73000 19.73000
H  -3.69600 29.46700 20.00000
H  -1.64200 30.85300 27.20700
H  -1.37200 30.35700 25.58500
H  -0.28200 29.74700 26.74500
H  -4.56300 28.60500 30.78700
H  -2.99000 27.27100 34.70500
H  -1.81200 28.48500 34.18700
H  -1.69400 26.79700 33.59800

