158

Mg 37.03700 50.14500 25.46400
C  37.07000 48.06600 28.27700
C  35.09700 52.37200 27.27200
C  36.39600 51.79800 22.61300
C  37.88600 47.35300 23.52200
N  36.26000 50.17700 27.50500
C  36.63800 49.33800 28.54000
C  36.34300 49.94400 29.88700
C  35.38600 51.18600 29.51200
C  35.56400 51.26600 28.01600
C  33.93400 51.15800 30.05200
C  37.67200 50.16000 30.65100
C  37.58700 49.75600 32.07600
H  36.20300 49.64500 32.74000
N  35.97300 51.91400 25.02400
C  35.26100 52.69300 25.87300
C  34.73600 53.84400 25.24100
C  35.11400 53.69600 23.84000
C  35.91300 52.39200 23.77100
C  33.84600 54.90500 25.94500
C  34.85800 54.62200 22.69900
O  35.07900 54.27200 21.55500
C  34.38900 56.04000 22.95900
N  37.39300 49.74000 23.37500
C  36.93800 50.52400 22.36100
C  37.19800 49.98300 20.99500
C  37.91600 48.63100 21.37300
C  37.64400 48.51800 22.86300
C  35.92400 49.88500 20.11100
C  39.36100 48.43300 20.81500
C  40.39600 49.55300 21.05500
N  37.57500 48.10500 25.79300
C  37.85400 47.05500 24.90500
C  38.11500 45.83600 25.65700
C  37.81200 46.19700 27.00400
C  37.51300 47.56900 27.02400
C  38.58300 44.53000 25.06100
C  37.67100 45.62400 28.32200
O  37.74900 44.45500 28.72700
C  37.27600 46.84800 29.21500
C  36.05400 46.40800 29.92800
O  34.96800 46.26100 29.46200
O  36.35400 46.06400 31.25200
C  35.27900 45.37000 32.06100
H  34.45700 53.10100 27.77400
H  36.36300 52.45200 21.73900
H  38.08300 46.59300 22.76300
H  35.58400 49.32500 30.36700
H  35.83400 52.10000 29.90100
H  33.83700 50.21400 30.58800
H  33.27900 51.25900 29.18600
H  33.87800 51.92700 30.82200
H  38.02700 51.18000 30.50300
H  38.49900 49.55900 30.27100
H  38.08600 50.53900 32.64700
H  38.10500 48.81500 32.25800
H  34.59800 55.60600 26.30800
H  33.32300 54.43400 26.77800
H  33.08500 55.31800 25.28300
H  34.74300 56.46300 23.89900
H  33.36700 56.21300 22.62200
H  34.93800 56.59800 22.20000
H  37.97200 50.58300 20.51600
H  37.33800 47.82800 20.91600
H  35.62400 50.89900 19.84700
H  35.14900 49.46600 20.75300
H  36.07400 49.33800 19.18000
H  39.13400 48.28700 19.75900
H  39.87900 47.58500 21.26300
H  40.68300 50.05600 20.13200
H  41.36000 49.14000 21.35100
H  40.05300 50.28000 21.79200
H  38.82500 44.74100 24.02000
H  37.94600 43.67700 25.29400
H  39.59700 44.25300 25.34900
H  38.01200 46.92500 30.01600
H  35.34500 45.60800 33.12300
H  35.56000 44.31900 31.98000
H  34.28600 45.52200 31.63900
Mg -12.10300 37.73400 42.05800
C  -9.83200 35.30500 41.31800
C  -10.11900 40.19600 41.04800
C  -14.81200 39.92200 42.32600
C  -14.24000 35.18800 43.49800
N  -10.30100 37.67100 41.05800
C  -9.42900 36.58900 40.95700
C  -8.10300 37.06000 40.43100
C  -8.09600 38.59000 40.74600
C  -9.60200 38.85100 40.96700
C  -7.27100 38.92300 42.03500
C  -8.01700 36.74700 38.88600
C  -6.79000 35.79600 38.40100
H  -5.84700 36.41300 37.26100
N  -12.38400 39.82100 41.70300
C  -11.41500 40.66300 41.26300
C  -11.98700 41.97900 41.22500
C  -13.36900 41.86300 41.37400
C  -13.62600 40.49800 41.79000
C  -11.20100 43.18200 40.81500
C  -14.37400 42.99400 41.23300
O  -13.93300 44.17200 41.05000
C  -15.89500 42.86700 41.41100
N  -14.21500 37.52500 42.77800
C  -15.05600 38.61600 42.82700
C  -16.34100 38.31500 43.56100
C  -16.13900 36.81600 44.00100
C  -14.81600 36.48800 43.44500
C  -16.70400 39.33000 44.69700
C  -17.27000 35.80900 43.44900
C  -18.22300 35.13600 44.48600
N  -12.22100 35.56200 42.16900
C  -13.06600 34.69400 42.90700
C  -12.44500 33.38600 42.88700
C  -11.18400 33.53200 42.22800
C  -11.11400 34.90800 41.80100
C  -13.01300 32.23200 43.65300
C  -9.89200 32.97400 42.00000
O  -9.46300 31.86900 42.26100
C  -8.97500 34.09900 41.35100
C  -7.60500 34.22300 42.04000
O  -6.56300 33.92800 41.42400
O  -7.62500 34.81400 43.27600
C  -6.34500 34.96100 43.94600
H  -9.26400 40.85300 40.87600
H  -15.65600 40.60300 42.45100
H  -14.85300 34.45800 44.03100
H  -7.30700 36.52400 40.94800
H  -7.74000 39.25000 39.95600
H  -7.80400 39.44300 42.83100
H  -6.58700 39.70000 41.69400
H  -6.73200 38.04600 42.39400
H  -7.86800 37.69100 38.36300
H  -8.97600 36.36100 38.54000
H  -7.35300 34.97900 37.95000
H  -6.22700 35.36100 39.22700
H  -11.39000 43.43500 39.77100
H  -10.14000 42.96300 40.93600
H  -11.48700 43.99800 41.47900
H  -16.49800 43.61200 40.89200
H  -16.30200 42.83600 42.42100
H  -16.13600 41.94400 40.88300
H  -17.03300 38.33900 42.71800
H  -16.08500 36.70900 45.08500
H  -17.12800 38.73900 45.51000
H  -17.57000 39.85700 44.29700
H  -15.91700 40.05200 44.91200
H  -16.77300 35.12900 42.75700
H  -17.95700 36.39700 42.84100
H  -19.25500 35.35600 44.21300
H  -17.91200 35.54800 45.44600
H  -18.16100 34.04700 44.47800
H  -13.09000 31.33600 43.03700
H  -13.98700 32.41700 44.10500
H  -12.39300 31.90300 44.48700
H  -8.72400 33.87400 40.31400
H  -5.78600 35.78300 43.49800
H  -5.71300 34.09200 44.13000
H  -6.62500 35.31700 44.93800

