158

Mg 17.20500 -0.69900 27.79900
C  16.13300 1.07300 30.79500
C  19.55500 -2.15900 29.81600
C  18.57200 -1.52300 25.11900
C  14.84800 1.36500 26.05500
N  17.82000 -0.53900 30.05900
C  17.16400 0.10700 31.12600
C  17.71800 -0.25900 32.51300
C  18.98300 -1.17300 32.12000
C  18.71700 -1.36000 30.62500
C  20.33300 -0.56100 32.48800
C  16.59700 -0.85800 33.42000
C  16.53300 -0.36700 34.84400
H  17.85500 0.12300 35.47400
N  18.67100 -1.82300 27.54700
C  19.49400 -2.35700 28.41900
C  20.53000 -3.10900 27.68600
C  20.22500 -3.03400 26.33300
C  19.13600 -2.10400 26.26100
C  21.62900 -3.89100 28.31300
C  20.83700 -3.74600 25.18400
O  20.35100 -3.66600 24.04000
C  22.06200 -4.63400 25.33400
N  16.87900 -0.04300 25.83600
C  17.65700 -0.57600 24.86700
C  17.20700 -0.04700 23.42100
C  15.91000 0.80700 23.74200
C  15.86900 0.67800 25.29400
C  18.34100 0.75400 22.64100
C  14.59400 0.45400 23.00800
C  14.63600 0.70500 21.45300
N  15.65800 0.62400 28.27700
C  14.83100 1.40300 27.45400
C  14.08400 2.40000 28.15000
C  14.63600 2.26100 29.41100
C  15.56500 1.21000 29.49600
C  13.11700 3.46800 27.67200
C  14.56200 2.86300 30.73400
O  14.02200 3.92000 30.97000
C  15.42500 2.02700 31.74200
C  16.41800 2.96700 32.47100
O  17.56000 3.19000 32.13700
O  15.82700 3.45100 33.57300
C  16.45700 4.40000 34.43300
H  20.37200 -2.64300 30.35500
H  18.84600 -1.91200 24.13600
H  14.15300 2.02000 25.52500
H  18.08000 0.63500 33.02100
H  18.87900 -2.10100 32.68300
H  20.26200 0.41400 32.97000
H  21.00000 -0.44300 31.63300
H  20.87600 -1.20700 33.17700
H  16.70600 -1.94200 33.45800
H  15.55500 -0.69700 33.14500
H  16.20300 -1.18400 35.48500
H  15.73300 0.36600 34.94400
H  21.29900 -4.90900 28.51800
H  21.99600 -3.56600 29.28700
H  22.58100 -3.91500 27.78300
H  22.88700 -3.97600 25.60700
H  22.32400 -4.91700 24.31500
H  22.02500 -5.51100 25.98000
H  16.93300 -1.01300 22.99900
H  16.13300 1.85400 23.53600
H  18.68000 0.09100 21.84500
H  19.14400 1.08500 23.30000
H  17.84600 1.60700 22.17800
H  13.74500 1.00700 23.40800
H  14.47600 -0.62100 23.14400
H  14.29300 1.67700 21.09700
H  14.05100 -0.08600 20.98400
H  15.63900 0.59000 21.04400
H  13.19400 4.12800 28.53600
H  12.14400 2.97700 27.65600
H  13.38000 3.96000 26.73600
H  14.69000 1.64900 32.45300
H  16.37700 4.12700 35.48600
H  16.00200 5.37100 34.23600
H  17.53100 4.41200 34.24900
Mg 41.98100 41.32300 26.44100
C  41.00100 43.61800 28.92600
C  43.54300 39.32100 28.75000
C  42.79100 39.03900 24.01100
C  40.93600 43.52200 23.95900
N  42.27600 41.55800 28.50600
C  41.69100 42.43100 29.46600
C  41.98100 42.16300 30.90900
C  42.92400 40.85700 30.73600
C  42.94400 40.52400 29.19800
C  44.41100 40.98900 31.24200
C  40.73500 41.88300 31.80700
C  40.43600 42.86400 32.93200
H  40.07900 42.27800 34.29700
N  43.05000 39.43500 26.42100
C  43.65100 38.82500 27.52700
C  44.22200 37.60800 27.17500
C  43.92600 37.43800 25.76900
C  43.25100 38.68100 25.31800
C  44.84500 36.59500 28.10400
C  44.43000 36.31800 24.86200
O  44.15900 36.41700 23.68300
C  45.29500 35.06700 25.33400
N  41.94300 41.32600 24.29300
C  42.26600 40.25600 23.52500
C  41.93800 40.49800 22.01400
C  41.18100 41.82700 22.09800
C  41.29600 42.24300 23.52800
C  43.17600 40.52700 21.10900
C  39.76800 41.92200 21.65400
C  39.68600 41.81900 20.15300
N  41.12900 43.20400 26.42200
C  40.77400 43.98100 25.29900
C  40.16000 45.19400 25.74400
C  40.17900 45.16200 27.14800
C  40.81700 43.91400 27.50300
C  39.56400 46.24000 24.94300
C  39.91500 45.79000 28.42100
O  39.36600 46.81800 28.64000
C  40.46200 44.83700 29.59400
C  41.48000 45.63600 30.27900
O  42.63700 45.75600 30.03400
O  40.97500 46.02300 31.46200
C  41.84500 46.81600 32.38600
H  44.01500 38.82700 29.60100
H  43.09300 38.33900 23.22900
H  40.55600 44.20800 23.19900
H  42.40800 43.08800 31.29800
H  42.49100 40.10600 31.39800
H  44.48400 40.32400 32.10300
H  44.52300 42.03900 31.51300
H  45.07500 40.61000 30.46500
H  40.81300 40.88500 32.23800
H  39.95900 41.97100 31.04600
H  39.64800 43.58600 32.71500
H  41.28700 43.52300 33.10300
H  45.92300 36.74300 28.03100
H  44.39600 35.62300 27.90000
H  44.53800 36.75800 29.13700
H  45.62300 34.45500 24.49300
H  44.54400 34.51200 25.89700
H  46.10600 35.31200 26.01900
H  41.30700 39.66600 21.70300
H  41.81200 42.52000 21.54100
H  43.05900 41.25700 20.30800
H  43.20100 39.53200 20.66400
H  44.12800 40.73900 21.59400
H  39.31000 42.77400 22.15600
H  39.37000 41.00500 22.08800
H  40.52400 42.30200 19.65000
H  38.78800 42.30500 19.77000
H  39.53900 40.77300 19.88300
H  38.95000 45.71000 24.21600
H  40.31800 46.83800 24.43100
H  38.90000 46.88300 25.52100
H  39.81100 44.63600 30.44400
H  42.39800 46.18000 33.07700
H  41.27900 47.42200 33.09400
H  42.57200 47.46800 31.90200

