158

Mg 7.56900 2.50500 27.73200
C  9.18000 0.90800 30.58000
C  5.55700 4.09000 29.88400
C  5.90500 3.55400 25.09400
C  9.43000 0.21700 25.72800
N  7.37700 2.43200 29.92100
C  8.15100 1.81400 30.89400
C  7.95200 2.53100 32.17500
C  6.63500 3.38100 32.01100
C  6.50300 3.29400 30.53000
C  5.39800 2.89400 32.82900
C  9.17200 3.38100 32.65500
C  9.02600 3.52000 34.19100
H  10.23200 3.04300 35.03800
N  6.05600 3.81600 27.51300
C  5.33400 4.30800 28.53600
C  4.28500 5.05000 27.98900
C  4.45300 5.13800 26.59800
C  5.49300 4.15000 26.32200
C  3.20700 5.73700 28.73900
C  3.71100 5.92100 25.53900
O  4.02100 5.92700 24.38600
C  2.49300 6.81600 25.84800
N  7.66300 1.87900 25.70700
C  6.91000 2.56700 24.82500
C  7.06900 1.90500 23.41500
C  8.28700 0.95700 23.58300
C  8.53400 0.99500 25.09000
C  5.82100 1.24800 22.89700
C  9.56300 1.29700 22.77100
C  9.87200 0.45000 21.54700
N  8.86600 0.80100 28.06200
C  9.53400 0.02600 27.08700
C  10.48200 -0.86600 27.72300
C  10.40500 -0.56300 29.10700
C  9.33600 0.40600 29.27500
C  11.39500 -1.81300 27.05300
C  10.95600 -0.87000 30.49000
O  11.84200 -1.57800 30.91800
C  10.15600 0.10500 31.48300
C  9.46900 -0.68200 32.61200
O  8.39000 -1.27000 32.49000
O  10.21300 -0.70200 33.75400
C  9.49500 -1.17000 34.95400
H  5.09500 4.74300 30.62800
H  5.27400 3.86300 24.25800
H  10.03600 -0.41500 25.07500
H  7.70100 1.78800 32.93200
H  6.79400 4.40400 32.35300
H  5.55200 1.93300 33.32000
H  4.54100 2.82600 32.15900
H  5.24300 3.74500 33.49200
H  9.21100 4.37500 32.20900
H  10.10700 2.90200 32.36500
H  8.14300 2.98400 34.54000
H  8.85100 4.56100 34.46000
H  3.23100 5.49800 29.80200
H  2.21800 5.43900 28.39100
H  3.26900 6.81900 28.62100
H  1.66800 6.20700 26.21600
H  2.21500 7.35700 24.94400
H  2.70600 7.56100 26.61500
H  7.34200 2.69000 22.70900
H  8.03700 -0.06100 23.28500
H  5.04600 1.27900 23.66300
H  6.13400 0.24200 22.61900
H  5.51000 1.79800 22.00800
H  10.42200 1.19600 23.43400
H  9.41400 2.29300 22.35600
H  10.23000 -0.49300 21.96100
H  10.60800 1.01900 20.98000
H  9.00600 0.22000 20.92600
H  10.98100 -2.78400 26.78200
H  12.16300 -2.04500 27.79100
H  11.84900 -1.26700 26.22600
H  10.84400 0.75200 32.02700
H  8.85200 -2.03100 34.77500
H  8.92600 -0.33500 35.36200
H  10.33300 -1.53900 35.54600
Mg 29.97100 57.81300 39.66700
C  27.53800 55.75600 38.17800
C  32.23000 55.28400 38.90300
C  32.59000 60.04500 40.06000
C  27.80900 60.37600 39.91300
N  29.87900 55.76800 38.52500
C  28.74700 55.13800 38.13100
C  28.99400 53.64200 37.81500
C  30.54600 53.54300 38.00300
C  30.90500 54.92000 38.60000
C  31.08300 52.36700 38.88200
C  28.78700 53.26100 36.33600
C  29.19300 54.40100 35.27200
H  28.08300 54.94900 34.38400
N  32.15400 57.62600 39.61100
C  32.81300 56.51800 39.33400
C  34.24500 56.84300 39.27800
C  34.41200 58.17200 39.69300
C  33.03600 58.70400 39.88400
C  35.39100 55.88600 39.05500
C  35.74900 58.92200 39.77800
O  36.77300 58.35800 39.60100
C  35.82600 60.35600 40.06700
N  30.20600 59.88400 39.93300
C  31.35600 60.60400 40.12500
C  31.14000 62.07400 40.45700
C  29.58400 62.11000 40.58400
C  29.12700 60.74300 40.08200
C  31.93200 62.60700 41.68300
C  28.95700 63.35800 39.93400
C  28.10300 64.26100 40.85300
N  28.01200 58.05800 39.36600
C  27.21900 59.10900 39.66400
C  25.86800 58.73900 39.42300
C  25.95900 57.43200 38.92200
C  27.28400 57.03700 38.82800
C  24.69800 59.61100 39.48400
C  25.15200 56.40400 38.24600
O  23.94400 56.28300 38.10800
C  26.15400 55.26400 37.80500
C  25.70400 54.09300 38.65700
O  25.84800 53.96200 39.83900
O  25.04300 53.21000 37.85200
C  24.25400 52.11100 38.49200
H  33.02200 54.56000 38.69700
H  33.37200 60.80100 40.15200
H  27.04400 61.12000 40.14600
H  28.37700 52.98300 38.42600
H  31.09500 53.49500 37.06300
H  32.06700 52.58100 39.29800
H  31.09700 51.48400 38.24300
H  30.33100 52.33300 39.67100
H  27.72100 53.04000 36.28800
H  29.31200 52.42200 35.88100
H  29.99400 54.09400 34.59900
H  29.48600 55.29000 35.82900
H  35.99300 56.22500 38.21200
H  34.99400 54.88500 38.88700
H  36.04400 55.83300 39.92600
H  35.33200 60.77600 39.19100
H  36.87100 60.66600 40.03900
H  35.52900 60.66800 41.06900
H  31.40400 62.63400 39.56100
H  29.33400 62.14300 41.64500
H  31.16300 62.99200 42.35200
H  32.63500 63.39000 41.39600
H  32.48400 61.80000 42.16500
H  28.28000 62.98800 39.16500
H  29.61700 64.13000 39.53900
H  28.22900 65.29000 40.51400
H  28.44000 64.12700 41.88100
H  27.05100 63.98800 40.77300
H  24.65700 60.40600 38.74000
H  24.65200 60.00900 40.49800
H  23.87100 58.93900 39.25500
H  25.92100 55.14100 36.74800
H  24.55700 51.84400 39.50400
H  24.29600 51.18800 37.91300
H  23.19700 52.37600 38.50500

