158

Mg 34.48500 3.31700 30.14500
C  32.20900 3.78800 32.69500
C  36.99700 2.97800 32.51000
C  36.70100 2.60100 27.69100
C  31.96300 3.73100 27.66500
N  34.49500 3.28300 32.37400
C  33.44900 3.51900 33.20000
C  33.88900 3.27800 34.62200
C  35.45400 3.52400 34.50800
C  35.74300 3.18400 33.06800
C  36.09800 4.85100 34.88400
C  33.25400 1.98000 35.14800
C  32.86000 1.95300 36.59100
H  33.33400 3.00500 37.57400
N  36.61900 3.00700 30.07300
C  37.47900 2.88000 31.13700
C  38.87100 2.70500 30.68700
C  38.70400 2.39300 29.30500
C  37.25600 2.65900 28.93900
C  40.09800 2.50700 31.68400
C  39.78900 1.90500 28.36600
O  39.60300 1.51200 27.21000
C  41.18900 1.71100 28.91900
N  34.33900 3.32600 27.92900
C  35.43500 2.98200 27.20900
C  35.11800 2.84400 25.66100
C  33.54900 2.98500 25.68300
C  33.23500 3.45600 27.14000
C  35.91200 3.80900 24.74800
C  32.82900 1.72100 25.24700
C  32.24300 1.70800 23.80600
N  32.55600 3.77300 30.07000
C  31.63500 3.88600 29.06400
C  30.27800 4.13100 29.64500
C  30.50700 4.10700 31.06900
C  31.85500 3.90900 31.29100
C  29.07500 4.36000 28.88800
C  29.90100 4.18600 32.27900
O  28.76500 4.36500 32.58300
C  30.98800 4.16100 33.35400
C  31.12000 5.46200 33.97400
O  31.51100 6.48100 33.40800
O  30.82700 5.30900 35.33000
C  30.95000 6.57900 36.10500
H  37.80400 2.92000 33.24300
H  37.37700 2.35300 26.87000
H  31.16500 3.77000 26.92100
H  33.40300 4.06100 35.20300
H  35.85200 2.78700 35.20500
H  36.74900 4.58000 35.71600
H  35.33600 5.55500 35.21900
H  36.75700 5.21800 34.09700
H  34.13100 1.33400 35.11200
H  32.55800 1.52000 34.44700
H  33.28200 1.00500 36.92500
H  31.79300 1.84700 36.78500
H  39.76400 2.62100 32.71500
H  40.87800 3.26600 31.61500
H  40.57000 1.52800 31.60100
H  41.82600 1.68900 28.03600
H  41.26600 0.78700 29.49200
H  41.44700 2.53500 29.58500
H  35.38000 1.80000 25.49100
H  33.33100 3.85700 25.06700
H  35.28500 4.33100 24.02500
H  36.64700 3.28000 24.14000
H  36.40000 4.55500 25.37500
H  31.98500 1.55000 25.91600
H  33.42200 0.80800 25.19300
H  31.26700 1.22300 23.84100
H  32.92200 1.12100 23.18700
H  32.22900 2.66300 23.28100
H  29.10800 3.79200 27.95800
H  28.71800 5.37300 28.70000
H  28.27300 3.87800 29.44600
H  30.85200 3.36300 34.08400
H  30.12200 7.24600 35.86300
H  31.86000 7.12100 35.84800
H  31.03200 6.42000 37.18000
Mg -4.89100 24.97700 25.51900
C  -3.30100 26.00900 28.41500
C  -7.11000 23.16100 27.37800
C  -5.95700 23.56100 22.66100
C  -2.24200 26.48600 23.59600
N  -5.06600 24.57200 27.71000
C  -4.44500 25.26400 28.72700
C  -5.07900 24.96100 30.10600
C  -6.23700 23.92200 29.73700
C  -6.19100 23.89400 28.17300
C  -5.98400 22.48400 30.40100
C  -5.68600 26.27500 30.72600
C  -5.32200 26.66400 32.10300
H  -4.89600 25.51300 33.09300
N  -6.32200 23.53500 25.07600
C  -7.16800 22.92400 25.99900
C  -8.14300 22.12200 25.31800
C  -7.82800 22.17700 23.95500
C  -6.66700 23.16400 23.82000
C  -9.22300 21.34200 26.02600
C  -8.50500 21.45000 22.81600
O  -8.05100 21.57200 21.66300
C  -9.70800 20.65400 23.03700
N  -4.25100 25.10400 23.44900
C  -4.84200 24.40700 22.46100
C  -4.36700 24.77000 21.03700
C  -3.21700 25.80100 21.35000
C  -3.25500 25.83900 22.87300
C  -3.90500 23.51500 20.18400
C  -3.37000 27.22300 20.74800
C  -2.34800 27.66800 19.74200
N  -3.15700 26.05800 25.87600
C  -2.24400 26.67100 25.00300
C  -1.31100 27.43500 25.76600
C  -1.68500 27.20200 27.09500
C  -2.74600 26.28600 27.11300
C  -0.36100 28.50500 25.16000
C  -1.38300 27.55500 28.45500
O  -0.59900 28.37000 28.84400
C  -2.37300 26.74000 29.36700
C  -1.58200 25.92400 30.29000
O  -1.08400 24.84400 29.95400
O  -1.29100 26.61500 31.39100
C  -0.46600 25.99400 32.37800
H  -7.91900 22.66700 27.91900
H  -6.20700 23.17700 21.67000
H  -1.31800 26.89800 23.18500
H  -4.38200 24.54000 30.83100
H  -7.13400 24.39500 30.13600
H  -6.06000 21.65500 29.69700
H  -6.66000 22.39800 31.25200
H  -4.96800 22.35900 30.77500
H  -6.77000 26.15900 30.70800
H  -5.50800 27.10400 30.04100
H  -6.27000 26.97600 32.53900
H  -4.66100 27.52900 32.16500
H  -10.22600 21.61800 25.70100
H  -9.39600 21.54900 27.08200
H  -9.02400 20.28800 25.83300
H  -9.34400 19.85100 23.67800
H  -10.12900 20.32600 22.08700
H  -10.57300 21.17300 23.45200
H  -5.27400 25.24300 20.66000
H  -2.24900 25.37500 21.08500
H  -4.37600 23.64900 19.21000
H  -4.19400 22.59800 20.69700
H  -2.81700 23.52200 20.11700
H  -3.36700 27.96600 21.54500
H  -4.28000 27.19800 20.14900
H  -2.80200 27.84600 18.76700
H  -1.58100 26.91200 19.57700
H  -1.88900 28.58100 20.12200
H  -0.14300 29.20500 25.96700
H  -0.78500 28.93300 24.25200
H  0.61800 28.11500 24.88200
H  -3.01900 27.40800 29.93700
H  0.59900 26.04900 32.14800
H  -0.83300 24.97900 32.52800
H  -0.66300 26.51200 33.31600

