158

Mg -1.96100 17.63100 27.65700
C  -2.69600 15.32200 30.23600
C  -2.35600 20.18800 29.75800
C  -1.51600 19.82300 24.94400
C  -1.72200 14.89900 25.34500
N  -2.51100 17.61300 29.72900
C  -2.71200 16.63800 30.66600
C  -2.99700 17.18900 32.13700
C  -2.78900 18.71600 31.87500
C  -2.62800 18.86000 30.36000
C  -3.80000 19.70700 32.49300
C  -1.99000 16.72400 33.24500
C  -1.76900 17.52000 34.47900
H  -1.87900 16.87900 35.86700
N  -1.91100 19.69700 27.34500
C  -2.02800 20.54300 28.40800
C  -1.77700 21.86500 28.01100
C  -1.54000 21.81200 26.57900
C  -1.68400 20.39000 26.17600
C  -1.82400 23.03600 28.93500
C  -1.27700 22.96600 25.54700
O  -1.34100 22.79400 24.35300
C  -0.94400 24.37200 25.97000
N  -1.97900 17.41200 25.36400
C  -1.65400 18.46700 24.59200
C  -1.37000 17.96000 23.12300
C  -1.26300 16.43600 23.30200
C  -1.76300 16.17600 24.78000
C  -2.32300 18.45300 22.00500
C  0.20100 16.00900 23.02200
C  1.23800 16.19000 24.18500
N  -2.24200 15.56200 27.67600
C  -2.02700 14.52000 26.70200
C  -2.17600 13.19900 27.29500
C  -2.50500 13.53300 28.62600
C  -2.45500 14.91100 28.81700
C  -1.91300 11.80000 26.73900
C  -2.74000 12.91800 29.89500
O  -2.77000 11.76200 30.22400
C  -2.82800 14.02200 30.99600
C  -1.69400 13.82600 31.96300
O  -0.52500 14.27600 31.85100
O  -2.16200 13.04600 32.98300
C  -1.19800 12.76600 34.03400
H  -2.50700 20.92000 30.55400
H  -1.24000 20.40400 24.06100
H  -1.28400 14.11800 24.72000
H  -3.99900 16.89400 32.44700
H  -1.75600 18.98800 32.08900
H  -4.34900 19.17400 33.26900
H  -4.41900 20.07000 31.67200
H  -3.30100 20.57000 32.93300
H  -0.95500 16.74200 32.90400
H  -2.28800 15.73300 33.58500
H  -2.43800 18.38100 34.46300
H  -0.75700 17.91300 34.38400
H  -2.89200 23.22800 29.03400
H  -1.26700 23.87700 28.52400
H  -1.37300 22.64300 29.84700
H  -0.89700 25.03700 25.10700
H  0.02900 24.13600 26.40000
H  -1.60300 24.79600 26.72700
H  -0.37600 18.36200 22.92600
H  -1.78400 15.87000 22.52900
H  -2.84000 19.38200 22.24700
H  -3.11000 17.71100 21.87300
H  -1.76800 18.60000 21.07900
H  0.54100 16.48700 22.10400
H  0.11900 14.99200 22.63800
H  0.80100 16.63800 25.07700
H  2.06600 16.83800 23.89800
H  1.75300 15.29100 24.52200
H  -1.53000 11.23200 27.58700
H  -1.18400 11.85000 25.93000
H  -2.82200 11.38800 26.30300
H  -3.73100 13.90400 31.59400
H  -0.66700 11.82600 33.88300
H  -1.86200 12.57100 34.87600
H  -0.56700 13.62100 34.27800
Mg -2.08000 34.44000 26.90200
C  -3.73200 32.62600 29.41100
C  -0.67900 36.35300 29.44600
C  -0.60500 36.12900 24.56200
C  -3.67000 32.64200 24.47200
N  -2.19200 34.45300 29.13500
C  -2.86400 33.55800 29.96200
C  -2.62300 33.85700 31.45900
C  -1.85800 35.23200 31.37200
C  -1.59100 35.38500 29.88400
C  -2.56200 36.40500 32.05200
C  -1.89900 32.75100 32.26300
C  -2.58900 32.27600 33.57700
H  -1.62600 32.22700 34.78900
N  -0.81500 36.06500 27.04000
C  -0.30600 36.67000 28.12700
C  0.70000 37.62700 27.74200
C  0.64700 37.66100 26.33000
C  -0.28600 36.58100 25.92500
C  1.55200 38.46100 28.71100
C  1.41700 38.47900 25.30200
O  1.19400 38.51300 24.13300
C  2.53400 39.36100 25.80500
N  -2.23300 34.51200 24.70000
C  -1.46100 35.26900 23.97900
C  -1.73200 35.11400 22.48600
C  -2.77600 34.00000 22.46100
C  -2.88800 33.67900 23.96000
C  -2.16700 36.46600 21.83200
C  -2.37200 32.93800 21.43300
C  -1.58900 31.67600 21.98100
N  -3.38000 32.85500 26.82800
C  -3.97300 32.25400 25.75100
C  -4.84100 31.24500 26.21900
C  -4.83700 31.30100 27.58300
C  -3.94000 32.29600 27.98400
C  -5.57100 30.30500 25.40200
C  -5.30300 30.73400 28.87500
O  -6.10800 29.84400 29.05100
C  -4.64300 31.55300 30.03600
C  -5.72800 32.11000 30.91100
O  -6.67800 32.68400 30.47700
O  -5.50800 31.84400 32.20600
C  -6.73800 31.96500 33.05100
H  -0.10700 36.92000 30.18300
H  0.09600 36.51300 23.81800
H  -4.15400 32.11200 23.65000
H  -3.65900 33.98500 31.77400
H  -0.93400 35.14300 31.94200
H  -3.02000 36.90900 31.20100
H  -1.87200 37.11800 32.50200
H  -3.40300 36.06200 32.65600
H  -0.87800 33.05500 32.49000
H  -1.91300 31.85000 31.65000
H  -2.89600 31.23500 33.47600
H  -3.55200 32.72500 33.82300
H  2.61800 38.29600 28.55200
H  1.43500 38.27000 29.77700
H  1.21000 39.49400 28.64700
H  2.71600 40.11300 25.03700
H  3.40700 38.77300 26.08900
H  2.11600 39.90100 26.65500
H  -0.80800 34.72000 22.06000
H  -3.73600 34.39700 22.13200
H  -1.78200 37.30000 22.41900
H  -3.21800 36.60800 21.58200
H  -1.61600 36.59400 20.90100
H  -1.72900 33.36500 20.66300
H  -3.34100 32.67200 21.01000
H  -2.21900 30.78700 21.96000
H  -1.22400 31.95600 22.96900
H  -0.70000 31.53300 21.36800
H  -5.85400 30.71100 24.43100
H  -6.53600 30.17000 25.89100
H  -4.96000 29.41100 25.27600
H  -3.99800 30.88800 30.60900
H  -6.71000 32.49100 34.00600
H  -7.13300 30.96500 33.23300
H  -7.64600 32.37200 32.60700

