158

Mg 17.70600 -1.51300 26.84900
C  16.48100 0.50500 29.31300
C  19.61500 -3.31900 29.17900
C  18.99100 -3.21800 24.31700
C  16.21200 0.73600 24.30100
N  18.16400 -1.28700 28.90300
C  17.35700 -0.53800 29.76700
C  17.72000 -0.75300 31.20900
C  18.75700 -1.82200 31.12700
C  18.90300 -2.20400 29.68400
C  20.16500 -1.52000 31.73300
C  16.55000 -1.07500 32.06500
C  16.50900 -0.39100 33.52800
H  17.88700 0.12500 34.17200
N  18.98200 -3.18400 26.73500
C  19.70300 -3.79400 27.79600
C  20.42500 -4.91500 27.21500
C  20.15300 -4.93300 25.80200
C  19.24900 -3.80900 25.59600
C  21.27100 -5.80400 28.14000
C  20.67100 -5.88400 24.70700
O  20.44500 -5.75600 23.49200
C  21.61500 -6.98500 25.06700
N  17.39500 -1.40500 24.52800
C  18.20400 -2.17900 23.77600
C  18.21300 -1.77200 22.23200
C  17.31500 -0.55100 22.30800
C  16.88200 -0.36700 23.79200
C  19.66700 -1.49900 21.69900
C  16.14000 -0.57100 21.27700
C  14.70800 -0.94300 21.69400
N  16.51400 0.23600 26.74900
C  15.99400 1.00100 25.71700
C  15.22800 2.10300 26.30500
C  15.46400 1.99700 27.71700
C  16.16800 0.81100 27.96800
C  14.41300 3.13100 25.58600
C  15.28700 2.60800 28.95600
O  14.80300 3.64000 29.35300
C  15.82100 1.64300 30.08000
C  16.80600 2.52200 30.73900
O  17.90700 2.80300 30.31700
O  16.28600 2.95800 31.99000
C  17.14900 3.70700 32.86500
H  20.21300 -3.83200 29.93500
H  19.58800 -3.70600 23.54400
H  15.87900 1.43600 23.53200
H  18.12600 0.18400 31.59000
H  18.39200 -2.72300 31.61900
H  20.27100 -0.48300 32.05000
H  21.00200 -1.78900 31.08900
H  20.34500 -2.22700 32.54400
H  16.34300 -2.13400 32.21800
H  15.72400 -0.64600 31.49800
H  16.23700 -1.16800 34.24200
H  15.69300 0.33100 33.54600
H  21.55600 -5.22800 29.02000
H  22.14500 -6.20700 27.62800
H  20.64600 -6.64200 28.44800
H  21.21200 -7.80800 25.65700
H  22.41500 -6.58400 25.69000
H  21.90200 -7.41800 24.10900
H  17.55600 -2.48300 21.73200
H  17.88500 0.32200 21.98900
H  20.42300 -1.61900 22.47400
H  19.74800 -0.44900 21.41700
H  19.83500 -2.22000 20.89900
H  16.50800 -1.09300 20.39400
H  15.94500 0.43700 20.91100
H  14.36300 -0.15900 22.37000
H  14.66500 -1.88300 22.24400
H  14.19500 -1.02800 20.73600
H  14.00300 2.71700 24.66500
H  15.06200 3.93400 25.23500
H  13.64300 3.52200 26.25000
H  15.11700 1.26300 30.82000
H  18.19400 3.64800 32.56200
H  16.98000 3.36500 33.88500
H  16.94800 4.77400 32.76400
Mg 41.24400 40.32200 26.93700
C  40.51700 42.48600 29.49500
C  42.32500 37.98400 29.37100
C  42.26200 38.22100 24.40300
C  40.92900 42.83300 24.65100
N  41.53400 40.31000 29.33300
C  40.97100 41.25900 30.10800
C  40.98600 40.77200 31.55700
C  41.73800 39.36600 31.55400
C  41.86200 39.20500 30.04100
C  43.00100 39.10400 32.54800
C  39.54300 40.92600 32.30800
C  39.41300 40.14300 33.61800
H  38.92100 40.84300 34.90700
N  42.16300 38.38500 26.89500
C  42.55500 37.57400 28.01300
C  43.00000 36.31200 27.51400
C  42.96100 36.36200 26.07800
C  42.34700 37.65700 25.72900
C  43.45100 35.17800 28.44700
C  43.42600 35.26100 25.01700
O  43.34700 35.48100 23.82600
C  43.91200 33.93500 25.50300
N  41.68800 40.53300 24.74900
C  41.91200 39.44800 23.94100
C  41.82600 39.84600 22.48300
C  41.19700 41.26400 22.66000
C  41.23600 41.59400 24.06500
C  43.20100 39.76000 21.81500
C  39.72200 41.34100 22.21700
C  38.70100 40.30700 22.63800
N  40.79100 42.12200 26.96400
C  40.74800 43.12400 25.98800
C  40.61300 44.36300 26.53800
C  40.33200 44.13700 27.93400
C  40.50500 42.79800 28.10500
C  40.77800 45.57000 25.73200
C  39.95000 44.82000 29.14500
O  39.76100 45.98500 29.30200
C  40.05000 43.77600 30.31200
C  41.06400 44.20700 31.41500
O  42.23100 44.29400 31.25400
O  40.42800 44.52000 32.58300
C  41.22300 45.16800 33.55600
H  42.38900 37.08200 29.98400
H  42.33200 37.44400 23.63900
H  40.72800 43.64000 23.94300
H  41.66500 41.40500 32.12700
H  41.06600 38.56200 31.85500
H  43.94700 39.37200 32.07600
H  43.14200 38.06400 32.84000
H  42.80500 39.66300 33.46300
H  38.84200 40.52700 31.57400
H  39.29800 41.98200 32.42400
H  40.44300 40.02000 33.95200
H  39.02800 39.13800 33.43900
H  42.72500 34.36400 28.43500
H  43.50900 35.37700 29.51700
H  44.43500 34.80000 28.17300
H  43.10500 33.53500 26.11600
H  44.78000 34.05000 26.15300
H  44.18800 33.31000 24.65300
H  41.19900 39.21400 21.85400
H  41.85600 41.93100 22.10400
H  43.11600 38.80700 21.29400
H  44.06900 39.67900 22.47000
H  43.15100 40.43100 20.95800
H  39.59100 41.35800 21.13500
H  39.54700 42.38500 22.47600
H  38.99600 39.52800 23.34100
H  38.46100 39.80000 21.70300
H  37.73200 40.73300 22.90100
H  40.37700 46.40300 26.30900
H  40.32500 45.54300 24.74100
H  41.84200 45.72500 25.55300
H  39.02800 43.55800 30.62400
H  41.63400 46.11300 33.20200
H  42.07500 44.58700 33.90900
H  40.68600 45.53300 34.43100

