158

Mg -1.98300 17.14900 27.32100
C  -2.58700 14.98900 29.94100
C  -2.54200 19.80600 29.37900
C  -1.98700 19.19900 24.56400
C  -1.94600 14.37300 25.07500
N  -2.53300 17.25800 29.42300
C  -2.67700 16.27800 30.32900
C  -2.99100 16.84400 31.73700
C  -3.11800 18.40200 31.41900
C  -2.69700 18.56000 29.94400
C  -4.45200 19.07600 31.79900
C  -2.11100 16.41400 32.96900
C  -2.71800 15.77900 34.27000
H  -1.90100 15.78100 35.51400
N  -2.00600 19.16900 27.00000
C  -2.23500 20.09300 27.99300
C  -2.16900 21.44800 27.45000
C  -1.89800 21.34300 26.04400
C  -1.97700 19.84700 25.81000
C  -2.36900 22.70700 28.26800
C  -1.66100 22.39800 25.02100
O  -1.55800 22.25600 23.82700
C  -1.36800 23.83200 25.57000
N  -2.17800 16.85500 25.11500
C  -2.05000 17.83100 24.20500
C  -1.73800 17.41500 22.80100
C  -1.53700 15.89100 23.01100
C  -1.97300 15.67000 24.48600
C  -2.82500 17.83200 21.73800
C  -0.05800 15.48300 22.68300
C  0.93100 15.11600 23.75100
N  -2.26900 15.16900 27.40100
C  -2.15700 14.15900 26.43900
C  -2.26900 12.87000 27.09100
C  -2.45700 13.16900 28.43700
C  -2.52400 14.60000 28.57600
C  -2.13400 11.53900 26.48200
C  -2.62100 12.51900 29.68800
O  -2.61200 11.32700 29.99300
C  -2.68000 13.66400 30.69600
C  -1.64700 13.35700 31.65900
O  -0.40600 13.53100 31.45400
O  -2.14900 12.73200 32.75100
C  -1.11900 12.16600 33.63500
H  -2.65100 20.66900 30.04000
H  -1.96600 19.89900 23.72700
H  -1.68000 13.55700 24.39900
H  -3.96500 16.38700 31.91200
H  -2.36300 18.94000 31.99200
H  -4.32500 19.79300 32.61000
H  -5.18800 18.29100 31.97100
H  -4.85300 19.55400 30.90500
H  -1.71000 17.31100 33.44100
H  -1.15800 15.98100 32.66700
H  -2.92600 14.75300 33.96800
H  -3.71000 16.17600 34.48600
H  -2.69700 22.48700 29.28400
H  -3.15500 23.22800 27.72100
H  -1.49100 23.34600 28.35600
H  -0.93400 24.43200 24.77000
H  -0.59900 23.63600 26.31700
H  -2.28000 24.27300 25.97200
H  -0.86500 17.98800 22.48700
H  -2.16000 15.26100 22.37600
H  -3.20100 16.95700 21.20900
H  -2.25900 18.46600 21.05600
H  -3.51300 18.52400 22.22600
H  0.41700 16.26000 22.08300
H  -0.18000 14.64700 21.99400
H  0.46700 14.71300 24.65100
H  1.70600 15.84700 23.98300
H  1.39600 14.27700 23.23200
H  -1.11100 11.16700 26.44400
H  -2.58500 11.53800 25.49000
H  -2.76100 10.91300 27.11600
H  -3.63300 13.47500 31.19100
H  -0.79500 12.97700 34.28800
H  -0.29000 11.76300 33.05400
H  -1.63800 11.45300 34.27500
Mg 53.76800 25.07700 43.71100
C  51.05000 27.15100 42.95200
C  52.01000 22.46200 42.68100
C  56.69400 23.42000 43.53000
C  55.51000 28.08400 44.49000
N  51.77300 24.91400 42.75100
C  50.81400 25.84900 42.65000
C  49.42500 25.22600 42.11900
C  49.76200 23.68300 42.39200
C  51.32100 23.68500 42.67100
C  48.98400 23.07300 43.61600
C  49.08400 25.33700 40.60400
C  50.24200 25.54800 39.68000
H  49.90500 25.90200 38.18900
N  54.27600 23.15300 43.19900
C  53.34500 22.18700 42.93800
C  54.05700 20.92700 42.77200
C  55.46100 21.18100 42.87000
C  55.57400 22.67100 43.22000
C  53.36500 19.70200 42.52500
C  56.44500 20.16700 42.70400
O  56.11500 19.00000 42.69500
C  57.95600 20.47000 42.63300
N  55.79800 25.67600 43.84800
C  56.87200 24.76400 43.81200
C  58.18000 25.43200 44.25100
C  57.73600 26.91100 44.38900
C  56.26800 26.92200 44.18500
C  58.86100 24.80600 45.53200
C  58.41900 27.91300 43.37300
C  59.13200 29.11600 43.92800
N  53.43900 27.16400 43.83000
C  54.18000 28.20900 44.23600
C  53.37200 29.38400 44.40100
C  52.16700 29.05200 43.77900
C  52.24800 27.68700 43.45500
C  53.84800 30.63300 45.06400
C  50.85600 29.55300 43.38500
O  50.40500 30.65700 43.51600
C  50.09800 28.28200 42.83900
C  49.56700 28.57200 41.46300
O  50.23500 29.00100 40.57200
O  48.18800 28.51300 41.43800
C  47.51900 29.19700 40.32000
H  51.37300 21.61000 42.43500
H  57.63900 22.88300 43.42900
H  56.02200 28.93600 44.94100
H  48.60200 25.60700 42.72300
H  49.64300 23.11900 41.46700
H  49.72100 22.64500 44.29600
H  48.44200 22.19700 43.26100
H  48.36800 23.83500 44.09300
H  48.32000 26.09900 40.45500
H  48.59100 24.38600 40.40000
H  50.57300 24.52400 39.50300
H  51.18700 25.97100 40.02200
H  53.34900 19.11400 43.44300
H  53.85700 19.25100 41.66300
H  52.32300 19.79100 42.21900
H  58.49000 19.56800 42.33100
H  58.18800 20.76900 43.65500
H  58.15700 21.25300 41.90300
H  58.80600 25.06200 43.43900
H  58.03500 27.26400 45.37600
H  59.54800 23.99600 45.28900
H  58.06800 24.43700 46.18300
H  59.47500 25.54400 46.04800
H  57.67800 28.21500 42.63300
H  59.14900 27.40600 42.74100
H  58.71800 29.46200 44.87500
H  59.03100 29.87800 43.15600
H  60.17600 28.88700 44.14600
H  53.28900 31.54200 44.84100
H  54.79300 30.88800 44.58500
H  54.04500 30.49800 46.12700
H  49.24900 28.18200 43.51600
H  46.45700 29.11400 40.55100
H  47.58700 28.59700 39.41300
H  47.84200 30.21900 40.11800

