158

Mg 54.21400 24.79600 45.46000
C  51.52700 26.96900 44.66700
C  52.03900 22.10800 44.63400
C  56.76100 22.83000 45.54900
C  56.07300 27.49300 46.18100
N  52.08300 24.70600 44.61800
C  51.17700 25.64300 44.45000
C  49.86200 25.10200 43.84600
C  49.94300 23.60100 44.37100
C  51.43800 23.46500 44.56100
C  49.05800 23.36400 45.68400
C  49.72200 25.11800 42.33600
C  48.33700 25.03300 41.73400
H  48.13900 24.31500 40.38700
N  54.40800 22.73500 45.08200
C  53.41300 21.83300 44.85000
C  53.95100 20.53700 44.89500
C  55.36500 20.62600 45.12000
C  55.63600 22.08700 45.30800
C  53.09600 19.27400 44.75900
C  56.27400 19.46700 45.08300
O  55.77800 18.32100 45.05600
C  57.70900 19.62600 45.12000
N  56.15200 25.13200 45.77400
C  57.04900 24.14700 45.75700
C  58.47900 24.65500 46.00300
C  58.28100 26.19600 46.31100
C  56.73500 26.32900 46.10900
C  59.26900 23.98300 47.09400
C  59.06400 27.17200 45.37800
C  59.66100 28.38600 46.15100
N  53.90000 26.81800 45.47000
C  54.77500 27.80800 45.83600
C  54.05200 29.11000 45.83000
C  52.81900 28.75400 45.34600
C  52.76800 27.39200 45.09000
C  54.47900 30.43200 46.39900
C  51.60500 29.43200 45.09900
O  51.32300 30.58900 45.11800
C  50.67800 28.23700 44.61000
C  50.16100 28.57000 43.26700
O  50.82000 28.77700 42.22900
O  48.78600 28.71000 43.26800
C  48.22800 28.93500 41.93100
H  51.23400 21.37100 44.62300
H  57.65000 22.20100 45.63400
H  56.65200 28.38400 46.43000
H  48.93500 25.56900 44.17800
H  49.50200 22.91500 43.64800
H  49.72100 23.16000 46.52400
H  48.32900 22.56000 45.58300
H  48.60000 24.29200 46.02800
H  50.30200 24.23500 42.06600
H  50.36000 25.88900 41.90500
H  48.18500 26.09000 41.51400
H  47.65500 24.64700 42.49200
H  53.27300 18.51500 45.52200
H  53.20200 18.90500 43.73900
H  52.11000 19.54000 45.13900
H  58.06300 18.65900 44.76200
H  58.04200 19.87200 46.12800
H  58.00700 20.34900 44.36100
H  59.12900 24.50500 45.14200
H  58.61400 26.34000 47.33900
H  59.52100 24.60600 47.95300
H  60.06600 23.35700 46.69200
H  58.65900 23.18800 47.52200
H  58.49800 27.50600 44.50900
H  59.91200 26.63700 44.95100
H  60.71900 28.29400 46.39600
H  59.09400 28.62800 47.04900
H  59.54800 29.29000 45.55200
H  54.25100 30.40000 47.46400
H  54.01200 31.32100 45.97300
H  55.56000 30.47900 46.27200
H  49.86100 28.12600 45.32400
H  47.38800 28.24100 41.88600
H  48.81400 28.86900 41.01500
H  47.88400 29.97000 41.94100
Mg 30.74400 57.70900 39.77700
C  28.25700 55.49200 38.55100
C  33.08700 55.56600 38.70500
C  33.09200 60.15800 39.98500
C  28.31900 60.00100 40.31000
N  30.64200 55.80600 38.71900
C  29.54800 55.09900 38.25500
C  30.01600 53.79500 37.57400
C  31.53600 53.74900 37.84900
C  31.81100 55.13100 38.44300
C  31.87400 52.58300 38.85300
C  29.52600 53.63300 36.06400
C  28.85100 54.81300 35.33300
H  28.98800 54.90400 33.80400
N  32.82600 57.75500 39.62300
C  33.67800 56.74400 39.15300
C  35.10000 57.19700 39.10400
C  35.05000 58.57900 39.42900
C  33.59800 58.85000 39.78600
C  36.31100 56.34300 38.73800
C  36.25400 59.48100 39.31500
O  37.36100 59.07900 39.05000
C  36.24000 60.98000 39.58100
N  30.74400 59.82500 39.90800
C  31.78700 60.63600 40.07300
C  31.44800 62.03600 40.57000
C  29.86600 61.90400 40.84400
C  29.59500 60.47000 40.33900
C  32.29400 62.66200 41.75700
C  28.96700 62.97900 40.21300
C  27.76700 63.43200 41.12300
N  28.63900 57.76700 39.54900
C  27.84800 58.80700 39.81100
C  26.47200 58.38400 39.55500
C  26.59500 57.02600 39.11200
C  27.92800 56.77000 39.07800
C  25.23700 59.26200 39.55700
C  25.91900 55.81100 38.61500
O  24.73500 55.52500 38.67200
C  26.95000 54.78200 38.28000
C  26.69600 53.53600 39.04100
O  26.98200 53.36100 40.16600
O  26.03000 52.59500 38.31100
C  25.52500 51.38900 39.08100
H  33.87600 54.90400 38.34200
H  33.92200 60.85800 40.10100
H  27.51100 60.60500 40.72700
H  29.43900 53.02800 38.08900
H  32.04700 53.55400 36.90700
H  31.05600 51.86400 38.81400
H  31.90200 53.09600 39.81400
H  32.83800 52.15800 38.56900
H  28.88400 52.75800 36.16900
H  30.30400 53.16600 35.46100
H  29.29300 55.75500 35.65900
H  27.77400 54.85000 35.50100
H  36.49500 56.43800 37.66800
H  36.09900 55.28900 38.91900
H  37.21100 56.61300 39.28900
H  37.16900 61.33300 39.13300
H  36.25700 61.12900 40.66100
H  35.43800 61.59900 39.17900
H  31.52500 62.63800 39.66500
H  29.73300 61.71100 41.90800
H  33.13700 63.29300 41.47400
H  32.81000 61.83900 42.25300
H  31.73300 63.13700 42.56100
H  28.59200 62.71700 39.22400
H  29.56000 63.89400 40.19900
H  27.76200 64.52100 41.16800
H  27.79800 63.04500 42.14200
H  26.83200 63.27100 40.58700
H  25.43900 60.11400 38.90900
H  24.94300 59.62100 40.54300
H  24.48500 58.67000 39.03500
H  26.55400 54.56500 37.28800
H  24.56900 51.00600 38.72500
H  25.47200 51.65100 40.13800
H  26.29100 50.63700 38.89100

