158

Mg 26.01900 50.75200 27.08300
C  23.62300 51.99400 29.28600
C  28.05600 49.98800 29.54100
C  28.34200 49.93200 24.74300
C  23.96900 52.16000 24.44600
N  25.88400 51.09400 29.18500
C  24.79100 51.40800 29.93600
C  25.01700 51.07300 31.44900
C  26.46300 50.71800 31.46000
C  26.87900 50.61600 29.98400
C  27.36100 51.72400 32.23200
C  24.02800 49.95900 32.02000
C  23.52800 50.29000 33.46700
H  24.40400 51.14800 34.41700
N  27.87100 50.01700 27.10200
C  28.58000 49.73100 28.27500
C  29.76600 49.06000 27.94700
C  29.91300 49.17200 26.50100
C  28.68800 49.75000 26.06200
C  30.70200 48.51800 28.99500
C  31.11000 48.85500 25.61000
O  31.13800 49.19400 24.40200
C  32.47500 48.33900 26.20500
N  26.10900 51.02800 24.89200
C  27.13800 50.45500 24.15200
C  26.80700 50.59000 22.65000
C  25.41600 51.31600 22.61300
C  25.15500 51.55300 24.08200
C  27.90200 51.38100 21.87200
C  24.17400 50.64400 21.94300
C  23.94200 50.98500 20.46400
N  24.18000 51.92400 26.82800
C  23.44200 52.27200 25.74900
C  22.22700 52.92300 26.13600
C  22.23300 52.86600 27.55200
C  23.45600 52.26000 27.93600
C  21.20200 53.45600 25.17300
C  21.45000 53.09700 28.74100
O  20.34300 53.60000 28.82900
C  22.29900 52.52600 29.87300
C  22.46700 53.61600 30.85300
O  23.16200 54.64700 30.74700
O  21.62800 53.38300 31.85300
C  21.73100 54.49600 32.91700
H  28.61700 49.75600 30.44900
H  28.96500 49.49400 23.96000
H  23.58500 52.72900 23.59700
H  24.89400 52.07600 31.85700
H  26.61500 49.73600 31.90900
H  27.63500 51.50900 33.26500
H  26.88900 52.70400 32.16100
H  28.27700 51.77600 31.64300
H  24.67300 49.09600 32.18700
H  23.16600 49.76100 31.38200
H  23.37400 49.32600 33.95200
H  22.58000 50.82800 33.47500
H  30.46900 48.94000 29.97300
H  31.74800 48.78800 28.84800
H  30.64600 47.43100 29.04300
H  32.18800 47.34700 26.55300
H  32.80700 48.97400 27.02600
H  33.28400 48.19400 25.48900
H  26.78600 49.56700 22.27500
H  25.63200 52.30900 22.21700
H  28.04400 50.95200 20.88000
H  28.79900 51.15800 22.45000
H  27.77900 52.45300 21.71600
H  23.28100 50.73300 22.56200
H  24.49300 49.60200 21.95300
H  24.71700 51.65600 20.09500
H  22.94700 51.38700 20.27100
H  24.00800 50.05800 19.89400
H  21.39800 54.47100 24.82600
H  20.21200 53.51200 25.62700
H  21.13100 52.84100 24.27700
H  21.61700 51.72600 30.15900
H  21.21900 55.39000 32.55900
H  22.74100 54.67400 33.28700
H  21.12100 54.18300 33.76400
Mg -1.40400 34.67000 26.76900
C  -2.91100 32.59300 29.23000
C  -0.36600 36.67900 29.32300
C  -0.58200 36.94500 24.52200
C  -2.97300 32.70300 24.36400
N  -1.66000 34.65900 29.00600
C  -2.27400 33.71200 29.82100
C  -1.98100 34.00800 31.32700
C  -1.24600 35.40200 31.29800
C  -1.16600 35.67400 29.77300
C  -1.98900 36.46600 32.16400
C  -1.25800 32.85000 32.04900
C  -2.01200 32.21200 33.22000
H  -1.16900 31.71800 34.36200
N  -0.55700 36.54600 26.91600
C  -0.09400 37.12800 28.02000
C  0.60800 38.35500 27.68000
C  0.59300 38.44400 26.28500
C  -0.21700 37.29500 25.82500
C  1.40700 39.16700 28.69600
C  1.23100 39.51500 25.37300
O  1.03000 39.53000 24.15500
C  2.14600 40.55400 25.99100
N  -2.02800 34.90300 24.79800
C  -1.47300 35.89300 24.07800
C  -1.75900 35.74000 22.57300
C  -2.25200 34.21400 22.51900
C  -2.39900 33.86600 24.00400
C  -2.77700 36.81100 21.94500
C  -1.40600 33.27900 21.70200
C  0.07100 33.15000 22.14300
N  -2.75500 33.00000 26.73800
C  -3.14900 32.29200 25.69400
C  -3.92300 31.17300 26.16800
C  -3.81100 31.17100 27.57300
C  -3.11200 32.35300 27.88600
C  -4.60900 30.18000 25.25500
C  -4.11500 30.50900 28.79500
O  -4.66800 29.45200 28.99300
C  -3.56400 31.38300 29.92200
C  -4.74100 31.63300 30.82700
O  -5.47600 32.63600 30.78300
O  -4.79600 30.64400 31.71700
C  -5.69500 30.80700 32.79900
H  0.01700 37.19400 30.20700
H  -0.24100 37.64300 23.75500
H  -3.24600 32.11200 23.48800
H  -2.98400 34.21300 31.70200
H  -0.22300 35.34000 31.66800
H  -2.79800 36.99000 31.65600
H  -1.24000 37.13900 32.58200
H  -2.42500 36.01200 33.05400
H  -0.28500 33.24300 32.34600
H  -1.00000 32.00100 31.41700
H  -2.38000 31.31400 32.72300
H  -2.86200 32.78200 33.59400
H  0.91000 40.13600 28.74800
H  2.44200 39.33400 28.39800
H  1.33700 38.68100 29.66900
H  2.38600 41.38500 25.32700
H  3.05400 40.03100 26.29200
H  1.58300 41.06500 26.77200
H  -0.84100 35.91700 22.01200
H  -3.25600 34.16400 22.09800
H  -3.52400 36.57500 21.18700
H  -2.17700 37.50500 21.35700
H  -3.20700 37.34400 22.79200
H  -1.43500 33.60500 20.66200
H  -1.73100 32.26500 21.93800
H  0.65700 33.18100 21.22400
H  0.21200 32.24100 22.72800
H  0.40000 33.86500 22.89700
H  -4.46900 30.40100 24.19700
H  -5.67900 30.32200 25.40700
H  -4.19000 29.20400 25.49900
H  -2.80900 30.77700 30.42300
H  -6.71100 31.04500 32.48200
H  -5.39300 31.51700 33.56900
H  -5.71500 29.82800 33.27700

