158

Mg 47.36800 34.82700 27.48400
C  45.92700 32.89400 30.05200
C  47.79400 37.29300 29.71700
C  48.47300 36.68400 24.86600
C  46.29500 32.28900 25.24100
N  46.73000 35.14900 29.61700
C  46.26100 34.14000 30.50400
C  46.38600 34.63900 31.92000
C  46.59100 36.16400 31.73900
C  47.07000 36.23900 30.24900
C  45.33900 36.96700 32.01400
C  47.67400 33.99100 32.60000
C  47.62400 33.98900 34.08100
H  46.75100 34.97400 34.83000
N  48.15000 36.67400 27.32600
C  48.27700 37.55500 28.36900
C  48.98300 38.72100 27.93000
C  49.17900 38.62600 26.53300
C  48.64500 37.26400 26.18300
C  49.42600 39.80300 28.79300
C  49.74900 39.57600 25.56300
O  49.66300 39.35400 24.34200
C  50.32400 40.91300 26.06300
N  47.34500 34.52100 25.31900
C  47.93600 35.41500 24.50900
C  47.87600 34.90900 23.09000
C  47.42400 33.41100 23.20200
C  46.97900 33.36400 24.66800
C  47.05400 35.80800 22.13800
C  48.59100 32.40800 22.84600
C  49.67300 32.27400 23.95400
N  46.53900 32.95700 27.56400
C  46.14800 32.05900 26.59900
C  45.59200 30.85100 27.26200
C  45.54600 31.16400 28.62300
C  46.07400 32.48700 28.76300
C  45.00600 29.58400 26.61800
C  45.05500 30.66400 29.81900
O  44.51500 29.64800 30.20600
C  45.00400 31.86900 30.70500
C  45.23200 31.49900 32.09600
O  46.24200 31.04900 32.62200
O  44.03200 31.78000 32.77800
C  44.00100 31.21900 34.10100
H  48.13500 38.04900 30.42700
H  48.91100 37.26300 24.05100
H  46.01700 31.41800 24.64300
H  45.45600 34.31800 32.38800
H  47.36000 36.62100 32.36100
H  45.63800 37.77200 32.68500
H  44.51700 36.38900 32.43400
H  45.02700 37.41100 31.06900
H  48.53400 34.57000 32.26400
H  47.76400 32.96000 32.26000
H  48.59100 34.22700 34.52600
H  47.33700 33.00700 34.45600
H  49.34300 39.59500 29.86000
H  48.76300 40.61000 28.48000
H  50.49300 39.91800 28.60400
H  49.47200 41.32000 26.60800
H  50.45300 41.55500 25.19200
H  51.29400 40.90300 26.55900
H  48.86700 34.75300 22.66300
H  46.56200 33.07900 22.62300
H  47.61400 35.99600 21.22100
H  46.78700 36.77200 22.57200
H  46.10900 35.32800 21.88300
H  49.06000 32.79300 21.94100
H  48.27700 31.39100 22.61500
H  49.44600 31.53000 24.71800
H  49.87400 33.23100 24.43700
H  50.63700 32.13800 23.46300
H  45.13500 28.71800 27.26700
H  45.50600 29.30400 25.69100
H  43.98300 29.83600 26.33700
H  44.03300 32.31800 30.49700
H  43.01900 31.00900 34.52600
H  44.32200 32.06400 34.71100
H  44.74400 30.43300 34.24200
Mg -5.62300 24.81700 26.94500
C  -4.06900 26.30900 29.78900
C  -6.93500 22.46600 28.96100
C  -6.60600 23.16800 24.13800
C  -3.57500 26.88900 24.95400
N  -5.35500 24.36300 29.11000
C  -4.78900 25.14300 30.14700
C  -5.22600 24.66500 31.51700
C  -5.82000 23.28500 31.16000
C  -6.10300 23.36700 29.63600
C  -4.85000 22.15200 31.43500
C  -6.36200 25.68800 32.04800
C  -6.76300 25.51600 33.49900
H  -5.98700 24.64800 34.48400
N  -6.74400 23.18100 26.55600
C  -7.24000 22.34200 27.55500
C  -8.21000 21.40800 26.95600
C  -7.98500 21.48000 25.52800
C  -7.12900 22.61900 25.34900
C  -8.92000 20.44400 27.80900
C  -8.60700 20.61300 24.41600
O  -8.47100 20.86700 23.20400
C  -9.24800 19.35100 24.83700
N  -5.18700 25.07900 24.84100
C  -5.78800 24.29500 23.87900
C  -5.41200 24.66500 22.41900
C  -4.48300 25.95400 22.69100
C  -4.38600 25.97700 24.25400
C  -4.64200 23.52400 21.65200
C  -5.12100 27.18000 21.98700
C  -4.29900 27.84500 20.86200
N  -4.19100 26.34500 27.26600
C  -3.46400 27.06900 26.34000
C  -2.53500 27.96400 27.02400
C  -2.71300 27.72400 28.40600
C  -3.78500 26.73600 28.50700
C  -1.67900 29.01500 26.38400
C  -2.37700 28.24600 29.76200
O  -1.53900 28.94300 30.31800
C  -3.22600 27.20500 30.73000
C  -2.35900 26.41000 31.61400
O  -1.60000 25.51600 31.20100
O  -2.35600 26.97300 32.88200
C  -1.37700 26.40900 33.79800
H  -7.15600 21.62300 29.61900
H  -7.01600 22.60300 23.29800
H  -3.09000 27.64600 24.33500
H  -4.31800 24.63200 32.11900
H  -6.74200 23.08100 31.70400
H  -5.45500 21.31000 31.77000
H  -4.23300 22.35100 32.31200
H  -4.19300 21.87600 30.61100
H  -7.20900 25.71200 31.36200
H  -5.96100 26.68000 31.84400
H  -7.78400 25.15400 33.37700
H  -6.72600 26.50300 33.96000
H  -9.97400 20.37500 27.54100
H  -8.86100 20.67200 28.87300
H  -8.46300 19.46000 27.70700
H  -9.17000 18.79500 23.90200
H  -10.30700 19.37800 25.09200
H  -8.61800 18.74200 25.48600
H  -6.29000 24.89800 21.81700
H  -3.49800 25.85800 22.23500
H  -4.88500 23.43700 20.59300
H  -4.74600 22.57700 22.18200
H  -3.57000 23.72400 21.65800
H  -5.16300 27.91100 22.79500
H  -6.07900 26.98900 21.50400
H  -3.51100 27.20600 20.46400
H  -3.89800 28.76000 21.29800
H  -4.96300 27.96500 20.00500
H  -2.34100 29.70400 25.86100
H  -0.99800 28.61700 25.63200
H  -0.98100 29.42800 27.11200
H  -3.92100 27.78000 31.34100
H  -0.43300 26.95100 33.85100
H  -1.14800 25.35400 33.64800
H  -1.77200 26.58400 34.79800

