158

Mg 25.14800 -4.87500 45.75500
C  26.69600 -2.14700 44.19000
C  22.36200 -4.08500 43.63500
C  24.09500 -7.95700 46.14100
C  28.30300 -5.71900 47.18400
N  24.65200 -3.27000 44.13500
C  25.44600 -2.30800 43.59800
C  24.76700 -1.43200 42.52100
C  23.32500 -1.97500 42.52300
C  23.43200 -3.16000 43.53600
C  22.18700 -0.90600 42.65900
C  25.46400 -1.40200 41.20400
C  24.74200 -0.69500 39.98000
H  25.34500 -0.98700 38.60100
N  23.44000 -5.90700 45.00700
C  22.42300 -5.37000 44.23100
C  21.35600 -6.39400 44.22300
C  21.76000 -7.54300 44.99100
C  23.16000 -7.16900 45.41500
C  19.99400 -6.08300 43.60800
C  20.88000 -8.73700 45.18900
O  19.77400 -8.80500 44.75500
C  21.45100 -9.98000 45.99200
N  25.98300 -6.54700 46.60400
C  25.29500 -7.70000 46.74000
C  26.19400 -8.77200 47.38000
C  27.55700 -8.08900 47.63000
C  27.31600 -6.70500 47.03300
C  25.55900 -9.43100 48.63900
C  28.76500 -8.84700 46.87200
C  30.09700 -9.00000 47.64200
N  27.16400 -4.12700 45.83300
C  28.26900 -4.50600 46.50500
C  29.18600 -3.42500 46.47500
C  28.67800 -2.52600 45.50900
C  27.39100 -2.98400 45.16000
C  30.49000 -3.38200 47.24400
C  28.96200 -1.28700 44.82800
O  29.88800 -0.51500 44.90100
C  27.74100 -1.08900 43.89700
C  27.21800 0.20900 44.17300
O  26.65000 0.54700 45.18300
O  27.19500 1.03800 43.10300
C  26.65200 2.40000 43.19400
H  21.47900 -3.86500 43.03200
H  23.72400 -8.95900 46.37000
H  29.24700 -5.94900 47.68200
H  24.92200 -0.41700 42.88700
H  23.15400 -2.39000 41.53000
H  21.55600 -0.77500 41.78100
H  22.62800 0.04300 42.96700
H  21.56400 -1.26500 43.47800
H  25.56500 -2.46700 40.99600
H  26.47600 -1.00500 41.28400
H  24.88300 0.37200 40.14900
H  23.67400 -0.91300 39.94600
H  20.01000 -6.31600 42.54300
H  19.85700 -5.01300 43.76300
H  19.14000 -6.65300 43.97300
H  20.67000 -10.73600 46.07600
H  21.70400 -9.63000 46.99300
H  22.25600 -10.49500 45.46700
H  26.24500 -9.61800 46.69500
H  27.68600 -8.00000 48.70900
H  26.14800 -9.23700 49.53600
H  25.53000 -10.51200 48.50300
H  24.53100 -9.10900 48.80600
H  28.96200 -8.25100 45.98100
H  28.45800 -9.85200 46.58300
H  30.19600 -10.01400 48.03000
H  30.13400 -8.32700 48.49800
H  31.05600 -8.78100 47.17200
H  31.32700 -3.07100 46.61800
H  30.74000 -4.40300 47.53000
H  30.44700 -2.65100 48.05200
H  28.06300 -1.04100 42.85600
H  25.96500 2.58900 42.36800
H  27.45300 3.13700 43.24200
H  26.02600 2.49500 44.08100
Mg 40.40500 10.24000 30.15900
C  41.98300 11.74300 32.73100
C  38.05500 9.02300 32.34900
C  38.71100 8.86900 27.60500
C  42.89800 11.19100 27.94100
N  39.95000 10.48300 32.34000
C  40.86500 11.01400 33.22300
C  40.43400 10.84400 34.68200
C  39.23100 9.83100 34.52600
C  38.99200 9.82300 32.98000
C  39.62700 8.35800 35.06200
C  40.03300 12.08800 35.38300
C  40.70400 12.26100 36.75000
H  40.11900 13.24200 37.75400
N  38.62500 9.15500 30.01800
C  37.80800 8.67400 30.97500
C  36.73300 7.92400 30.41800
C  36.81900 8.01000 29.03200
C  38.07300 8.78000 28.78200
C  35.54800 7.27000 31.33300
C  35.90200 7.41600 27.95600
O  35.97400 7.57000 26.72200
C  34.62700 6.67300 28.46000
N  40.74400 10.12400 28.00300
C  39.91100 9.47400 27.19900
C  40.52100 9.40100 25.74300
C  41.75000 10.36800 25.86100
C  41.79400 10.59500 27.35300
C  40.95400 7.96100 25.28600
C  41.58100 11.64500 25.00000
C  40.75300 12.82300 25.54700
N  42.12500 11.19900 30.25500
C  43.03700 11.57300 29.29300
C  44.03200 12.44500 29.89200
C  43.58600 12.48200 31.25100
C  42.42900 11.80100 31.40200
C  45.22100 13.06800 29.24200
C  44.06500 12.96000 32.52200
O  45.06800 13.57000 32.84800
C  42.99200 12.56400 33.53600
C  43.64900 11.77100 34.61900
O  43.72600 10.57000 34.57900
O  44.03400 12.50100 35.70800
C  44.71300 11.80900 36.90000
H  37.44300 8.44300 33.04300
H  38.31200 8.29700 26.76500
H  43.61100 11.59500 27.21800
H  41.32000 10.36500 35.09800
H  38.41400 10.14500 35.17600
H  38.78300 7.88300 35.56200
H  40.48300 8.51200 35.71900
H  39.94100 7.61700 34.32700
H  38.94800 12.17200 35.44700
H  40.42500 12.94400 34.83300
H  41.69000 12.60800 36.43900
H  40.74800 11.31700 37.29200
H  34.58800 7.71400 31.07100
H  35.77700 7.49700 32.37500
H  35.55500 6.18600 31.21800
H  35.05800 5.78200 28.91900
H  33.96300 6.46900 27.62100
H  33.95400 7.26600 29.07900
H  39.77800 9.74000 25.02100
H  42.72000 10.04500 25.48500
H  40.66500 7.13700 25.93900
H  42.04100 7.92100 25.21800
H  40.52400 7.77100 24.30300
H  41.04600 11.30400 24.11400
H  42.53700 12.09200 24.73000
H  40.19600 13.30000 24.74100
H  41.55200 13.48000 25.89200
H  40.07900 12.57500 26.36700
H  44.89700 13.27700 28.22200
H  46.06200 12.37400 29.26000
H  45.50700 13.86300 29.93000
H  42.54600 13.48100 33.92100
H  45.30700 10.92900 36.65700
H  43.84100 11.53400 37.49400
H  45.35700 12.50200 37.44200

