158

Mg 35.59200 2.57300 30.07400
C  33.14900 3.63200 32.32800
C  37.86400 2.49800 32.70300
C  37.98800 2.11200 27.94000
C  33.40400 3.47800 27.46800
N  35.47200 3.07900 32.27900
C  34.39300 3.47700 32.95200
C  34.65200 3.59200 34.52800
C  36.27300 3.40000 34.64200
C  36.59700 2.89600 33.12600
C  37.22700 4.61400 34.89700
C  33.85000 2.61500 35.34900
C  33.53700 2.88400 36.88700
H  34.36600 4.01600 37.57100
N  37.61500 2.28400 30.35500
C  38.33900 2.21000 31.47000
C  39.71700 1.90200 31.21800
C  39.75400 1.73200 29.77600
C  38.41500 2.03900 29.31900
C  40.76500 1.59400 32.26000
C  40.93500 1.23300 28.92600
O  40.86500 1.09000 27.70600
C  42.31400 0.88900 29.55400
N  35.67900 2.83600 27.94800
C  36.79300 2.45300 27.28800
C  36.59400 2.52900 25.78900
C  35.09600 2.96500 25.60300
C  34.65600 3.05300 27.06700
C  37.66600 3.37600 24.99200
C  34.27100 1.95600 24.73800
C  33.62200 0.73700 25.39200
N  33.62100 3.23400 29.92300
C  32.83300 3.51500 28.77700
C  31.46700 3.76400 29.24200
C  31.50700 3.85500 30.62400
C  32.85800 3.53100 30.98600
C  30.37700 3.95500 28.31300
C  30.74700 4.21000 31.80900
O  29.56100 4.43100 31.95300
C  31.76500 4.02400 32.96600
C  31.78100 5.34600 33.64800
O  32.52300 6.25800 33.31900
O  30.77100 5.40100 34.57400
C  30.78800 6.62400 35.41600
H  38.55800 2.67500 33.52800
H  38.73300 1.82700 27.19300
H  32.60800 3.64600 26.73900
H  34.47600 4.64300 34.75600
H  36.47300 2.59400 35.34800
H  36.60900 5.49700 35.05600
H  37.84400 4.82000 34.02200
H  37.90100 4.36200 35.71600
H  34.29300 1.62700 35.47700
H  32.89200 2.43700 34.86000
H  33.61400 1.96800 37.47300
H  32.51900 3.26500 36.96000
H  41.80500 1.69400 31.95000
H  40.69200 0.61400 32.73200
H  40.69400 2.38200 33.01000
H  42.79100 0.37200 28.72100
H  42.21500 0.18200 30.37800
H  42.90000 1.79900 29.67900
H  36.78500 1.52500 25.40800
H  35.09500 4.02600 25.35300
H  38.35500 3.84800 25.69200
H  37.09300 4.11400 24.43000
H  38.24000 2.77300 24.28900
H  34.99500 1.60900 24.00100
H  33.62800 2.59000 24.12700
H  34.00700 0.71500 26.41200
H  34.00900 -0.13900 24.87200
H  32.53300 0.73300 25.35800
H  29.42400 4.16400 28.79800
H  30.28300 3.10200 27.64200
H  30.44000 4.87400 27.73100
H  31.29400 3.29900 33.63100
H  30.48500 7.51300 34.86300
H  31.71800 6.82300 35.94900
H  29.97100 6.52400 36.13000
Mg 9.60500 47.61800 26.45100
C  7.63500 47.81200 29.21900
C  12.26500 49.11000 27.95600
C  11.26000 47.51300 23.52300
C  6.69500 46.48800 24.57400
N  9.91900 48.40200 28.40600
C  9.00900 48.30500 29.37900
C  9.59200 48.81900 30.71600
C  10.87700 49.64400 30.14200
C  11.05700 49.09600 28.73400
C  10.91400 51.16900 30.31900
C  9.87400 47.72100 31.75000
C  9.35900 47.90600 33.20300
H  9.25200 46.68300 34.05800
N  11.55400 48.15400 25.90800
C  12.54700 48.63700 26.71500
C  13.79400 48.59700 26.07200
C  13.49400 48.18000 24.73600
C  12.06500 47.91000 24.65600
C  15.07600 48.86500 26.74800
C  14.48300 47.91900 23.62300
O  14.16600 47.54200 22.51900
C  15.93100 48.12000 23.81100
N  8.93000 47.07900 24.37900
C  9.88000 47.08600 23.37300
C  9.35800 46.43200 22.09100
C  7.94400 45.89400 22.49700
C  7.84500 46.54300 23.88000
C  9.49200 47.30500 20.81700
C  7.86400 44.33800 22.58500
C  8.85400 43.65400 23.50600
N  7.60000 47.30800 26.83600
C  6.50200 46.82600 25.96100
C  5.31300 46.85400 26.67300
C  5.65700 47.21200 27.99100
C  7.07500 47.39100 28.01900
C  3.93900 46.72000 26.15000
C  5.19600 47.43600 29.35600
O  4.08000 47.42700 29.73100
C  6.44700 47.80700 30.28600
C  6.52600 46.51000 31.17000
O  7.19800 45.54900 30.84700
O  5.68100 46.59600 32.19900
C  5.64100 45.32800 32.98400
H  13.16700 49.51300 28.42200
H  11.89600 47.34100 22.65200
H  5.76400 46.19000 24.08600
H  8.86600 49.50600 31.15200
H  11.61900 49.27400 30.85000
H  9.90500 51.58100 30.34300
H  11.52600 51.65300 29.55800
H  11.31800 51.35100 31.31500
H  10.94700 47.52800 31.73600
H  9.42200 46.77400 31.45700
H  8.38800 48.35800 33.00400
H  9.95400 48.63000 33.76000
H  15.64900 47.96700 26.98100
H  14.89700 49.45900 27.64400
H  15.71500 49.45600 26.09200
H  16.49900 47.47600 24.48200
H  16.19900 49.14600 24.06100
H  16.37900 47.94800 22.83200
H  10.02900 45.60300 21.86600
H  7.13500 46.28500 21.87900
H  9.54600 48.35700 21.09700
H  8.65900 47.34000 20.11500
H  10.34300 47.05500 20.18400
H  8.07700 43.94800 21.58900
H  6.83000 44.09300 22.82800
H  8.22300 43.14300 24.23300
H  9.56000 44.27500 24.05600
H  9.33600 42.84300 22.96000
H  3.95900 46.20100 25.19100
H  3.56700 47.73700 26.02100
H  3.29900 46.12400 26.80000
H  6.33200 48.74100 30.83700
H  5.71600 45.69500 34.00800
H  6.47100 44.63700 32.83500
H  4.69400 44.79000 32.94500

