158

Mg 49.19800 35.66200 28.46800
C  47.05500 34.16400 30.73000
C  49.44800 38.44100 30.63700
C  50.86400 37.29900 26.18200
C  48.63500 33.04100 26.24400
N  48.37500 36.16600 30.46900
C  47.61800 35.35800 31.30300
C  47.46900 36.01400 32.63900
C  47.79900 37.52900 32.41400
C  48.59300 37.38500 31.07200
C  46.58600 38.43300 32.33600
C  48.11200 35.18600 33.72100
C  49.51600 35.62400 34.33700
H  49.64700 36.38400 35.60900
N  50.26900 37.52300 28.45600
C  50.20400 38.48600 29.47800
C  50.99400 39.61800 29.01000
C  51.55600 39.27800 27.73300
C  50.86100 38.03000 27.37800
C  51.17100 40.80600 29.85800
C  52.57200 39.99300 26.79800
O  52.86800 39.54000 25.73400
C  53.27400 41.35000 27.24800
N  49.54700 35.28300 26.43400
C  50.33400 36.10700 25.68500
C  50.50200 35.55400 24.26300
C  49.83300 34.14600 24.31400
C  49.39600 34.11300 25.76100
C  49.88600 36.47100 23.15300
C  50.68500 32.86500 23.97800
C  51.38500 32.60200 22.64700
N  48.13400 33.89900 28.46500
C  48.04100 32.93300 27.50700
C  47.16100 31.87400 28.03400
C  46.66100 32.38400 29.28100
C  47.34600 33.58400 29.49100
C  46.73000 30.59100 27.45300
C  45.75200 32.06000 30.36800
O  45.06700 31.09100 30.58300
C  45.97000 33.23000 31.35500
C  46.23500 32.74500 32.72200
O  47.14300 32.05100 33.04800
O  45.18900 33.04300 33.51500
C  45.19700 32.61800 34.92700
H  49.56200 39.30100 31.30000
H  51.52800 37.64000 25.38500
H  48.37100 32.26600 25.52200
H  46.41400 35.90300 32.88800
H  48.52800 37.96400 33.09800
H  45.72700 37.80800 32.09700
H  46.77200 39.14800 31.53400
H  46.36800 38.86900 33.31100
H  48.33200 34.22700 33.25200
H  47.47600 35.03100 34.59200
H  50.00200 36.26900 33.60500
H  50.13700 34.72800 34.31900
H  52.18400 40.70800 30.24900
H  50.60900 40.89600 30.78700
H  51.11500 41.68800 29.22000
H  53.42800 41.17300 28.31300
H  52.58100 42.18400 27.13900
H  54.26400 41.44900 26.80400
H  51.56800 35.42600 24.07900
H  48.84000 34.12000 23.86500
H  50.71200 36.86300 22.56000
H  49.21100 37.23700 23.53500
H  49.26400 35.96800 22.41300
H  49.97600 32.04500 24.09000
H  51.51300 32.66800 24.66000
H  52.46100 32.59000 22.82300
H  51.24600 33.46800 22.00100
H  51.08300 31.69600 22.12200
H  47.68100 30.06000 27.40900
H  46.38700 30.77900 26.43500
H  45.99300 30.12500 28.10700
H  45.00800 33.73400 31.44600
H  44.25200 32.87000 35.40900
H  46.04800 33.05300 35.45100
H  45.27000 31.53100 34.94800
Mg -5.97000 24.96000 26.32100
C  -4.29600 26.43200 28.96200
C  -7.72200 22.86600 28.59800
C  -7.47400 23.30400 23.77100
C  -4.16400 26.82800 24.06300
N  -6.04000 24.71400 28.54900
C  -5.25900 25.48100 29.40700
C  -5.58600 25.13000 30.87900
C  -6.59200 23.83000 30.73400
C  -6.83400 23.78900 29.16300
C  -5.94300 22.50300 31.22000
C  -6.27200 26.35000 31.63500
C  -5.90800 26.66300 33.10500
H  -5.40000 25.53600 33.89800
N  -7.44100 23.40500 26.27000
C  -8.07700 22.70200 27.20000
C  -9.14300 21.87900 26.72300
C  -9.05300 22.08200 25.27400
C  -7.90500 22.97800 25.07400
C  -9.94800 20.94100 27.57400
C  -9.93400 21.43300 24.25700
O  -9.83600 21.71400 23.06600
C  -11.05900 20.47300 24.55800
N  -5.77800 25.04800 24.21400
C  -6.51500 24.20900 23.43200
C  -6.00400 24.41700 21.96400
C  -5.12300 25.70900 21.99200
C  -4.98000 25.86300 23.47500
C  -5.10200 23.16100 21.54300
C  -5.95400 26.84400 21.34700
C  -5.31700 27.53500 20.10500
N  -4.43200 26.25500 26.43800
C  -3.82900 27.02400 25.42500
C  -2.90600 27.98000 26.05100
C  -3.02500 27.70000 27.43600
C  -4.04500 26.75200 27.56800
C  -2.05200 28.98900 25.34000
C  -2.60500 28.16000 28.72800
O  -1.86300 29.08800 29.01500
C  -3.30600 27.27100 29.79100
C  -2.25100 26.40600 30.36400
O  -1.37400 25.81000 29.74000
O  -2.38200 26.37400 31.75800
C  -1.36800 25.54400 32.45800
H  -8.25700 22.29700 29.36100
H  -7.92300 22.79700 22.91500
H  -3.63600 27.49200 23.37700
H  -4.65300 24.87300 31.38000
H  -7.49400 24.08500 31.29000
H  -5.05900 22.71100 31.82300
H  -5.65200 21.90500 30.35700
H  -6.63700 21.93700 31.84200
H  -7.35100 26.21400 31.56100
H  -6.17200 27.24300 31.01700
H  -6.77300 27.02100 33.66300
H  -5.09900 27.39200 33.06200
H  -9.72800 19.89200 27.37900
H  -11.00100 21.07800 27.33000
H  -9.79200 21.23700 28.61200
H  -11.50900 20.16900 23.61300
H  -11.77900 20.99400 25.18900
H  -10.72200 19.55800 25.04500
H  -6.84300 24.54300 21.28000
H  -4.11500 25.59400 21.59500
H  -4.06600 23.45500 21.37700
H  -5.46600 22.88100 20.55400
H  -5.12600 22.35500 22.27500
H  -6.08600 27.65900 22.05900
H  -6.92500 26.52300 20.97000
H  -6.07100 27.52800 19.31800
H  -4.44100 26.97800 19.77300
H  -4.91600 28.53700 20.25900
H  -2.44500 30.00500 25.37300
H  -1.97300 28.73000 24.28400
H  -1.00900 28.93000 25.65100
H  -3.58700 27.94500 30.60000
H  -1.78300 25.28000 33.43100
H  -0.53100 26.22700 32.60500
H  -1.01700 24.72200 31.83400

