158

Mg 17.20100 -2.25900 27.47900
C  16.54900 -0.00500 30.19100
C  19.13500 -4.09600 29.54400
C  18.51800 -3.77100 24.71700
C  15.70700 0.19900 25.36400
N  17.83600 -2.00700 29.58000
C  17.37200 -1.12000 30.58800
C  17.97400 -1.38000 31.98700
C  18.94900 -2.60200 31.64000
C  18.66200 -2.91200 30.16500
C  20.53700 -2.47600 31.88600
C  16.93100 -1.65400 33.07500
C  17.38200 -1.29500 34.47500
H  18.90200 -1.44700 34.81900
N  18.51200 -3.84200 27.16900
C  19.17500 -4.53800 28.16400
C  19.98900 -5.53900 27.57500
C  19.72600 -5.53000 26.16300
C  18.86400 -4.37700 25.96200
C  20.82100 -6.48100 28.43400
C  20.08400 -6.48700 25.06500
O  19.94700 -6.26500 23.85600
C  20.84500 -7.68100 25.37900
N  16.99200 -1.92100 25.44200
C  17.68700 -2.63600 24.46700
C  17.48100 -2.02300 23.01000
C  16.38900 -0.94800 23.32800
C  16.25700 -0.92500 24.79400
C  18.79000 -1.53600 22.28500
C  15.05300 -1.19700 22.67100
C  14.42800 0.02300 21.99800
N  16.28000 -0.34400 27.64200
C  15.64600 0.51700 26.71900
C  15.04100 1.65200 27.38900
C  15.30600 1.48700 28.73200
C  16.11500 0.28200 28.86100
C  14.03100 2.60700 26.70100
C  15.06600 2.02200 30.01200
O  14.31800 2.95900 30.35600
C  15.86500 1.04500 31.02500
C  16.75600 1.83800 31.93900
O  17.90400 2.17500 31.67600
O  16.09300 2.07600 33.14700
C  16.79700 2.96900 34.08900
H  19.72400 -4.70900 30.22900
H  19.13800 -4.11700 23.88700
H  15.16900 0.88000 24.70100
H  18.55100 -0.49400 32.25300
H  18.64200 -3.39500 32.32200
H  21.05600 -3.39700 32.15000
H  20.72300 -1.69600 32.62500
H  20.90100 -2.18500 30.90000
H  16.76000 -2.73000 33.03900
H  15.95700 -1.21400 32.86400
H  16.90600 -2.06900 35.07800
H  16.97000 -0.36500 34.86700
H  21.27900 -5.89300 29.23000
H  21.63100 -7.00900 27.93100
H  20.25800 -7.18300 29.05000
H  20.24300 -8.24600 26.09100
H  21.76700 -7.28400 25.80300
H  21.16900 -8.39300 24.62000
H  17.04500 -2.80300 22.38500
H  16.69400 0.04600 23.00100
H  18.57800 -0.56600 21.83500
H  18.98900 -2.25000 21.48500
H  19.67300 -1.43100 22.91500
H  14.31800 -1.50600 23.41400
H  15.00300 -1.99400 21.93000
H  13.72300 -0.32400 21.24200
H  15.18900 0.62800 21.50400
H  13.91800 0.65500 22.72500
H  14.36300 2.97000 25.72900
H  14.10000 3.47300 27.36000
H  13.03700 2.17300 26.58800
H  15.10400 0.60200 31.66800
H  17.70000 2.58700 34.56400
H  16.07700 3.17200 34.88200
H  16.96700 3.88600 33.52400
Mg 40.67000 41.33800 27.74900
C  39.74300 43.88300 29.92600
C  41.36100 39.39500 30.64600
C  42.07100 39.02100 25.75600
C  40.58200 43.50700 25.09200
N  40.59400 41.64900 30.00000
C  40.07100 42.74200 30.61800
C  39.96600 42.56100 32.15900
C  40.62800 41.13100 32.36000
C  40.92100 40.68700 30.92800
C  41.69200 41.05700 33.49000
C  38.53200 42.68400 32.61800
C  38.02700 41.86200 33.83700
H  37.31000 42.58500 34.97700
N  41.46500 39.42900 28.15200
C  41.70400 38.83600 29.37100
C  42.19300 37.41100 29.21500
C  42.33400 37.29100 27.75400
C  41.92600 38.54900 27.18400
C  42.41300 36.50900 30.23000
C  42.73300 36.02500 26.98100
O  42.66500 35.98000 25.74200
C  42.98500 34.76000 27.73300
N  41.09000 41.21500 25.67400
C  41.66100 40.11400 25.07800
C  41.67800 40.22200 23.52700
C  41.15600 41.69000 23.41000
C  40.92100 42.19600 24.77500
C  43.07200 39.92800 22.93600
C  39.88800 41.55400 22.50900
C  38.49700 41.15400 23.04800
N  40.26900 43.36700 27.46200
C  40.20700 44.09400 26.30600
C  39.80000 45.41400 26.58900
C  39.63400 45.41600 28.00600
C  39.91400 44.12800 28.49500
C  39.63900 46.54000 25.56700
C  39.31800 46.21600 29.14700
O  39.06800 47.42500 29.26700
C  39.41800 45.29900 30.43000
C  40.47800 45.79800 31.37000
O  41.67600 45.68500 31.18000
O  39.80300 46.34700 32.42200
C  40.63600 46.67600 33.59000
H  41.39600 38.71200 31.49800
H  42.57000 38.31600 25.08700
H  40.56400 44.00300 24.11900
H  40.61200 43.32400 32.59300
H  39.89500 40.41900 32.73800
H  41.41200 40.27700 34.19700
H  41.90800 42.00300 33.98800
H  42.66300 40.75300 33.09700
H  37.95900 42.52200 31.70500
H  38.29300 43.74100 32.74300
H  38.93000 41.46900 34.30300
H  37.36700 41.01100 33.66800
H  42.23400 36.73400 31.28100
H  43.49500 36.40900 30.30800
H  42.02400 35.49800 30.11200
H  42.11200 34.43400 28.30000
H  43.90300 34.86000 28.31200
H  43.18000 33.94300 27.03900
H  40.96900 39.45100 23.22300
H  41.88900 42.25500 22.83400
H  42.97600 39.02600 22.33300
H  43.78900 39.83300 23.75100
H  43.41500 40.79700 22.37500
H  40.16300 40.86400 21.71100
H  39.74700 42.46600 21.92800
H  38.10400 40.22600 22.63200
H  37.87200 41.99600 22.75000
H  38.54700 41.08000 24.13400
H  38.74100 47.12600 25.76100
H  39.73900 46.21600 24.53100
H  40.44600 47.26300 25.68700
H  38.46300 45.39900 30.94600
H  41.24700 45.78600 33.74200
H  39.99900 46.87000 34.45300
H  41.28200 47.53100 33.39100

