158

Mg 30.12200 58.41600 40.07000
C  27.30300 56.70000 39.02800
C  31.96100 55.79600 38.76200
C  32.91500 60.27600 40.26700
C  28.20000 61.13400 40.81000
N  29.63800 56.33800 39.15100
C  28.44200 55.89200 38.79300
C  28.44800 54.49800 38.22400
C  29.94100 54.09500 38.55600
C  30.53400 55.50600 38.73500
C  30.27000 53.23400 39.78400
C  27.90000 54.23200 36.84400
C  28.23700 55.27500 35.79500
H  27.13400 55.73300 34.77500
N  32.16300 58.06600 39.64600
C  32.68400 56.89600 39.20100
C  34.16800 56.95500 39.15800
C  34.46400 58.20000 39.69100
C  33.19700 58.92800 39.92500
C  35.09900 55.81500 38.60600
C  35.83300 58.65400 40.01400
O  36.77900 57.90800 39.71100
C  36.09800 59.89700 40.85100
N  30.53300 60.47600 40.29800
C  31.74600 60.98800 40.46600
C  31.64800 62.49400 40.80900
C  30.16700 62.62500 41.39800
C  29.57800 61.30600 40.81300
C  32.64900 63.06100 41.88200
C  29.43400 63.95300 40.91900
C  28.67800 64.67900 42.07400
N  28.18800 58.91800 39.86300
C  27.45000 59.98600 40.35700
C  26.05000 59.80600 40.32400
C  25.92900 58.54100 39.69500
C  27.24800 58.02600 39.51400
C  24.95100 60.76100 40.61300
C  24.96200 57.53800 39.20300
O  23.76000 57.53600 39.14900
C  25.85100 56.35500 38.70700
C  25.38200 55.18800 39.46700
O  25.75500 54.84400 40.54100
O  24.56600 54.45200 38.72600
C  23.86400 53.38400 39.41800
H  32.49900 54.89200 38.46700
H  33.84400 60.81600 40.46200
H  27.58900 61.99400 41.09400
H  27.82100 53.90000 38.88500
H  30.24400 53.59100 37.63800
H  30.70000 53.79600 40.61400
H  30.96900 52.46700 39.45200
H  29.40100 52.71000 40.18200
H  26.83000 54.03600 36.90900
H  28.33600 53.35100 36.37300
H  28.98500 54.84700 35.12800
H  28.65900 56.15400 36.28100
H  35.54100 56.16300 37.67300
H  34.48800 54.95100 38.34600
H  35.77100 55.57400 39.43000
H  35.88100 60.83100 40.33200
H  37.16200 59.96500 41.07900
H  35.55100 59.78300 41.78700
H  31.78800 63.09000 39.90600
H  30.25900 62.42700 42.46600
H  32.98700 62.20400 42.46500
H  32.25000 63.75000 42.62500
H  33.39600 63.63100 41.32900
H  28.73800 63.75600 40.10300
H  30.21800 64.64500 40.61000
H  27.69200 65.09900 41.87700
H  29.30000 65.48500 42.46200
H  28.53600 63.88400 42.80600
H  24.10200 60.26600 41.08300
H  24.68400 61.28700 39.69600
H  25.22800 61.46200 41.40000
H  25.76400 56.01600 37.67500
H  24.65900 52.64700 39.52900
H  23.01800 52.95800 38.88000
H  23.44100 53.74800 40.35500
Mg -11.22300 39.93000 39.02300
C  -10.40100 36.40200 38.81800
C  -7.85200 40.48600 38.79500
C  -12.05800 42.99700 38.35600
C  -14.59300 38.87600 39.14700
N  -9.37900 38.52500 38.96000
C  -9.26100 37.18300 38.86500
C  -7.84600 36.71700 38.76400
C  -7.03700 38.06200 39.02000
C  -8.12800 39.12700 38.88400
C  -6.14900 37.98600 40.29600
C  -7.59400 36.06400 37.31100
C  -7.86900 36.88100 36.00200
H  -8.92000 36.49300 34.95200
N  -10.04900 41.62600 38.60400
C  -8.66800 41.66500 38.61300
C  -8.29000 43.05600 38.37100
C  -9.51300 43.79200 38.24700
C  -10.63200 42.82800 38.35200
C  -6.85100 43.57800 38.31700
C  -9.64400 45.30900 38.03800
O  -8.63300 46.06800 38.09300
C  -10.97400 45.98100 37.84000
N  -13.10100 40.81800 38.79400
C  -13.17400 42.15000 38.49400
C  -14.63900 42.65600 38.58800
C  -15.43900 41.37600 38.92100
C  -14.34700 40.27000 38.98000
C  -14.96800 43.90800 39.55700
C  -16.55100 41.00700 37.86500
C  -17.92200 40.65500 38.46400
N  -12.29400 38.13600 39.13300
C  -13.64400 37.79600 39.06400
C  -13.90500 36.48500 38.99600
C  -12.67000 35.84900 38.88500
C  -11.71200 36.90200 38.96100
C  -15.23400 35.81800 39.20000
C  -12.00200 34.53800 38.73500
O  -12.39200 33.37300 38.59900
C  -10.52900 34.94900 38.72700
C  -9.89300 34.18200 39.80100
O  -10.12800 34.25400 40.97600
O  -9.04700 33.29800 39.17400
C  -8.27500 32.55600 40.18600
H  -6.80600 40.79400 38.73300
H  -12.42500 43.99200 38.09600
H  -15.63000 38.53600 39.10000
H  -7.59000 35.95200 39.49700
H  -6.40800 38.23100 38.14700
H  -5.09900 38.00800 40.00600
H  -6.20300 37.03200 40.82100
H  -6.51600 38.75800 40.97200
H  -8.21000 35.16600 37.26800
H  -6.57000 35.70600 37.20400
H  -6.96000 36.85400 35.40200
H  -8.17500 37.91800 36.14100
H  -6.16800 42.78200 38.01900
H  -6.49900 43.93000 39.28600
H  -6.70800 44.46700 37.70300
H  -11.46200 45.81100 38.79900
H  -11.52200 45.75200 36.92500
H  -10.79000 47.05500 37.86700
H  -14.79600 42.89900 37.53700
H  -15.89900 41.36600 39.91000
H  -15.66100 43.59900 40.33900
H  -15.47400 44.68800 38.98800
H  -14.06700 44.33500 39.99800
H  -16.17700 40.08500 37.41900
H  -16.50400 41.73800 37.05800
H  -17.92000 40.93600 39.51700
H  -18.10300 39.58000 38.46400
H  -18.74300 41.11500 37.91300
H  -15.61000 35.77500 38.17800
H  -15.80600 36.45900 39.87000
H  -15.00700 34.82900 39.59800
H  -10.13200 34.47900 37.82700
H  -8.77300 31.59900 40.33800
H  -8.12600 32.98600 41.17600
H  -7.34600 32.15900 39.77700

