158

Mg 26.32100 1.60800 29.25100
C  28.24400 1.06400 32.19700
C  23.57300 2.13500 31.35500
C  24.37300 1.65600 26.52400
C  29.05000 0.42100 27.44600
N  25.96700 1.54900 31.49500
C  26.92200 1.37800 32.47800
C  26.35500 1.58500 33.92800
C  24.78700 1.72300 33.59500
C  24.74600 1.80800 32.01800
C  23.86900 0.51200 34.14100
C  26.97300 2.82900 34.74600
C  26.38500 3.21200 36.11400
H  27.34900 3.62200 37.20700
N  24.24400 1.97300 28.94300
C  23.31900 2.15200 29.92700
C  22.07800 2.49700 29.25800
C  22.22900 2.17200 27.92200
C  23.67800 1.96200 27.72800
C  20.75900 2.74800 30.00700
C  21.23600 2.07100 26.78800
O  21.56100 1.68900 25.71800
C  19.79400 2.38300 27.05600
N  26.63500 1.14900 27.31200
C  25.72000 1.31800 26.32800
C  26.38800 1.00900 24.95400
C  27.85900 0.82500 25.27800
C  27.83100 0.71100 26.80500
C  25.70100 -0.17400 24.17900
C  28.83500 1.91700 24.75800
C  30.30700 1.57200 24.59300
N  28.24600 0.92800 29.68300
C  29.20900 0.41000 28.84400
C  30.33500 -0.04600 29.57800
C  30.06000 0.21400 30.90600
C  28.76900 0.83700 30.93900
C  31.43600 -0.74600 28.97400
C  30.55700 0.03900 32.24700
O  31.57200 -0.41600 32.62200
C  29.40500 0.63200 33.15000
C  28.97400 -0.49100 34.06700
O  28.29900 -1.47000 33.77800
O  29.53000 -0.25000 35.30100
C  29.30800 -1.27000 36.34900
H  22.61000 2.29200 31.84400
H  23.84000 1.70100 25.57200
H  29.93300 0.08600 26.89700
H  26.65000 0.63700 34.37800
H  24.56500 2.72200 33.97100
H  24.57800 -0.25100 34.46200
H  23.28100 0.20900 33.27500
H  23.15100 0.81500 34.90300
H  26.80800 3.58400 33.97800
H  28.03800 2.68500 34.92900
H  25.90700 2.35600 36.59000
H  25.60800 3.96100 35.96100
H  20.43500 3.72100 29.63700
H  20.88600 2.83000 31.08600
H  19.93300 2.04700 29.89400
H  19.25100 1.62900 27.62500
H  19.30600 2.36500 26.08200
H  19.61500 3.39500 27.41900
H  26.32600 1.93700 24.38700
H  28.18800 -0.09300 24.79000
H  24.82500 -0.61700 24.65200
H  26.47500 -0.91300 23.97400
H  25.23000 0.20300 23.27100
H  28.64200 2.79500 25.37500
H  28.34300 2.19600 23.82700
H  30.64800 1.96900 23.63700
H  30.54900 0.51100 24.64900
H  30.82300 2.04600 25.42800
H  32.14200 0.02900 28.67300
H  31.22100 -1.45700 28.17600
H  31.78500 -1.31500 29.83500
H  29.59200 1.54200 33.72000
H  29.00900 -2.26700 36.02500
H  28.44100 -0.96900 36.93600
H  30.12600 -1.23200 37.06800
Mg 16.35800 51.80500 26.03400
C  17.98400 50.86400 28.93700
C  13.82500 53.12500 28.09300
C  14.80900 52.86700 23.30800
C  18.62800 50.15500 24.17300
N  15.88900 51.89800 28.19300
C  16.82900 51.53100 29.20200
C  16.32300 51.87600 30.59500
C  14.87300 52.48100 30.31400
C  14.85100 52.49400 28.82900
C  13.66200 51.79600 31.01200
C  17.26100 52.86000 31.42500
C  17.68800 52.36900 32.81000
H  16.91500 53.02300 34.04400
N  14.62100 52.94000 25.76300
C  13.70900 53.39200 26.71900
C  12.66400 54.12100 26.02700
C  12.94400 54.05600 24.62100
C  14.23100 53.25000 24.47700
C  11.49700 54.77000 26.70300
C  12.23900 54.76300 23.39800
O  12.59100 54.65400 22.21800
C  10.99400 55.67900 23.63800
N  16.72800 51.69700 23.97300
C  15.97200 52.18300 23.02500
C  16.57300 51.71700 21.59800
C  17.88400 51.07800 22.05800
C  17.65900 50.86500 23.47900
C  15.54100 50.77800 20.85800
C  19.07700 52.10800 21.79400
C  20.41700 51.54500 21.52200
N  17.93000 50.63700 26.41500
C  18.86500 50.07800 25.57100
C  19.92100 49.48500 26.29600
C  19.66300 49.69200 27.67300
C  18.43100 50.43100 27.65300
C  21.18800 48.86900 25.75600
C  20.14700 49.55300 29.09000
O  21.12400 48.96300 29.52800
C  19.04300 50.30400 29.88700
C  18.50600 49.20300 30.70000
O  17.83600 48.23700 30.37900
O  19.12000 49.27200 31.98600
C  18.58800 48.31000 32.98200
H  13.00300 53.45200 28.73300
H  14.32200 53.24200 22.40600
H  19.43000 49.83000 23.50800
H  16.24600 50.94900 31.16200
H  14.84800 53.55900 30.47300
H  12.71500 52.26500 30.74700
H  13.65200 51.96400 32.08900
H  13.60000 50.71400 30.89300
H  16.76900 53.82500 31.54700
H  18.16300 53.00500 30.83000
H  18.71100 52.73800 32.74500
H  17.67200 51.28000 32.77600
H  11.64000 54.82000 27.78200
H  10.61300 54.18100 26.46000
H  11.47700 55.80300 26.35700
H  11.25800 56.59100 24.17200
H  10.27400 54.97400 24.05600
H  10.66600 55.86300 22.61500
H  16.57100 52.67900 21.08600
H  18.04300 50.13900 21.52700
H  16.08200 49.85100 20.66700
H  15.11800 51.21600 19.95400
H  14.64500 50.53400 21.42900
H  18.97700 52.76200 22.66000
H  18.76400 52.69900 20.93300
H  21.00500 51.23600 22.38600
H  20.98000 52.22800 20.88500
H  20.20700 50.66700 20.91000
H  21.32700 49.16000 24.71500
H  21.03800 47.80000 25.60900
H  22.04200 49.06800 26.40400
H  19.41800 51.03800 30.60000
H  17.50200 48.32600 33.07500
H  18.96400 48.66000 33.94300
H  19.03300 47.31800 32.91000

