158

Mg 41.97100 41.15000 26.63300
C  41.04000 43.46000 28.91300
C  42.92600 39.09100 29.07700
C  42.86700 38.81000 24.26400
C  41.74400 43.50700 24.10000
N  41.90400 41.23000 28.73800
C  41.48400 42.27400 29.47300
C  41.59700 42.02600 30.91900
C  42.39100 40.66500 30.97200
C  42.50400 40.32500 29.48100
C  43.71100 40.51000 31.69900
C  40.21100 42.13600 31.65800
C  40.24800 41.48700 33.09000
H  39.70900 42.36700 34.29300
N  42.56700 39.16600 26.65500
C  42.91900 38.51600 27.79700
C  43.39700 37.10300 27.50200
C  43.27900 36.99700 26.05900
C  42.87200 38.35800 25.61700
C  43.64500 36.03300 28.59500
C  43.49100 35.67500 25.23700
O  43.61100 35.71300 24.00100
C  43.52400 34.29700 25.83000
N  42.46800 41.17600 24.42300
C  42.66000 40.05000 23.68300
C  42.49200 40.34200 22.11100
C  42.02600 41.83800 22.14900
C  42.10100 42.22900 23.62200
C  43.76700 39.98700 21.32100
C  40.58000 41.95500 21.60200
C  39.55000 41.25900 22.46000
N  41.45200 43.12400 26.48600
C  41.39200 43.95500 25.38200
C  40.76400 45.19600 25.87400
C  40.66900 45.08500 27.25200
C  41.11000 43.75900 27.58100
C  40.53900 46.45100 25.11900
C  40.42800 45.78600 28.43900
O  40.07000 47.01800 28.46600
C  40.54500 44.81200 29.59800
C  41.59200 45.29600 30.62500
O  42.69200 45.76200 30.43800
O  40.93200 45.41700 31.87900
C  41.74400 45.85100 33.03600
H  43.42300 38.56300 29.89400
H  43.02200 38.07500 23.47100
H  41.47300 44.14800 23.25900
H  42.23600 42.83600 31.26900
H  41.79700 39.87800 31.43800
H  43.96700 39.47700 31.93500
H  43.55800 41.00100 32.66000
H  44.49000 40.98800 31.10500
H  39.42900 41.73400 31.01500
H  39.93600 43.17100 31.86500
H  41.28200 41.23700 33.32500
H  39.71700 40.53500 33.13300
H  43.62200 36.48100 29.58900
H  44.69300 35.74500 28.51100
H  43.13900 35.08300 28.42200
H  44.39500 34.15200 26.46900
H  43.62300 33.51800 25.07300
H  42.50300 34.27200 26.21200
H  41.65200 39.79000 21.68900
H  42.77600 42.52600 21.75900
H  44.47600 39.62300 22.06500
H  44.08600 40.90800 20.83300
H  43.57000 39.29100 20.50600
H  40.52700 41.44100 20.64200
H  40.33900 43.00100 21.41300
H  39.32200 41.93400 23.28600
H  39.86300 40.29800 22.86800
H  38.65800 40.97400 21.90300
H  41.41700 47.08400 24.99200
H  39.88700 46.96600 25.82500
H  40.08000 46.23800 24.15400
H  39.63100 44.72700 30.18600
H  42.79500 45.60400 32.88600
H  41.31400 45.39000 33.92500
H  41.70200 46.93800 33.10900
Mg -0.08100 43.58500 26.20600
C  2.13500 43.41100 28.98700
C  -2.53600 42.55100 28.41700
C  -2.17100 43.56000 23.64300
C  2.57900 44.20300 24.12100
N  -0.09400 42.95400 28.56600
C  0.87900 43.08600 29.47200
C  0.31900 42.94200 30.90400
C  -1.16100 42.46700 30.59900
C  -1.32200 42.76700 29.09300
C  -1.55000 41.00100 31.02400
C  0.40600 44.24700 31.75200
C  0.84500 44.19600 33.24500
H  0.73000 42.91300 33.99600
N  -2.07200 43.12000 26.04700
C  -2.91900 42.77500 27.09600
C  -4.32600 42.67100 26.59400
C  -4.26200 43.07100 25.20100
C  -2.80900 43.33700 24.94100
C  -5.48400 42.21800 27.45100
C  -5.35100 43.17300 24.13300
O  -5.10400 43.43800 22.99000
C  -6.78200 42.87500 24.50500
N  0.19100 43.80700 24.10800
C  -0.84400 43.86700 23.24800
C  -0.40100 44.26300 21.87000
C  1.09200 44.64300 22.13000
C  1.30300 44.23900 23.52700
C  -0.56400 43.08600 20.93100
C  1.44600 46.13700 21.75800
C  1.31600 47.10800 22.98600
N  1.94200 43.66600 26.47000
C  2.89200 43.89000 25.48800
C  4.26800 43.81800 26.13200
C  4.02900 43.67300 27.53100
C  2.56100 43.61300 27.66400
C  5.49200 44.01200 25.32700
C  4.63600 43.47400 28.84400
O  5.77200 43.52100 29.21800
C  3.39300 43.43700 29.77600
C  3.57200 42.24300 30.54100
O  3.28400 41.10900 30.25600
O  4.08800 42.53600 31.77000
C  4.36200 41.36700 32.65700
H  -3.30300 42.21300 29.11700
H  -2.81200 43.62900 22.76200
H  3.36800 44.27600 23.36900
H  0.98300 42.20800 31.36100
H  -1.91100 43.10400 31.06800
H  -2.47200 41.02400 31.60500
H  -0.78900 40.40900 31.53300
H  -1.73000 40.38900 30.14000
H  -0.57600 44.72100 31.74800
H  1.03100 45.00700 31.28500
H  0.12900 44.82700 33.77200
H  1.82200 44.66500 33.35600
H  -6.44000 42.41700 26.96600
H  -5.48100 42.90300 28.29900
H  -5.44800 41.27200 27.99100
H  -7.45800 43.01100 23.66100
H  -7.10500 43.50100 25.33700
H  -6.89600 41.83500 24.80800
H  -1.02300 45.12200 21.61700
H  1.77800 43.98900 21.59200
H  -0.56000 43.38300 19.88300
H  -1.54100 42.64800 21.13600
H  0.14400 42.26800 21.06700
H  0.77700 46.35700 20.92600
H  2.45700 46.28300 21.37700
H  0.92100 48.05900 22.62900
H  2.37300 47.24900 23.21000
H  0.72000 46.73300 23.81900
H  5.46500 44.79700 24.57100
H  5.70400 43.08300 24.79700
H  6.27700 44.31200 26.02100
H  3.51200 44.23100 30.51300
H  4.86800 40.58800 32.08700
H  3.44200 40.97700 33.09300
H  4.91600 41.65000 33.55200

