158

Mg 24.29100 -4.36100 46.24700
C  26.24300 -1.92500 44.79900
C  21.60400 -3.50000 44.09300
C  22.72800 -7.36100 47.03200
C  27.06600 -5.39500 48.25500
N  23.96300 -2.77700 44.74000
C  24.89200 -2.05200 44.18100
C  24.41200 -1.21800 43.02700
C  22.86500 -1.41500 43.11800
C  22.77600 -2.67200 44.11800
C  21.93700 -0.18900 43.57400
C  25.10500 -1.59300 41.63200
C  25.64000 -0.45000 40.74500
H  25.40200 -0.59300 39.26600
N  22.38300 -5.19100 45.82400
C  21.46300 -4.67700 44.86200
C  20.28700 -5.62200 44.81000
C  20.57500 -6.72200 45.67600
C  21.92000 -6.45700 46.27800
C  19.07600 -5.20000 43.93300
C  19.57900 -7.87200 45.99900
O  18.51500 -7.86700 45.41300
C  19.91700 -8.97600 46.91100
N  24.83300 -6.14300 47.49300
C  23.98000 -7.18000 47.65500
C  24.68200 -8.30700 48.46200
C  25.87400 -7.53900 49.19400
C  26.03800 -6.33000 48.22300
C  23.70700 -9.16000 49.44000
C  27.15800 -8.33700 49.45100
C  27.48700 -8.80000 50.90300
N  26.27300 -3.87400 46.44600
C  27.26600 -4.31800 47.36100
C  28.44900 -3.51300 47.18200
C  28.14800 -2.61000 46.14700
C  26.77500 -2.84100 45.78100
C  29.68500 -3.54600 47.99900
C  28.65300 -1.54200 45.36100
O  29.77700 -1.06000 45.34300
C  27.41500 -1.07700 44.43400
C  27.09700 0.42700 44.56600
O  26.92900 1.15500 45.51700
O  27.21300 0.97800 43.24300
C  27.34400 2.47400 43.10200
H  20.91400 -3.04200 43.38100
H  22.26900 -8.34000 47.18400
H  27.85100 -5.61400 48.98100
H  24.59800 -0.15000 43.13900
H  22.58800 -1.81800 42.14400
H  21.31500 0.18500 42.76100
H  22.58900 0.68300 43.59800
H  21.46500 -0.30100 44.55000
H  24.38300 -2.02900 40.94200
H  25.89300 -2.26300 41.97600
H  26.71600 -0.35000 40.89300
H  25.11000 0.42500 41.12100
H  19.01300 -4.11200 43.89800
H  18.20300 -5.69900 44.35300
H  19.24700 -5.54100 42.91200
H  20.69900 -9.48300 46.34600
H  19.08600 -9.67100 47.02800
H  20.33700 -8.83100 47.90600
H  25.07800 -9.01600 47.73500
H  25.49900 -7.10100 50.11900
H  22.70100 -8.74100 49.45500
H  23.96800 -9.08500 50.49600
H  23.66500 -10.20200 49.12300
H  27.97100 -7.75800 49.01400
H  27.09700 -9.18100 48.76400
H  27.42700 -9.88100 50.77700
H  26.65800 -8.43500 51.51000
H  28.49800 -8.57400 51.23900
H  29.51100 -3.99200 48.97800
H  29.94800 -2.49600 48.13400
H  30.44800 -4.08500 47.43800
H  27.71700 -1.19900 43.39400
H  27.74700 2.88700 44.02700
H  26.37900 2.90000 42.82600
H  28.03800 2.64600 42.27900
Mg 42.29600 41.35400 26.11100
C  41.55600 43.77200 28.53700
C  43.62900 39.43900 28.55400
C  43.51600 39.47500 23.68200
C  41.92000 44.00000 23.71900
N  42.48500 41.62200 28.34800
C  41.94400 42.59900 29.15000
C  41.97100 42.20900 30.67100
C  42.86300 40.98900 30.66500
C  43.01900 40.65700 29.11500
C  44.22500 41.20700 31.39800
C  40.55500 41.88200 31.23200
C  40.57500 41.51200 32.70600
H  39.90700 42.52000 33.67400
N  43.29200 39.65500 26.11700
C  43.77400 38.99200 27.22600
C  44.40500 37.83800 26.81800
C  44.41100 37.77700 25.38100
C  43.69100 38.98700 24.97700
C  45.04100 36.89400 27.84900
C  45.04600 36.78300 24.44100
O  45.14200 36.99400 23.24500
C  45.81000 35.49400 25.00100
N  42.48800 41.66900 23.97600
C  42.97700 40.67100 23.22000
C  42.87900 41.02300 21.73100
C  42.41400 42.47600 21.73400
C  42.18900 42.75900 23.22100
C  44.09900 40.74000 20.83700
C  41.10800 42.56400 20.89200
C  40.68500 43.92800 20.36500
N  41.64100 43.40600 26.06400
C  41.58700 44.34700 25.05100
C  41.24800 45.61900 25.51400
C  41.02700 45.37700 26.89100
C  41.38600 44.07800 27.15100
C  41.04600 46.85000 24.65100
C  40.70800 46.06300 28.16500
O  40.37400 47.21000 28.37200
C  40.96900 44.97100 29.24900
C  41.96800 45.53100 30.24400
O  43.16300 45.64800 30.01000
O  41.40600 45.61100 31.43300
C  42.31800 45.51100 32.59200
H  44.07300 38.84300 29.35400
H  43.60400 38.76800 22.85500
H  41.79100 44.86000 23.05900
H  42.51000 43.00400 31.18700
H  42.45000 40.09500 31.13300
H  44.21500 40.72100 32.37400
H  44.29300 42.27200 31.61600
H  45.02100 40.83900 30.75100
H  40.35100 40.97700 30.65900
H  39.80600 42.63100 30.97500
H  41.61400 41.59700 33.02300
H  40.18300 40.54400 33.02000
H  44.83900 35.86600 27.54900
H  44.56800 36.89300 28.83100
H  46.12600 37.00300 27.83900
H  46.48000 35.82900 25.79300
H  46.37900 35.09500 24.16200
H  45.20200 34.74900 25.51400
H  42.10500 40.37500 21.32000
H  43.18800 43.14400 21.35400
H  44.38400 41.52100 20.13200
H  43.89300 39.92400 20.14400
H  44.92600 40.49900 21.50500
H  40.33400 42.17000 21.55000
H  41.09800 41.81900 20.09600
H  41.23300 44.83300 20.62900
H  39.67100 44.27900 20.55700
H  40.89000 43.92500 19.29400
H  40.02100 46.94400 24.29400
H  41.82700 46.90000 23.89200
H  41.14200 47.71600 25.30600
H  40.07900 44.63900 29.78400
H  43.08400 46.27900 32.70000
H  42.85300 44.56300 32.55400
H  41.67900 45.57700 33.47300

