158

Mg 30.73800 58.62800 40.42800
C  27.89500 56.75400 39.21200
C  32.80700 56.09300 39.19400
C  33.24200 60.65800 40.75800
C  28.31900 61.28700 40.92800
N  30.31200 56.66900 39.18500
C  29.10900 56.13700 38.92900
C  29.34000 54.75700 38.28900
C  30.86400 54.38800 38.58200
C  31.42600 55.77400 38.99500
C  31.03700 53.25700 39.63600
C  28.91200 54.87300 36.72300
C  28.04900 53.73900 36.19800
H  27.11400 54.07600 35.04900
N  32.74700 58.36600 40.09300
C  33.46200 57.32200 39.57100
C  34.83100 57.59500 39.55400
C  35.06600 58.96700 39.80500
C  33.66800 59.45100 40.24500
C  35.85000 56.55600 39.26300
C  36.36600 59.82900 39.66800
O  37.40600 59.33800 39.25400
C  36.37800 61.18900 40.29800
N  30.77400 60.72200 40.83500
C  32.01500 61.31000 40.91300
C  31.88000 62.83300 41.16200
C  30.32400 62.94200 41.42500
C  29.71700 61.59100 41.02900
C  32.77500 63.42700 42.30500
C  29.67100 64.12800 40.65100
C  28.51200 64.82700 41.30900
N  28.55500 59.00900 40.25000
C  27.75600 60.07500 40.50600
C  26.35800 59.76700 40.19700
C  26.37400 58.46600 39.77200
C  27.73100 58.06200 39.72800
C  25.28100 60.81300 40.24100
C  25.52400 57.38700 39.27100
O  24.29700 57.23900 39.12200
C  26.51200 56.18300 38.90800
C  26.22600 55.03900 39.76100
O  26.60300 55.06000 40.98500
O  25.54500 54.06100 39.09800
C  24.97000 52.93800 39.86400
H  33.53000 55.34400 38.86400
H  33.93200 61.48200 40.95000
H  27.55700 62.00400 41.24000
H  28.61500 54.08800 38.75200
H  31.35700 54.10500 37.65200
H  30.41600 52.39000 39.41300
H  30.93000 53.70000 40.62700
H  32.03100 52.81700 39.55200
H  29.84000 54.90300 36.15100
H  28.41700 55.81500 36.48600
H  27.34300 53.32500 36.91800
H  28.63600 52.88900 35.84900
H  35.52700 56.13700 38.30900
H  35.77500 55.80200 40.04600
H  36.79800 57.07200 39.11000
H  35.97100 61.12600 41.30700
H  35.87300 61.94800 39.70000
H  37.43900 61.43900 40.31200
H  32.23300 63.23500 40.21300
H  30.10600 63.16000 42.47000
H  33.42800 62.59800 42.58000
H  32.16800 63.71200 43.16400
H  33.35500 64.25200 41.89300
H  29.37000 63.77000 39.66600
H  30.42200 64.87200 40.38400
H  27.63300 64.61200 40.70100
H  28.63600 65.90900 41.32600
H  28.41400 64.47100 42.33400
H  24.36200 60.27100 40.01700
H  25.48600 61.61500 39.53200
H  25.33300 61.26900 41.22900
H  26.38600 56.04400 37.83400
H  24.71300 53.28200 40.86600
H  25.71100 52.13900 39.82000
H  23.98700 52.62900 39.50700
Mg -11.99800 37.48400 43.32300
C  -9.82100 35.08200 42.18900
C  -10.08300 39.77800 41.54400
C  -14.37900 39.89800 43.76700
C  -14.07900 35.03300 44.38200
N  -10.22300 37.37600 41.88600
C  -9.45500 36.30100 41.60800
C  -8.28600 36.56300 40.61800
C  -8.35900 38.12000 40.62700
C  -9.69200 38.48900 41.31300
C  -7.06000 38.77900 41.25700
C  -8.57900 35.84300 39.28900
C  -7.30500 35.27600 38.56800
H  -6.80200 36.06500 37.35500
N  -12.14800 39.58800 42.88600
C  -11.25800 40.30700 42.19000
C  -11.64800 41.71100 42.40700
C  -12.89100 41.77700 43.04300
C  -13.20700 40.35400 43.28500
C  -10.76900 42.83700 41.74500
C  -13.67700 43.02100 43.31600
O  -13.20000 44.11800 43.02000
C  -15.03200 43.11400 43.94600
N  -14.00800 37.49300 43.90300
C  -14.80100 38.58100 43.95400
C  -16.18200 38.22300 44.67100
C  -16.09400 36.63700 44.70600
C  -14.66900 36.30500 44.21200
C  -16.40500 38.86200 46.07800
C  -17.17000 35.86100 43.98500
C  -16.85900 35.03200 42.68900
N  -11.94900 35.51400 43.37700
C  -12.79100 34.66900 44.02200
C  -12.22400 33.38400 44.00800
C  -11.01100 33.52500 43.38100
C  -10.92500 34.82400 42.98500
C  -12.76500 32.12100 44.67100
C  -9.77100 32.85400 42.98700
O  -9.38800 31.71400 43.25700
C  -8.94700 33.80600 42.07900
C  -7.65200 34.01000 42.87700
O  -7.48600 34.70500 43.85800
O  -6.62700 33.37300 42.21800
C  -5.32500 33.48400 42.89100
H  -9.50200 40.57700 41.07900
H  -15.15600 40.66100 43.83700
H  -14.75200 34.27400 44.78600
H  -7.42800 36.12400 41.12700
H  -8.29500 38.53300 39.62000
H  -7.37200 39.42100 42.08000
H  -6.71200 39.48100 40.49900
H  -6.26300 38.11600 41.59300
H  -9.13300 36.54500 38.66500
H  -9.20700 34.99000 39.54400
H  -7.62000 34.27600 38.27200
H  -6.51300 35.07200 39.28900
H  -11.40700 43.54000 41.20900
H  -10.13900 42.45400 40.94200
H  -10.13900 43.35400 42.46800
H  -15.22100 44.17300 44.11900
H  -15.12600 42.36700 44.73500
H  -15.81200 42.82400 43.24200
H  -16.97200 38.56900 44.00500
H  -16.04200 36.32500 45.75000
H  -16.96000 39.76500 45.82400
H  -15.40000 39.10400 46.42500
H  -17.01000 38.26800 46.76200
H  -18.08100 36.43900 43.83300
H  -17.54700 35.19300 44.76000
H  -16.70200 33.99600 42.98700
H  -15.95300 35.40000 42.20900
H  -17.70900 35.12500 42.01200
H  -13.47700 32.40900 45.44400
H  -11.98100 31.61100 45.23000
H  -13.19400 31.51000 43.87700
H  -8.81700 33.37900 41.08400
H  -4.49600 33.20500 42.24000
H  -5.28900 32.66500 43.60900
H  -5.09000 34.40900 43.41800

