158

Mg 17.42300 -1.38600 27.93500
C  16.44700 0.48300 30.70700
C  19.57400 -3.23900 29.92300
C  18.60000 -2.72500 25.08600
C  15.40100 0.68600 25.94400
N  18.10600 -1.23400 30.02600
C  17.47000 -0.43800 30.98600
C  17.97700 -0.83500 32.36400
C  19.21500 -1.79900 32.10400
C  19.00000 -2.07800 30.55900
C  20.66300 -1.26500 32.34500
C  16.80300 -1.57600 33.08000
C  16.38800 -1.25300 34.51600
H  17.31100 -0.46700 35.38200
N  18.79400 -2.84500 27.61200
C  19.61200 -3.49700 28.51500
C  20.48000 -4.37700 27.83400
C  20.18400 -4.27200 26.37800
C  19.16200 -3.22800 26.29300
C  21.43200 -5.37300 28.51700
C  20.68500 -5.15900 25.28300
O  20.21500 -5.08300 24.18700
C  21.80100 -6.14400 25.48000
N  17.01900 -1.03000 25.85000
C  17.70400 -1.69000 24.89700
C  17.33900 -1.15700 23.50500
C  16.14500 -0.26100 23.79800
C  16.17600 -0.22000 25.29000
C  18.57500 -0.47100 22.76600
C  14.76700 -0.87500 23.20900
C  14.10700 -0.10100 22.04700
N  16.21400 0.21900 28.17200
C  15.40500 0.87300 27.32700
C  14.60000 1.84000 28.07100
C  14.92800 1.71400 29.40200
C  15.92700 0.74600 29.38800
C  13.58400 2.81700 27.52800
C  14.70900 2.23700 30.72100
O  13.97800 3.15600 31.05400
C  15.62000 1.37700 31.60500
C  16.56300 2.20500 32.27300
O  17.68700 2.48800 31.87900
O  15.92500 2.71100 33.35200
C  16.70100 3.65800 34.23500
H  20.32500 -3.75400 30.52700
H  19.07800 -3.08000 24.17100
H  14.76500 1.38200 25.39300
H  18.45900 -0.03100 32.92000
H  19.09700 -2.74900 32.62400
H  20.47600 -0.54300 33.14000
H  21.09200 -0.80400 31.45600
H  21.39600 -1.97600 32.72600
H  17.11400 -2.61400 33.19700
H  15.90700 -1.57000 32.45900
H  16.13600 -2.10600 35.14600
H  15.46800 -0.67100 34.47700
H  21.02700 -6.38200 28.43500
H  21.47200 -5.17600 29.58900
H  22.38200 -5.26500 27.99400
H  21.32200 -6.91000 26.09000
H  22.60400 -5.63500 26.01400
H  22.05300 -6.62900 24.53800
H  16.99600 -2.05800 22.99500
H  16.11500 0.78800 23.50000
H  18.25700 0.55200 22.56200
H  18.84500 -0.93500 21.81800
H  19.42900 -0.37800 23.43600
H  14.05800 -0.93900 24.03400
H  14.93200 -1.88300 22.82900
H  13.19700 -0.63100 21.76900
H  14.72400 -0.19900 21.15300
H  13.80800 0.92600 22.25800
H  13.09400 2.28800 26.71000
H  14.16200 3.64800 27.12400
H  13.01300 3.24400 28.35200
H  14.96600 0.77300 32.23400
H  16.49500 4.70000 33.99000
H  17.76300 3.47100 34.08000
H  16.44700 3.42500 35.26900
Mg -1.64200 35.06600 27.23300
C  -3.39800 33.26300 29.86300
C  -0.30500 37.07800 29.65600
C  -0.29100 36.92500 24.75100
C  -3.25700 33.10500 24.91800
N  -1.90200 35.19600 29.56500
C  -2.62200 34.35700 30.38300
C  -2.30800 34.73000 31.85400
C  -1.51200 36.14300 31.75400
C  -1.26800 36.20600 30.20600
C  -2.18200 37.56100 32.26200
C  -1.63400 33.59400 32.63300
C  -2.11800 33.39800 34.10000
H  -1.10200 33.62700 35.21800
N  -0.34600 36.50900 27.22300
C  0.18300 37.12400 28.30800
C  1.24000 37.99500 27.95200
C  1.27700 37.97800 26.51300
C  0.17300 37.09400 26.08100
C  2.09600 38.88400 28.91300
C  2.14400 38.87300 25.54600
O  1.98200 38.87100 24.32800
C  3.19900 39.88600 26.08500
N  -1.93900 35.16500 25.15000
C  -1.22500 35.97700 24.33400
C  -1.74000 35.76500 22.88500
C  -2.39200 34.36400 22.90800
C  -2.58600 34.22000 24.39200
C  -2.64800 36.89900 22.25000
C  -1.49300 33.31200 22.22100
C  -0.16200 32.90700 22.83700
N  -3.14100 33.55200 27.27300
C  -3.60600 32.74600 26.24700
C  -4.38200 31.68100 26.75000
C  -4.28200 31.83800 28.17700
C  -3.52700 32.96600 28.44800
C  -5.13900 30.64200 25.99400
C  -4.69800 31.31000 29.49300
O  -5.30700 30.29300 29.69600
C  -4.19000 32.22500 30.62700
C  -5.25600 32.77300 31.38400
O  -6.09400 33.54000 30.89200
O  -5.20300 32.35000 32.64300
C  -6.20400 33.02300 33.57200
H  0.26900 37.61100 30.41800
H  0.21700 37.52800 23.99500
H  -3.68400 32.48300 24.12800
H  -3.25200 34.94900 32.35500
H  -0.58400 36.02700 32.31600
H  -2.80300 38.09800 31.54500
H  -1.39800 38.23300 32.61200
H  -2.85000 37.39900 33.10800
H  -0.55800 33.74400 32.54600
H  -1.83200 32.61800 32.19100
H  -2.49700 32.38600 34.24300
H  -3.02400 33.99000 34.23600
H  2.10800 38.56900 29.95700
H  1.77200 39.92300 28.96300
H  3.13800 38.76700 28.61600
H  2.60900 40.48100 26.78300
H  3.54200 40.44400 25.21400
H  4.00000 39.45800 26.68800
H  -0.85700 35.69200 22.25000
H  -3.34000 34.58400 22.41600
H  -2.32800 37.81800 22.74100
H  -3.71300 36.72400 22.40300
H  -2.48400 36.87300 21.17300
H  -1.16800 33.62500 21.22900
H  -2.10700 32.41600 22.12900
H  -0.34900 31.84200 22.98000
H  0.08300 33.37500 23.79000
H  0.55700 33.15100 22.05500
H  -4.55600 30.17200 25.20200
H  -5.94300 31.11100 25.42800
H  -5.54600 29.86300 26.63900
H  -3.58000 31.63700 31.31300
H  -5.52600 33.55400 34.24100
H  -6.71900 32.27500 34.17300
H  -7.05200 33.57500 33.16700

