158

Mg 47.76000 25.33600 29.55700
C  48.76900 27.40200 31.97500
C  46.41600 23.25500 31.98300
C  46.93600 22.95000 27.19100
C  49.38600 27.21600 27.15600
N  47.56400 25.39800 31.69700
C  47.98600 26.39100 32.48700
C  47.78800 26.11600 33.92700
C  47.06000 24.74200 33.90100
C  46.97900 24.42700 32.43500
C  47.84500 23.61300 34.75400
C  46.93500 27.20500 34.79500
C  47.30700 27.25600 36.33300
H  46.16700 26.97700 37.30300
N  46.56200 23.40400 29.52900
C  46.11500 22.75500 30.64600
C  45.49300 21.48600 30.26600
C  45.60600 21.38700 28.83200
C  46.44100 22.56800 28.44500
C  44.79900 20.60600 31.23200
C  45.06400 20.28100 27.90600
O  45.36700 20.18200 26.74500
C  44.24200 19.18600 28.44000
N  48.20400 25.02100 27.46300
C  47.61600 24.11700 26.71800
C  47.61500 24.49200 25.20100
C  48.36400 25.85800 25.20100
C  48.70400 26.04700 26.69500
C  48.12100 23.51000 24.10100
C  47.50200 27.09800 24.73200
C  48.26100 28.03300 23.65100
N  48.84000 26.91500 29.50300
C  49.51700 27.60900 28.49100
C  50.10100 28.79500 28.99800
C  49.88700 28.72300 30.34200
C  49.15400 27.62200 30.60800
C  50.83700 29.79200 28.12300
C  50.14000 29.38500 31.61700
O  50.62000 30.47200 31.90400
C  49.43300 28.48800 32.75700
C  50.53700 27.97300 33.59000
O  51.61500 27.52100 33.21900
O  50.19700 28.24000 34.87500
C  51.24600 27.84300 35.83200
H  46.10800 22.59100 32.79300
H  46.59300 22.38500 26.32200
H  49.72800 27.88200 26.36100
H  48.74500 25.97800 34.43100
H  46.08100 24.58500 34.35300
H  48.13100 22.73800 34.17000
H  47.13500 23.28800 35.51500
H  48.77700 23.98800 35.17800
H  45.87700 27.16800 34.53400
H  47.23800 28.19600 34.45600
H  47.68900 28.25700 36.53400
H  48.03000 26.45200 36.47500
H  43.76200 20.64600 30.90000
H  44.84000 20.87100 32.28900
H  45.14400 19.59400 31.02000
H  43.74400 18.57900 27.68300
H  43.57700 19.60300 29.19600
H  44.98200 18.59200 28.97600
H  46.55900 24.67000 24.99600
H  49.35800 25.81500 24.75600
H  48.67600 22.67600 24.52900
H  48.68900 24.08200 23.36600
H  47.26600 23.13400 23.53900
H  47.28500 27.69300 25.61900
H  46.62300 26.73800 24.19800
H  49.29100 27.67700 23.63000
H  48.06300 29.03300 24.03600
H  47.95100 27.84500 22.62300
H  50.99900 29.58100 27.06600
H  51.81900 29.94500 28.57100
H  50.26500 30.71300 28.23800
H  48.74500 29.10400 33.33500
H  51.34200 26.76000 35.75600
H  50.76700 27.99500 36.79900
H  52.23600 28.25500 35.63600
Mg 43.64700 42.07300 26.39000
C  42.47600 44.24900 28.84100
C  44.41000 39.77200 28.73500
C  44.69500 39.97800 23.85000
C  43.35000 44.66100 24.02800
N  43.30000 42.01800 28.53400
C  42.80600 43.04100 29.32600
C  42.82500 42.53600 30.76900
C  43.61100 41.19200 30.75100
C  43.86000 41.00000 29.28500
C  44.95700 41.03600 31.62200
C  41.35000 42.43800 31.39200
C  41.26600 41.96500 32.86800
H  40.42900 42.80500 33.93500
N  44.46300 40.11800 26.33300
C  44.58400 39.32300 27.38600
C  45.38100 38.20000 26.99400
C  45.48800 38.22300 25.54100
C  44.77400 39.43400 25.13400
C  46.01500 37.26000 28.04700
C  46.13400 37.25300 24.57200
O  46.09300 37.30600 23.33800
C  46.77200 36.03700 25.07200
N  44.11900 42.29500 24.23600
C  44.38300 41.26800 23.44000
C  44.41000 41.70300 21.96400
C  43.73600 43.06700 22.00400
C  43.75800 43.40700 23.49600
C  45.83500 41.63300 21.34000
C  42.23200 43.05600 21.47600
C  41.01400 42.78900 22.46100
N  43.02900 44.07300 26.37600
C  43.02100 44.99800 25.35700
C  42.37100 46.20400 25.86200
C  42.09100 45.96700 27.23900
C  42.69400 44.70700 27.47200
C  42.10100 47.50400 25.10400
C  41.49900 46.53100 28.45900
O  40.88800 47.55200 28.64900
C  41.79900 45.41500 29.53800
C  42.62900 46.11800 30.60100
O  43.45100 47.01000 30.43600
O  42.25000 45.63300 31.78300
C  42.83300 46.31000 32.94800
H  44.55000 39.03600 29.52900
H  44.92900 39.31600 23.01300
H  43.22000 45.50900 23.35300
H  43.48900 43.29300 31.18800
H  43.05500 40.36300 31.19000
H  44.93600 40.22300 32.34800
H  45.07400 41.97700 32.15900
H  45.79800 40.83000 30.96000
H  40.79300 41.68500 30.83400
H  40.84000 43.40000 31.35900
H  42.24700 41.78100 33.30500
H  40.76600 41.01800 33.07100
H  46.72100 37.82700 28.65400
H  46.48600 36.39700 27.57600
H  45.28300 36.89300 28.76600
H  47.52800 36.32800 25.80200
H  47.27900 35.56600 24.23000
H  46.00500 35.37400 25.47100
H  43.76900 40.97700 21.46200
H  44.38300 43.81100 21.53800
H  46.47000 42.50800 21.48200
H  45.71500 41.35800 20.29200
H  46.41900 40.87300 21.86000
H  42.18900 42.26700 20.72600
H  41.99400 44.03000 21.04900
H  41.39400 42.59800 23.46400
H  40.51800 41.86900 22.15100
H  40.31900 43.62700 22.50900
H  41.16800 47.39500 24.55200
H  42.91000 47.67100 24.39300
H  42.07000 48.32400 25.82200
H  40.84600 45.11500 29.97400
H  43.83100 46.70400 32.75400
H  42.96400 45.68700 33.83300
H  42.28700 47.17900 33.31500

