158

Mg 41.96700 41.23600 27.51500
C  41.14500 43.60600 30.04300
C  43.41800 39.35500 30.05800
C  42.58500 39.13100 25.34300
C  41.20800 43.76400 25.11100
N  42.32300 41.52700 29.80000
C  41.74300 42.47000 30.66200
C  41.93400 42.14300 32.13700
C  42.65100 40.76700 32.04200
C  42.79300 40.51900 30.48800
C  44.00100 40.64800 32.77800
C  40.66400 42.18400 32.99100
C  40.82500 41.49800 34.34400
H  39.87300 41.92500 35.46600
N  42.94900 39.51400 27.67900
C  43.46000 38.85400 28.77500
C  43.93700 37.55700 28.32800
C  43.60000 37.46700 26.97000
C  43.03500 38.73600 26.60400
C  44.48900 36.46800 29.19400
C  43.75800 36.27800 25.92500
O  43.73400 36.31600 24.71300
C  44.13900 34.95100 26.48100
N  42.06300 41.40300 25.56200
C  42.28400 40.35200 24.80900
C  42.25100 40.62600 23.29500
C  41.77000 42.07800 23.27000
C  41.57500 42.46800 24.77700
C  43.57000 40.23100 22.65600
C  40.73900 42.51800 22.22500
C  39.41600 41.74100 22.43600
N  41.41200 43.32500 27.45700
C  41.03600 44.19000 26.41900
C  40.68900 45.48100 26.89000
C  40.66700 45.28100 28.30500
C  41.08200 43.93600 28.59400
C  40.51200 46.77600 26.17100
C  40.52400 46.01900 29.53800
O  40.23900 47.22800 29.64800
C  40.81300 44.94400 30.74600
C  41.97800 45.53600 31.49800
O  43.07800 45.70100 31.02700
O  41.58000 45.87000 32.74300
C  42.60600 46.51800 33.58000
H  43.71800 38.62200 30.81000
H  42.80700 38.34700 24.61500
H  40.87000 44.50500 24.38500
H  42.60200 42.92100 32.50600
H  41.98200 40.00900 32.45100
H  43.90200 39.79900 33.45400
H  44.06000 41.45600 33.50800
H  44.88000 40.59300 32.13600
H  39.86700 41.80100 32.35400
H  40.39400 43.21100 33.23900
H  41.87400 41.54300 34.63900
H  40.66200 40.42400 34.25700
H  45.24300 35.87900 28.67200
H  43.65700 35.89000 29.59800
H  45.02800 36.96000 30.00400
H  43.50500 34.61900 27.30400
H  45.21000 34.95100 26.68500
H  43.87400 34.33800 25.61900
H  41.50900 40.00600 22.79200
H  42.66000 42.61100 22.93500
H  44.40500 40.65800 23.21200
H  43.64800 40.60600 21.63500
H  43.74200 39.15700 22.71600
H  41.07600 42.30100 21.21200
H  40.68600 43.59500 22.38300
H  39.59700 41.31900 23.42500
H  39.26600 40.98900 21.66100
H  38.65300 42.51900 22.42700
H  39.44700 46.96800 26.04100
H  40.95700 46.89500 25.18200
H  40.82000 47.60000 26.81400
H  40.00200 44.78400 31.45700
H  43.52000 46.79500 33.05500
H  43.00700 45.89000 34.37500
H  42.15900 47.38200 34.07200
Mg -10.79000 17.46000 41.83300
C  -7.25500 16.83800 41.75500
C  -10.08000 20.73900 40.99300
C  -13.93700 17.63500 40.79700
C  -11.06000 13.87000 41.87100
N  -8.86900 18.64100 41.43400
C  -7.58600 18.20900 41.52900
C  -6.65100 19.27800 40.98500
C  -7.46000 20.53300 41.33400
C  -8.91500 20.00600 41.33900
C  -7.00000 21.31300 42.61300
C  -6.42700 19.11100 39.38300
C  -5.00300 18.71800 39.03900
H  -4.92200 17.46400 38.19400
N  -11.91500 18.97100 41.06900
C  -11.47600 20.26200 40.81500
C  -12.62900 21.02000 40.31100
C  -13.76300 20.14900 40.23200
C  -13.22700 18.84000 40.75100
C  -12.44800 22.48100 39.79700
C  -15.10600 20.56000 39.76400
O  -15.36800 21.73500 39.62800
C  -16.24700 19.64200 39.67200
N  -12.24400 15.91200 41.10900
C  -13.52100 16.31300 40.90600
C  -14.47800 15.07600 40.90200
C  -13.45200 13.89000 41.03100
C  -12.15800 14.60300 41.37400
C  -15.49200 15.20300 42.01000
C  -13.32300 13.07200 39.69000
C  -13.66400 11.57300 39.75400
N  -9.45600 15.75400 41.97700
C  -9.75700 14.35100 42.09400
C  -8.56400 13.55000 42.34700
C  -7.54100 14.49900 42.26900
C  -8.13300 15.81200 41.97400
C  -8.44800 12.10300 42.74600
C  -6.12600 14.68700 42.29000
O  -5.25800 13.86300 42.37900
C  -5.87300 16.26600 41.93900
C  -5.09300 16.88800 43.01600
O  -5.45600 17.78000 43.81100
O  -3.80300 16.42100 42.89500
C  -3.01200 16.68300 44.06600
H  -9.92700 21.80800 40.83000
H  -15.02400 17.58800 40.70300
H  -11.22700 12.79300 41.94500
H  -5.67900 19.27500 41.47800
H  -7.44000 21.23600 40.50100
H  -6.20100 20.76400 43.11100
H  -7.86400 21.34300 43.27700
H  -6.66300 22.31500 42.34700
H  -6.70700 20.05700 38.91800
H  -7.05800 18.27100 39.09200
H  -4.41300 18.54400 39.93800
H  -4.59200 19.56900 38.49600
H  -11.42500 22.85700 39.79800
H  -13.05100 23.00800 40.53700
H  -12.70800 22.39200 38.74200
H  -16.58300 19.27200 40.64100
H  -15.90600 18.83400 39.02500
H  -17.03700 20.08600 39.06700
H  -15.16400 15.14000 40.05700
H  -13.63900 13.09400 41.75200
H  -15.18100 14.66600 42.90600
H  -16.38500 14.65000 41.72000
H  -15.83700 16.18600 42.32900
H  -12.24400 13.11900 39.54300
H  -13.95400 13.45400 38.88600
H  -12.86700 10.94200 40.14600
H  -13.76800 11.19600 38.73600
H  -14.57100 11.29700 40.29100
H  -9.35600 11.50500 42.83300
H  -7.91400 12.01100 43.69100
H  -7.85700 11.64200 41.95500
H  -5.21900 16.22800 41.06800
H  -3.63000 16.51500 44.94800
H  -2.68300 17.72100 44.01300
H  -2.14800 16.02200 43.99600

