158

Mg 40.49500 9.36400 29.67700
C  42.58100 10.62500 32.28500
C  38.40500 8.26100 32.09100
C  38.65900 8.02900 27.27000
C  42.98300 10.32500 27.36200
N  40.52100 9.45900 31.97100
C  41.39800 10.06400 32.81600
C  41.08000 9.85100 34.28600
C  39.84200 8.78900 34.15600
C  39.54700 8.74400 32.68400
C  40.03900 7.39800 34.89400
C  40.77400 11.19600 35.06000
C  39.87300 11.08800 36.31000
H  40.30200 11.98900 37.49000
N  38.64800 8.55000 29.65800
C  37.92600 8.14900 30.77400
C  36.59000 7.68500 30.39600
C  36.69900 7.57600 28.93600
C  38.00700 8.07000 28.56000
C  35.51500 7.32200 31.36600
C  35.62500 7.18600 27.92600
O  35.88100 7.11300 26.74700
C  34.30200 6.70800 28.30700
N  40.87000 8.99600 27.65900
C  39.94100 8.45300 26.88200
C  40.33500 8.50100 25.40500
C  41.80100 9.11000 25.45600
C  41.87700 9.54600 26.95500
C  40.25400 7.04300 24.73900
C  42.22400 10.09500 24.30400
C  42.26700 11.64900 24.59800
N  42.46700 10.23900 29.73800
C  43.25300 10.70000 28.68400
C  44.29900 11.49400 29.28300
C  44.09700 11.45900 30.67800
C  42.95900 10.71000 30.94600
C  45.31000 12.24100 28.44400
C  44.52700 12.03400 31.90700
O  45.46200 12.82400 32.05000
C  43.51100 11.55100 32.99900
C  44.42400 10.91700 34.04200
O  44.61400 9.70200 34.21200
O  44.74500 11.86900 34.97500
C  45.57600 11.45400 36.08500
H  37.66200 8.16300 32.88500
H  38.12400 7.46600 26.50300
H  43.69800 10.75900 26.66100
H  41.88200 9.29000 34.76500
H  38.97400 9.17500 34.69000
H  41.01200 7.34600 35.38100
H  39.98400 6.60500 34.14800
H  39.21100 7.12800 35.54900
H  40.38200 11.94500 34.37200
H  41.69900 11.55200 35.51300
H  39.88900 10.03200 36.57700
H  38.83300 11.29200 36.05200
H  34.64400 7.96600 31.24100
H  35.86900 7.49300 32.38200
H  35.20100 6.28000 31.30700
H  33.86900 7.21900 29.16800
H  34.45100 5.64700 28.50700
H  33.69500 6.83600 27.41100
H  39.58700 9.12800 24.92100
H  42.49200 8.26700 25.47800
H  40.20300 6.36500 25.59000
H  41.22900 6.81800 24.30600
H  39.57300 6.92700 23.89600
H  41.52800 10.01400 23.46900
H  43.13300 9.79900 23.77900
H  41.75400 11.86800 25.53500
H  41.77800 12.02700 23.70000
H  43.31800 11.91600 24.48400
H  44.78400 12.85500 27.71300
H  45.93100 11.56300 27.85900
H  45.92500 12.91200 29.04300
H  43.08500 12.42600 33.48900
H  45.94100 12.34500 36.59600
H  46.41900 10.92800 35.63700
H  45.11000 10.79400 36.81600
Mg -12.07400 37.73900 41.24900
C  -9.62100 35.41300 40.38100
C  -10.31400 40.11700 39.33500
C  -14.77300 39.63300 41.03300
C  -13.78900 35.18700 42.87400
N  -10.24200 37.73900 39.92000
C  -9.42500 36.62500 39.77600
C  -8.20900 36.94900 38.98800
C  -8.24600 38.54200 38.84200
C  -9.67000 38.85600 39.35300
C  -7.26500 39.34400 39.67100
C  -8.31500 36.26100 37.58300
C  -7.06700 35.42100 37.05900
H  -5.94100 36.26300 36.41300
N  -12.51300 39.66900 40.32500
C  -11.63800 40.50400 39.69300
C  -12.36600 41.72600 39.37300
C  -13.66400 41.63400 39.90100
C  -13.70600 40.29800 40.47500
C  -11.67500 42.83500 38.56200
C  -14.73200 42.62600 39.77000
O  -14.45900 43.60400 39.07200
C  -16.13900 42.48500 40.28800
N  -14.00600 37.47900 41.89100
C  -14.98300 38.37100 41.56800
C  -16.34800 37.93900 42.10000
C  -15.99200 36.57900 42.75600
C  -14.50800 36.34400 42.45400
C  -17.16000 38.99800 42.98100
C  -16.87300 35.40800 42.16000
C  -17.56900 34.50600 43.17100
N  -11.75800 35.68700 41.70800
C  -12.47400 34.80500 42.45400
C  -11.69300 33.63700 42.61800
C  -10.56100 33.73300 41.85600
C  -10.67500 35.04600 41.26300
C  -12.08700 32.41200 43.45000
C  -9.40600 33.14600 41.30400
O  -9.01700 31.98700 41.42200
C  -8.65000 34.14900 40.41300
C  -7.39700 34.36000 41.27400
O  -6.40800 33.65200 41.40600
O  -7.46400 35.60400 41.91000
C  -6.26600 36.15500 42.61000
H  -9.67000 40.85600 38.85300
H  -15.73600 40.14700 41.03100
H  -14.22800 34.29100 43.31600
H  -7.25700 36.70000 39.45600
H  -8.06400 38.80900 37.80100
H  -6.35600 39.49000 39.08700
H  -6.91500 38.73800 40.50700
H  -7.68400 40.29900 39.98800
H  -8.69800 36.94700 36.82700
H  -9.14100 35.55000 37.58700
H  -7.48200 34.65800 36.40000
H  -6.69600 34.88300 37.93100
H  -12.24900 43.41100 37.83600
H  -10.65000 42.69400 38.21800
H  -11.39800 43.59500 39.29200
H  -16.61600 43.45200 40.12900
H  -16.24800 42.10200 41.30300
H  -16.61200 41.79500 39.58900
H  -17.05000 37.89900 41.26700
H  -16.06400 36.43700 43.83400
H  -17.84500 39.64100 42.42800
H  -16.51300 39.71200 43.49100
H  -17.68400 38.45200 43.76600
H  -16.39100 34.66900 41.52000
H  -17.65400 35.80000 41.50800
H  -18.08400 33.67100 42.69500
H  -18.23500 35.18100 43.70800
H  -16.88200 34.12100 43.92600
H  -12.36600 32.80600 44.42700
H  -11.18500 31.81700 43.59600
H  -12.93900 31.90800 42.99300
H  -8.32700 33.65000 39.49900
H  -6.56900 36.98500 43.24900
H  -5.64900 36.41500 41.75100
H  -5.83000 35.46300 43.33100

