158

Mg 48.03000 34.17000 26.87800
C  45.98600 32.84300 29.43300
C  48.53000 36.96600 28.98600
C  49.37300 35.79300 24.31000
C  47.13800 31.52800 24.88500
N  47.44000 34.74300 29.05000
C  46.60300 34.02100 29.89700
C  46.76900 34.56300 31.32200
C  47.32300 36.00600 31.04100
C  47.88000 35.89000 29.63900
C  46.21700 37.07200 31.11900
C  47.87700 33.78400 32.05000
C  47.94200 33.94700 33.60200
H  47.01000 34.92700 34.32000
N  48.81200 36.05300 26.66500
C  48.99300 37.02400 27.61600
C  49.56500 38.19500 27.06400
C  49.87800 37.93800 25.66500
C  49.28000 36.58300 25.46600
C  49.80600 39.40600 27.91200
C  50.59200 38.78600 24.60500
O  50.81300 38.39600 23.47900
C  51.16700 40.13100 24.89700
N  48.30400 33.75500 24.95800
C  48.88000 34.51200 24.04700
C  49.07800 33.92500 22.71300
C  48.54200 32.52100 23.01000
C  47.89000 32.54000 24.40300
C  48.39900 34.68900 21.59300
C  49.53700 31.23900 22.85600
C  50.83700 31.35600 23.77400
N  46.79900 32.53900 27.03500
C  46.54200 31.50800 26.16800
C  45.68100 30.54900 26.76300
C  45.39600 31.08200 28.02500
C  46.18300 32.21100 28.16600
C  45.06100 29.30200 26.03200
C  44.53000 30.86400 29.13700
O  43.71000 29.99300 29.44400
C  44.79700 32.17100 30.05100
C  44.98500 31.67800 31.37900
O  45.87600 30.85500 31.75500
O  44.12300 32.22600 32.18900
C  44.19000 32.06700 33.59900
H  48.59200 37.85000 29.62400
H  49.67300 36.32500 23.40500
H  47.08000 30.60400 24.30400
H  45.80800 34.54200 31.83600
H  48.08700 36.21100 31.79100
H  45.19000 36.77300 31.32900
H  46.19600 37.53600 30.13300
H  46.50500 37.90100 31.76600
H  48.88200 34.05800 31.73100
H  47.70200 32.72100 31.88400
H  48.95100 34.29800 33.82100
H  47.84200 32.97700 34.08800
H  50.71300 39.94200 27.63300
H  49.79300 39.10600 28.96000
H  48.98500 40.10400 27.75000
H  51.92100 39.88800 25.64500
H  50.43300 40.80900 25.33400
H  51.67700 40.55500 24.03200
H  50.13700 33.78300 22.49600
H  47.68800 32.30800 22.36800
H  49.23400 35.21100 21.12500
H  47.69400 35.43500 21.95900
H  47.89400 34.03900 20.87800
H  49.97300 31.28200 21.85800
H  48.97900 30.30600 22.92600
H  51.73700 31.07900 23.22500
H  50.88300 30.56300 24.52000
H  50.96500 32.27700 24.34100
H  43.97700 29.30800 26.15100
H  45.39000 28.43200 26.60000
H  45.38600 29.13000 25.00600
H  43.93500 32.83900 30.06300
H  43.56700 32.86600 34.00100
H  45.20700 32.16300 33.98100
H  44.01900 31.04000 33.92200
Mg -6.07400 24.97200 24.90700
C  -4.42900 26.22300 27.78700
C  -7.94000 22.81700 26.84600
C  -7.43400 23.55000 22.01600
C  -4.15200 27.09000 23.00000
N  -6.07800 24.46900 27.05400
C  -5.37900 25.14000 28.04100
C  -5.98900 24.81000 29.37500
C  -6.89000 23.53300 29.07400
C  -6.92000 23.52700 27.53300
C  -6.46500 22.13400 29.69100
C  -6.84100 25.96500 29.98600
C  -6.85400 26.03600 31.51100
H  -6.17600 24.91200 32.26400
N  -7.54200 23.41300 24.49700
C  -8.18800 22.68500 25.41700
C  -9.09900 21.74000 24.83300
C  -9.04100 22.01800 23.36800
C  -7.97600 23.01500 23.23300
C  -9.97000 20.80000 25.64300
C  -9.71800 21.23100 22.26600
O  -9.49600 21.35300 21.10100
C  -10.83500 20.20700 22.60600
N  -5.66800 25.12000 22.86300
C  -6.40200 24.52000 21.84600
C  -6.01900 25.02900 20.52800
C  -5.11400 26.25300 20.84600
C  -5.01500 26.18400 22.31700
C  -5.33300 23.97500 19.63500
C  -5.63400 27.67100 20.30400
C  -6.70000 28.29100 21.24200
N  -4.68900 26.39600 25.23000
C  -3.98200 27.15400 24.37200
C  -3.14800 28.11700 25.14900
C  -3.24600 27.74800 26.51700
C  -4.17700 26.72500 26.49100
C  -2.30300 29.21600 24.50700
C  -2.79800 27.98500 27.85800
O  -1.99700 28.76600 28.29700
C  -3.64900 27.07000 28.77000
C  -2.81500 26.28600 29.70500
O  -2.49100 25.13100 29.57000
O  -2.67500 27.04700 30.87100
C  -1.83400 26.59000 32.05000
H  -8.63500 22.23800 27.45700
H  -7.97300 23.29300 21.10100
H  -3.42100 27.69800 22.46200
H  -5.20200 24.46300 30.04400
H  -7.85600 23.71500 29.54700
H  -5.37700 22.17800 29.73600
H  -6.72100 21.30900 29.02600
H  -6.95700 22.02000 30.65700
H  -7.90500 25.76200 29.86200
H  -6.68700 26.95400 29.55500
H  -7.89700 25.99500 31.82700
H  -6.34500 26.98700 31.66500
H  -9.69900 19.78300 25.35800
H  -10.97200 21.08100 25.31800
H  -9.95200 20.91100 26.72700
H  -10.41100 19.33800 23.10800
H  -11.25500 19.99400 21.62300
H  -11.57700 20.73200 23.20800
H  -6.83800 25.38600 19.90400
H  -4.15700 26.03600 20.37400
H  -4.33300 23.73500 19.99500
H  -5.20900 24.31900 18.60900
H  -6.02400 23.13600 19.72000
H  -6.08800 27.58900 19.31600
H  -4.83300 28.40500 20.21600
H  -7.48900 28.78300 20.67400
H  -6.27900 29.05600 21.89600
H  -7.17000 27.55500 21.89400
H  -2.91300 29.76100 23.78700
H  -1.42000 28.71400 24.11200
H  -2.05500 29.87900 25.33600
H  -4.24500 27.75900 29.36900
H  -2.36400 26.34200 32.96900
H  -1.21300 27.44700 32.31000
H  -1.25800 25.71100 31.76200

