158

Mg 0.37400 8.03800 26.66400
C  1.36000 9.82200 29.49900
C  0.75800 5.11000 28.45700
C  0.46900 6.30900 23.74000
C  0.71900 10.99900 24.84100
N  1.05300 7.59300 28.80000
C  1.19000 8.41700 29.81300
C  1.10900 7.69200 31.21600
C  1.22400 6.23500 30.74800
C  0.85600 6.29200 29.23700
C  2.50300 5.43900 30.98700
C  -0.22400 7.90300 32.00900
C  -0.19300 8.35500 33.45800
H  0.95000 7.90300 34.33800
N  0.41100 5.93900 26.20600
C  0.48700 4.89600 27.08700
C  0.40900 3.67700 26.35800
C  0.30000 4.02300 24.98900
C  0.34500 5.50600 24.92600
C  0.47500 2.28900 26.97800
C  -0.14300 3.07100 23.82900
O  -0.38600 3.54000 22.76200
C  -0.32900 1.54000 23.96800
N  0.40900 8.59900 24.60900
C  0.41400 7.67600 23.53400
C  0.50400 8.36300 22.25700
C  0.03700 9.76800 22.65000
C  0.38600 9.84500 24.14800
C  1.89600 8.31200 21.67700
C  -1.54300 9.92100 22.41500
C  -1.94100 10.41400 21.05100
N  0.87200 10.00200 27.02900
C  1.02400 11.08700 26.18800
C  1.30900 12.24600 26.93200
C  1.50300 11.75000 28.23700
C  1.13500 10.42800 28.23900
C  1.54200 13.71400 26.43600
C  1.96500 12.15200 29.57200
O  2.44300 13.20400 30.01100
C  1.65600 10.87600 30.51800
C  2.78800 10.57300 31.26400
O  3.90900 10.18100 30.90200
O  2.51400 11.08200 32.54900
C  3.72100 11.44100 33.33000
H  0.91400 4.21100 29.05700
H  0.60500 5.72700 22.82600
H  0.86400 11.80100 24.11400
H  1.93200 8.03100 31.84400
H  0.46400 5.72400 31.34000
H  3.22500 5.46700 30.17100
H  2.19300 4.47400 31.38800
H  2.95800 5.91900 31.85400
H  -0.86400 7.02500 32.09000
H  -0.78000 8.59900 31.38000
H  -1.09600 8.18100 34.04400
H  -0.18400 9.44400 33.50400
H  0.91600 2.39700 27.96800
H  0.98000 1.52100 26.39300
H  -0.53300 1.93500 27.19600
H  -0.86800 1.29500 23.05300
H  -0.89200 1.18700 24.83300
H  0.65900 1.10400 23.82300
H  -0.22900 7.88800 21.60500
H  0.50000 10.62200 22.15500
H  2.12200 9.32200 21.33400
H  1.95800 7.71800 20.76600
H  2.57800 8.00900 22.47100
H  -1.93300 10.67100 23.10300
H  -2.14700 9.04600 22.65500
H  -1.06600 10.47500 20.40300
H  -2.47700 11.36300 21.08800
H  -2.59600 9.62200 20.69000
H  1.82800 13.74900 25.38500
H  2.25900 14.25700 27.05200
H  0.56400 14.17600 26.57400
H  0.73400 11.08000 31.06300
H  4.28900 12.21400 32.81000
H  4.52800 10.73100 33.51400
H  3.46500 11.92500 34.27200
Mg 47.98900 34.27700 26.83100
C  46.11300 32.62200 29.32400
C  47.90300 37.08500 28.83000
C  49.21000 36.00900 24.23300
C  47.15700 31.58300 24.60500
N  47.30500 34.67800 28.96400
C  46.76200 33.81400 29.74300
C  46.72500 34.48700 31.15700
C  47.03400 36.04800 30.94700
C  47.44300 35.95300 29.51000
C  45.69700 36.88000 31.00500
C  47.94200 33.86300 32.04500
C  48.00200 34.33900 33.57500
H  47.08300 35.41300 34.15000
N  48.49600 36.24600 26.53200
C  48.37500 37.22700 27.51200
C  48.93400 38.43900 26.99800
C  49.53000 38.12700 25.75200
C  49.05600 36.80800 25.39100
C  49.10600 39.67000 27.82800
C  50.35000 38.98400 24.90100
O  50.85400 38.57200 23.85400
C  50.85200 40.31400 25.39300
N  48.12300 33.77900 24.80000
C  48.68500 34.73700 23.88300
C  48.74600 34.20700 22.46100
C  48.22700 32.74200 22.59200
C  47.75100 32.67000 24.08200
C  47.96600 35.18500 21.56800
C  49.31900 31.73800 22.25300
C  49.17100 30.99300 20.87700
N  46.95400 32.39000 26.86500
C  46.77100 31.40300 25.94200
C  45.89300 30.35800 26.47300
C  45.58100 30.90200 27.76700
C  46.24800 32.09900 27.99200
C  45.45200 29.10300 25.74800
C  44.81100 30.59000 29.01000
O  44.17500 29.55700 29.31500
C  45.05800 31.78200 30.07100
C  45.29400 31.27800 31.44300
O  46.18100 30.52600 31.72800
O  44.43200 31.89000 32.24700
C  44.58200 31.69600 33.70500
H  47.85600 37.91200 29.54100
H  49.53500 36.64600 23.40800
H  47.02800 30.70300 23.97000
H  45.78100 34.31200 31.67300
H  47.84600 36.44900 31.55400
H  45.25000 37.10800 30.03800
H  45.89200 37.76800 31.60500
H  45.01200 36.38300 31.69300
H  48.83200 34.04000 31.44200
H  47.89900 32.77400 32.04100
H  49.04800 34.38100 33.87900
H  47.65100 33.49800 34.17300
H  50.09100 39.73200 28.29000
H  48.27900 39.79500 28.52700
H  48.86700 40.50500 27.16900
H  49.99700 40.98500 25.47300
H  51.65500 40.68200 24.75400
H  51.34600 40.09500 26.34000
H  49.79300 34.13900 22.16300
H  47.45700 32.51600 21.85500
H  47.84000 36.13400 22.08900
H  46.97200 34.85500 21.26900
H  48.55600 35.39400 20.67600
H  49.48200 31.01000 23.04800
H  50.26300 32.27900 22.32700
H  50.18300 30.97000 20.47300
H  48.42500 31.43600 20.21600
H  48.84400 29.98200 21.11800
H  44.36400 29.05200 25.71900
H  45.91000 28.24900 26.24800
H  45.86500 29.04300 24.74100
H  44.06500 32.23000 30.10400
H  45.64200 31.53500 33.89900
H  44.10300 30.78200 34.05800
H  44.23500 32.56900 34.25700

