158

Mg 25.26000 0.72300 29.74200
C  27.27400 0.65700 32.64400
C  22.42500 0.92700 31.76900
C  23.45100 0.17600 26.92900
C  28.15900 -0.00900 27.83900
N  24.93700 0.71700 32.05400
C  25.92400 0.71000 33.05600
C  25.25100 0.83700 34.46900
C  23.70800 0.87200 34.05900
C  23.67400 0.82800 32.52400
C  22.81400 -0.25800 34.71300
C  25.76600 2.10300 35.37900
C  26.40500 1.83600 36.68100
H  26.26700 2.95600 37.74600
N  23.26700 0.69100 29.41300
C  22.23600 0.81400 30.30000
C  21.03000 1.04700 29.58700
C  21.26300 0.84100 28.24600
C  22.74300 0.59300 28.11500
C  19.69400 1.26600 30.18900
C  20.25700 0.75300 27.12000
O  20.56200 0.37900 25.99300
C  18.93400 1.21000 27.31100
N  25.75900 0.23700 27.77600
C  24.78900 -0.01500 26.82500
C  25.37900 -0.26800 25.45100
C  26.86700 -0.42400 25.81000
C  26.97400 0.02900 27.21400
C  24.64300 -1.32700 24.53900
C  27.71900 0.50200 24.86400
C  27.97800 1.97800 25.22800
N  27.36800 0.50800 30.11500
C  28.40400 0.15000 29.21000
C  29.61200 0.03900 30.07200
C  29.19200 0.26200 31.34700
C  27.84800 0.52600 31.36200
C  31.02000 -0.18900 29.55600
C  29.72300 0.42800 32.65700
O  30.91000 0.41000 33.01900
C  28.50700 0.77200 33.54900
C  28.41400 -0.30800 34.61800
O  27.67000 -1.30200 34.48800
O  29.25800 0.01600 35.62400
C  29.26200 -0.98500 36.76500
H  21.51500 0.94700 32.37300
H  22.83900 0.11700 26.02600
H  29.08100 0.01500 27.25500
H  25.59800 0.01200 35.09000
H  23.34400 1.85400 34.36100
H  21.93900 0.10300 35.25400
H  23.34600 -0.93300 35.38300
H  22.41600 -0.91400 33.93900
H  24.93800 2.74000 35.68900
H  26.35400 2.84000 34.83200
H  27.46200 1.57400 36.65100
H  25.94100 0.95800 37.13100
H  19.15000 2.18400 29.96600
H  19.85500 1.23400 31.26600
H  19.07500 0.39600 29.97000
H  18.50800 1.34000 26.31700
H  18.95500 2.22000 27.72000
H  18.20100 0.61600 27.85700
H  25.27700 0.65700 24.88500
H  27.21700 -1.45400 25.74800
H  25.33200 -2.12000 24.24600
H  24.27700 -0.81400 23.65000
H  23.86100 -1.82100 25.11500
H  27.36600 0.44200 23.83500
H  28.69300 0.01300 24.84900
H  27.49000 2.32300 26.13900
H  27.49100 2.49200 24.40000
H  29.05500 2.14600 25.22100
H  31.36800 0.71200 29.05200
H  30.99900 -1.07700 28.92500
H  31.73900 -0.38200 30.35200
H  28.55000 1.73900 34.05000
H  29.34600 -2.03900 36.49800
H  28.28000 -0.85900 37.22200
H  30.06900 -0.95200 37.49700
Mg -2.39100 34.22900 26.62500
C  -3.94300 32.78500 29.45800
C  -1.37200 36.80600 28.69300
C  -1.37500 35.82600 23.85100
C  -3.96400 31.80600 24.63900
N  -2.73800 34.76900 28.80700
C  -3.27100 33.94200 29.77700
C  -3.05900 34.48000 31.23700
C  -2.38200 35.90900 30.95600
C  -2.16600 35.85700 29.41300
C  -3.25500 37.05700 31.44700
C  -2.21900 33.56200 32.15600
C  -2.88400 32.98800 33.39500
H  -1.97300 32.55100 34.54300
N  -1.39500 36.03000 26.28700
C  -1.06300 36.90800 27.25900
C  -0.25200 37.92700 26.61900
C  -0.20100 37.65000 25.26900
C  -0.99100 36.42300 25.08100
C  0.38700 39.03000 27.40700
C  0.51700 38.34200 24.13200
O  0.57900 37.99300 22.96600
C  1.41400 39.49800 24.50600
N  -2.79600 33.94900 24.54700
C  -2.22600 34.71600 23.55800
C  -2.87600 34.49500 22.18700
C  -3.47800 33.02600 22.45100
C  -3.43400 32.87000 23.97900
C  -3.98600 35.48700 21.63600
C  -2.92700 31.86000 21.69900
C  -1.44200 31.58000 21.60100
N  -3.63500 32.55300 26.95600
C  -4.05900 31.66700 26.02700
C  -4.88800 30.70600 26.73800
C  -4.86700 31.09400 28.05800
C  -4.07800 32.26900 28.20700
C  -5.74200 29.56800 26.22000
C  -5.27700 30.71100 29.39300
O  -5.96000 29.71400 29.62000
C  -4.79100 31.84700 30.37800
C  -5.93500 32.39600 31.15000
O  -6.56600 33.43600 30.89500
O  -6.17300 31.55100 32.26000
C  -7.01000 32.00100 33.28600
H  -0.96600 37.57700 29.35100
H  -1.21100 36.49200 23.00200
H  -4.42400 31.00100 24.06200
H  -4.05100 34.63200 31.66300
H  -1.41800 35.98500 31.45900
H  -4.33200 36.90400 31.51300
H  -3.12200 37.91300 30.78600
H  -2.89200 37.46400 32.39100
H  -1.36600 34.17200 32.45300
H  -1.78300 32.78100 31.53300
H  -3.40300 32.08700 33.06800
H  -3.68000 33.65300 33.72900
H  1.44800 38.87300 27.21400
H  0.12500 39.02800 28.46500
H  0.10000 39.99700 26.99400
H  2.17700 39.40000 25.27800
H  0.69900 40.24900 24.84100
H  1.78500 40.02100 23.62400
H  -2.03900 34.45000 21.49000
H  -4.49700 33.04700 22.06600
H  -3.45400 35.90600 20.78100
H  -4.30600 36.37000 22.18900
H  -4.86300 34.96100 21.26000
H  -3.25500 31.95000 20.66300
H  -3.43500 30.94300 21.99500
H  -1.17700 31.71000 20.55200
H  -1.06600 30.59000 21.86000
H  -0.84800 32.31000 22.15100
H  -5.33000 29.27600 25.25400
H  -6.78900 29.76500 25.98600
H  -5.83200 28.73000 26.91100
H  -4.19000 31.36600 31.15000
H  -7.45200 31.07000 33.64100
H  -7.89300 32.53900 32.94100
H  -6.34600 32.44300 34.02800

