158

Mg -0.82200 7.34800 26.60700
C  0.25700 9.21000 29.40400
C  -1.11800 4.62600 28.75500
C  -1.17200 5.36700 23.94200
C  -0.40600 10.06800 24.60400
N  -0.53200 7.00100 28.83900
C  -0.17000 7.95500 29.75600
C  -0.18300 7.37500 31.20700
C  -0.65900 5.87100 30.92100
C  -0.72700 5.77600 29.39200
C  0.13000 4.73800 31.63100
C  -1.12800 8.10500 32.19300
C  -0.55800 8.50200 33.52600
H  -0.99000 7.65400 34.71100
N  -1.13700 5.30100 26.35000
C  -1.33200 4.36500 27.33700
C  -1.59800 3.06100 26.74300
C  -1.62100 3.24000 25.36500
C  -1.27100 4.68300 25.12500
C  -1.71900 1.85900 27.59100
C  -1.71500 2.19700 24.30400
O  -1.50400 2.44400 23.09600
C  -2.20900 0.76400 24.71900
N  -0.76500 7.65400 24.59000
C  -0.99100 6.70800 23.70500
C  -1.28800 7.26700 22.32100
C  -1.32700 8.75800 22.58500
C  -0.84800 8.91100 23.99700
C  -0.26800 6.81000 21.20700
C  -2.78700 9.24900 22.52300
C  -3.44800 9.82800 21.28700
N  -0.10400 9.21500 26.83900
C  0.04900 10.23100 25.92700
C  0.64900 11.39900 26.62900
C  0.82300 11.01800 27.93200
C  0.29400 9.69300 28.07100
C  1.03700 12.69200 25.99700
C  1.24100 11.47800 29.19700
O  1.80400 12.51300 29.46200
C  0.84300 10.40900 30.26400
C  1.94300 10.01000 31.22700
O  2.67700 9.05900 31.06300
O  1.99300 10.87400 32.26600
C  3.14100 10.83700 33.19600
H  -1.33600 3.76200 29.38600
H  -1.39000 4.76900 23.05500
H  -0.42800 10.86500 23.85800
H  0.82500 7.40300 31.62100
H  -1.64700 5.74400 31.36400
H  0.93800 5.22000 32.18100
H  0.59500 4.19700 30.80600
H  -0.59700 4.13400 32.17400
H  -2.01600 7.48900 32.33500
H  -1.40500 9.00900 31.65100
H  -0.63400 9.57900 33.67900
H  0.52400 8.42300 33.42600
H  -0.85600 1.19500 27.55000
H  -2.64800 1.33800 27.36000
H  -1.93400 2.05800 28.64100
H  -3.18500 0.80900 25.20200
H  -1.45200 0.22800 25.29100
H  -2.38800 0.23100 23.78600
H  -2.20600 6.76400 22.01800
H  -0.71900 9.21700 21.80500
H  -0.27700 7.48400 20.35100
H  -0.61300 5.84000 20.84800
H  0.74900 6.81300 21.60200
H  -2.93800 9.99800 23.30100
H  -3.42300 8.49100 22.98000
H  -2.64600 10.25600 20.68600
H  -4.26400 10.49200 21.57200
H  -3.95800 9.01300 20.77200
H  1.96900 13.05200 26.43300
H  0.26000 13.43800 26.16100
H  1.16000 12.57700 24.92000
H  0.03500 10.89000 30.81500
H  3.39600 11.78300 33.67200
H  3.97300 10.44600 32.61000
H  3.02400 10.16700 34.04800
Mg 34.05400 2.93400 29.45200
C  31.96100 3.78000 32.16600
C  36.79900 2.89100 31.54300
C  36.06000 2.19500 26.83000
C  31.26400 3.32200 27.35500
N  34.28600 3.18500 31.55300
C  33.33200 3.59000 32.50600
C  33.94100 3.62200 33.92000
C  35.50000 3.54200 33.62300
C  35.51800 3.15100 32.13400
C  36.18700 4.97300 33.94700
C  33.42200 2.37000 34.72500
C  32.95400 2.65400 36.22900
H  33.68100 3.70300 37.06900
N  36.20900 2.58500 29.18200
C  37.16600 2.62200 30.16800
C  38.36100 2.10500 29.62500
C  38.16700 1.75000 28.25500
C  36.80700 2.18300 28.02900
C  39.58600 1.81500 30.50300
C  39.07600 1.22300 27.25600
O  38.75700 1.02600 26.06900
C  40.53300 0.89600 27.61200
N  33.72600 2.96400 27.43900
C  34.68700 2.51300 26.58200
C  34.14900 2.46900 25.18700
C  32.59500 2.55700 25.37400
C  32.50000 3.05600 26.79400
C  34.74300 3.42600 24.16700
C  31.81800 1.29100 25.13300
C  31.61200 0.64800 23.71800
N  32.04200 3.49500 29.67500
C  31.02700 3.49500 28.74600
C  29.79500 3.79100 29.44700
C  30.13600 3.88300 30.82100
C  31.48400 3.63500 30.85100
C  28.47900 3.98200 28.89300
C  29.59100 4.22800 32.09600
O  28.41900 4.42300 32.47400
C  30.78600 4.10000 33.04800
C  30.99300 5.36600 33.74300
O  31.11300 6.39800 33.10300
O  30.95600 5.28700 35.13700
C  30.83400 6.53700 35.77000
H  37.55400 2.82900 32.33000
H  36.58100 1.84900 25.93500
H  30.36700 3.40600 26.73800
H  33.71100 4.54500 34.45200
H  35.99700 2.77700 34.21900
H  37.08700 5.18800 33.37100
H  36.62700 4.88100 34.94000
H  35.59400 5.88600 33.88600
H  34.19300 1.59900 34.74500
H  32.53900 1.89100 34.30300
H  33.08600 1.64400 36.61800
H  31.92800 3.02100 36.21400
H  40.51800 2.14800 30.04600
H  39.62300 0.76100 30.77800
H  39.49500 2.23900 31.50400
H  40.45700 0.15300 28.40600
H  41.05900 1.78200 27.96600
H  41.00900 0.42200 26.75400
H  34.29100 1.45000 24.82600
H  32.13800 3.28700 24.70600
H  35.33100 4.24500 24.58000
H  33.93900 3.82100 23.54700
H  35.46400 2.79500 23.64600
H  30.84000 1.46100 25.58300
H  32.41700 0.52900 25.63200
H  32.55600 0.85100 23.21300
H  30.84700 1.10100 23.08700
H  31.46700 -0.42500 23.84000
H  27.90500 3.05600 28.84900
H  28.55500 4.35000 27.87000
H  27.89800 4.66600 29.51100
H  30.60400 3.44500 33.90000
H  30.84900 6.31500 36.83700
H  29.84000 6.90700 35.52000
H  31.54900 7.32000 35.51600

