158

Mg 50.32000 47.18400 42.79000
C  47.11300 48.17400 41.59400
C  49.75700 44.06500 41.03000
C  53.58200 46.49600 42.92800
C  50.86600 50.56300 43.61400
N  48.60500 46.20400 41.54600
C  47.43100 46.83300 41.24500
C  46.63600 45.95500 40.29100
C  47.30000 44.50600 40.53100
C  48.65800 44.95300 41.00700
C  46.63700 43.73900 41.62300
C  46.52500 46.37700 38.75100
C  45.16100 46.07500 38.11300
H  45.28700 44.96800 37.05300
N  51.50600 45.51700 42.14500
C  51.09900 44.28200 41.51100
C  52.21200 43.41300 41.30800
C  53.26900 44.02000 42.09100
C  52.81000 45.41600 42.42800
C  52.18400 42.07800 40.62200
C  54.64100 43.38700 42.31000
O  54.90200 42.26200 41.95700
C  55.80300 44.10400 42.94500
N  51.98900 48.32600 43.09700
C  53.26200 47.81200 43.14500
C  54.31200 48.86100 43.55100
C  53.40900 50.12300 43.81500
C  52.01300 49.66200 43.50700
C  55.24900 48.47700 44.72400
C  53.72400 51.45100 43.05600
C  55.19200 51.89300 43.03400
N  49.30600 49.03900 42.72600
C  49.56300 50.27100 43.14200
C  48.52000 51.13900 42.95200
C  47.48600 50.36700 42.40400
C  48.01700 49.06400 42.26400
C  48.47900 52.59600 43.25800
C  46.14300 50.32900 41.78000
O  45.36500 51.21700 41.56900
C  45.87600 48.89700 41.24000
C  44.55300 48.45100 41.86600
O  44.38500 47.89600 42.93500
O  43.53700 48.53000 40.98600
C  42.19300 48.47100 41.51800
H  49.54900 43.05600 40.66800
H  54.65600 46.31600 43.01000
H  51.05700 51.53400 44.07600
H  45.60100 45.83800 40.61400
H  47.23100 43.97000 39.58400
H  47.39000 43.37300 42.32100
H  46.12500 42.86100 41.22900
H  45.88200 44.33200 42.13900
H  47.24400 45.79200 38.17600
H  46.82400 47.42400 38.70800
H  44.81700 46.93600 37.53900
H  44.38100 45.85100 38.84100
H  52.63000 42.23600 39.64000
H  51.17200 41.67400 40.64600
H  52.70900 41.25700 41.11100
H  55.38400 44.60500 43.81700
H  56.08000 44.83300 42.18400
H  56.50000 43.33800 43.28600
H  54.89300 49.10700 42.66200
H  53.44800 50.31900 44.88600
H  55.00700 48.91800 45.69100
H  56.25000 48.81900 44.46100
H  55.28300 47.41900 44.98400
H  53.11300 52.18400 43.58500
H  53.43500 51.35200 42.01000
H  55.50400 51.93800 41.99100
H  55.80900 51.24800 43.66000
H  55.08500 52.89400 43.45400
H  48.50500 52.70400 44.34200
H  47.59900 53.15700 42.94500
H  49.35100 53.12000 42.86500
H  45.78600 48.95400 40.15500
H  42.05500 48.85800 42.52800
H  41.88300 47.42900 41.60100
H  41.51600 49.05200 40.89200
Mg 5.89300 53.46300 40.84200
C  5.16600 50.10500 40.75400
C  9.11600 52.88300 40.00000
C  6.18800 56.80500 39.99800
C  2.49800 53.97900 41.51000
N  6.89500 51.66700 40.09700
C  6.44400 50.41300 40.36200
C  7.55200 49.35200 40.10900
C  8.83800 50.28800 40.28300
C  8.25900 51.69500 40.10400
C  9.69400 50.15900 41.61200
C  7.39000 48.56900 38.75500
C  6.58500 49.17100 37.56900
H  7.34200 49.88000 36.42500
N  7.47900 54.73500 40.08800
C  8.68500 54.27500 39.90100
C  9.55700 55.37700 39.53700
C  8.77700 56.57700 39.48600
C  7.42600 56.11200 39.86100
C  10.99300 55.05400 39.07300
C  9.23900 57.95300 39.09000
O  10.35000 58.11800 38.64100
C  8.38200 59.19300 39.19800
N  4.48100 55.18000 40.80800
C  4.88400 56.44700 40.40800
C  3.71100 57.47000 40.69600
C  2.53100 56.51600 41.06900
C  3.17300 55.15000 41.06500
C  4.02600 58.67500 41.72900
C  1.26600 56.59900 40.23600
C  0.05900 57.01400 41.05400
N  4.14500 52.29600 41.07300
C  2.89600 52.69300 41.46500
C  2.13600 51.46200 41.91000
C  3.08200 50.43500 41.58100
C  4.11100 51.00000 40.96200
C  0.85100 51.43700 42.68300
C  3.21700 48.98300 41.68500
O  2.54300 48.11900 42.32200
C  4.58100 48.69300 40.98900
C  4.21300 47.85600 39.83900
O  3.57100 48.22700 38.84100
O  4.71700 46.61400 40.08100
C  4.51200 45.71300 38.91400
H  10.15300 52.55400 39.90400
H  6.25300 57.88200 39.83000
H  1.44200 54.19500 41.68200
H  7.63400 48.62700 40.92000
H  9.56400 50.11500 39.48900
H  9.59900 51.08400 42.18000
H  10.75800 49.92200 41.59600
H  9.24400 49.32200 42.14600
H  7.02200 47.56700 38.97600
H  8.42800 48.43300 38.44900
H  5.90200 49.92600 37.95700
H  6.04100 48.39000 37.03700
H  11.08700 54.00800 38.78300
H  11.76600 55.37300 39.77300
H  11.10700 55.55600 38.11200
H  8.93300 60.08800 38.90900
H  8.04100 59.26100 40.23100
H  7.57900 59.12100 38.46400
H  3.55200 57.92800 39.72000
H  2.35100 56.71100 42.12600
H  5.00700 58.41100 42.12400
H  3.28300 58.80400 42.51500
H  4.17800 59.58900 41.15500
H  0.95000 55.67900 39.74300
H  1.37900 57.41600 39.52500
H  0.17800 56.76800 42.10900
H  -0.82600 56.56500 40.60200
H  -0.17900 58.04100 40.77600
H  0.59100 50.55300 43.26600
H  0.00300 51.64400 42.03000
H  1.10100 52.29600 43.30600
H  5.24800 48.09800 41.61200
H  4.64700 46.24500 37.97300
H  3.46400 45.43100 38.81500
H  5.02500 44.76400 39.07200

