158

Mg 53.06100 24.67800 45.43400
C  50.47400 26.71000 44.36500
C  51.45500 22.01300 43.83900
C  55.80200 22.76100 45.80400
C  54.81300 27.43600 46.52800
N  51.31100 24.39500 44.21900
C  50.41000 25.36700 43.91500
C  49.37600 24.94900 42.90200
C  49.41800 23.35600 43.12300
C  50.83300 23.22900 43.78900
C  48.33100 22.94300 44.07100
C  49.79200 25.48100 41.51900
C  48.68900 25.96400 40.57000
H  48.33300 24.98500 39.45200
N  53.59500 22.65800 44.95800
C  52.75800 21.73100 44.34400
C  53.42100 20.45800 44.28500
C  54.66000 20.63400 44.90300
C  54.74300 22.01700 45.31300
C  52.82300 19.17000 43.79300
C  55.69100 19.53200 45.08000
O  55.50700 18.37100 44.68300
C  57.03000 19.75200 45.79200
N  55.12300 25.01200 45.91500
C  56.01500 24.07000 46.09900
C  57.35400 24.75100 46.60200
C  57.04100 26.28600 46.65900
C  55.56300 26.20800 46.39100
C  57.95200 24.22700 47.92700
C  57.79600 26.97400 45.52700
C  59.28100 27.28700 45.73200
N  52.72600 26.70300 45.65300
C  53.43900 27.70900 46.13300
C  52.63200 28.91200 46.16200
C  51.42100 28.50300 45.60100
C  51.60000 27.22400 45.10900
C  53.04500 30.18700 46.78800
C  50.02100 28.92800 45.28300
O  49.35500 29.88200 45.74300
C  49.34900 27.72800 44.34400
C  49.04800 28.21200 43.02100
O  49.78000 28.74900 42.20000
O  47.65500 28.23800 42.91600
C  47.11500 29.04000 41.79100
H  50.83200 21.17800 43.51300
H  56.70000 22.15400 45.93600
H  55.36500 28.30200 46.90200
H  48.48000 25.48800 43.21000
H  49.43200 22.90500 42.13100
H  48.79600 22.94900 45.05600
H  47.98100 21.96500 43.74000
H  47.43600 23.56500 44.08600
H  50.24700 24.60900 41.04900
H  50.53600 26.26900 41.63400
H  48.87600 26.91200 40.06600
H  47.74100 26.01400 41.10600
H  51.74600 19.25900 43.65400
H  52.94300 18.30500 44.44600
H  53.51200 18.87100 43.00200
H  57.78700 20.25500 45.19200
H  57.50700 18.79200 45.99200
H  56.77000 20.32700 46.68100
H  58.09300 24.54400 45.82900
H  57.14000 26.65000 47.68200
H  57.91400 24.91000 48.77500
H  58.95100 23.82100 47.76500
H  57.36300 23.44400 48.40500
H  57.34800 27.93900 45.28900
H  57.48500 26.41800 44.64300
H  59.62200 27.20200 46.76400
H  59.44300 28.26600 45.28100
H  59.86800 26.64100 45.07900
H  53.42200 30.17600 47.81100
H  52.28700 30.95900 46.91800
H  53.87300 30.62400 46.23000
H  48.47300 27.36100 44.87800
H  47.72500 29.66500 41.13900
H  46.20100 29.58100 42.03700
H  46.76600 28.28800 41.08400
Mg -0.13300 43.31500 26.40600
C  2.30600 42.76500 28.77400
C  -2.50300 42.89300 29.08800
C  -2.65800 43.58000 24.13300
C  2.27700 43.44300 23.84900
N  -0.02800 43.04300 28.65900
C  1.06800 42.87100 29.42200
C  0.81900 42.83600 30.96400
C  -0.74200 42.71500 30.93700
C  -1.12300 42.84900 29.46500
C  -1.23000 41.34600 31.49400
C  1.28900 44.10000 31.75000
C  0.81200 44.38100 33.19000
H  0.42000 43.24200 34.10800
N  -2.22700 43.27000 26.59900
C  -3.00700 43.00900 27.72000
C  -4.43100 42.97500 27.28100
C  -4.46600 43.21600 25.94500
C  -3.06600 43.37900 25.49600
C  -5.42300 42.55900 28.29900
C  -5.72900 43.26900 25.06800
O  -5.60000 43.45100 23.85200
C  -7.13600 43.01800 25.64400
N  -0.17100 43.51400 24.39200
C  -1.32600 43.57600 23.65600
C  -1.04400 43.58300 22.18500
C  0.47400 43.74000 22.10600
C  0.94400 43.53100 23.54000
C  -1.73100 42.47500 21.30900
C  1.01600 45.11400 21.50000
C  1.56300 44.99400 20.07500
N  1.83600 43.19500 26.26400
C  2.71900 43.26300 25.19700
C  4.10400 43.25700 25.71000
C  3.96800 43.14200 27.04900
C  2.57000 43.04700 27.40000
C  5.41500 43.33300 24.90900
C  4.69200 43.08300 28.33400
O  5.89900 43.06600 28.50500
C  3.64200 42.79100 29.49500
C  4.11100 41.60800 30.29100
O  4.39200 40.54200 29.85500
O  4.06800 41.95800 31.64800
C  4.60900 40.85600 32.48100
H  -3.09800 42.82400 30.00100
H  -3.49300 43.69100 23.43900
H  3.05800 43.46900 23.08700
H  1.26400 41.92400 31.36000
H  -1.20200 43.55300 31.46000
H  -0.51900 40.97700 32.23300
H  -1.23800 40.57900 30.72000
H  -2.22500 41.49600 31.91400
H  1.13100 44.96100 31.10100
H  2.36000 44.30200 31.76900
H  0.01400 45.09800 32.99500
H  1.53800 44.99500 33.72200
H  -4.87700 42.23400 29.18400
H  -5.77800 41.63400 27.84600
H  -6.22000 43.26600 28.52900
H  -7.25700 42.00800 26.03600
H  -7.87700 43.09000 24.84800
H  -7.35500 43.80300 26.36900
H  -1.49400 44.49800 21.80200
H  0.77600 42.88600 21.50000
H  -2.07400 41.66300 21.95100
H  -1.04100 41.98300 20.62300
H  -2.60000 42.96500 20.86900
H  1.86100 45.41600 22.11800
H  0.32500 45.94800 21.62600
H  2.64900 45.07700 20.09500
H  1.13500 45.77600 19.44700
H  1.39400 43.99300 19.67700
H  5.93500 44.26600 25.12600
H  5.23800 43.25900 23.83600
H  6.00900 42.46500 25.19700
H  3.64000 43.69800 30.10100
H  4.20200 41.06900 33.46900
H  5.69100 40.72300 32.48100
H  4.13800 39.91300 32.20400

