158

Mg 47.59800 25.44300 28.80600
C  49.11400 27.42100 31.35000
C  46.99900 23.06200 31.05800
C  46.84600 23.38900 26.21200
C  49.13100 27.69000 26.48500
N  47.95500 25.32900 30.98200
C  48.46700 26.27100 31.84800
C  48.19700 25.86900 33.29600
C  47.91500 24.36700 33.13900
C  47.70800 24.18700 31.62300
C  48.93800 23.42800 33.70500
C  47.10700 26.68900 34.08000
C  47.43900 27.14500 35.50700
H  46.29100 27.21400 36.53900
N  46.82600 23.51400 28.64300
C  46.58700 22.71300 29.70100
C  45.98900 21.46700 29.21500
C  45.78000 21.62500 27.81300
C  46.44700 22.86600 27.49600
C  45.69600 20.28000 30.13900
C  45.07600 20.77200 26.76200
O  45.03000 20.90400 25.55300
C  44.34700 19.59100 27.29100
N  47.91000 25.61100 26.69200
C  47.46700 24.57800 25.88200
C  47.76900 24.98400 24.41900
C  48.42300 26.38800 24.39600
C  48.47600 26.60600 25.93900
C  48.73000 23.93100 23.86300
C  47.46100 27.48100 23.77100
C  48.23800 28.60400 22.98100
N  48.74100 27.27200 28.95700
C  49.16200 28.07400 27.88100
C  49.89600 29.19100 28.46200
C  49.81700 29.03100 29.85000
C  49.17700 27.83800 30.05700
C  50.59200 30.18900 27.60500
C  50.40000 29.53000 31.16700
O  51.03800 30.51900 31.50500
C  49.73300 28.53100 32.21300
C  50.83400 28.14000 33.13000
O  51.69200 27.33200 32.88200
O  50.73000 28.69400 34.39400
C  51.68500 28.24400 35.40000
H  46.86500 22.28500 31.81300
H  46.71200 22.71900 25.36000
H  49.64100 28.30200 25.73800
H  49.16500 26.00700 33.77600
H  46.94100 24.17800 33.59000
H  49.18900 23.54300 34.76000
H  49.83500 23.36100 33.09000
H  48.45200 22.45200 33.67600
H  46.15400 26.17300 34.19900
H  46.87900 27.58600 33.50400
H  47.60000 28.21500 35.36800
H  48.32100 26.69300 35.96000
H  46.14000 19.41400 29.64900
H  44.66200 19.97900 30.30800
H  46.15500 20.53700 31.09400
H  43.53500 20.02500 27.87300
H  45.09300 18.95400 27.76700
H  43.84800 19.20500 26.40200
H  46.87600 24.98700 23.79500
H  49.46400 26.46200 24.08000
H  48.12700 23.23600 23.28000
H  49.23900 23.50600 24.72800
H  49.44600 24.36500 23.16600
H  46.85300 27.98800 24.51900
H  46.71600 27.08400 23.08200
H  47.83900 28.54500 21.96800
H  49.25700 28.22300 23.05300
H  48.09700 29.63500 23.30700
H  50.34500 30.12400 26.54500
H  51.61500 29.82600 27.51300
H  50.57200 31.20800 27.99100
H  49.12200 29.04800 32.95300
H  52.60300 28.83100 35.36600
H  51.83200 27.16700 35.32000
H  51.36400 28.45100 36.42100
Mg 50.12500 45.79400 42.67700
C  46.85300 46.72900 41.52700
C  49.73200 42.85800 40.99100
C  53.41700 45.40600 42.94000
C  50.63100 49.34200 43.33500
N  48.34900 44.93800 41.43400
C  47.15300 45.46300 41.08800
C  46.44200 44.57900 40.03100
C  47.34500 43.29300 40.02200
C  48.57900 43.67600 40.89700
C  46.63500 41.95300 40.40800
C  46.17200 45.19900 38.68700
C  44.67900 45.32300 38.31700
H  44.12500 44.70900 37.04400
N  51.30100 44.23700 42.31400
C  51.04100 43.10500 41.59400
C  52.10700 42.25300 41.73400
C  53.17300 42.90900 42.43500
C  52.64900 44.29000 42.57200
C  52.04700 40.85100 41.15700
C  54.54200 42.38300 42.67200
O  54.86000 41.24300 42.31200
C  55.45200 43.09400 43.54900
N  51.80000 47.16100 43.02600
C  53.06600 46.68800 43.12500
C  54.08600 47.80200 43.38200
C  53.19000 49.03000 43.49500
C  51.74200 48.51500 43.31400
C  55.19500 47.59200 44.51300
C  53.58300 50.22500 42.51400
C  53.75400 51.61100 43.22700
N  48.95000 47.66600 42.71200
C  49.24700 48.97200 43.05200
C  48.07200 49.80200 42.99000
C  47.11300 48.93500 42.39300
C  47.69500 47.69900 42.19300
C  47.91300 51.32900 43.23900
C  45.75700 48.88800 41.87700
O  44.84000 49.73300 41.91800
C  45.54100 47.38100 41.28100
C  44.43200 46.78600 42.04700
O  44.47100 46.33600 43.21900
O  43.31500 46.75600 41.32200
C  42.09600 46.17300 41.94700
H  49.61900 41.87800 40.52200
H  54.50100 45.29800 42.86500
H  50.96500 50.37700 43.43300
H  45.46700 44.26800 40.40700
H  47.68900 43.18300 38.99400
H  46.73500 41.85300 41.48900
H  47.10800 41.05100 40.02000
H  45.61600 41.99600 40.02300
H  46.69600 44.68500 37.88100
H  46.57600 46.20900 38.74500
H  44.60700 46.40700 38.23100
H  44.07700 45.04800 39.18300
H  51.19300 40.67700 40.50200
H  52.07200 40.08900 41.93600
H  52.98300 40.74200 40.60900
H  54.92000 43.77600 44.21200
H  56.18200 43.66700 42.97800
H  55.97600 42.31700 44.10500
H  54.63500 47.92000 42.44800
H  53.30200 49.34900 44.53100
H  55.20500 46.57100 44.89400
H  55.02500 48.15200 45.43300
H  56.21600 47.70600 44.14700
H  52.72500 50.33700 41.85100
H  54.54800 50.13300 42.01400
H  53.54400 51.42900 44.28100
H  52.99300 52.30700 42.87500
H  54.75400 52.03200 43.12700
H  48.37300 51.80100 42.37100
H  48.61400 51.53000 44.05000
H  46.89200 51.70300 43.31600
H  45.22300 47.55600 40.25300
H  41.82600 46.79200 42.80200
H  42.28400 45.14600 42.26000
H  41.37300 46.21800 41.13200

