158

Mg 1.60200 -1.55900 44.77200
C  4.75700 -0.37800 44.00100
C  0.31600 1.23400 43.29700
C  -1.42400 -3.08600 44.70400
C  3.09200 -4.66000 45.55300
N  2.49300 0.16400 43.54600
C  3.77900 0.49700 43.43400
C  4.02000 1.83500 42.68600
C  2.51600 2.45400 42.95300
C  1.69900 1.22600 43.30800
C  2.43900 3.49900 44.02700
C  4.41500 1.60800 41.19500
C  5.85900 2.10900 40.90700
H  6.70400 1.37000 39.89100
N  -0.31900 -0.91000 44.34800
C  -0.60600 0.25600 43.71400
C  -2.05100 0.32500 43.57600
C  -2.65900 -0.90500 43.99600
C  -1.50900 -1.66800 44.43600
C  -2.68700 1.63800 42.99900
C  -4.16200 -1.33500 43.93800
O  -5.01200 -0.52300 43.59800
C  -4.77100 -2.66100 44.29800
N  0.96600 -3.62100 44.81100
C  -0.37600 -3.90700 45.03700
C  -0.70300 -5.24600 45.67700
C  0.73300 -5.78100 45.89400
C  1.67300 -4.62000 45.37100
C  -1.53000 -5.11100 46.90600
C  0.96000 -7.20300 45.22600
C  1.42300 -8.28000 46.24200
N  3.51400 -2.38000 44.83900
C  4.04700 -3.64300 45.19300
C  5.50600 -3.63300 45.13800
C  5.78600 -2.33600 44.72800
C  4.57900 -1.64800 44.56500
C  6.42200 -4.86000 45.41700
C  6.92600 -1.48600 44.40000
O  8.13800 -1.58500 44.45700
C  6.26700 -0.17800 43.94900
C  6.55600 0.73800 45.07400
O  5.86900 0.83100 46.08700
O  7.66100 1.41600 44.74900
C  7.85900 2.68600 45.37600
H  -0.21100 2.14800 43.01700
H  -2.44500 -3.46000 44.80300
H  3.61900 -5.56200 45.86900
H  4.77400 2.40000 43.23300
H  2.15000 2.89700 42.02700
H  2.98500 4.38200 43.69500
H  2.81800 3.18100 44.99800
H  1.42900 3.87900 44.18300
H  3.79200 2.29500 40.62200
H  4.39400 0.57600 40.84500
H  6.47200 2.03900 41.80500
H  5.72600 3.15400 40.62700
H  -3.77100 1.56100 42.91700
H  -2.42200 1.85200 41.96300
H  -2.47500 2.55800 43.54300
H  -4.38100 -2.93800 45.27700
H  -4.33200 -3.33900 43.56600
H  -5.85600 -2.64600 44.40600
H  -1.31500 -5.87700 45.03400
H  1.04600 -5.85400 46.93600
H  -2.57800 -5.10700 46.60700
H  -1.25200 -4.18100 47.40100
H  -1.30200 -6.01000 47.47900
H  1.63400 -6.98400 44.39700
H  -0.01800 -7.57300 44.91900
H  1.21300 -8.06700 47.29000
H  2.46300 -8.57500 46.10200
H  0.80900 -9.15600 46.03200
H  5.77100 -5.72200 45.27700
H  6.70400 -4.83300 46.46900
H  7.30600 -4.86200 44.77900
H  6.71500 0.20700 43.03300
H  8.80400 2.98400 44.92100
H  7.73300 2.51300 46.44500
H  7.15300 3.44400 45.03600
Mg -12.02800 37.89400 43.10800
C  -10.10600 35.19700 42.21800
C  -10.09100 39.76800 40.97000
C  -14.30300 40.40500 43.13000
C  -14.19400 35.76900 44.63000
N  -10.28900 37.50800 41.68300
C  -9.65100 36.32900 41.60600
C  -8.36400 36.52500 40.82500
C  -8.42200 37.94400 40.25100
C  -9.67700 38.45900 41.00500
C  -7.12600 38.87400 40.41400
C  -8.11700 35.47200 39.67200
C  -6.64100 35.05200 39.49800
H  -5.83500 35.57500 38.27600
N  -12.12100 39.88700 42.28200
C  -11.15700 40.48000 41.51400
C  -11.49400 41.88700 41.30900
C  -12.67200 42.11800 42.00000
C  -13.13100 40.77500 42.49800
C  -10.68300 42.76600 40.41400
C  -13.33000 43.42500 42.11800
O  -12.73200 44.42000 41.73800
C  -14.69000 43.65000 42.67200
N  -13.90200 38.02900 43.71400
C  -14.63700 39.19100 43.74100
C  -16.07600 38.99700 44.27500
C  -16.07500 37.45400 44.56800
C  -14.59100 37.03800 44.35600
C  -16.35300 40.00500 45.42500
C  -17.15300 36.67600 43.71900
C  -17.77500 35.45500 44.39600
N  -12.12400 35.85900 43.48300
C  -13.06700 35.15300 44.17000
C  -12.60100 33.77000 44.30300
C  -11.35900 33.75200 43.58000
C  -11.25300 35.02900 43.00800
C  -13.27900 32.63400 45.05100
C  -10.21900 32.93300 43.20500
O  -9.92300 31.78300 43.44000
C  -9.42400 33.77600 42.28100
C  -8.06500 33.84300 42.85900
O  -7.14200 33.23400 42.43600
O  -7.99600 34.72500 43.88800
C  -6.57000 34.90400 44.41700
H  -9.51100 40.49200 40.39500
H  -14.95800 41.25600 43.32900
H  -14.94400 35.13900 45.11200
H  -7.51000 36.32700 41.47300
H  -8.61500 38.00600 39.18000
H  -7.34600 39.72300 41.06200
H  -6.80700 39.21900 39.43000
H  -6.24800 38.31100 40.73200
H  -8.40000 35.96100 38.74000
H  -8.88500 34.70500 39.77100
H  -6.60000 33.97900 39.30800
H  -6.13300 35.05200 40.46200
H  -11.37500 43.39800 39.85700
H  -9.97000 42.40700 39.67200
H  -10.03700 43.47900 40.92500
H  -15.33900 43.07100 42.01500
H  -14.96800 44.67300 42.42000
H  -14.74500 43.38700 43.72800
H  -16.76100 39.10100 43.43300
H  -16.41000 37.41100 45.60400
H  -15.44200 40.33000 45.92700
H  -16.98300 39.53200 46.17800
H  -16.90200 40.90500 45.14800
H  -16.52300 36.38300 42.87900
H  -17.92300 37.38000 43.40600
H  -18.82100 35.68100 44.60400
H  -17.23700 35.10900 45.27900
H  -17.77300 34.63400 43.67900
H  -14.35100 32.60700 44.85800
H  -13.05100 32.71400 46.11400
H  -12.76600 31.77900 44.61100
H  -9.46200 33.31500 41.29400
H  -6.39300 35.70800 45.13200
H  -5.84400 35.10800 43.63000
H  -6.24300 33.97400 44.88100

