158

Mg 45.43300 5.00500 48.35500
C  43.48100 7.76800 47.78500
C  42.69900 3.09300 47.55500
C  47.45900 2.29800 48.35800
C  48.22500 7.04800 48.66000
N  43.31600 5.38800 47.64400
C  42.75900 6.59700 47.56000
C  41.31300 6.48100 47.19800
C  41.07800 4.92600 47.39000
C  42.46900 4.43700 47.58900
C  39.91500 4.42500 48.24000
C  40.94900 6.95900 45.66700
C  39.76900 7.92400 45.40100
H  38.98500 7.49300 44.08600
N  45.15000 2.97200 47.98600
C  43.93700 2.41000 47.70000
C  44.12700 0.98900 47.47300
C  45.50400 0.70600 47.64800
C  46.13600 1.96100 48.01600
C  43.04100 0.06900 47.24900
C  46.13300 -0.72500 47.53800
O  45.50500 -1.67900 47.26500
C  47.61500 -0.91700 47.74600
N  47.51700 4.70800 48.51900
C  48.03600 3.48800 48.59400
C  49.51300 3.54300 48.91500
C  49.81800 5.07200 48.92400
C  48.44300 5.65500 48.68800
C  49.80400 2.83700 50.26600
C  50.80800 5.53100 47.79900
C  52.19700 6.12100 48.29000
N  45.80100 7.00800 48.36300
C  46.96200 7.69600 48.54700
C  46.77800 9.14700 48.32900
C  45.35400 9.22300 48.10600
C  44.88700 7.87000 48.07900
C  47.85400 10.27900 48.43600
C  44.17000 10.11100 47.98900
O  44.05100 11.33600 48.01300
C  42.93300 9.16800 47.62300
C  41.83800 9.50500 48.57100
O  41.56000 8.87300 49.56800
O  41.09400 10.59400 48.08600
C  40.21900 11.05600 49.19000
H  41.77400 2.53100 47.41300
H  48.17200 1.47500 48.43100
H  49.07500 7.67600 48.93600
H  40.79000 7.12700 47.90300
H  40.85700 4.54700 46.39300
H  39.41400 5.32400 48.59900
H  40.07500 3.67200 49.01100
H  39.09700 3.97500 47.67700
H  40.76300 6.09500 45.03100
H  41.86600 7.42200 45.30300
H  40.10900 8.95900 45.38200
H  39.02900 7.75400 46.18300
H  42.77300 -0.19400 48.27200
H  43.39300 -0.82800 46.74000
H  42.14800 0.45500 46.75500
H  47.85500 -0.96600 48.80800
H  48.14300 -0.24100 47.07400
H  47.68600 -1.90300 47.28900
H  50.10100 3.05000 48.14100
H  50.15600 5.56000 49.83800
H  49.73500 1.74900 50.24500
H  49.07300 3.25700 50.95700
H  50.76500 3.15000 50.67400
H  50.30300 6.11800 47.03200
H  51.08300 4.68800 47.16500
H  52.95000 5.33300 48.27300
H  52.09300 6.42800 49.33100
H  52.40300 6.93000 47.59000
H  48.85600 10.05100 48.07300
H  47.84600 10.35200 49.52300
H  47.56100 11.21000 47.95000
H  42.70600 9.42200 46.58800
H  39.46100 10.28300 49.31400
H  39.78400 12.00400 48.87600
H  40.86600 11.26400 50.04300
Mg 29.83500 57.45200 40.95100
C  26.91700 55.87800 39.67500
C  31.62400 55.03500 39.24700
C  32.57700 59.46400 40.79700
C  27.79100 60.18000 41.74900
N  29.26900 55.55600 39.69800
C  28.07000 55.15900 39.29600
C  28.18300 53.91600 38.38900
C  29.63400 53.57000 38.51500
C  30.22700 54.84600 39.14700
C  29.92600 52.35500 39.43000
C  27.62700 54.05500 36.93600
C  27.88800 55.37900 36.17800
H  27.03300 55.55500 34.93900
N  31.87000 57.15600 40.45100
C  32.38200 56.11400 39.73100
C  33.83500 56.21300 39.70100
C  34.16500 57.52800 40.19200
C  32.86100 58.17300 40.46900
C  34.70900 55.26200 38.95100
C  35.58500 58.03100 40.30600
O  36.54900 57.38200 39.95600
C  35.85300 59.36000 40.96600
N  30.08400 59.43500 41.29600
C  31.33300 60.03000 41.22300
C  31.29300 61.59700 41.33800
C  29.83400 61.77800 42.00000
C  29.15100 60.38800 41.71400
C  32.36600 62.18700 42.27800
C  29.08900 63.01300 41.41700
C  28.88600 64.20900 42.43200
N  27.73800 57.94300 40.97200
C  27.07700 59.01900 41.44900
C  25.67400 58.79900 41.29100
C  25.55900 57.51200 40.75600
C  26.86800 57.11600 40.41600
C  24.56500 59.79200 41.63900
C  24.62500 56.46200 40.22700
O  23.42100 56.37700 40.30000
C  25.46300 55.48200 39.41100
C  25.27500 54.08100 39.92700
O  25.66600 53.65300 41.04100
O  24.51600 53.34100 39.04300
C  24.27200 51.91500 39.48800
H  32.28800 54.23300 38.91900
H  33.43300 60.10300 40.57000
H  27.21000 60.97100 42.22600
H  27.51000 53.15600 38.78700
H  30.15700 53.49800 37.56200
H  29.47800 51.49600 38.93000
H  29.36300 52.51200 40.35000
H  31.00000 52.28700 39.60500
H  26.62200 53.63600 36.89300
H  28.33100 53.39900 36.42400
H  28.95700 55.39600 35.96900
H  27.67500 56.16500 36.90400
H  35.37400 55.80300 38.27700
H  34.20000 54.52000 38.33600
H  35.37600 54.89100 39.73000
H  35.62900 60.08800 40.18700
H  36.88300 59.56900 41.25300
H  35.12800 59.52500 41.76400
H  31.24500 62.03300 40.34000
H  29.84800 61.76700 43.09000
H  33.04100 62.93300 41.85800
H  33.11100 61.42900 42.52100
H  31.88500 62.60200 43.16400
H  28.13800 62.77000 40.94300
H  29.66000 63.41600 40.58000
H  29.05500 65.15800 41.92400
H  29.68000 64.15600 43.17700
H  27.91800 64.29800 42.92500
H  24.39800 60.48800 40.81700
H  24.98700 60.45100 42.39800
H  23.58900 59.45700 41.99000
H  25.27500 55.47600 38.33800
H  25.29400 51.53500 39.50200
H  23.87500 51.36900 38.63200
H  23.77500 51.64300 40.42000

