158

Mg -1.49900 34.23300 27.05000
C  -3.35500 32.42800 29.49000
C  -0.36100 36.27100 29.45400
C  -0.08500 36.22700 24.65900
C  -3.08100 32.37000 24.54900
N  -1.77900 34.32200 29.22400
C  -2.54400 33.45100 30.02900
C  -2.28700 33.82400 31.50900
C  -1.56900 35.20500 31.47700
C  -1.26300 35.33400 30.00600
C  -2.37400 36.44000 32.16300
C  -1.57700 32.66700 32.30400
C  -2.35100 32.13100 33.52500
H  -1.73400 32.26900 34.90100
N  -0.20100 35.85000 27.02300
C  0.14600 36.53400 28.15000
C  1.00300 37.59200 27.84700
C  1.02600 37.67700 26.42100
C  0.22200 36.56700 25.92900
C  1.62400 38.43700 28.93300
C  1.62800 38.69100 25.49700
O  1.33600 38.85400 24.34400
C  2.71200 39.57300 25.99500
N  -1.83600 34.41600 24.92900
C  -0.93300 35.17200 24.15200
C  -1.16300 34.98800 22.66900
C  -1.78200 33.56800 22.66700
C  -2.32900 33.43100 24.09700
C  -1.98300 36.09300 21.81800
C  -0.89900 32.37200 22.19600
C  -1.53800 31.43900 21.14000
N  -2.91800 32.71900 26.95300
C  -3.45700 32.10900 25.85200
C  -4.42200 31.17100 26.26900
C  -4.40300 31.24700 27.67700
C  -3.43000 32.17300 28.04100
C  -5.15100 30.06700 25.41800
C  -5.06400 30.75200 28.93100
O  -5.97500 29.99700 29.16800
C  -4.40500 31.50500 30.18700
C  -5.42200 32.37300 30.81900
O  -6.03100 33.26900 30.26300
O  -5.58300 31.86300 32.07600
C  -6.65600 32.45700 32.94600
H  -0.15000 37.00800 30.23300
H  0.38800 36.81500 23.86900
H  -3.38200 31.65800 23.77900
H  -3.30900 33.95400 31.86400
H  -0.62000 35.21300 32.01300
H  -3.19400 36.12200 32.80600
H  -2.79000 37.10800 31.40900
H  -1.73200 37.05500 32.79300
H  -0.53400 32.92600 32.48600
H  -1.48100 31.83800 31.60300
H  -2.61700 31.08900 33.34900
H  -3.34300 32.58000 33.48500
H  0.90600 39.15200 29.33500
H  2.53200 38.84500 28.49000
H  1.84700 37.77300 29.76800
H  3.59500 38.99800 26.27500
H  2.38900 40.36300 26.67200
H  3.01200 40.22000 25.17000
H  -0.15100 34.93200 22.26900
H  -2.58700 33.58900 21.93200
H  -2.79900 35.63900 21.25500
H  -1.32600 36.64700 21.14800
H  -2.47600 36.78800 22.49800
H  -0.46400 31.77800 23.00000
H  -0.05300 32.68400 21.58300
H  -1.56200 30.40600 21.48700
H  -0.97200 31.38700 20.21000
H  -2.56000 31.75800 20.93600
H  -6.20000 30.10900 25.71100
H  -4.68000 29.14400 25.75500
H  -5.03000 30.18700 24.34200
H  -3.95900 30.80500 30.89200
H  -7.02800 33.37300 32.48700
H  -6.21100 32.87600 33.84800
H  -7.57800 31.89900 33.10900
Mg -5.52800 25.14500 26.30900
C  -3.88500 26.72800 29.14500
C  -7.35500 23.32800 28.49400
C  -6.96700 23.73100 23.73700
C  -3.54300 27.24400 24.28300
N  -5.62600 25.12000 28.59400
C  -4.96900 25.88900 29.51300
C  -5.50000 25.46100 30.85800
C  -6.27800 24.12800 30.63900
C  -6.42100 24.18000 29.18600
C  -5.50900 22.88100 31.15700
C  -6.34000 26.53500 31.52000
C  -6.22100 26.58500 33.05000
H  -5.71500 25.36300 33.84600
N  -6.96700 23.79400 26.13500
C  -7.67800 23.22300 27.13900
C  -8.69700 22.33700 26.65700
C  -8.51900 22.35000 25.25900
C  -7.42800 23.27900 24.98500
C  -9.80500 21.75600 27.51800
C  -9.26800 21.66600 24.15900
O  -9.03900 21.96200 23.00100
C  -10.37200 20.60800 24.50100
N  -5.32300 25.53700 24.31300
C  -6.00400 24.76300 23.38600
C  -5.50600 25.02400 21.92700
C  -4.66500 26.29600 22.17300
C  -4.52200 26.43400 23.70100
C  -4.57300 23.90400 21.40600
C  -5.24600 27.58500 21.54800
C  -4.54900 28.01200 20.18500
N  -3.86900 26.40800 26.59500
C  -3.19000 27.20800 25.67100
C  -2.27200 28.08200 26.34900
C  -2.48200 27.83800 27.66500
C  -3.51800 26.88200 27.78800
C  -1.19000 28.97900 25.74100
C  -2.06400 28.31200 28.98600
O  -1.18400 29.04600 29.35000
C  -2.99000 27.59300 29.98500
C  -2.15400 26.75500 30.93200
O  -1.44500 25.77500 30.63000
O  -2.29400 27.34400 32.19300
C  -1.41600 26.64700 33.15400
H  -7.79000 22.62000 29.20300
H  -7.36500 23.29800 22.81700
H  -2.85500 27.81800 23.65800
H  -4.67000 25.29600 31.54500
H  -7.26200 24.10200 31.10500
H  -5.23200 22.11100 30.43800
H  -6.16600 22.39600 31.88000
H  -4.54700 23.04100 31.64300
H  -7.37800 26.48600 31.19200
H  -6.09000 27.55500 31.23000
H  -7.24200 26.75000 33.39400
H  -5.57400 27.42500 33.30600
H  -10.75100 22.27500 27.36500
H  -9.58500 21.87200 28.57900
H  -9.94400 20.70400 27.26600
H  -10.63100 20.16500 23.53900
H  -11.24000 21.06700 24.97500
H  -10.03800 19.74600 25.07800
H  -6.34000 25.17800 21.24200
H  -3.61000 26.28200 21.90000
H  -4.61400 23.95900 20.31800
H  -4.79100 22.91000 21.79700
H  -3.55900 23.97600 21.80000
H  -5.24500 28.45300 22.20700
H  -6.29300 27.46200 21.27100
H  -3.91700 27.17600 19.88300
H  -3.91200 28.89600 20.16000
H  -5.20200 28.07700 19.31500
H  -1.72700 29.66900 25.09000
H  -0.58100 28.38900 25.05600
H  -0.57900 29.50400 26.47600
H  -3.56100 28.26400 30.62600
H  -0.39400 27.01500 33.06300
H  -1.47800 25.57700 32.95400
H  -1.88100 26.83000 34.12300

