158

Mg 47.37900 14.97200 28.14700
C  45.43000 14.89500 31.06700
C  49.49300 17.25000 29.66400
C  49.07800 15.29900 25.19500
C  44.92400 13.14800 26.51000
N  47.39300 16.01200 30.09500
C  46.59400 15.71200 31.18800
C  47.14600 16.33000 32.51700
C  48.22300 17.36400 32.00200
C  48.42500 16.85200 30.50600
C  47.75400 18.84300 31.80800
C  47.70400 15.27100 33.52000
C  47.56200 15.73500 34.99900
H  48.76400 15.57600 35.86700
N  49.15400 16.04200 27.58200
C  49.87300 16.88500 28.36900
C  51.10200 17.35600 27.64200
C  50.99900 16.72300 26.35700
C  49.71200 15.96400 26.34400
C  52.08500 18.41900 28.08200
C  51.95200 16.66300 25.14500
O  51.78600 16.02100 24.11900
C  53.33300 17.35400 25.28700
N  47.02000 14.47600 26.14300
C  47.86000 14.66000 25.11900
C  47.28800 14.02400 23.77400
C  46.07700 13.22600 24.28400
C  46.01300 13.59300 25.72400
C  46.83900 14.95700 22.65600
C  45.99700 11.69000 23.99500
C  47.02700 10.75500 24.63100
N  45.60400 14.16700 28.63100
C  44.71600 13.36800 27.88800
C  43.52000 13.13100 28.65300
C  43.79000 13.63100 29.89200
C  45.02000 14.24200 29.84300
C  42.32600 12.42700 28.23800
C  43.27200 13.79000 31.28200
O  42.24700 13.32300 31.72900
C  44.37100 14.60400 32.10800
C  43.71800 15.81100 32.83200
O  42.92300 16.59100 32.35400
O  44.23900 15.95500 34.09200
C  43.94800 17.18100 34.87300
H  50.26200 17.88200 30.11400
H  49.69300 15.23100 24.29500
H  44.20400 12.55600 25.94100
H  46.30000 16.81400 33.00500
H  49.13700 17.45500 32.58900
H  48.57300 19.52500 32.03700
H  46.90900 19.10300 32.44600
H  47.42500 18.99000 30.78000
H  48.74100 15.05300 33.26500
H  47.16000 14.32800 33.46300
H  46.85700 14.98900 35.36800
H  47.04400 16.69400 35.00700
H  51.96800 19.26500 27.40400
H  53.13900 18.15300 28.00000
H  51.85200 18.81500 29.07000
H  53.20400 18.43500 25.33700
H  53.94400 17.18600 24.39900
H  53.89900 17.08600 26.17900
H  47.91100 13.17500 23.49200
H  45.14900 13.70300 23.97000
H  46.72700 14.36300 21.74900
H  47.51500 15.78200 22.43300
H  45.87400 15.42300 22.85400
H  46.14800 11.60000 22.91900
H  45.07700 11.20100 24.31500
H  46.57900 9.79300 24.88100
H  47.36800 11.11000 25.60300
H  47.82900 10.50300 23.93800
H  42.02100 11.75800 29.04300
H  42.54200 11.89200 27.31400
H  41.45500 13.06200 28.07900
H  44.77500 13.92500 32.85900
H  42.88500 17.18000 35.11400
H  44.36000 18.02500 34.32100
H  44.51800 17.34600 35.78700
Mg 16.54000 52.42200 25.11700
C  18.26500 51.15000 27.97100
C  13.84300 53.20000 27.19600
C  14.78800 53.47500 22.42800
C  18.96200 51.06400 23.17400
N  16.05400 52.13900 27.31100
C  16.92700 51.63400 28.28000
C  16.31600 51.91400 29.76100
C  14.84200 52.28300 29.37600
C  14.91700 52.54400 27.85100
C  13.77000 51.27700 29.83300
C  17.10400 53.09200 30.48400
C  17.57100 52.73600 31.89700
H  16.74600 51.91700 32.84400
N  14.62000 53.22900 24.87500
C  13.67800 53.50600 25.81900
C  12.42800 53.99800 25.26100
C  12.68000 54.10400 23.85800
C  14.13500 53.65000 23.72100
C  11.09900 54.19300 26.08600
C  11.77700 54.47400 22.67700
O  12.12700 54.50500 21.46400
C  10.39600 54.94100 22.90900
N  16.76300 52.22300 23.10700
C  16.01200 52.79000 22.19100
C  16.44300 52.53700 20.71800
C  17.89900 52.00400 21.03400
C  17.92900 51.76500 22.50100
C  15.55000 51.57100 19.95800
C  19.11000 53.01200 20.62500
C  20.04200 52.83100 19.43400
N  18.27700 51.37100 25.46600
C  19.20700 50.96200 24.50300
C  20.42700 50.46800 25.19400
C  20.09300 50.62900 26.55300
C  18.74200 51.12900 26.66200
C  21.63900 49.88700 24.67300
C  20.55200 50.39700 27.83400
O  21.67700 50.07900 28.20000
C  19.44500 50.73700 28.83200
C  19.30100 49.52800 29.70900
O  18.83500 48.43000 29.38000
O  19.77500 49.91300 30.93400
C  19.68900 48.86700 31.88600
H  13.01700 53.47100 27.85700
H  14.35000 53.85200 21.50100
H  19.69700 50.70200 22.45300
H  16.33300 50.97600 30.31600
H  14.61900 53.28900 29.73200
H  14.14400 50.54100 30.54400
H  13.28900 50.78300 28.98900
H  12.96300 51.79500 30.35100
H  16.42100 53.92700 30.63900
H  18.01800 53.28900 29.92400
H  17.82900 53.66500 32.40500
H  18.53300 52.23400 31.79200
H  11.01100 55.18700 26.52500
H  11.09600 53.47200 26.90300
H  10.25700 53.96400 25.43300
H  10.26500 55.80000 23.56600
H  9.86200 54.10200 23.35600
H  9.84400 55.07300 21.97900
H  16.45600 53.42800 20.09000
H  18.14800 51.00500 20.67500
H  14.56900 51.58000 20.43300
H  15.96600 50.56400 19.92500
H  15.34400 51.91000 18.94300
H  19.75000 53.17200 21.49300
H  18.67200 53.96800 20.33700
H  20.04100 51.78400 19.13100
H  21.04000 53.08200 19.79300
H  19.65600 53.44500 18.61900
H  21.59700 49.66800 23.60600
H  21.95400 48.99400 25.21100
H  22.33900 50.71400 24.79100
H  19.62000 51.52800 29.56100
H  18.70200 48.55200 32.22200
H  20.33900 49.21100 32.69100
H  20.13200 47.93500 31.53600

