158

Mg 0.10600 6.39300 25.76200
C  0.83100 8.47900 28.64500
C  0.12600 3.69200 28.03100
C  -0.41100 4.49400 23.09700
C  0.50600 9.20300 23.79700
N  0.23300 6.19200 28.13100
C  0.58600 7.16700 29.02000
C  0.83600 6.59500 30.43300
C  0.84000 5.09200 30.13500
C  0.33900 4.93200 28.70300
C  2.18100 4.30900 30.38000
C  -0.30100 7.15400 31.36200
C  0.22200 7.64400 32.75300
H  1.30600 6.92400 33.58500
N  -0.22300 4.36600 25.55700
C  -0.20600 3.42100 26.57400
C  -0.60700 2.15800 25.95100
C  -0.68500 2.35000 24.55400
C  -0.41500 3.82000 24.34300
C  -0.76200 0.84700 26.66100
C  -1.15900 1.41700 23.45600
O  -1.13800 1.77600 22.29300
C  -1.46800 -0.02400 23.73900
N  0.18000 6.81500 23.70200
C  -0.22900 5.83500 22.86400
C  -0.43800 6.51100 21.46900
C  -0.50000 8.05600 21.75800
C  0.10300 8.07000 23.18900
C  0.63900 6.05900 20.46200
C  -1.90200 8.78500 21.57100
C  -2.65200 8.35800 20.39200
N  0.69300 8.45300 26.08800
C  0.83400 9.44100 25.15900
C  1.29000 10.60500 25.84800
C  1.28400 10.26200 27.20300
C  0.92100 8.99400 27.33800
C  1.56200 11.92200 25.11900
C  1.44300 10.88000 28.48600
O  1.73700 12.04900 28.81200
C  1.22300 9.71000 29.50900
C  2.53200 9.56200 30.20700
O  3.47300 8.90700 29.74800
O  2.55200 10.11200 31.48600
C  3.88700 10.14200 32.13000
H  0.41000 2.85800 28.67600
H  -0.57800 3.96200 22.15800
H  0.64500 10.05900 23.13400
H  1.78500 6.94500 30.84000
H  0.06200 4.57000 30.69200
H  2.64000 4.14200 29.40600
H  1.98200 3.37800 30.91000
H  2.90700 4.81200 31.02000
H  -1.03800 6.36000 31.48200
H  -0.71400 8.04600 30.89000
H  -0.58400 7.76300 33.47700
H  0.58600 8.63900 32.49600
H  -0.06600 0.16800 26.16800
H  -1.78900 0.50600 26.52500
H  -0.46100 0.93900 27.70400
H  -2.28900 -0.20400 24.43300
H  -0.57100 -0.50200 24.13200
H  -1.79200 -0.55800 22.84600
H  -1.38300 6.10500 21.10900
H  0.28400 8.52300 21.16100
H  1.13900 6.96300 20.11400
H  0.09100 5.52700 19.68400
H  1.43900 5.43100 20.85300
H  -1.81800 9.87200 21.56000
H  -2.57500 8.57600 22.40300
H  -3.55200 7.79800 20.65000
H  -2.21300 7.55500 19.79900
H  -2.74400 9.17400 19.67500
H  0.93300 11.98500 24.23200
H  2.60000 12.06000 24.81400
H  1.33400 12.80100 25.72200
H  0.46500 9.81200 30.28600
H  3.94500 10.87000 32.94000
H  4.73600 10.39700 31.49600
H  3.96300 9.26300 32.76900
Mg 47.34400 35.10500 27.82300
C  45.31500 33.29100 30.24500
C  47.59600 37.55700 30.31500
C  48.36700 37.19500 25.48400
C  46.47100 32.77000 25.47000
N  46.42500 35.40200 29.97900
C  45.84000 34.48900 30.78700
C  45.96900 34.84800 32.23800
C  46.22800 36.34300 32.19700
C  46.87100 36.41400 30.77600
C  45.06500 37.31600 32.36100
C  47.21200 34.07400 32.78600
C  47.35700 34.01400 34.34000
H  46.46700 34.82200 35.32500
N  47.95800 37.08600 27.89700
C  48.14500 37.87000 29.05500
C  48.80400 39.10800 28.65900
C  49.15100 39.00300 27.20800
C  48.51300 37.72700 26.78000
C  49.23600 40.16100 29.69600
C  49.83800 39.93800 26.31900
O  50.14400 39.72400 25.15800
C  50.25900 41.26200 26.96300
N  47.12600 35.10700 25.76400
C  47.76100 36.03600 24.99200
C  48.03700 35.58000 23.55800
C  47.27400 34.19700 23.52200
C  46.93500 33.98700 25.06100
C  47.68000 36.57500 22.45600
C  48.23100 33.02500 22.94900
C  47.60900 32.07400 21.88300
N  46.17100 33.37700 27.80500
C  46.04600 32.45900 26.77900
C  45.40700 31.27400 27.26700
C  45.05900 31.59000 28.62200
C  45.47000 32.89000 28.88600
C  45.02100 30.13900 26.49900
C  44.38700 31.04800 29.85100
O  43.90900 29.97700 30.15100
C  44.33500 32.35700 30.82700
C  44.42600 31.94000 32.29000
O  45.40500 31.41500 32.82500
O  43.18700 32.02300 32.78300
C  42.89300 31.40700 34.13500
H  47.78200 38.37200 31.01700
H  48.84500 37.80300 24.71300
H  46.24400 32.08700 24.64800
H  45.07500 34.60300 32.81000
H  46.97800 36.73000 32.88600
H  45.07300 37.76000 33.35600
H  44.14500 36.75500 32.19900
H  44.90800 38.16600 31.69700
H  48.12400 34.45000 32.32200
H  47.15200 33.02700 32.48900
H  48.40200 34.32100 34.38400
H  47.36200 32.95500 34.59800
H  50.24300 40.53500 29.51200
H  49.31300 39.62900 30.64400
H  48.50300 40.91200 29.98900
H  49.30900 41.69800 27.27400
H  50.72800 41.81700 26.15000
H  51.04600 41.11000 27.70100
H  49.11100 35.44400 23.42700
H  46.40200 34.29200 22.87400
H  48.57600 36.80300 21.88000
H  47.22300 37.39500 23.01100
H  46.94200 36.24100 21.72600
H  48.51000 32.34000 23.75000
H  49.17200 33.36800 22.52000
H  47.30700 31.16700 22.40700
H  48.22200 31.85100 21.01000
H  46.70600 32.50200 21.45000
H  45.89300 29.80900 25.93500
H  44.15400 30.43600 25.90900
H  44.75500 29.41400 27.26800
H  43.35100 32.81900 30.74700
H  43.47400 30.53100 34.42500
H  41.83400 31.16500 34.23200
H  42.98500 32.25200 34.81700

