158

Mg 36.98200 49.31200 24.77900
C  37.06800 47.40000 27.69200
C  35.34600 51.80900 26.60100
C  36.41300 50.91100 21.90800
C  38.28800 46.52900 22.90700
N  36.18700 49.51200 26.94600
C  36.58800 48.64200 27.98300
C  36.22700 49.22700 29.36300
C  35.50700 50.55300 28.91800
C  35.71200 50.69200 27.37300
C  34.08800 50.74900 29.42800
C  37.54500 49.35300 30.13900
C  37.47300 48.84400 31.58600
H  37.05500 49.94900 32.57000
N  36.14300 51.16500 24.38200
C  35.66000 52.09200 25.26300
C  35.25400 53.30100 24.58300
C  35.45200 53.01800 23.15400
C  36.09800 51.70600 23.05400
C  34.81200 54.63800 25.25400
C  35.27600 53.90000 21.93300
O  35.50900 53.59400 20.76900
C  34.77700 55.30700 22.17600
N  37.37600 48.85200 22.73000
C  36.97200 49.65600 21.75500
C  37.29100 49.14400 20.36200
C  38.22000 47.97500 20.76300
C  37.91600 47.70700 22.24800
C  35.98700 48.65700 19.55400
C  39.67500 48.08500 20.63800
C  40.46900 46.77200 20.17100
N  37.48800 47.31000 25.08500
C  38.10600 46.37800 24.29100
C  38.38300 45.21700 25.13400
C  38.04600 45.56500 26.43900
C  37.48000 46.85700 26.38700
C  39.07700 43.99200 24.68500
C  38.04800 45.11100 27.82900
O  38.41400 44.02800 28.29100
C  37.45000 46.32300 28.61900
C  36.23800 45.70100 29.20800
O  35.23300 45.32300 28.61300
O  36.36300 45.78700 30.58600
C  35.05400 45.36300 31.30100
H  34.88000 52.56900 27.23100
H  36.21000 51.44900 20.98000
H  38.85300 45.74100 22.40500
H  35.57300 48.55100 29.91300
H  35.99900 51.44700 29.30200
H  33.35100 50.49000 28.66800
H  33.86500 51.81400 29.47700
H  33.93800 50.17500 30.34300
H  37.73900 50.41200 30.30900
H  38.50000 49.03800 29.72000
H  38.46800 48.56500 31.93200
H  36.78900 47.99600 31.57000
H  33.76900 54.92200 25.11400
H  35.46100 55.42000 24.86000
H  35.05600 54.67300 26.31600
H  33.95500 55.40800 22.88500
H  34.30600 55.67200 21.26300
H  35.58100 55.97800 22.47900
H  37.85300 49.97000 19.92600
H  37.91200 47.10700 20.17900
H  35.10400 48.82900 20.16900
H  36.06700 47.62200 19.22000
H  35.99900 49.18400 18.60000
H  40.07500 48.29900 21.62900
H  39.94400 48.91800 19.98800
H  41.17900 46.99600 19.37600
H  39.83000 45.92600 19.91800
H  41.10900 46.47300 21.00100
H  40.08000 43.89400 25.10200
H  39.25300 43.93700 23.61100
H  38.37400 43.21100 24.97400
H  38.18000 46.55500 29.39500
H  34.26500 45.88400 30.75900
H  34.98400 45.62800 32.35600
H  34.79800 44.32100 31.10800
Mg -12.30200 15.86400 42.07300
C  -9.17500 14.27000 41.65600
C  -11.21700 18.47200 40.07900
C  -15.34800 17.08800 42.10600
C  -13.35300 12.91200 43.76200
N  -10.37500 16.32200 41.00300
C  -9.23100 15.58200 40.98300
C  -8.10400 16.29700 40.26400
C  -8.86800 17.54400 39.62400
C  -10.25300 17.46500 40.28600
C  -8.09000 18.90900 39.95900
C  -7.28500 15.46000 39.20600
C  -5.79300 15.55800 39.34600
H  -4.95600 14.80200 38.38000
N  -13.14600 17.62700 41.34000
C  -12.51000 18.57400 40.57000
C  -13.41100 19.68600 40.33400
C  -14.70500 19.27200 40.81700
C  -14.45400 17.94800 41.45800
C  -12.91100 20.99000 39.66900
C  -15.94400 20.06500 40.68100
O  -15.91000 21.11400 40.02300
C  -17.18500 19.66500 41.16000
N  -14.19400 14.96800 42.66400
C  -15.25600 15.80500 42.70700
C  -16.42800 14.99900 43.27900
C  -15.74800 13.82400 44.01800
C  -14.34500 13.89200 43.47300
C  -17.39600 15.88400 44.08300
C  -16.55700 12.51500 43.74100
C  -17.11400 11.89800 45.07400
N  -11.51200 13.93200 42.60400
C  -12.07000 12.85600 43.24800
C  -11.03100 11.83500 43.49300
C  -9.90800 12.35900 42.97200
C  -10.23300 13.60000 42.31400
C  -11.30100 10.59700 44.30800
C  -8.50300 12.07900 42.64400
O  -7.75700 11.10200 42.94200
C  -7.98900 13.30100 41.75600
C  -6.93000 13.94400 42.48100
O  -7.13800 14.88200 43.26300
O  -5.73900 13.38200 42.10900
C  -4.53900 14.06100 42.62500
H  -10.92600 19.22600 39.34500
H  -16.38200 17.41700 42.22200
H  -13.66400 12.06500 44.37700
H  -7.51500 16.73100 41.07200
H  -9.00400 17.58800 38.54400
H  -8.51500 19.40900 40.82900
H  -8.13200 19.48500 39.03400
H  -7.03600 18.66700 40.09400
H  -7.62200 15.81400 38.23200
H  -7.66800 14.44000 39.15700
H  -5.53300 15.15100 40.32300
H  -5.48700 16.59000 39.51600
H  -11.84500 21.13600 39.84000
H  -13.37500 21.84400 40.16300
H  -13.19700 20.98400 38.61700
H  -17.50400 18.74100 40.67800
H  -17.84500 20.50300 40.93500
H  -17.11300 19.53200 42.23900
H  -16.99000 14.62400 42.42400
H  -15.71900 14.05700 45.08300
H  -17.59600 15.41200 45.04500
H  -18.28900 16.08400 43.49100
H  -17.05100 16.89000 44.32300
H  -15.81900 11.82400 43.33300
H  -17.36100 12.70700 43.03100
H  -18.16700 11.73700 44.84100
H  -17.01000 12.50000 45.97600
H  -16.67800 10.91800 45.26700
H  -11.80800 10.85900 45.23700
H  -10.34100 10.16600 44.59300
H  -11.94100 9.93000 43.73000
H  -7.50200 12.98900 40.83200
H  -3.74600 13.93200 41.88700
H  -4.22500 13.55900 43.54000
H  -4.49100 15.13600 42.79200

