158

Mg 17.48500 -0.33900 27.07400
C  16.14400 1.43400 29.79200
C  19.34500 -2.21300 29.55000
C  19.08300 -1.84400 24.69900
C  15.93700 1.91400 24.91500
N  17.59800 -0.47200 29.49400
C  16.94600 0.43800 30.32200
C  17.31800 0.16900 31.76900
C  18.37000 -0.97200 31.73500
C  18.49800 -1.27400 30.20100
C  19.71500 -0.61000 32.49900
C  16.03800 -0.17000 32.66600
C  16.03100 0.29500 34.15800
H  17.31700 0.85300 34.79400
N  18.85300 -1.91100 27.07800
C  19.52000 -2.48500 28.15900
C  20.42100 -3.54000 27.65400
C  20.22800 -3.55700 26.24700
C  19.39700 -2.40600 25.94300
C  21.23200 -4.54800 28.48200
C  20.83600 -4.50600 25.18200
O  20.49700 -4.40300 24.01300
C  21.77200 -5.62400 25.65800
N  17.48100 0.03200 25.10200
C  18.32300 -0.68600 24.30700
C  18.31100 -0.19300 22.83200
C  17.25200 0.98900 22.86100
C  16.85100 1.05000 24.38300
C  19.66800 0.31200 22.37300
C  16.02500 0.78800 21.92700
C  15.52400 1.97200 21.15200
N  16.33700 1.41000 27.27900
C  15.78100 2.14600 26.27000
C  14.96100 3.16400 26.88200
C  15.13000 2.93100 28.25800
C  15.87200 1.85400 28.44300
C  14.13400 4.19000 26.23000
C  14.81300 3.52500 29.56300
O  14.13900 4.52000 29.88100
C  15.48800 2.58300 30.62700
C  16.45600 3.38300 31.45500
O  17.66700 3.55200 31.25800
O  15.70600 4.13200 32.41500
C  16.51700 5.04300 33.31100
H  19.98800 -2.78900 30.22000
H  19.60700 -2.09400 23.77400
H  15.48100 2.57200 24.17200
H  17.77400 1.08500 32.14500
H  18.06500 -1.93100 32.15300
H  19.95700 -1.30400 33.30400
H  19.66800 0.38300 32.94400
H  20.56100 -0.57500 31.81300
H  15.83300 -1.23900 32.73000
H  15.12400 0.19800 32.20200
H  15.79400 -0.50500 34.85900
H  15.23800 1.03500 34.26400
H  20.74800 -5.52500 28.48700
H  21.22300 -4.25000 29.53000
H  22.30100 -4.61200 28.27800
H  21.45500 -6.32800 26.42700
H  22.72700 -5.16300 25.91000
H  22.05100 -6.17600 24.76000
H  18.10000 -1.09300 22.25500
H  17.60400 1.96800 22.53500
H  20.48200 -0.24700 22.83400
H  19.79900 1.38100 22.54000
H  19.81200 0.15200 21.30500
H  15.18400 0.50400 22.55900
H  16.19800 0.05900 21.13500
H  15.28600 2.66400 21.96000
H  14.69100 1.75800 20.48300
H  16.36800 2.44100 20.64700
H  13.10400 3.87600 26.39900
H  14.29900 4.30400 25.15900
H  14.31800 5.07400 26.84100
H  14.80400 2.22000 31.39400
H  15.79900 5.71000 33.78800
H  17.44400 5.44500 32.90300
H  16.95600 4.41900 34.08800
Mg -12.28700 15.50200 42.14200
C  -9.04700 14.35900 41.49600
C  -11.50600 18.51800 40.44600
C  -15.61600 16.28500 41.93700
C  -13.19300 12.26800 43.11000
N  -10.60900 16.22700 40.96700
C  -9.33100 15.63100 40.97500
C  -8.26500 16.49600 40.27200
C  -9.00100 17.90500 40.32400
C  -10.49300 17.53600 40.58200
C  -8.37100 19.00300 41.29200
C  -7.77700 16.01400 38.86800
C  -6.24400 15.92500 38.73200
H  -5.58100 16.58700 37.55300
N  -13.42500 17.23600 41.36300
C  -12.92800 18.36200 40.71900
C  -13.97600 19.29900 40.44400
C  -15.23500 18.69600 40.92300
C  -14.78600 17.39100 41.48900
C  -13.72900 20.64600 39.82700
C  -16.58000 19.33600 40.86900
O  -16.75300 20.34900 40.15800
C  -17.71100 18.89500 41.66400
N  -14.11900 14.48500 42.63000
C  -15.31600 15.03100 42.39800
C  -16.46500 14.06000 42.68000
C  -15.71500 12.70100 43.14000
C  -14.22100 13.13400 42.94500
C  -17.61200 14.48500 43.67900
C  -16.12500 11.42900 42.42100
C  -16.72800 10.31900 43.26400
N  -11.42300 13.69100 42.27800
C  -11.85700 12.51100 42.86200
C  -10.75100 11.56800 43.01600
C  -9.63900 12.28300 42.42400
C  -10.07000 13.52600 42.01100
C  -10.76600 10.10400 43.55300
C  -8.20000 12.20900 42.12200
O  -7.42700 11.38600 42.50800
C  -7.77100 13.58900 41.47400
C  -6.62400 14.15300 42.22500
O  -6.70700 14.54800 43.36700
O  -5.43700 14.13800 41.51900
C  -4.25500 14.41200 42.36000
H  -11.13300 19.48300 40.09600
H  -16.66300 16.56900 41.81100
H  -13.34700 11.30400 43.60000
H  -7.42500 16.55500 40.96400
H  -8.85500 18.40200 39.36500
H  -8.30300 19.94700 40.75200
H  -7.35300 18.70700 41.54300
H  -8.97000 19.08400 42.19900
H  -8.23100 16.76800 38.22400
H  -8.22300 15.04100 38.65800
H  -6.13200 14.84000 38.72600
H  -5.82300 16.37300 39.63200
H  -12.72100 21.06100 39.85300
H  -14.34700 21.37300 40.35400
H  -14.07800 20.66100 38.79400
H  -18.30400 18.31500 40.95700
H  -18.30000 19.77700 41.91500
H  -17.45200 18.29900 42.54000
H  -17.03300 14.00000 41.75100
H  -15.74900 12.59700 44.22400
H  -17.62900 13.82100 44.54200
H  -18.51900 14.32600 43.09500
H  -17.55600 15.53300 43.97600
H  -15.23200 11.09700 41.89200
H  -16.80200 11.71800 41.61700
H  -16.29500 9.39500 42.88200
H  -17.81400 10.22800 43.24900
H  -16.41400 10.37400 44.30700
H  -9.80300 9.59400 43.58600
H  -11.36200 9.45900 42.90700
H  -11.21500 9.95500 44.53500
H  -7.42300 13.53200 40.44300
H  -4.14500 15.43200 42.72800
H  -3.43900 14.12600 41.69600
H  -4.21200 13.70700 43.19000

