158

Mg -1.15000 17.60200 27.99700
C  -1.77300 15.29300 30.48600
C  -1.47800 20.11900 30.41500
C  -1.00000 19.80400 25.53700
C  -1.37400 15.00400 25.58700
N  -1.39800 17.71300 30.27600
C  -1.68900 16.56100 31.04700
C  -1.83200 16.99000 32.51800
C  -2.06900 18.53300 32.44000
C  -1.60700 18.87000 30.98100
C  -3.42000 19.12200 32.66800
C  -0.63500 16.62300 33.46500
C  -0.49200 17.45700 34.75300
H  0.12800 16.82100 36.00700
N  -1.10000 19.65500 27.96200
C  -1.25500 20.50600 29.05100
C  -1.04900 21.87900 28.58400
C  -0.80300 21.78500 27.19100
C  -0.92600 20.36800 26.79100
C  -1.18200 23.15600 29.43400
C  -0.66100 22.90200 26.20400
O  -0.52100 22.69700 25.00300
C  -0.43900 24.26200 26.70800
N  -1.23500 17.38700 25.91600
C  -1.09400 18.49100 25.09400
C  -1.05100 18.15400 23.55400
C  -0.89700 16.62500 23.66000
C  -1.13900 16.27400 25.10800
C  -2.34200 18.47100 22.81400
C  0.47100 16.11000 23.21800
C  1.61600 16.22500 24.20300
N  -1.46000 15.53900 28.02700
C  -1.54000 14.66200 26.92800
C  -1.81000 13.31300 27.45300
C  -1.81300 13.45400 28.81400
C  -1.67800 14.90600 29.12800
C  -1.97700 12.07600 26.52800
C  -1.92100 12.75100 30.14900
O  -2.15400 11.58400 30.40900
C  -2.02100 13.92700 31.19200
C  -0.93300 13.62400 32.18700
O  0.22700 13.79100 32.10700
O  -1.46200 13.02300 33.29600
C  -0.54200 12.61000 34.36000
H  -1.64400 21.00500 31.03200
H  -0.93300 20.36800 24.60400
H  -1.16600 14.37700 24.71700
H  -2.73400 16.45400 32.81200
H  -1.39200 19.10900 33.07200
H  -3.75900 19.55600 31.72700
H  -3.41300 19.95900 33.36700
H  -4.08300 18.37200 33.09800
H  0.26800 16.66000 32.85400
H  -0.87400 15.60400 33.76800
H  -1.46100 17.82400 35.09200
H  0.17100 18.30800 34.59500
H  -0.15500 23.50300 29.55100
H  -1.56500 23.01200 30.44500
H  -1.88500 23.85400 28.97900
H  -1.37000 24.75900 26.97900
H  0.00200 24.83200 25.89000
H  0.30900 24.18400 27.49700
H  -0.18600 18.58100 23.04800
H  -1.61000 16.01300 23.10700
H  -2.95700 17.57900 22.69300
H  -2.18400 18.98200 21.86400
H  -3.04200 19.15700 23.29100
H  0.76600 16.52000 22.25200
H  0.41800 15.03500 23.04500
H  1.83500 15.24500 24.62900
H  1.39500 17.03600 24.89600
H  2.47700 16.51500 23.60000
H  -1.78600 11.18300 27.12400
H  -1.27600 11.94400 25.70400
H  -2.98000 12.02300 26.10400
H  -3.05600 14.00600 31.52700
H  -0.37800 13.50700 34.95800
H  0.38200 12.18500 33.96900
H  -1.01400 11.84500 34.97600
Mg 25.33700 1.32600 29.17800
C  27.41100 1.34500 32.13500
C  22.60000 1.35100 31.27400
C  23.52000 1.35300 26.43600
C  28.29500 0.73900 27.28400
N  25.08100 1.37200 31.47200
C  26.06200 1.55000 32.45800
C  25.40000 1.77700 33.79800
C  23.83800 1.61300 33.47800
C  23.83500 1.36300 31.99400
C  23.13800 0.37900 34.19200
C  25.72800 3.12700 34.48500
C  26.66100 3.10300 35.68300
H  26.20800 3.89200 36.87600
N  23.39200 1.26000 28.86500
C  22.39500 1.31600 29.82800
C  21.10500 1.36200 29.15500
C  21.28200 1.29000 27.77100
C  22.80700 1.36100 27.63300
C  19.81500 1.44400 29.99700
C  20.23900 1.37200 26.64200
O  20.54300 1.34000 25.42800
C  18.81500 1.45200 26.86700
N  25.85700 1.14200 27.16700
C  24.88000 1.32400 26.20100
C  25.54400 1.35000 24.75300
C  27.07900 1.09200 25.05200
C  27.13900 1.01800 26.56900
C  25.10700 0.36200 23.66800
C  27.93100 2.18100 24.31900
C  27.86100 3.60200 24.97300
N  27.39400 1.09100 29.60500
C  28.45200 0.84900 28.71800
C  29.69100 0.67200 29.48600
C  29.37700 0.85400 30.90900
C  27.98000 1.11700 30.83800
C  31.09800 0.44600 28.89800
C  29.81800 0.94800 32.23000
O  30.91800 0.76500 32.66200
C  28.60300 1.26900 33.14500
C  28.47300 0.20200 34.17200
O  27.93500 -0.89900 34.03900
O  29.02700 0.66300 35.31200
C  28.92000 -0.18600 36.46600
H  21.74700 1.44600 31.94900
H  22.88600 1.30600 25.54800
H  29.18800 0.44300 26.72900
H  25.64200 0.99300 34.51500
H  23.29000 2.54100 33.64400
H  22.09200 0.62100 34.37600
H  23.69700 0.36100 35.12700
H  23.06800 -0.54500 33.61800
H  24.80200 3.60500 34.80700
H  26.25900 3.63700 33.68200
H  27.54700 3.62500 35.32200
H  26.95800 2.11400 36.03200
H  18.86500 1.19600 29.52400
H  19.74800 2.42800 30.46100
H  19.87900 0.79700 30.87100
H  18.75000 2.42700 27.34800
H  18.50500 0.64200 27.52700
H  18.25200 1.49100 25.93400
H  25.34300 2.33700 24.33700
H  27.33300 0.09500 24.69100
H  24.44600 -0.37800 24.11900
H  25.98000 -0.14600 23.26000
H  24.49600 0.76000 22.85800
H  27.58600 2.21300 23.28600
H  28.95300 1.80200 24.33100
H  28.80600 3.90300 25.42300
H  27.03500 3.52100 25.68000
H  27.53100 4.44200 24.36200
H  31.26400 0.94200 27.94200
H  31.29500 -0.62300 28.81300
H  31.89700 0.79300 29.55400
H  28.74000 2.26300 33.57100
H  28.03300 0.18700 36.97800
H  29.74600 -0.17800 37.17700
H  28.76300 -1.26000 36.36900

