158

Mg 8.69200 3.03500 27.57100
C  9.87600 1.38700 30.47700
C  7.08900 5.24000 29.58400
C  7.51900 4.47200 24.84400
C  10.08400 0.40900 25.58800
N  8.33800 3.08000 29.93800
C  9.03700 2.38400 30.89200
C  8.82500 3.02600 32.24600
C  7.87500 4.31500 31.93200
C  7.76200 4.24500 30.38300
C  6.43300 4.40800 32.52300
C  10.09800 3.34200 33.06000
C  9.89400 3.75900 34.47800
H  11.03500 3.51600 35.47800
N  7.37500 4.57300 27.25900
C  6.90500 5.41500 28.17300
C  6.00000 6.39400 27.54600
C  6.27100 6.26800 26.16200
C  7.06700 5.03600 26.00500
C  5.02400 7.34500 28.32900
C  5.69200 7.03600 25.01100
O  5.63500 6.63500 23.85800
C  5.03500 8.27700 25.26400
N  8.90700 2.42100 25.49100
C  8.20600 3.26000 24.60700
C  8.19700 2.62500 23.20100
C  9.22000 1.48300 23.39400
C  9.32300 1.35000 24.90200
C  6.81000 2.08900 22.86800
C  10.58700 1.77500 22.68300
C  11.51400 0.56600 22.35300
N  9.93800 1.40700 27.82300
C  10.39700 0.46600 26.94000
C  11.18100 -0.54200 27.62500
C  10.95300 -0.25000 29.04900
C  10.22500 0.95600 29.12100
C  12.06100 -1.55900 27.00700
C  11.23900 -0.67700 30.38600
O  11.91200 -1.62500 30.82700
C  10.60600 0.38200 31.34800
C  9.78000 -0.30100 32.43900
O  8.60400 -0.58700 32.33900
O  10.50000 -0.48000 33.60100
C  9.80200 -0.88300 34.83300
H  6.80200 6.03100 30.27900
H  7.19600 5.05200 23.97700
H  10.57600 -0.36900 25.00000
H  8.20000 2.41400 32.89600
H  8.38100 5.24400 32.19500
H  6.21800 5.34200 33.04300
H  6.29200 3.63800 33.28000
H  5.68400 4.36700 31.73200
H  10.65200 4.21200 32.70900
H  10.79300 2.50400 33.12100
H  8.97800 3.24100 34.76400
H  9.64500 4.81700 34.39200
H  4.92700 7.24200 29.40900
H  3.99600 7.21200 27.99400
H  5.29800 8.39600 28.23200
H  5.63900 8.84600 25.97100
H  4.02000 8.17300 25.64800
H  4.99200 8.92300 24.38700
H  8.38800 3.31000 22.37600
H  8.91500 0.49400 23.05000
H  6.85600 1.03000 23.12400
H  6.62300 2.25600 21.80700
H  5.97500 2.63200 23.31200
H  11.17400 2.38500 23.37000
H  10.33800 2.35400 21.79400
H  11.79900 0.55200 21.30200
H  11.02000 -0.39200 22.51300
H  12.34600 0.68300 23.04800
H  11.42100 -2.32500 26.57100
H  12.67200 -2.03900 27.77200
H  12.74800 -1.09300 26.30000
H  11.47600 0.77700 31.87300
H  8.83900 -1.30900 34.54900
H  9.54100 -0.02700 35.45700
H  10.29300 -1.58000 35.51200
Mg 8.86600 48.45100 27.14100
C  7.18900 48.16200 30.26800
C  11.82100 49.01700 29.04300
C  10.44900 49.28400 24.30700
C  5.76500 48.55300 25.49200
N  9.38400 48.63000 29.49700
C  8.54200 48.37700 30.55200
C  9.24000 48.50000 31.90700
C  10.73200 49.01700 31.44300
C  10.63400 48.94900 29.93900
C  11.19100 50.38000 31.99600
C  9.35700 47.15800 32.65900
C  10.16100 47.18800 33.97700
H  9.83700 46.26900 35.14400
N  10.83900 48.84900 26.69000
C  11.90000 49.07700 27.57500
C  13.14500 49.38900 26.81100
C  12.78100 49.32100 25.45600
C  11.29600 49.14200 25.40600
C  14.48600 49.63400 27.52600
C  13.68500 49.43000 24.26000
O  13.21800 49.22800 23.11000
C  15.16300 49.56600 24.38400
N  8.23100 48.76300 25.16700
C  9.05800 49.16900 24.19000
C  8.42100 49.47100 22.85200
C  6.89700 49.03600 23.24400
C  6.91900 48.70500 24.74400
C  8.59700 50.89700 22.38200
C  6.31800 47.89600 22.26600
C  5.80400 48.45600 20.89500
N  6.86800 48.29300 27.69300
C  5.71100 48.27900 26.87900
C  4.57400 47.94800 27.74500
C  5.13800 47.90200 29.02900
C  6.50200 48.18000 28.98100
C  3.14200 47.67800 27.25900
C  4.81200 47.64700 30.46400
O  3.71400 47.55100 30.99000
C  6.08400 47.73800 31.30000
C  6.29400 46.40200 31.85500
O  6.85000 45.39500 31.30200
O  5.74000 46.39200 33.13700
C  5.86500 45.16500 33.84300
H  12.79700 49.05900 29.53000
H  10.95600 49.60600 23.39500
H  4.82200 48.26000 25.02500
H  8.65600 49.22700 32.47100
H  11.48900 48.28600 31.72400
H  11.11500 50.25000 33.07500
H  10.51100 51.19100 31.73400
H  12.11600 50.74000 31.54600
H  9.71500 46.44000 31.92200
H  8.37100 46.87900 33.03000
H  10.26500 48.23300 34.26800
H  11.12600 46.77400 33.68500
H  15.18200 48.85400 27.21500
H  14.55500 49.78200 28.60300
H  14.88700 50.58700 27.18000
H  15.66900 48.87000 25.05400
H  15.50400 50.59200 24.52200
H  15.54600 49.25400 23.41300
H  8.87900 48.89300 22.04900
H  6.19600 49.86900 23.18700
H  9.19000 50.86100 21.46800
H  9.15500 51.42400 23.15600
H  7.67800 51.44500 22.17900
H  5.57400 47.31500 22.81000
H  7.10800 47.21100 21.95700
H  5.54100 49.51100 20.81200
H  4.86300 47.91900 20.78000
H  6.35900 48.10400 20.02600
H  2.46100 47.44400 28.07700
H  3.08900 46.93700 26.46000
H  2.65600 48.50600 26.74200
H  6.19600 48.36700 32.18400
H  5.13200 44.40900 33.56000
H  5.69700 45.19200 34.91900
H  6.87500 44.78300 33.69000

