158

Mg 25.02700 0.51400 29.43100
C  27.35300 0.37000 32.09300
C  22.58400 0.83200 31.72100
C  22.87000 0.41500 26.92000
C  27.69200 -0.31500 27.22400
N  25.02100 0.63000 31.64800
C  26.05000 0.57000 32.53800
C  25.55200 0.74400 33.94200
C  24.03500 0.69000 33.79800
C  23.83500 0.73800 32.30500
C  23.42800 -0.67100 34.37300
C  26.09400 2.04700 34.67000
C  26.75600 1.72400 36.01800
H  26.30500 2.55000 37.33300
N  22.96800 0.72000 29.37300
C  22.16200 0.80600 30.42500
C  20.82200 1.09100 30.01300
C  20.79900 0.99400 28.61400
C  22.22900 0.66300 28.19000
C  19.63200 1.46300 30.98000
C  19.73900 1.23900 27.71400
O  19.92000 1.28800 26.52700
C  18.30600 1.41600 28.07100
N  25.19300 -0.10900 27.37700
C  24.16800 0.11800 26.56500
C  24.62900 -0.01100 25.11400
C  26.14400 -0.16500 25.20200
C  26.40600 -0.18200 26.68700
C  23.84200 -1.12200 24.37100
C  26.93400 0.93100 24.43300
C  26.47300 1.24600 22.99800
N  27.09300 0.10300 29.53700
C  28.04400 -0.17900 28.58300
C  29.29200 -0.29600 29.16100
C  29.12500 -0.01700 30.51600
C  27.70400 0.13100 30.75000
C  30.64300 -0.62100 28.59700
C  29.76700 0.06400 31.83700
O  30.94400 -0.08900 32.16900
C  28.68200 0.52200 32.86000
C  28.68700 -0.45600 33.96500
O  27.95800 -1.41400 34.04900
O  29.62100 -0.09000 34.91500
C  29.72200 -1.09100 36.03900
H  21.78800 0.99700 32.45000
H  22.16200 0.38500 26.08800
H  28.51900 -0.60100 26.57100
H  25.76600 -0.19000 34.46100
H  23.54600 1.53500 34.28200
H  23.17100 -1.30300 33.52300
H  22.47400 -0.34100 34.78300
H  24.08200 -1.24700 35.02900
H  25.21000 2.67900 34.75400
H  26.88300 2.46200 34.04300
H  27.78700 2.05900 35.90300
H  26.73200 0.65300 36.21800
H  19.05600 0.54600 30.85100
H  19.04700 2.31200 30.62700
H  19.86800 1.58300 32.03700
H  18.06400 0.76500 28.91100
H  17.69100 1.29900 27.17900
H  18.26700 2.46200 28.37700
H  24.29200 0.91200 24.64200
H  26.40900 -1.17200 24.87900
H  23.25400 -1.66500 25.10900
H  24.56400 -1.84900 23.99900
H  23.19600 -0.77200 23.56600
H  27.85500 0.42600 24.14200
H  27.17000 1.81900 25.01800
H  25.74000 0.51700 22.65100
H  27.30300 1.07500 22.31400
H  26.01700 2.21900 22.81400
H  30.75400 -0.62100 27.51300
H  30.98600 -1.58500 28.97400
H  31.38300 0.13100 28.86900
H  28.84800 1.52900 33.24400
H  30.02500 -2.07800 35.69000
H  28.75400 -1.13900 36.53800
H  30.50100 -0.71600 36.70200
Mg 35.40900 48.68400 24.67300
C  35.12800 47.04000 27.85600
C  34.07800 51.50400 26.05800
C  35.10300 49.79500 21.56000
C  36.70600 45.65400 23.46600
N  34.68600 49.19200 26.77300
C  34.72600 48.37600 27.87800
C  34.41700 49.14000 29.10200
C  34.04700 50.64000 28.53000
C  34.23900 50.44500 26.97800
C  32.63900 51.08500 28.75600
C  35.61200 49.09100 30.06400
C  35.27700 49.34200 31.59700
H  33.82600 49.64400 32.18600
N  34.70100 50.43100 23.96900
C  34.24900 51.52000 24.65700
C  33.81200 52.53200 23.75700
C  34.00800 52.00500 22.41400
C  34.65400 50.68500 22.61600
C  33.25200 53.79600 24.29300
C  33.45300 52.62900 21.14800
O  33.58400 52.10800 20.01300
C  32.55900 53.80800 21.14000
N  35.78100 47.76100 22.80800
C  35.63300 48.49900 21.66200
C  36.40000 47.84200 20.51700
C  37.17800 46.62900 21.13400
C  36.55900 46.64700 22.52500
C  35.43600 47.51000 19.36600
C  38.71500 46.81200 21.25700
C  39.51100 45.50800 21.12000
N  35.90200 46.73200 25.40700
C  36.38200 45.61900 24.80000
C  36.51400 44.51300 25.69500
C  35.96400 44.97400 26.84600
C  35.71100 46.38300 26.69100
C  36.92000 43.13300 25.30500
C  35.62700 44.63200 28.21300
O  35.71900 43.59500 28.89500
C  35.13700 45.91800 28.94300
C  33.86300 45.78600 29.82000
O  32.74100 46.23600 29.65500
O  34.25100 45.12400 30.98000
C  33.22000 44.86100 32.00100
H  33.60400 52.35700 26.54800
H  35.18800 50.26000 20.57600
H  37.25900 44.90000 22.90300
H  33.50200 48.87100 29.63000
H  34.80200 51.36100 28.84400
H  31.99800 50.23700 28.99900
H  32.16100 51.58600 27.91500
H  32.63900 51.62700 29.70200
H  36.25000 49.93100 29.78900
H  36.21600 48.18500 30.00400
H  35.94000 50.14300 31.92400
H  35.61900 48.51000 32.21200
H  33.28600 54.71200 23.70500
H  33.37500 54.03500 25.35000
H  32.23100 53.41500 24.25300
H  31.78500 53.64100 21.89000
H  32.07200 53.89800 20.16900
H  33.20500 54.66000 21.35200
H  37.07500 48.66300 20.27600
H  36.87000 45.70300 20.64800
H  34.75300 46.71600 19.66600
H  36.08400 47.25200 18.52800
H  34.81900 48.37700 19.13000
H  38.96500 47.11600 22.27400
H  39.12600 47.61000 20.63900
H  40.08200 45.38100 22.04000
H  40.08800 45.47800 20.19500
H  38.89200 44.61300 21.06600
H  36.85800 42.48400 26.17900
H  37.92200 43.14700 24.87600
H  36.28200 42.72600 24.52100
H  35.85900 46.18500 29.71400
H  32.72700 43.97300 31.60600
H  32.46600 45.64500 32.06500
H  33.60300 44.68400 33.00600

