158

Mg 8.62300 3.09000 27.60300
C  9.97100 1.70400 30.43100
C  6.63900 5.20600 29.52500
C  7.10300 4.25400 24.77600
C  10.16400 0.64800 25.60100
N  8.35100 3.47600 29.73300
C  9.06900 2.77400 30.70800
C  8.62000 3.32000 32.11400
C  7.41700 4.28000 31.83500
C  7.51900 4.37900 30.26700
C  6.02900 3.72000 32.26900
C  9.70900 3.97900 32.94700
C  9.39100 4.04200 34.43100
H  10.60800 4.22000 35.30900
N  7.16100 4.55800 27.23500
C  6.49700 5.32200 28.15900
C  5.73000 6.29200 27.41100
C  5.81800 6.04000 26.02500
C  6.73200 4.85100 25.96300
C  4.95300 7.37600 28.02900
C  4.96600 6.68500 24.83200
O  5.12600 6.40600 23.62100
C  3.99600 7.88300 25.15000
N  8.52200 2.38700 25.48600
C  8.00000 3.16300 24.51700
C  8.32800 2.70000 23.10900
C  9.27600 1.48100 23.37500
C  9.38800 1.50900 24.90400
C  7.01900 2.44900 22.32000
C  10.67400 1.51300 22.70200
C  11.06400 0.36500 21.76200
N  9.79500 1.48200 27.90200
C  10.33000 0.59900 26.99600
C  11.19800 -0.33600 27.73700
C  11.08300 0.08800 29.09800
C  10.21500 1.17900 29.08400
C  11.89900 -1.48800 27.08800
C  11.52300 -0.15700 30.42900
O  12.32300 -0.99200 30.86400
C  10.87400 0.94100 31.38700
C  10.01500 0.38100 32.45300
O  8.96500 -0.20100 32.29900
O  10.52700 0.72000 33.66400
C  9.97700 0.19600 34.87900
H  6.07100 5.93800 30.10100
H  6.72600 4.70900 23.85700
H  10.61400 -0.09200 24.93600
H  8.24200 2.50800 32.73500
H  7.65800 5.26300 32.24100
H  6.06200 2.70100 32.65400
H  5.26300 3.68500 31.49400
H  5.58300 4.42300 32.97300
H  9.90700 5.00000 32.61800
H  10.63700 3.45400 32.72100
H  8.87500 3.14400 34.77200
H  8.84000 4.95800 34.64400
H  5.14600 7.43800 29.10000
H  3.87300 7.29100 27.90600
H  5.27200 8.33800 27.62700
H  4.66400 8.68200 25.47300
H  3.40800 7.61200 26.02600
H  3.48600 8.05500 24.20300
H  8.89700 3.42800 22.53100
H  8.72100 0.58400 23.10000
H  6.11900 2.69600 22.88400
H  6.86800 1.38100 22.16300
H  6.94800 2.96000 21.36000
H  11.40900 1.58100 23.50400
H  10.74600 2.41300 22.09100
H  10.50800 -0.49600 22.13400
H  12.12700 0.15300 21.87000
H  10.94800 0.53000 20.69100
H  11.94400 -1.44300 26.00000
H  11.32400 -2.39500 27.27500
H  12.88900 -1.48600 27.54300
H  11.57100 1.66600 31.81000
H  9.01700 0.69000 35.02900
H  10.65400 0.11800 35.73000
H  9.74900 -0.85100 34.67900
Mg 40.78000 8.41500 28.30900
C  42.34600 9.85900 31.03700
C  38.64500 6.91600 30.55800
C  39.03900 7.24700 25.59300
C  43.07900 9.63700 26.22500
N  40.46800 8.56900 30.62700
C  41.16700 9.24100 31.46400
C  40.74100 8.95000 32.91600
C  39.69200 7.84700 32.72000
C  39.61000 7.69300 31.19200
C  39.82000 6.52200 33.50400
C  40.31600 10.27500 33.66800
C  41.17500 10.71800 34.91400
H  40.51600 11.74700 35.85600
N  39.20100 7.22600 28.11100
C  38.41600 6.75600 29.17400
C  37.27900 5.96600 28.67500
C  37.33600 5.99100 27.25600
C  38.58200 6.85400 26.91500
C  36.17100 5.37600 29.56300
C  36.42200 5.48600 26.09400
O  36.69700 5.50400 24.89600
C  35.09300 4.84000 26.45400
N  41.14600 8.24100 26.11200
C  40.15800 7.97500 25.26200
C  40.49400 8.25500 23.82700
C  41.89400 8.91700 23.97200
C  42.04700 8.99400 25.50100
C  40.45500 7.04300 22.85400
C  42.08300 10.26000 23.14200
C  41.57400 11.57100 23.73900
N  42.47900 9.39300 28.52500
C  43.33200 9.82700 27.60500
C  44.48400 10.51100 28.20400
C  44.06500 10.62000 29.57800
C  42.85200 9.91600 29.69800
C  45.55300 11.10400 27.50000
C  44.43000 11.13100 30.89000
O  45.36500 11.78400 31.16500
C  43.31800 10.54600 31.88600
C  44.03900 9.66800 32.88700
O  44.08800 8.43600 32.78800
O  44.40500 10.43600 33.96500
C  44.87600 9.67400 35.09900
H  37.95600 6.53600 31.31500
H  38.35900 6.96100 24.78800
H  43.89000 10.04500 25.62000
H  41.56700 8.59900 33.53500
H  38.71800 8.19700 33.06000
H  38.85200 6.34900 33.97400
H  40.67400 6.56900 34.18000
H  39.94800 5.67200 32.83300
H  39.27000 10.26900 33.97300
H  40.44400 11.09800 32.96500
H  42.08900 11.16900 34.52600
H  41.50600 9.81400 35.42600
H  36.15800 5.48800 30.64700
H  35.90600 4.33900 29.35800
H  35.37500 6.02300 29.19300
H  35.05000 4.32700 27.41400
H  34.72700 4.15500 25.68900
H  34.33700 5.62500 26.50400
H  39.73800 8.88100 23.35300
H  42.57100 8.17300 23.55200
H  41.40200 7.08600 22.31500
H  39.72300 7.08400 22.04700
H  40.30300 6.06300 23.30800
H  41.63900 10.17900 22.15000
H  43.14900 10.38200 22.94900
H  42.42000 12.24700 23.85900
H  41.00100 11.51100 24.66500
H  40.80000 12.07400 23.15900
H  45.14600 11.87900 26.85100
H  45.98300 10.37500 26.81400
H  46.26300 11.41100 28.26800
H  42.75400 11.34200 32.37300
H  45.79700 9.20200 34.75600
H  44.14400 8.91800 35.38500
H  45.21600 10.16500 36.01200

