158

Mg 24.67300 -6.87300 47.11700
C  27.54200 -4.73900 46.02800
C  22.97900 -5.34600 44.45800
C  22.62400 -9.36200 47.44500
C  27.22000 -8.65300 48.90000
N  25.25200 -5.26600 45.38000
C  26.41100 -4.60100 45.23500
C  26.22300 -3.52200 44.18500
C  24.71900 -3.49300 43.80800
C  24.24400 -4.79700 44.54400
C  23.96100 -2.12500 44.20700
C  27.16100 -3.86300 42.99100
C  28.16500 -2.65600 42.67000
H  27.82200 -1.91500 41.34900
N  22.90200 -7.21400 46.20800
C  22.33200 -6.45000 45.23300
C  21.06600 -7.06900 44.85000
C  20.97600 -8.27800 45.59200
C  22.21000 -8.32600 46.44400
C  20.09400 -6.51500 43.73900
C  19.84900 -9.30700 45.38400
O  18.82000 -9.08500 44.74800
C  20.00800 -10.61800 46.01900
N  24.91400 -8.80300 47.94200
C  23.91000 -9.65100 47.98200
C  24.22000 -10.87200 48.93300
C  25.68400 -10.59400 49.36800
C  25.96300 -9.29200 48.67100
C  23.07400 -11.13700 50.00000
C  26.72400 -11.70500 48.96900
C  27.68700 -12.15600 50.07700
N  26.82200 -6.68000 47.60100
C  27.65900 -7.44300 48.35300
C  29.01000 -6.90500 48.44300
C  28.96600 -5.78500 47.58700
C  27.65900 -5.77500 46.99200
C  30.15000 -7.48200 49.22600
C  29.74100 -4.64000 47.14900
O  30.83300 -4.19100 47.52500
C  28.73600 -3.83800 46.09100
C  28.41600 -2.47200 46.66800
O  27.89000 -2.20500 47.78100
O  28.90500 -1.49300 45.82100
C  28.56500 -0.13700 46.16800
H  22.37200 -4.70900 43.81200
H  21.88500 -10.11800 47.71800
H  27.83400 -9.30400 49.52600
H  26.46000 -2.53800 44.59100
H  24.56000 -3.60000 42.73500
H  23.37800 -1.68900 43.39600
H  24.65500 -1.31600 44.43600
H  23.25100 -2.33500 45.00700
H  26.60700 -4.10900 42.08500
H  27.69900 -4.78100 43.22700
H  29.22800 -2.85400 42.81000
H  27.91800 -1.88300 43.39700
H  19.08400 -6.33800 44.11000
H  19.99700 -7.08700 42.81700
H  20.44300 -5.56400 43.33500
H  19.73500 -10.36300 47.04300
H  20.98700 -11.03100 45.77400
H  19.24000 -11.29000 45.63700
H  24.20400 -11.64300 48.16300
H  25.60800 -10.36000 50.43000
H  22.44900 -10.27500 50.23500
H  23.56800 -11.63700 50.83300
H  22.42800 -11.82900 49.46000
H  27.40400 -11.23600 48.25800
H  26.28100 -12.54300 48.43200
H  27.66100 -13.24500 50.07000
H  27.30800 -11.86300 51.05600
H  28.68900 -11.72900 50.05200
H  30.81400 -6.72600 49.64500
H  30.88800 -8.03200 48.64200
H  29.85900 -8.10300 50.07400
H  29.24400 -3.72500 45.13400
H  27.91800 0.32000 45.42000
H  29.43100 0.51500 46.28300
H  28.11600 -0.05400 47.15800
Mg 40.43800 8.24800 29.01000
C  42.19000 9.71800 31.73600
C  38.05300 7.16500 31.06100
C  39.09700 6.64200 26.43400
C  43.18400 9.14300 26.90200
N  40.17900 8.41300 31.21500
C  40.91500 9.11700 32.10600
C  40.25000 9.08900 33.52000
C  39.06500 8.10100 33.22900
C  39.07100 7.84200 31.75000
C  39.10400 6.79200 34.07900
C  39.84800 10.51700 34.09200
C  39.61600 10.45100 35.62700
H  40.83200 10.53700 36.56500
N  38.73500 7.26200 28.75000
C  37.82000 6.92000 29.69300
C  36.72100 6.19800 29.11000
C  36.93200 6.18700 27.71200
C  38.31100 6.60000 27.63100
C  35.55700 5.57300 29.94800
C  36.02800 5.61300 26.63600
O  36.32700 5.51700 25.47500
C  34.70100 5.11100 27.08300
N  41.16000 7.76100 26.97700
C  40.34500 7.11500 26.08300
C  40.84100 7.16300 24.64400
C  42.02200 8.22400 24.86300
C  42.15100 8.42100 26.37600
C  41.36700 5.85600 24.01200
C  41.88500 9.56900 24.09000
C  40.87700 10.71300 24.42000
N  42.36000 9.05500 29.20600
C  43.31600 9.35800 28.22400
C  44.43300 9.96400 28.87800
C  44.05900 10.19900 30.17500
C  42.75000 9.61100 30.39500
C  45.70500 10.38600 28.18700
C  44.50800 10.79400 31.46400
O  45.50400 11.42400 31.78500
C  43.24600 10.45000 32.50300
C  43.78900 9.70300 33.74900
O  43.69300 8.51800 33.97900
O  44.43500 10.55500 34.59200
C  45.28600 10.06700 35.67800
H  37.23700 6.83200 31.70500
H  38.60300 6.20800 25.56200
H  44.14400 9.33600 26.41900
H  40.89100 8.62700 34.27200
H  38.13300 8.50000 33.62900
H  38.29500 6.50000 34.74900
H  39.99300 6.86500 34.70500
H  39.20600 5.96400 33.37700
H  38.85100 10.76000 33.72300
H  40.47600 11.38100 33.87300
H  39.11400 9.51900 35.88700
H  38.91100 11.27400 35.74200
H  35.70300 5.73700 31.01600
H  35.58800 4.50300 29.74000
H  34.61900 6.06900 29.70100
H  34.80100 4.19000 27.65700
H  34.11100 4.77700 26.22900
H  34.23100 5.97800 27.54600
H  40.01200 7.58300 24.07400
H  42.98900 7.89600 24.48100
H  42.24400 6.08200 23.40600
H  40.58400 5.29600 23.50000
H  41.67900 5.30600 24.90000
H  41.86600 9.23900 23.05100
H  42.90200 9.94700 23.99400
H  40.49000 10.53300 25.42300
H  40.08000 10.91600 23.70600
H  41.39300 11.67300 24.40400
H  46.32600 11.02000 28.82000
H  45.39200 10.98500 27.33100
H  46.39700 9.62600 27.82400
H  42.67000 11.37100 32.58800
H  45.98300 10.81600 36.05300
H  45.83400 9.24700 35.21400
H  44.59700 9.70200 36.43900

