158

Mg 17.61500 -1.71000 27.01400
C  16.89700 0.45800 29.73000
C  19.64000 -3.62200 29.00700
C  18.73000 -3.44100 24.31600
C  15.66500 0.32300 24.99700
N  18.12400 -1.54200 29.09800
C  17.67200 -0.65400 30.11000
C  18.08900 -1.09900 31.55100
C  19.08500 -2.30000 31.12800
C  18.93600 -2.55900 29.61700
C  20.61300 -2.18500 31.56300
C  16.90000 -1.44600 32.40100
C  17.00900 -1.24600 33.91600
H  18.18800 -0.54900 34.56900
N  18.90700 -3.35300 26.73500
C  19.64700 -4.03600 27.66700
C  20.34600 -5.15800 27.11100
C  20.10600 -5.13700 25.69300
C  19.26400 -3.92900 25.54300
C  21.16800 -6.20000 27.91000
C  20.64200 -6.13300 24.65800
O  20.37400 -6.04100 23.43200
C  21.51300 -7.35100 24.93300
N  17.29900 -1.46000 24.95400
C  17.92000 -2.27000 24.08000
C  17.49500 -1.82200 22.61000
C  16.34700 -0.83500 22.86300
C  16.37300 -0.60300 24.33800
C  18.68100 -1.28000 21.80200
C  14.91300 -1.27200 22.44000
C  14.12500 -2.25000 23.34000
N  16.40700 -0.02900 27.29900
C  15.65700 0.64300 26.37700
C  15.07100 1.76100 27.05900
C  15.53600 1.73400 28.37000
C  16.31300 0.60900 28.43200
C  14.11100 2.73300 26.49700
C  15.39300 2.38900 29.64300
O  14.65000 3.33100 29.96800
C  16.22300 1.51800 30.63000
C  17.21400 2.33700 31.44100
O  18.32800 2.71200 31.15800
O  16.54200 2.77300 32.60700
C  17.24100 3.62600 33.57400
H  20.10100 -4.27100 29.75500
H  19.09500 -3.90400 23.39600
H  15.09700 1.03300 24.39300
H  18.70800 -0.31500 31.98700
H  18.79600 -3.23000 31.61600
H  20.94000 -1.25300 32.02300
H  21.24800 -2.43700 30.71300
H  20.88700 -2.94100 32.29900
H  16.83100 -2.52300 32.24400
H  16.02300 -0.94200 31.99600
H  16.87300 -2.28300 34.22300
H  16.13600 -0.69200 34.26100
H  22.20100 -6.25700 27.56900
H  20.61600 -7.11900 27.71600
H  21.35900 -5.98300 28.96100
H  22.37800 -7.15000 25.56600
H  21.97300 -7.81000 24.05800
H  20.94600 -8.08000 25.51200
H  17.04800 -2.69900 22.14000
H  16.50400 0.12200 22.36600
H  18.37400 -0.82000 20.86200
H  19.35800 -2.12700 21.69200
H  19.20800 -0.45700 22.28400
H  15.06800 -1.81000 21.50400
H  14.37300 -0.37000 22.15300
H  13.31000 -1.68600 23.79300
H  14.71300 -2.69000 24.14600
H  13.67000 -3.00400 22.69700
H  13.65200 2.55400 25.52500
H  14.69300 3.65500 26.48200
H  13.35600 2.99600 27.23900
H  15.53500 1.06400 31.34300
H  16.85600 4.64500 33.55000
H  18.27200 3.78800 33.25900
H  17.16000 3.26100 34.59800
Mg -2.35600 35.35300 26.38800
C  -3.46400 33.54200 29.20000
C  -0.95800 37.65600 28.54500
C  -1.34300 37.04900 23.63300
C  -4.09500 33.12000 24.40000
N  -2.24700 35.50200 28.70300
C  -2.57700 34.56700 29.65500
C  -2.03600 34.93300 31.08200
C  -1.44800 36.36500 30.79500
C  -1.53900 36.55900 29.25100
C  -2.16300 37.51300 31.63800
C  -1.14800 33.90000 31.88900
C  -1.78700 33.18200 33.04700
H  -1.08600 33.25200 34.39400
N  -1.31600 37.26600 26.10900
C  -0.73700 38.00400 27.14100
C  0.00700 39.05000 26.51700
C  0.07500 38.68500 25.08700
C  -0.85000 37.59700 24.84200
C  0.86100 40.02000 27.35200
C  0.97100 39.27200 24.02100
O  1.04900 38.73800 22.88400
C  1.84400 40.55100 24.30100
N  -2.60200 35.01700 24.26300
C  -2.20100 35.99700 23.37500
C  -2.63900 35.61300 21.98600
C  -3.27000 34.15500 22.06700
C  -3.43400 34.13400 23.61200
C  -3.55200 36.69200 21.20200
C  -2.54700 32.94800 21.46600
C  -1.70300 32.21000 22.41600
N  -3.49400 33.73200 26.64300
C  -4.13800 32.92600 25.79700
C  -4.95500 31.96100 26.44100
C  -4.65600 32.17900 27.81100
C  -3.79600 33.25000 27.85100
C  -5.68700 30.82600 25.69700
C  -4.88800 31.66100 29.15000
O  -5.54600 30.67900 29.37300
C  -4.24300 32.58000 30.13400
C  -5.34200 33.25400 30.88700
O  -6.01000 34.12500 30.40700
O  -5.50100 32.70700 32.16500
C  -6.50400 33.33800 32.99900
H  -0.32900 38.27300 29.19000
H  -1.00400 37.38700 22.65200
H  -4.57100 32.42100 23.70900
H  -2.97500 34.98600 31.63300
H  -0.38900 36.39300 31.05300
H  -1.39600 38.03000 32.21600
H  -2.93000 37.12700 32.31000
H  -2.55900 38.11400 30.82000
H  -0.18400 34.28500 32.22000
H  -0.94500 33.06400 31.21900
H  -1.89800 32.14700 32.72300
H  -2.82900 33.50000 33.03100
H  0.26500 40.14300 28.25600
H  0.98300 40.99900 26.88800
H  1.83800 39.54600 27.44900
H  1.13400 41.32700 24.58900
H  2.48500 40.74200 23.44000
H  2.51100 40.32700 25.13300
H  -1.74300 35.48400 21.37800
H  -4.26800 34.19400 21.63000
H  -4.62100 36.49000 21.26500
H  -3.27000 36.92300 20.17500
H  -3.49600 37.56100 21.85800
H  -1.99500 33.24600 20.57500
H  -3.31600 32.22800 21.18600
H  -1.29800 32.72000 23.28900
H  -0.73200 31.95900 21.98900
H  -2.09800 31.29700 22.86200
H  -6.50500 30.39900 26.27700
H  -5.03000 29.95700 25.68900
H  -5.98000 31.04500 24.67000
H  -3.58200 31.98500 30.76400
H  -7.50300 32.94000 32.82300
H  -6.56800 34.41900 32.87900
H  -6.19900 33.22000 34.03900

