158

Mg 1.89700 -2.52100 45.17400
C  5.29300 -1.70700 44.49300
C  0.82700 0.10500 43.41900
C  -1.16400 -3.82100 45.50700
C  3.27800 -5.57700 46.52500
N  2.98700 -1.21900 43.89700
C  4.34900 -0.95300 43.82300
C  4.62000 0.22000 42.92500
C  3.25400 0.94600 42.93100
C  2.23600 -0.18100 43.39000
C  3.31300 2.19400 43.85800
C  5.26100 -0.08300 41.53900
C  6.25800 1.02400 40.99700
H  5.74400 1.77200 39.82300
N  0.01400 -1.85800 44.62400
C  -0.20000 -0.72500 43.92000
C  -1.65100 -0.58700 43.73300
C  -2.22400 -1.80700 44.25500
C  -1.15000 -2.54100 44.82600
C  -2.31400 0.60400 43.09600
C  -3.63500 -2.11300 44.21500
O  -4.41800 -1.36200 43.64800
C  -4.16300 -3.39400 44.62300
N  1.22300 -4.41300 45.85800
C  -0.12500 -4.65400 45.98600
C  -0.44300 -5.96200 46.79900
C  0.98700 -6.61500 46.78100
C  1.90800 -5.41600 46.45500
C  -0.93600 -5.66100 48.24500
C  1.13100 -7.81800 45.77700
C  2.15700 -8.84800 46.23000
N  3.95600 -3.43900 45.65600
C  4.28400 -4.66700 46.18500
C  5.74400 -4.77200 46.14900
C  6.18700 -3.54800 45.63500
C  5.07400 -2.80400 45.26800
C  6.61300 -5.87400 46.65800
C  7.34800 -2.76500 45.24000
O  8.52300 -2.95600 45.41600
C  6.78900 -1.49600 44.44000
C  7.31100 -0.34800 45.24300
O  8.39100 0.19700 45.10300
O  6.37600 0.09300 46.07500
C  6.52000 1.43500 46.70000
H  0.58400 0.94100 42.75900
H  -2.16400 -4.23000 45.67000
H  3.66300 -6.50000 46.96300
H  5.32500 0.84400 43.47500
H  2.88400 1.22200 41.94400
H  4.27200 2.70500 43.94400
H  3.09900 1.85300 44.87100
H  2.62400 2.97700 43.53900
H  4.46600 -0.11200 40.79300
H  5.63300 -1.10700 41.57300
H  7.17200 0.49200 40.73100
H  6.44400 1.76200 41.77700
H  -2.64400 0.31800 42.09800
H  -1.62900 1.45200 43.10500
H  -3.27500 0.83200 43.55900
H  -4.13200 -3.47100 45.71000
H  -3.53800 -4.14300 44.13700
H  -5.15000 -3.63600 44.22800
H  -1.20000 -6.55900 46.29100
H  1.35100 -6.90200 47.76700
H  -0.16100 -5.52100 48.99900
H  -1.72700 -6.34400 48.55400
H  -1.48000 -4.71900 48.18300
H  1.37700 -7.40600 44.79800
H  0.16400 -8.31900 45.73400
H  2.72500 -8.37800 47.03300
H  2.88700 -9.07200 45.45300
H  1.68200 -9.75100 46.61300
H  6.01500 -6.78500 46.63400
H  7.03500 -5.78800 47.65900
H  7.41500 -6.05700 45.94300
H  7.26900 -1.34900 43.47300
H  5.52200 1.83800 46.87000
H  6.97100 2.09000 45.95400
H  7.06400 1.37600 47.64200
Mg 0.18300 8.10000 25.65800
C  1.03700 9.79200 28.70800
C  0.13800 5.24000 27.44400
C  0.00600 6.45700 22.74100
C  1.06400 11.09400 23.92600
N  0.57000 7.53000 27.73600
C  0.74000 8.40500 28.86700
C  0.82300 7.69700 30.29800
C  0.58600 6.21000 29.86600
C  0.37300 6.31700 28.27900
C  1.73400 5.26100 30.25700
C  -0.24600 8.10100 31.37500
C  0.21800 8.13300 32.85400
H  1.30200 7.18600 33.37700
N  0.00100 6.11100 25.16300
C  0.11000 5.08800 26.01100
C  0.23300 3.83900 25.28800
C  0.11200 4.12900 23.92600
C  0.03600 5.63600 23.90900
C  0.28600 2.50700 26.03600
C  -0.06500 3.22400 22.73700
O  -0.26500 3.59600 21.57800
C  0.18900 1.75900 23.04300
N  0.51200 8.65800 23.59600
C  0.08700 7.84300 22.64000
C  0.18300 8.57800 21.23400
C  0.32200 10.08200 21.66300
C  0.70900 9.94600 23.13700
C  1.33800 8.06800 20.30900
C  -0.96400 10.90900 21.45700
C  -2.38800 10.38500 22.01300
N  0.77800 10.08500 26.14000
C  1.18000 11.15200 25.32500
C  1.41200 12.31600 26.13400
C  1.45400 11.79200 27.42900
C  1.06400 10.42000 27.38900
C  1.65600 13.65400 25.67500
C  1.74900 12.21300 28.83400
O  2.11800 13.25900 29.32800
C  1.50100 10.85800 29.70300
C  2.65500 10.54400 30.54600
O  3.50600 9.74000 30.28800
O  2.45400 11.27500 31.71800
C  3.29700 11.01800 32.86700
H  0.02900 4.24500 27.88000
H  -0.16900 5.92100 21.80600
H  1.13800 12.03900 23.38400
H  1.81400 7.97200 30.66100
H  -0.30500 5.69300 30.22300
H  2.63500 5.69800 30.69000
H  1.93700 4.65300 29.37600
H  1.41600 4.53300 31.00300
H  -1.15100 7.50300 31.27100
H  -0.47100 9.10800 31.02500
H  -0.75400 7.85200 33.25800
H  0.36000 9.15400 33.20700
H  1.06000 1.89200 25.57600
H  -0.69000 2.02500 25.97800
H  0.49700 2.63400 27.09800
H  0.09300 1.26500 22.07700
H  -0.48500 1.38100 23.81200
H  1.19200 1.90800 23.44400
H  -0.72900 8.41700 20.66100
H  1.09100 10.51300 21.02200
H  1.43400 7.01400 20.57100
H  2.24900 8.66500 20.33500
H  1.09000 8.11800 19.24800
H  -1.05600 11.01800 20.37700
H  -0.75200 11.88100 21.90300
H  -3.00900 10.25600 21.12600
H  -2.77100 11.20000 22.62700
H  -2.22600 9.45000 22.54900
H  2.17000 13.69300 24.71500
H  2.28700 14.13500 26.42300
H  0.64700 14.06100 25.72600
H  0.62300 10.97600 30.33900
H  2.79900 10.19600 33.38300
H  3.32100 11.89300 33.51600
H  4.31100 10.66800 32.67700

