158

Mg 25.66400 0.13000 29.18700
C  27.77700 -0.64700 31.95600
C  23.06800 0.59300 31.24800
C  23.90500 0.45000 26.49900
C  28.50400 -0.87600 27.17200
N  25.51500 0.02400 31.31800
C  26.48900 -0.22300 32.33100
C  25.96600 -0.07600 33.76900
C  24.47500 0.38000 33.43000
C  24.30600 0.30800 31.90100
C  23.39900 -0.27900 34.29000
C  26.77600 1.00700 34.65300
C  27.48100 0.56200 35.85000
H  27.36400 1.45900 37.06900
N  23.78700 0.51200 28.88700
C  22.83200 0.74200 29.84400
C  21.56300 1.05300 29.17900
C  21.88000 1.23200 27.81500
C  23.22800 0.67000 27.65300
C  20.26200 1.31200 30.04000
C  21.06000 1.75900 26.64300
O  21.48000 1.94000 25.50900
C  19.59900 1.94400 26.89800
N  26.19100 -0.06700 27.11200
C  25.22300 0.17300 26.18200
C  25.78000 0.02600 24.71500
C  27.30600 -0.09600 24.99100
C  27.37400 -0.32100 26.51600
C  25.02700 -1.09300 23.95400
C  28.17100 1.12700 24.50200
C  28.07100 2.45900 25.35200
N  27.65400 -0.92500 29.43900
C  28.68700 -1.18500 28.54600
C  29.87000 -1.72200 29.23800
C  29.53600 -1.54000 30.61200
C  28.21900 -0.96000 30.63500
C  31.14000 -2.27100 28.61000
C  30.04100 -1.66200 32.01500
O  31.14800 -1.98200 32.41900
C  28.82800 -1.09000 32.88700
C  28.48700 -2.12100 33.85600
O  27.61600 -2.93300 33.87400
O  29.37600 -1.98500 34.86000
C  29.13900 -2.74400 36.08800
H  22.19700 0.83400 31.86000
H  23.28300 0.73800 25.64800
H  29.32500 -1.19600 26.52700
H  25.82500 -1.01300 34.30600
H  24.33600 1.44400 33.61700
H  22.94100 -1.03000 33.64700
H  22.65200 0.50700 34.40400
H  23.70500 -0.69700 35.24900
H  26.05000 1.72500 35.03400
H  27.42000 1.58900 33.99400
H  28.51300 0.44700 35.51900
H  26.99600 -0.38900 36.06800
H  20.00700 2.37100 30.01100
H  20.33300 0.83500 31.01700
H  19.44000 0.82300 29.51800
H  19.15100 2.12300 25.92000
H  19.67500 2.90600 27.40600
H  19.15500 1.08200 27.39400
H  25.68600 0.95400 24.15100
H  27.60500 -1.05100 24.55900
H  24.09000 -1.12700 24.50900
H  25.54500 -2.05000 24.01200
H  24.66600 -0.92000 22.94000
H  27.93500 1.42700 23.48100
H  29.18400 0.75200 24.65100
H  27.35200 2.40500 26.16900
H  27.70600 3.22600 24.66900
H  29.02200 2.82900 25.73500
H  32.04900 -1.94700 29.11700
H  31.12800 -2.02200 27.54800
H  31.07300 -3.35100 28.47900
H  29.20600 -0.23600 33.45000
H  29.37000 -3.80300 35.97500
H  28.08400 -2.90600 36.30900
H  29.60000 -2.29500 36.96700
Mg -9.92100 17.55800 42.03100
C  -6.49600 16.88100 41.63800
C  -9.36000 20.73900 40.86500
C  -13.22600 17.95100 41.77700
C  -10.44800 14.05300 42.35700
N  -8.13200 18.63200 41.21900
C  -6.83600 18.17200 41.19300
C  -5.90200 19.32900 40.88500
C  -6.80300 20.58000 40.81800
C  -8.18100 19.97600 41.05800
C  -6.30200 21.73300 41.77400
C  -4.91300 19.07100 39.67700
C  -5.33100 18.22900 38.39800
H  -4.92000 18.85800 37.07300
N  -11.13300 19.16400 41.43700
C  -10.73800 20.40500 41.02700
C  -11.86600 21.27200 40.92600
C  -13.01200 20.49700 41.12500
C  -12.48400 19.15600 41.47400
C  -11.71200 22.78500 40.62000
C  -14.52100 21.02500 41.07100
O  -14.80300 22.08000 40.52500
C  -15.62800 20.21400 41.71700
N  -11.59800 16.14900 42.02000
C  -12.88800 16.60700 42.10700
C  -13.89300 15.46900 42.15900
C  -12.90200 14.28000 42.49300
C  -11.57300 14.85800 42.24300
C  -14.99500 15.77500 43.25300
C  -13.40400 13.07800 41.59100
C  -13.39500 11.71200 42.28100
N  -8.76200 15.78300 41.99800
C  -9.10700 14.47000 42.22000
C  -7.88800 13.66100 42.21600
C  -6.85100 14.58800 42.12500
C  -7.42200 15.84900 41.97300
C  -7.76100 12.17000 42.34700
C  -5.45900 14.69300 42.02500
O  -4.55800 13.83900 42.05900
C  -5.16300 16.21900 41.86000
C  -4.35600 16.59400 43.09900
O  -3.19600 16.33600 43.29300
O  -5.17400 17.18800 44.06200
C  -4.65800 17.32000 45.45300
H  -9.19500 21.78100 40.58500
H  -14.31500 17.98500 41.70300
H  -10.58000 12.99000 42.56700
H  -5.28500 19.37300 41.78200
H  -6.77700 21.04000 39.83000
H  -6.06200 22.57900 41.12900
H  -5.53100 21.35300 42.44400
H  -7.14700 22.07700 42.36900
H  -4.06700 18.57000 40.14700
H  -4.46200 19.99000 39.30300
H  -6.35400 17.86200 38.31800
H  -4.68500 17.35300 38.44600
H  -12.66300 23.27700 40.41700
H  -11.15700 22.86100 39.68500
H  -11.05100 23.19500 41.38300
H  -15.85100 19.40900 41.01700
H  -16.53300 20.81000 41.84100
H  -15.33500 19.73200 42.65000
H  -14.36100 15.33400 41.18400
H  -13.01400 14.19100 43.57300
H  -15.05300 15.01600 44.03300
H  -15.95200 15.80400 42.73200
H  -14.70700 16.73700 43.67600
H  -12.73100 13.17300 40.73800
H  -14.36400 13.27800 41.11500
H  -14.26100 11.10000 42.02800
H  -13.33400 11.60500 43.36400
H  -12.55600 11.10700 41.93900
H  -8.68300 11.69500 42.68200
H  -6.93100 11.90600 43.00200
H  -7.51100 11.72800 41.38300
H  -4.39600 16.28500 41.08800
H  -5.45100 17.33600 46.20100
H  -4.05300 18.22300 45.53500
H  -4.14900 16.43500 45.83700

