158

Mg -2.44200 16.94100 25.73900
C  -2.68000 14.82200 28.63500
C  -3.30300 19.55500 27.80100
C  -2.51100 18.89300 22.98500
C  -1.85700 14.06400 23.72800
N  -3.20900 17.08600 27.94800
C  -3.07900 16.17400 28.94600
C  -3.33100 16.82400 30.37300
C  -3.60700 18.34100 30.00500
C  -3.34800 18.37500 28.48600
C  -5.11400 18.76100 30.23100
C  -2.39600 16.49300 31.49200
C  -2.51600 17.26900 32.77100
H  -2.19400 16.43500 34.02600
N  -2.83400 18.95900 25.48700
C  -3.07100 19.86300 26.43900
C  -3.17400 21.10500 25.87500
C  -3.00000 21.05400 24.43600
C  -2.79600 19.57900 24.26900
C  -3.45300 22.42700 26.73900
C  -2.98000 22.15300 23.34000
O  -2.83400 21.96200 22.11500
C  -3.20100 23.65500 23.68600
N  -2.29700 16.53600 23.61900
C  -2.34300 17.56100 22.68500
C  -2.05300 17.02600 21.26700
C  -1.79400 15.45800 21.50800
C  -1.91600 15.36800 23.06100
C  -3.14400 17.33300 20.19900
C  -0.46700 14.91800 21.03600
C  0.76900 15.24900 21.93700
N  -2.35800 14.93700 26.06600
C  -2.08900 13.86600 25.11300
C  -2.00500 12.65600 25.80700
C  -2.09200 13.05000 27.20900
C  -2.40000 14.38600 27.34500
C  -1.69200 11.33400 25.34200
C  -1.97600 12.45700 28.53500
O  -1.65400 11.34900 28.89900
C  -2.39600 13.62300 29.52300
C  -1.33500 13.72500 30.49600
O  -0.28000 14.29300 30.23400
O  -1.60800 13.01300 31.59500
C  -0.63600 13.10300 32.73500
H  -3.38000 20.47400 28.38600
H  -2.38500 19.57900 22.14500
H  -1.61400 13.15500 23.17500
H  -4.29100 16.38600 30.64400
H  -2.85800 18.96200 30.49600
H  -5.74100 19.10300 29.40700
H  -5.06500 19.53800 30.99400
H  -5.70800 17.97300 30.69500
H  -1.41900 16.61200 31.02400
H  -2.59000 15.44400 31.71500
H  -3.48300 17.71500 33.00600
H  -1.79700 18.08800 32.74300
H  -4.15400 23.03900 26.17200
H  -2.52500 22.97600 26.89800
H  -3.84200 22.25600 27.74300
H  -2.81200 24.36400 22.95500
H  -2.73700 23.91800 24.63600
H  -4.26800 23.87600 23.71200
H  -1.10000 17.45200 20.95200
H  -2.65100 14.84400 21.23200
H  -3.92700 18.05400 20.43400
H  -3.66900 16.45000 19.83600
H  -2.63900 17.79200 19.34800
H  -0.32200 15.28200 20.01900
H  -0.49300 13.82900 21.04500
H  1.23600 14.35300 22.34800
H  0.43800 15.82400 22.80200
H  1.55900 15.76900 21.39500
H  -1.22600 10.79900 26.16900
H  -1.07900 11.28900 24.44200
H  -2.63600 10.81100 25.18900
H  -3.33200 13.37400 30.02200
H  0.38500 12.89100 32.42000
H  -0.93200 12.41800 33.52900
H  -0.67900 14.15200 33.03000
Mg 0.08100 43.58900 26.16400
C  2.34700 42.88700 28.81300
C  -2.31100 42.17400 28.24800
C  -2.11500 43.54400 23.72100
C  2.70700 44.19600 23.99600
N  0.09100 42.76300 28.30100
C  1.07000 42.79600 29.27700
C  0.50700 42.31600 30.58600
C  -0.95300 41.94200 30.29100
C  -1.09100 42.32600 28.85600
C  -1.46000 40.48100 30.65300
C  0.47400 43.57500 31.57500
C  -0.19600 43.45000 32.97300
H  -0.55100 42.07100 33.54400
N  -2.05800 43.08600 26.01600
C  -2.79100 42.49000 26.95500
C  -4.18100 42.25500 26.49200
C  -4.14900 42.61500 25.14000
C  -2.76900 43.11900 24.90400
C  -5.24800 41.79900 27.41300
C  -5.32300 42.66400 24.11200
O  -5.22100 42.94000 22.93700
C  -6.70300 42.36400 24.56500
N  0.27400 43.91700 24.19100
C  -0.80200 43.95400 23.38700
C  -0.42900 44.21500 21.85000
C  1.05800 44.53400 22.02100
C  1.39600 44.21100 23.49800
C  -0.68700 42.97100 20.91600
C  1.53200 45.92800 21.69500
C  1.26100 47.14000 22.57900
N  2.16000 43.67800 26.34600
C  3.08900 43.92500 25.31900
C  4.43800 43.72400 25.95500
C  4.13500 43.42900 27.30300
C  2.77900 43.28900 27.47600
C  5.74300 43.93400 25.21400
C  4.86400 43.06200 28.49700
O  6.02200 42.94600 28.75200
C  3.63200 42.89500 29.62000
C  3.85600 41.74600 30.56500
O  3.68400 40.64700 30.20100
O  4.10200 42.16200 31.91800
C  4.29600 40.95800 32.83400
H  -3.06500 41.81100 28.95000
H  -2.75200 43.43800 22.84100
H  3.42800 44.58500 23.27500
H  1.11900 41.47900 30.92200
H  -1.55400 42.60100 30.91900
H  -0.71900 39.94600 31.24600
H  -1.77000 39.80100 29.85900
H  -2.32500 40.49900 31.31700
H  -0.05900 44.32500 30.99100
H  1.47800 43.96300 31.74800
H  -1.10600 44.03300 33.11200
H  0.54900 43.92900 33.60800
H  -5.64000 42.74000 27.79900
H  -4.95900 41.08100 28.18000
H  -6.11300 41.40000 26.88300
H  -6.95600 42.82400 25.52000
H  -6.71200 41.27800 24.66100
H  -7.48400 42.67600 23.87200
H  -1.02400 45.03500 21.44800
H  1.60800 43.84700 21.37800
H  0.23500 42.70600 20.39700
H  -1.55400 43.16700 20.28500
H  -0.95200 42.11100 21.53200
H  1.11600 46.24400 20.73800
H  2.60000 45.86500 21.48800
H  0.95500 47.95900 21.92900
H  2.23800 47.40200 22.98700
H  0.63100 46.95900 23.45100
H  5.50000 44.78600 24.57900
H  6.17800 43.16700 24.57300
H  6.50400 44.16700 25.95900
H  3.66300 43.79100 30.24000
H  3.68900 40.07100 32.65600
H  4.24300 41.24300 33.88500
H  5.32300 40.60700 32.73800

