158

Mg 46.49200 24.72400 27.88800
C  47.53800 26.71900 30.71300
C  45.35200 22.34600 30.18700
C  46.35300 22.50300 25.34500
C  48.12200 26.97200 25.85400
N  46.23500 24.60000 30.24100
C  46.77800 25.59300 31.11400
C  46.30300 25.30400 32.54700
C  45.60400 23.80500 32.40100
C  45.75100 23.55600 30.88300
C  46.19700 22.69200 33.33200
C  45.41500 26.37800 33.26700
C  45.94100 26.98000 34.59300
H  44.88900 27.09100 35.74500
N  45.73100 22.84100 27.74200
C  45.34900 22.06100 28.84900
C  44.94100 20.73200 28.31000
C  45.23500 20.80500 26.88700
C  45.75200 22.11100 26.61900
C  44.54700 19.57200 29.18700
C  44.97900 19.61200 25.83700
O  45.27500 19.67500 24.66500
C  44.45100 18.18100 26.37700
N  47.12700 24.71200 25.85200
C  46.92600 23.76200 24.99200
C  47.36700 24.14200 23.52500
C  47.86100 25.66500 23.77700
C  47.75500 25.75800 25.28200
C  48.54300 23.26900 22.98700
C  46.93200 26.73700 23.08600
C  47.59700 27.97500 22.46400
N  47.61000 26.44400 28.17300
C  48.16300 27.29200 27.25000
C  48.90900 28.39100 27.92100
C  48.61900 28.17800 29.22700
C  47.93400 26.95600 29.36700
C  49.79100 29.52700 27.34500
C  48.82300 28.78900 30.54300
O  49.38900 29.82000 30.84500
C  48.04000 27.84800 31.56700
C  48.92500 27.33700 32.65600
O  49.67500 26.41400 32.37900
O  48.80100 27.97000 33.88300
C  49.80200 27.54100 34.91100
H  45.00600 21.66200 30.96500
H  46.34600 21.75800 24.54700
H  48.58100 27.76600 25.26200
H  47.23300 25.13000 33.08800
H  44.54700 23.79300 32.66700
H  45.38600 22.01600 33.60600
H  46.55600 23.05100 34.29600
H  47.06500 22.17800 32.92100
H  44.46000 25.92600 33.53200
H  45.14000 27.12000 32.51800
H  46.28500 27.99200 34.38200
H  46.85500 26.47300 34.90500
H  43.48200 19.36300 29.08400
H  44.65000 19.85000 30.23600
H  45.16100 18.69800 28.96900
H  45.12400 17.78100 27.13600
H  44.63100 17.63300 25.45300
H  43.39600 18.10400 26.64100
H  46.47200 24.03300 22.91300
H  48.88400 25.80400 23.42900
H  49.28100 23.71100 22.31700
H  48.14300 22.45600 22.38100
H  49.02300 22.72800 23.80200
H  46.23400 27.04400 23.86500
H  46.36800 26.25100 22.29000
H  47.25200 28.90700 22.91300
H  47.29000 28.07400 21.42300
H  48.67400 27.83300 22.54900
H  49.13400 30.03900 26.64200
H  50.70800 29.10400 26.93500
H  49.99500 30.21500 28.16600
H  47.35100 28.47100 32.13800
H  49.62100 27.92100 35.91700
H  50.76000 27.95700 34.60200
H  49.86800 26.45300 34.87400
Mg 26.78300 51.89600 25.45600
C  24.23000 52.36300 27.91400
C  28.85100 51.08100 28.06300
C  29.26700 51.39000 23.18400
C  24.58700 52.95300 23.05100
N  26.52400 51.68700 27.79800
C  25.39000 51.82500 28.54600
C  25.59500 51.57100 30.02300
C  27.19500 51.45700 30.07100
C  27.60200 51.48000 28.57400
C  27.82100 52.54500 31.00000
C  24.86800 50.30200 30.52100
C  24.31800 50.38000 31.91200
H  24.85900 49.36100 32.92800
N  28.69900 51.20900 25.57600
C  29.39600 51.04900 26.78400
C  30.76600 50.56900 26.43300
C  30.88900 50.53700 25.03600
C  29.59000 51.05100 24.52300
C  31.68500 50.13300 27.50000
C  32.02200 49.95500 24.18000
O  31.85400 49.81800 22.97500
C  33.32700 49.80300 24.88600
N  26.90200 52.21600 23.47800
C  28.00400 51.86200 22.69600
C  27.68300 51.89300 21.19000
C  26.16800 52.17900 21.16100
C  25.83400 52.46600 22.64300
C  28.52400 53.00400 20.44600
C  25.30100 51.04600 20.54700
C  23.92000 51.51300 20.06300
N  24.82500 52.53500 25.46700
C  24.08400 52.95400 24.38700
C  22.80000 53.32200 24.82900
C  22.80700 53.14200 26.24300
C  24.06700 52.62400 26.56300
C  21.65100 53.79800 24.05300
C  21.99000 53.16200 27.41300
O  20.82700 53.53500 27.56700
C  22.90100 52.73900 28.56800
C  23.15600 53.86500 29.44300
O  23.88700 54.80600 29.20300
O  22.46700 53.70400 30.68700
C  22.70200 54.80200 31.63700
H  29.53000 50.80000 28.87100
H  30.07400 51.32000 22.45200
H  23.85400 53.21900 22.28700
H  25.36700 52.37500 30.72200
H  27.61300 50.52100 30.44300
H  27.08500 52.79900 31.76200
H  28.06200 53.39200 30.35700
H  28.71500 52.19900 31.51900
H  25.57100 49.46900 30.54000
H  24.05200 50.12900 29.81900
H  23.25500 50.14100 31.92700
H  24.36700 51.37300 32.35700
H  31.91400 49.07900 27.34200
H  31.31700 50.33800 28.50500
H  32.63600 50.64400 27.64700
H  33.43900 50.60500 25.61500
H  34.03600 50.09100 24.11000
H  33.47400 48.77700 25.22300
H  27.80400 50.95600 20.64600
H  25.90600 53.08600 20.61600
H  27.86200 53.77700 20.05500
H  29.18000 52.61900 19.66600
H  29.13300 53.49900 21.20300
H  25.09300 50.30700 21.32100
H  25.92400 50.56400 19.79300
H  23.67300 50.98300 19.14300
H  23.85200 52.58900 19.90400
H  23.28900 51.26600 20.91700
H  21.92600 53.71100 23.00200
H  21.39800 54.84400 24.22600
H  20.66400 53.39000 24.26800
H  22.45800 51.90100 29.10600
H  22.58800 55.75900 31.12800
H  23.71800 54.85300 32.02800
H  21.98000 54.74800 32.45200

