158

Mg 54.52400 24.10300 45.33900
C  52.21700 26.37100 43.96300
C  52.94800 21.68400 43.32300
C  57.24500 22.23600 45.52300
C  56.20200 26.87600 46.67100
N  52.87800 24.10300 43.62800
C  52.03300 25.10000 43.34200
C  50.86000 24.62100 42.43400
C  50.93200 23.10400 42.64100
C  52.36500 22.93800 43.29900
C  49.84900 22.52100 43.61400
C  51.24100 25.04300 40.95700
C  50.12300 24.83600 39.95400
H  50.35000 25.21300 38.47600
N  54.99900 22.13600 44.61100
C  54.17200 21.28700 43.93200
C  54.82900 19.99200 43.75600
C  56.12600 20.12500 44.39500
C  56.14600 21.54600 44.92300
C  54.18800 18.88000 42.97300
C  57.19700 19.09800 44.48500
O  57.06800 18.07700 43.78500
C  58.38000 19.14400 45.29200
N  56.52900 24.52500 45.82400
C  57.45400 23.56000 45.91100
C  58.79800 24.17400 46.40900
C  58.39200 25.63000 46.81700
C  56.93400 25.76300 46.44500
C  59.33700 23.34600 47.60400
C  59.29900 26.84600 46.40500
C  60.70200 26.61600 45.91600
N  54.20500 26.17600 45.50200
C  54.94900 27.16200 46.16100
C  54.17500 28.33800 46.29600
C  53.11600 28.04900 45.41600
C  53.18700 26.76600 44.90200
C  54.63500 29.52700 47.00500
C  51.95800 28.60700 44.95300
O  51.37600 29.64400 45.30000
C  51.28100 27.54900 43.93200
C  50.83400 28.13300 42.70300
O  51.60400 28.62200 41.84500
O  49.49600 27.93100 42.56600
C  48.89200 28.42800 41.32400
H  52.35900 20.85500 42.92400
H  58.07900 21.53100 45.53400
H  56.61400 27.62800 47.34700
H  49.88700 25.06200 42.65400
H  50.86300 22.54400 41.70800
H  50.36900 21.93700 44.37400
H  49.15400 21.96600 42.98400
H  49.25600 23.27900 44.12700
H  52.16000 24.51900 40.69400
H  51.50600 26.10000 40.94400
H  49.21600 25.32500 40.30900
H  49.93800 23.76200 39.93700
H  54.49800 18.92100 41.92800
H  53.13500 19.12900 43.10900
H  54.36600 17.91700 43.45100
H  58.85100 18.16300 45.36300
H  58.00700 19.41400 46.28000
H  59.00500 19.92600 44.86100
H  59.51400 24.13500 45.58800
H  58.36100 25.64000 47.90700
H  59.70300 23.97700 48.41400
H  60.16600 22.73100 47.25400
H  58.51600 22.74300 47.99100
H  59.30200 27.66100 47.12900
H  58.80100 27.25800 45.52700
H  61.25500 27.36000 46.48900
H  60.81500 26.80300 44.84800
H  61.05800 25.62100 46.18300
H  55.17100 30.26600 46.40900
H  55.20400 29.27700 47.90000
H  53.76400 30.08200 47.35200
H  50.38400 27.19400 44.44100
H  48.79600 29.51200 41.37600
H  47.90800 27.96900 41.22800
H  49.59900 28.16400 40.53700
Mg 48.20300 35.29200 28.03700
C  46.47300 33.57700 30.47000
C  48.51300 37.89200 30.20700
C  49.47200 37.12800 25.52300
C  47.67900 32.66700 25.77700
N  47.83900 35.58600 30.16100
C  47.13100 34.70400 30.93900
C  46.90500 35.29400 32.30500
C  47.24200 36.82000 32.15700
C  47.98100 36.77700 30.77400
C  46.05400 37.80600 32.10200
C  47.72400 34.55200 33.47100
C  49.08600 34.97500 33.92700
H  49.30300 35.69200 35.26200
N  48.97700 37.22300 27.90200
C  49.02100 38.13200 28.96100
C  49.63600 39.31300 28.50900
C  50.05600 39.11200 27.16100
C  49.57300 37.76200 26.80800
C  49.89400 40.53000 29.37400
C  50.94800 39.92000 26.22200
O  51.31800 39.55100 25.06700
C  51.32900 41.31100 26.59900
N  48.29300 35.02200 25.92200
C  48.94600 35.85200 25.14200
C  48.83400 35.42000 23.64800
C  48.31000 33.99600 23.78000
C  48.15300 33.83600 25.29800
C  47.96800 36.29500 22.68700
C  49.30200 32.95900 23.17500
C  49.33600 32.81100 21.67700
N  47.24300 33.58200 28.04000
C  47.05300 32.58400 27.06700
C  46.32000 31.48000 27.64200
C  45.90700 31.92000 28.82900
C  46.55500 33.14100 29.11400
C  45.95100 30.22400 26.99600
C  45.05800 31.56700 29.92800
O  44.26200 30.59500 30.05500
C  45.25900 32.74300 31.01700
C  45.49400 32.20200 32.35700
O  46.39900 31.39700 32.68900
O  44.62000 32.76000 33.19500
C  44.59900 32.44500 34.62900
H  48.61000 38.70300 30.93200
H  50.01600 37.72700 24.79000
H  47.52100 31.71400 25.26800
H  45.93900 35.21100 32.80200
H  47.97300 37.20600 32.86900
H  45.39700 37.71600 31.23600
H  46.46100 38.81600 32.15700
H  45.47800 37.63800 33.01200
H  47.99800 33.56200 33.10600
H  47.15200 34.55200 34.39800
H  49.59200 35.53100 33.13800
H  49.66500 34.05100 33.94400
H  50.88200 40.56100 29.83400
H  49.16800 40.66300 30.17600
H  49.77100 41.42500 28.76600
H  50.39700 41.81000 26.86800
H  51.83800 41.72600 25.72900
H  51.93300 41.41800 27.50000
H  49.85500 35.44300 23.26800
H  47.34900 33.91700 23.27200
H  46.95600 36.41600 23.07400
H  47.88700 35.83300 21.70400
H  48.34100 37.32000 22.67700
H  48.96700 31.96500 23.47100
H  50.28400 33.15700 23.60500
H  50.33400 33.18500 21.44900
H  48.53400 33.33600 21.15800
H  49.25700 31.75200 21.43400
H  44.87300 30.14200 26.85700
H  46.44600 29.40400 27.51500
H  46.36900 30.27500 25.99100
H  44.37000 33.37300 31.02500
H  45.26400 31.61500 34.86800
H  43.55700 32.23800 34.87600
H  44.91900 33.32900 35.18000

