158

Mg 47.59800 16.49300 28.77900
C  45.45200 16.28300 31.67000
C  49.81500 18.26400 30.86900
C  49.31200 17.49700 26.07200
C  45.11300 15.06800 26.90500
N  47.50900 17.29000 30.99500
C  46.62100 17.02700 31.98900
C  47.15800 17.46300 33.33500
C  48.45200 18.22000 32.93300
C  48.62100 17.83900 31.49500
C  48.37300 19.74400 33.17700
C  47.43300 16.31400 34.30300
C  46.87700 16.45400 35.70700
H  46.78900 17.83100 36.32900
N  49.40600 17.59500 28.50600
C  50.16600 18.21300 29.48800
C  51.45100 18.62600 28.97700
C  51.33900 18.45300 27.53100
C  49.96200 17.82000 27.30600
C  52.63500 19.13500 29.74000
C  52.36500 18.75000 26.43200
O  52.27800 18.53600 25.24400
C  53.63300 19.32800 26.99400
N  47.41200 16.06500 26.83400
C  48.09000 16.80700 25.88700
C  47.50200 16.55000 24.50700
C  46.33400 15.61100 24.73400
C  46.22600 15.60900 26.25700
C  47.41700 17.80500 23.58700
C  46.45100 14.16500 24.06600
C  47.17700 13.12300 25.01200
N  45.77000 15.64500 29.21700
C  44.90100 15.08000 28.32000
C  43.75800 14.69900 29.06600
C  44.03600 15.02000 30.42800
C  45.19000 15.71400 30.44000
C  42.42500 14.22700 28.48600
C  43.31800 15.04300 31.71800
O  42.25000 14.60300 32.15400
C  44.39700 15.79400 32.62400
C  43.69400 16.87200 33.26100
O  43.75500 18.00300 32.83400
O  42.88700 16.39600 34.28300
C  42.02400 17.35000 34.99800
H  50.52400 18.69300 31.57900
H  49.92800 17.87000 25.25100
H  44.27600 14.78900 26.26200
H  46.40600 18.16100 33.70400
H  49.31600 17.88700 33.50800
H  49.27800 20.22600 33.54700
H  47.69400 20.06800 33.96600
H  48.06800 20.24600 32.25900
H  48.47300 15.98900 34.31100
H  46.90200 15.46300 33.87500
H  47.38900 15.72800 36.33900
H  45.84600 16.10800 35.62600
H  53.57800 18.59000 29.70200
H  52.38700 18.96700 30.78800
H  52.71400 20.22000 29.81200
H  53.43400 20.20600 27.60700
H  54.26100 19.58800 26.14100
H  54.18900 18.54300 27.50600
H  48.22300 15.88900 24.02600
H  45.43000 16.08300 24.35000
H  47.99500 17.71000 22.66800
H  47.74900 18.75500 24.00400
H  46.38100 17.91100 23.26400
H  47.14600 14.20300 23.22700
H  45.52100 13.72500 23.70700
H  46.48800 12.62800 25.69600
H  47.90800 13.63100 25.64200
H  47.68800 12.46300 24.31000
H  42.32800 13.16500 28.26500
H  42.24100 14.86800 27.62400
H  41.63700 14.45300 29.20500
H  44.82800 15.15500 33.39500
H  41.91800 16.84400 35.95800
H  41.04900 17.64000 34.60500
H  42.61400 18.25400 35.15100
Mg 47.38700 24.92100 28.66500
C  48.22400 27.17700 31.18800
C  46.29600 22.74900 30.98900
C  46.84800 22.75500 26.20400
C  48.72400 27.25500 26.25100
N  47.31100 24.98900 30.77600
C  47.64700 25.99800 31.66400
C  47.25600 25.68200 33.11900
C  46.91300 24.19100 32.98400
C  46.91100 23.89900 31.46000
C  47.93000 23.25200 33.73500
C  46.00000 26.60200 33.59100
C  45.92100 27.02300 35.10700
H  46.92900 26.40600 36.10600
N  46.69300 22.97800 28.59800
C  46.25300 22.26700 29.68500
C  45.69500 20.94700 29.22200
C  45.96000 20.94700 27.80400
C  46.53000 22.21600 27.47100
C  45.02800 19.94800 30.22700
C  45.63900 19.86900 26.82900
O  45.86600 19.82700 25.61100
C  45.00800 18.56200 27.34000
N  47.98900 24.94300 26.57800
C  47.52300 23.90600 25.83500
C  47.91800 24.12500 24.28600
C  48.50600 25.60600 24.29000
C  48.39700 25.99900 25.79100
C  48.92900 23.06300 23.74500
C  47.68000 26.57700 23.37800
C  48.42100 27.20100 22.21500
N  48.15300 26.82200 28.64000
C  48.66700 27.60600 27.60800
C  48.94000 28.96700 28.13400
C  48.76800 28.91400 29.52300
C  48.32700 27.56300 29.77900
C  49.51500 30.04400 27.23200
C  48.97000 29.61400 30.83900
O  49.34400 30.73100 31.16300
C  48.62700 28.51000 31.90400
C  49.84200 28.35300 32.86300
O  51.01400 28.14300 32.54600
O  49.42600 28.71500 34.09500
C  50.48900 29.11600 35.03700
H  45.84300 22.10900 31.74800
H  46.44300 22.10000 25.43000
H  49.02600 27.93400 25.45200
H  48.19000 25.89300 33.64000
H  45.94500 24.04200 33.46300
H  48.30900 23.81100 34.59100
H  48.69900 23.08600 32.98100
H  47.33500 22.42700 34.12700
H  45.12000 26.01200 33.33400
H  46.11300 27.48000 32.95500
H  44.89000 26.98300 35.45700
H  46.22000 28.07100 35.10300
H  45.33500 20.01200 31.27100
H  45.24300 18.89000 30.07700
H  43.97000 20.07900 29.99800
H  44.75700 17.88600 26.52200
H  44.16800 18.79300 27.99500
H  45.72000 18.00200 27.94600
H  46.97600 24.09000 23.73800
H  49.57200 25.58900 24.06200
H  48.41200 22.28500 23.18300
H  49.52500 22.75900 24.60500
H  49.59400 23.52200 23.01400
H  47.50000 27.51200 23.90900
H  46.72900 26.19200 23.01300
H  48.06900 26.74500 21.29000
H  49.47300 26.93300 22.11300
H  48.36500 28.28900 22.25400
H  49.51200 30.96700 27.81200
H  48.80500 30.16300 26.41300
H  50.51200 29.75800 26.89900
H  47.80000 29.02200 32.39600
H  50.12600 29.90500 35.69500
H  51.44900 29.32800 34.56600
H  50.54000 28.17200 35.58000

