158

Mg 8.57200 3.23400 27.98100
C  10.00400 1.63600 30.86100
C  6.40000 4.89300 30.27300
C  7.37600 4.77900 25.41700
C  10.48200 1.16400 25.87100
N  8.34300 3.26600 30.28900
C  9.02500 2.55300 31.20600
C  8.64700 3.00700 32.68700
C  7.23900 3.69300 32.38000
C  7.33700 3.95800 30.90200
C  6.03700 2.85100 32.75900
C  9.72200 3.86200 33.39400
C  9.30500 4.75500 34.57300
H  10.15300 4.52500 35.84900
N  7.21600 4.60000 27.83700
C  6.36600 5.15800 28.83800
C  5.54600 6.20900 28.22100
C  5.72500 6.11700 26.80600
C  6.78000 5.10200 26.63500
C  4.54100 7.07400 29.03300
C  5.07500 6.97200 25.71900
O  5.35500 6.80200 24.56100
C  3.95100 7.88000 26.06600
N  8.77300 2.99400 25.87400
C  8.28000 3.86800 25.01900
C  8.76200 3.62800 23.58700
C  9.72800 2.42400 23.81900
C  9.63100 2.13600 25.27800
C  7.73900 3.52800 22.46000
C  11.25900 2.65900 23.32700
C  12.36900 3.16200 24.30000
N  9.87700 1.62800 28.22000
C  10.63400 0.89400 27.28700
C  11.52000 0.00700 27.92800
C  11.35300 0.31200 29.28600
C  10.33100 1.21900 29.44700
C  12.42100 -0.97500 27.20500
C  11.89100 0.02100 30.61100
O  12.81600 -0.77000 30.85300
C  11.15700 0.90700 31.59700
C  10.78000 0.08400 32.73600
O  9.91600 -0.76100 32.73500
O  11.35900 0.56000 33.87600
C  10.88700 -0.03500 35.09200
H  5.75900 5.48100 30.93300
H  7.07400 5.30700 24.50900
H  10.99800 0.56700 25.11600
H  8.61900 2.10700 33.30100
H  7.20100 4.67300 32.85600
H  5.22500 3.07600 32.06800
H  5.66100 2.99200 33.77200
H  6.37600 1.84100 32.52800
H  10.00600 4.60300 32.64700
H  10.56400 3.23900 33.69400
H  8.29500 4.42700 34.81700
H  9.38700 5.79700 34.26400
H  4.41600 6.71000 30.05300
H  3.55500 7.03000 28.56900
H  4.75100 8.14300 29.02100
H  3.14600 7.27200 26.47900
H  3.61400 8.37400 25.15500
H  4.16500 8.62100 26.83700
H  9.38300 4.50800 23.41900
H  9.34200 1.59500 23.22600
H  6.78900 3.89400 22.85000
H  7.62300 2.46900 22.22600
H  7.92600 4.19100 21.61500
H  11.28300 3.40100 22.52800
H  11.50600 1.73100 22.81200
H  12.03000 3.20500 25.33500
H  12.75800 4.14700 24.04200
H  13.09300 2.35300 24.21100
H  12.84500 -0.32600 26.43900
H  11.95800 -1.78600 26.64300
H  13.21500 -1.35000 27.85100
H  11.76900 1.77800 31.83200
H  10.44000 0.78800 35.64800
H  11.62800 -0.52900 35.72200
H  10.01900 -0.69400 35.06100
Mg 36.27700 1.98600 30.72100
C  33.91700 2.83300 33.20100
C  38.73900 2.17300 33.11000
C  38.60200 1.44200 28.32000
C  33.92600 2.37200 28.28500
N  36.26800 2.46400 32.95400
C  35.14400 2.66600 33.75200
C  35.56400 2.78500 35.22400
C  37.14200 2.67400 35.12100
C  37.42400 2.41200 33.66500
C  37.94200 3.89000 35.73300
C  34.98200 1.60500 36.08700
C  34.41400 2.13500 37.44200
H  35.30600 3.17800 38.17300
N  38.40200 1.86000 30.69900
C  39.22700 1.95400 31.76000
C  40.58300 1.74300 31.33600
C  40.62000 1.45700 29.95100
C  39.18200 1.51900 29.64300
C  41.71100 1.90700 32.36100
C  41.74700 1.08900 28.94200
O  41.63300 0.87600 27.74800
C  43.21900 0.93500 29.44100
N  36.30800 1.94600 28.54200
C  37.36800 1.68300 27.81200
C  37.05700 1.78000 26.32300
C  35.47500 1.92000 26.31800
C  35.18900 2.02400 27.81300
C  37.87600 2.87300 25.66100
C  34.66200 0.78000 25.54100
C  33.35300 1.11600 24.85200
N  34.27600 2.50700 30.63500
C  33.44600 2.66900 29.58200
C  32.10200 3.04100 30.07300
C  32.21300 3.17700 31.48900
C  33.59000 2.82000 31.80000
C  30.85500 3.18300 29.24200
C  31.54600 3.35800 32.69400
O  30.37700 3.64200 32.93600
C  32.60900 3.15300 33.82400
C  32.62100 4.41900 34.65600
O  33.03200 5.49800 34.28300
O  32.03600 4.25200 35.90000
C  31.97700 5.43100 36.82300
H  39.51900 2.13600 33.87200
H  39.34800 1.30900 27.53400
H  33.13800 2.31800 27.53100
H  35.26200 3.78000 35.54900
H  37.46500 1.79300 35.67500
H  37.32000 4.45000 36.43100
H  38.33200 4.49400 34.91400
H  38.84200 3.59600 36.27400
H  35.71100 0.81400 36.26300
H  34.06300 1.20700 35.65600
H  34.30300 1.32400 38.16200
H  33.36700 2.41700 37.32800
H  41.30600 2.71100 32.97500
H  42.57600 2.22000 31.77700
H  42.03500 1.00700 32.88400
H  43.14000 0.29700 30.32100
H  43.56600 1.95800 29.58200
H  43.98800 0.63100 28.73100
H  37.34400 0.78000 25.99700
H  35.13700 2.82300 25.80900
H  37.32300 3.62400 25.09700
H  38.64100 2.42000 25.03100
H  38.39200 3.52300 26.36800
H  34.39900 0.14200 26.38500
H  35.42800 0.31000 24.92400
H  32.81800 0.18500 24.66100
H  33.49800 1.58800 23.88100
H  32.66600 1.75800 25.40400
H  30.34600 2.22700 29.37000
H  31.10700 3.57800 28.25800
H  30.16700 3.90300 29.68600
H  32.23700 2.38400 34.50100
H  30.92800 5.72600 36.84900
H  32.65500 6.25700 36.60700
H  32.26900 5.12800 37.82800

