158

Mg 16.22900 51.26000 24.63100
C  18.16700 50.79700 27.41600
C  13.61800 52.28600 26.55900
C  14.43300 51.74500 21.73200
C  19.07200 50.49400 22.66400
N  15.91000 51.44800 26.86400
C  16.82700 51.20200 27.84000
C  16.30400 51.46200 29.24600
C  14.72300 51.76900 28.93200
C  14.70900 51.82100 27.36800
C  13.66400 50.77000 29.47300
C  16.99500 52.67500 29.90200
C  16.66600 53.04500 31.35700
H  16.05200 52.03000 32.26200
N  14.32000 51.95300 24.18800
C  13.43000 52.41000 25.12600
C  12.31400 52.95800 24.43800
C  12.48100 52.75200 23.02900
C  13.80900 52.08200 22.94000
C  11.13900 53.60200 25.26500
C  11.52300 53.02900 21.88700
O  11.77900 52.87700 20.70000
C  10.11200 53.42900 22.15500
N  16.66000 51.12100 22.55900
C  15.71400 51.33000 21.51600
C  16.36900 51.01700 20.08600
C  17.89400 51.16900 20.48600
C  17.88300 50.87900 22.00100
C  15.79000 49.71200 19.37000
C  18.47000 52.60200 20.27300
C  19.40100 52.83200 19.16200
N  18.12100 50.56200 24.91600
C  19.18700 50.26400 24.06900
C  20.33200 49.96900 24.83600
C  19.93000 50.08000 26.14700
C  18.58000 50.47500 26.15900
C  21.65400 49.66400 24.24400
C  20.44800 49.93400 27.49500
O  21.49800 49.58200 27.95800
C  19.29100 50.37300 28.30800
C  18.95800 49.24800 29.25900
O  18.50000 48.18600 28.98800
O  19.09700 49.84000 30.53800
C  18.46500 49.14900 31.65800
H  12.81800 52.68200 27.18800
H  14.02200 52.01000 20.75600
H  19.94300 50.19100 22.08000
H  16.58300 50.56800 29.80500
H  14.53300 52.78500 29.27700
H  12.95300 50.56000 28.67400
H  13.23200 51.22000 30.36700
H  14.06900 49.80200 29.76900
H  16.80500 53.46500 29.17600
H  18.08000 52.56500 29.89400
H  15.95100 53.86100 31.25500
H  17.61200 53.41500 31.75400
H  10.69400 54.42900 24.71100
H  11.56200 54.00400 26.18600
H  10.40000 52.81500 25.41800
H  9.70100 52.83200 22.96900
H  9.49100 53.17100 21.29800
H  10.04900 54.49100 22.39600
H  16.01500 51.83700 19.46200
H  18.48300 50.39300 19.99800
H  14.76200 49.82800 19.02700
H  15.82600 48.93600 20.13500
H  16.45800 49.37700 18.57600
H  19.03600 52.90700 21.15300
H  17.66400 53.33400 20.24800
H  18.82200 53.20200 18.31600
H  19.79200 51.88700 18.78400
H  20.27400 53.47100 19.29300
H  21.92000 50.32400 23.41800
H  21.64300 48.60100 24.00500
H  22.46100 49.81100 24.96200
H  19.55100 51.17100 29.00300
H  18.97000 48.31300 32.14200
H  17.42500 48.89800 31.44800
H  18.51100 49.90800 32.43900
Mg -10.60100 16.17600 42.94100
C  -7.16000 16.89100 43.10700
C  -11.20500 19.38500 42.22000
C  -13.78500 15.30700 42.61500
C  -9.69100 12.77200 43.16100
N  -9.21900 17.95300 42.41700
C  -7.89000 18.03100 42.69800
C  -7.38400 19.46500 42.75000
C  -8.75800 20.26500 42.42300
C  -9.82000 19.17100 42.38400
C  -9.06500 21.48100 43.39600
C  -6.11100 19.68200 41.77400
C  -5.81300 21.09300 41.31200
H  -6.01100 21.50300 39.86800
N  -12.24600 17.15400 42.22300
C  -12.30700 18.50500 42.04100
C  -13.64000 18.84200 41.66600
C  -14.42500 17.67700 41.57900
C  -13.50400 16.66000 42.20800
C  -14.06300 20.33900 41.48100
C  -15.86200 17.53200 41.04900
O  -16.46800 18.40700 40.47300
C  -16.47000 16.14900 41.09400
N  -11.61800 14.22900 42.73800
C  -12.98100 14.17900 42.93500
C  -13.47400 12.79400 43.36800
C  -12.17500 12.01800 43.46600
C  -11.06500 13.05400 43.13200
C  -14.35200 12.75900 44.64600
C  -12.12400 10.72600 42.58000
C  -12.59500 9.50200 43.28800
N  -8.81900 15.03400 43.17000
C  -8.63800 13.68300 43.19500
C  -7.28200 13.33600 43.41600
C  -6.67400 14.56700 43.41200
C  -7.63200 15.58400 43.22400
C  -6.72400 12.00800 43.68900
C  -5.34500 15.22000 43.70800
O  -4.30500 14.70300 43.94400
C  -5.67500 16.76800 43.57000
C  -5.34700 17.37900 44.88200
O  -5.82100 17.11800 45.90800
O  -4.42500 18.44200 44.68100
C  -3.91600 19.10200 45.88900
H  -11.28700 20.45600 42.01900
H  -14.84900 15.07700 42.53200
H  -9.34200 11.76300 43.39100
H  -7.11600 19.73700 43.77100
H  -8.60500 20.65500 41.41600
H  -8.14400 21.83500 43.86000
H  -9.74100 21.21400 44.20800
H  -9.61000 22.23100 42.82300
H  -6.46400 19.09600 40.92600
H  -5.17100 19.33500 42.20300
H  -4.81100 21.45900 41.53800
H  -6.46400 21.82700 41.78500
H  -13.87500 20.78100 40.50300
H  -13.54600 21.02500 42.15100
H  -15.09200 20.45300 41.82400
H  -15.93300 15.33400 40.60900
H  -17.31500 16.32400 40.42800
H  -16.99300 15.91600 42.02200
H  -14.11200 12.47700 42.54300
H  -12.03100 11.77000 44.51700
H  -13.90100 12.12600 45.41100
H  -15.37000 12.53600 44.32900
H  -14.25100 13.80100 44.94800
H  -11.15300 10.48000 42.15000
H  -12.77300 10.90800 41.72400
H  -12.83900 9.76600 44.31800
H  -11.87900 8.68100 43.28900
H  -13.53500 9.17900 42.84200
H  -7.05500 11.32000 42.91100
H  -6.97900 11.63900 44.68200
H  -5.63900 11.97100 43.59600
H  -4.94900 17.18600 42.87400
H  -2.83700 19.24500 45.82100
H  -4.13200 18.57800 46.82000
H  -4.28000 20.12800 45.93200

