158

Mg 40.53900 10.25900 29.22500
C  42.44900 11.80100 31.76600
C  38.20400 9.32000 31.51500
C  38.74700 9.07700 26.70000
C  43.01900 11.10800 27.03400
N  40.31200 10.57800 31.33100
C  41.21100 11.23400 32.20100
C  40.68800 11.30600 33.59700
C  39.53000 10.34800 33.54700
C  39.37500 9.94600 32.07100
C  39.45600 9.14800 34.45600
C  40.27800 12.84500 33.85100
C  39.52700 13.12700 35.22900
H  40.27500 13.75000 36.36000
N  38.75800 9.25400 29.12900
C  37.95600 8.89900 30.20100
C  36.84200 8.20100 29.71600
C  37.04700 8.05900 28.29300
C  38.22100 8.86000 27.97300
C  35.75500 7.60400 30.53700
C  36.12800 7.37300 27.29400
O  36.42500 7.19000 26.14200
C  34.76000 6.85300 27.74800
N  40.87200 10.03600 27.12500
C  39.97000 9.51900 26.29300
C  40.40900 9.56700 24.82300
C  41.75900 10.31800 24.94800
C  41.89200 10.61300 26.47500
C  40.29900 8.28500 23.95900
C  41.94400 11.48800 23.99900
C  41.46900 12.91000 24.46700
N  42.45300 11.02000 29.36200
C  43.32400 11.31600 28.38600
C  44.55500 11.82700 28.91500
C  44.20600 12.10600 30.24400
C  42.92200 11.63000 30.46500
C  45.89100 11.98300 28.32300
C  44.57500 12.78800 31.44500
O  45.61300 13.36300 31.66900
C  43.42400 12.63700 32.48900
C  44.04200 11.76500 33.61300
O  44.47900 10.63300 33.44500
O  43.78400 12.38900 34.82900
C  43.93800 11.44000 35.96400
H  37.48200 9.08300 32.29900
H  38.27700 8.82100 25.74800
H  43.80800 11.35100 26.32000
H  41.47000 11.01900 34.30100
H  38.60400 10.88500 33.75000
H  39.37600 8.21000 33.90700
H  38.61100 9.19900 35.14200
H  40.35700 9.13900 35.07000
H  39.64900 13.13400 33.00900
H  41.16300 13.47900 33.89600
H  39.22700 12.15800 35.62900
H  38.63500 13.71100 35.00000
H  35.77000 6.51600 30.60700
H  34.80900 8.01100 30.17900
H  35.75100 7.96700 31.56500
H  34.32200 6.44400 26.83800
H  34.21700 7.66100 28.24000
H  34.79700 6.01500 28.44400
H  39.80600 10.32300 24.32000
H  42.43800 9.48500 24.76500
H  41.12200 8.21900 23.24800
H  39.35500 8.27000 23.41400
H  40.38700 7.46300 24.67000
H  41.51900 11.32000 23.01000
H  42.98500 11.66700 23.72800
H  40.77900 12.76300 25.29800
H  40.87200 13.45300 23.73400
H  42.40400 13.37100 24.78300
H  46.07500 13.03200 28.08900
H  46.09700 11.33400 27.47200
H  46.55300 11.63700 29.11700
H  43.02600 13.60900 32.78300
H  44.99700 11.18700 35.99900
H  43.41500 10.49000 35.85100
H  43.66100 11.82900 36.94400
Mg 36.79400 50.35800 25.32900
C  36.74700 48.54500 28.30500
C  35.23200 52.88700 26.95700
C  36.37300 51.92100 22.35700
C  37.61300 47.39800 23.64900
N  35.91300 50.49900 27.35300
C  36.22000 49.76300 28.49400
C  35.73200 50.40200 29.76300
C  34.95800 51.67600 29.24700
C  35.32900 51.71700 27.79300
C  33.44500 51.77600 29.53900
C  36.86400 50.58100 30.82600
C  36.64800 50.07500 32.23200
H  36.16400 51.16800 33.18900
N  36.07400 52.23400 24.72500
C  35.51900 53.11500 25.59900
C  35.28500 54.38500 24.92600
C  35.55800 54.13100 23.51100
C  35.99400 52.75000 23.45300
C  34.84000 55.65500 25.62100
C  35.40200 54.95700 22.28200
O  35.71300 54.53600 21.18800
C  34.94900 56.44100 22.31500
N  36.82100 49.69100 23.31200
C  36.82300 50.64600 22.28600
C  37.31100 49.98700 20.99300
C  38.05000 48.62800 21.45400
C  37.51200 48.56400 22.85100
C  36.28000 49.84000 19.88700
C  39.57100 48.74300 21.46900
C  40.31000 47.79400 20.47900
N  37.10800 48.33700 25.76200
C  37.35400 47.23200 24.99800
C  37.62600 46.01000 25.83000
C  37.39700 46.51000 27.12900
C  36.97400 47.87500 27.05400
C  38.11800 44.68600 25.35200
C  37.41100 46.19800 28.49200
O  37.90500 45.15100 29.00500
C  36.89600 47.42000 29.27700
C  35.57600 46.98000 29.74200
O  34.64300 46.61900 29.06500
O  35.65500 46.99800 31.15500
C  34.40900 46.67200 31.84900
H  34.83000 53.72700 27.52700
H  36.45200 52.39900 21.37900
H  38.09500 46.60500 23.07400
H  35.00200 49.67200 30.11100
H  35.42200 52.54700 29.71100
H  32.91400 51.95000 28.60300
H  33.34900 52.62700 30.21300
H  32.97400 50.94000 30.05600
H  37.09400 51.64000 30.94400
H  37.80800 50.16200 30.47700
H  37.68000 49.91000 32.54200
H  36.02900 49.18300 32.32900
H  35.20300 56.54200 25.10300
H  35.25000 55.77700 26.62400
H  33.75700 55.54000 25.59900
H  33.99200 56.42100 22.83700
H  34.65100 56.72000 21.30500
H  35.55400 57.21000 22.79600
H  38.10600 50.64200 20.63800
H  37.84600 47.72000 20.88600
H  36.40800 50.64900 19.16700
H  35.29100 49.98600 20.31900
H  36.34400 48.88700 19.36300
H  40.05500 48.53100 22.42300
H  39.90100 49.74900 21.21200
H  40.62300 46.90100 21.01900
H  41.22600 48.27600 20.13800
H  39.67800 47.48100 19.64700
H  38.47800 44.08800 26.19000
H  38.98000 44.71400 24.68600
H  37.34900 44.27000 24.70100
H  37.49100 47.82500 30.09600
H  33.74400 47.50300 31.61500
H  34.57000 46.49300 32.91200
H  33.97500 45.86100 31.26500

