158

Mg 43.74200 3.18100 47.44300
C  41.23300 5.37400 46.56800
C  41.31700 0.57700 47.44900
C  46.27700 0.91100 47.62500
C  46.01300 5.68300 47.38500
N  41.48400 2.98500 46.85400
C  40.65900 4.08000 46.66400
C  39.17700 3.67100 46.53300
C  39.28200 2.16900 47.07500
C  40.76900 1.90500 47.19600
C  38.52200 1.89800 48.46400
C  38.67500 3.67900 45.03400
C  37.56600 4.71400 44.60900
H  37.87100 5.63100 43.43900
N  43.75400 1.00100 47.51400
C  42.69000 0.12300 47.45400
C  43.17200 -1.27200 47.57100
C  44.56500 -1.21400 47.81600
C  44.96000 0.29400 47.66900
C  42.25800 -2.43400 47.46900
C  45.46400 -2.40100 48.02100
O  44.95000 -3.51900 47.95700
C  46.98600 -2.25300 48.20200
N  45.90000 3.29200 47.41800
C  46.69100 2.19100 47.45600
C  48.16400 2.60000 47.46100
C  48.10100 4.17200 47.47800
C  46.60500 4.42100 47.45700
C  49.06900 1.98100 48.55400
C  49.01800 4.94200 46.49700
C  50.45800 4.91900 46.89300
N  43.69600 5.24700 47.14100
C  44.68000 6.16300 47.16000
C  44.15800 7.47800 46.84200
C  42.78700 7.23600 46.69200
C  42.55400 5.86600 46.80500
C  44.92100 8.73000 46.69500
C  41.44900 7.81700 46.47200
O  41.12000 8.95400 46.45900
C  40.38800 6.62000 46.33900
C  39.53700 6.81700 47.53700
O  39.86000 6.87000 48.68600
O  38.25800 6.93700 47.11100
C  37.22300 7.13100 48.15800
H  40.53600 -0.18300 47.38800
H  47.17900 0.30300 47.72400
H  46.74700 6.49200 47.39200
H  38.57600 4.28100 47.20900
H  38.92400 1.48200 46.30800
H  37.94700 2.76000 48.80400
H  39.31600 1.76100 49.19800
H  37.84100 1.05400 48.35600
H  38.28200 2.69100 44.79200
H  39.47300 3.99200 44.36200
H  37.26000 5.38400 45.41200
H  36.66300 4.16200 44.34800
H  42.58900 -2.96800 46.57900
H  41.19800 -2.23600 47.31100
H  42.35300 -3.14500 48.28900
H  47.40300 -1.89700 47.26000
H  47.30800 -3.24200 48.52800
H  47.15400 -1.49500 48.96800
H  48.51700 2.30900 46.47200
H  48.51100 4.49100 48.43600
H  49.91200 1.50000 48.05800
H  48.55000 1.28200 49.21100
H  49.41800 2.71500 49.28000
H  48.71100 5.96800 46.29600
H  48.79100 4.46800 45.54200
H  50.63700 4.45900 47.86500
H  50.86400 5.92800 46.96200
H  51.08700 4.46200 46.12900
H  44.37000 9.57000 47.11800
H  45.19500 8.81200 45.64400
H  45.80800 8.69800 47.32800
H  39.87000 6.72300 45.38500
H  37.12800 6.36400 48.92700
H  36.26100 7.22500 47.65300
H  37.40200 8.10000 48.62400
Mg 26.69100 51.83500 25.70700
C  24.15900 52.46400 27.90700
C  28.78000 51.06200 28.37700
C  29.15200 51.43300 23.51100
C  24.52600 52.74300 23.08900
N  26.53800 51.91500 27.86700
C  25.37800 52.07200 28.52000
C  25.50300 51.66800 30.01700
C  27.01400 51.38500 30.12800
C  27.49300 51.46700 28.69000
C  27.77900 52.21100 31.25400
C  24.51600 50.50400 30.51800
C  24.84500 49.74700 31.85700
H  23.84400 49.79700 33.07100
N  28.70000 51.34700 25.87700
C  29.32600 51.10800 27.06300
C  30.71800 50.71200 26.68200
C  30.90200 50.93100 25.29400
C  29.55100 51.26100 24.81200
C  31.73500 50.19700 27.71200
C  32.14000 50.78800 24.39700
O  32.15300 51.04400 23.21400
C  33.28200 50.11800 24.94100
N  26.77800 51.96600 23.56300
C  27.91200 51.71500 22.90900
C  27.70500 51.74800 21.34900
C  26.21000 52.03300 21.14200
C  25.79300 52.28300 22.67100
C  28.62800 52.70900 20.46300
C  25.44000 50.77700 20.52600
C  24.33300 51.14400 19.45600
N  24.78200 52.57000 25.46200
C  23.98800 52.78100 24.38600
C  22.69900 53.23000 24.83300
C  22.64700 53.10000 26.23600
C  23.96000 52.74000 26.53200
C  21.65800 53.77100 23.93700
C  21.88600 53.24600 27.42600
O  20.76100 53.71900 27.64600
C  22.79600 52.78200 28.55300
C  22.90400 53.86300 29.49700
O  23.29400 54.99600 29.18500
O  22.44100 53.47800 30.69100
C  22.54600 54.31600 31.83600
H  29.39800 50.79000 29.23600
H  29.93100 51.23400 22.77300
H  23.73400 52.78500 22.33800
H  25.27900 52.59000 30.55300
H  27.13300 50.38200 30.53700
H  28.22400 53.07700 30.76300
H  28.60600 51.64000 31.67500
H  27.05300 52.48500 32.02000
H  24.45200 49.85500 29.64500
H  23.61200 51.05300 30.78100
H  25.66200 50.35500 32.24500
H  25.07200 48.69400 31.68900
H  32.70500 50.66200 27.53500
H  31.91400 49.12200 27.67700
H  31.43500 50.45800 28.72700
H  33.94100 49.66800 24.19800
H  32.85500 49.29200 25.51000
H  33.71300 50.79800 25.67600
H  27.91000 50.72900 21.02000
H  26.04000 52.97500 20.62000
H  28.08800 53.63000 20.24300
H  28.93800 52.14300 19.58400
H  29.47500 53.05300 21.05500
H  24.96400 50.20200 21.32000
H  26.12900 50.05600 20.08500
H  24.38700 50.56700 18.53300
H  24.28300 52.19100 19.15500
H  23.34300 50.99900 19.88900
H  20.76300 53.71200 24.55600
H  21.57700 53.25200 22.98100
H  21.97500 54.78200 23.68200
H  22.33600 51.88700 28.97100
H  23.36600 53.87000 32.39900
H  21.63400 54.21500 32.42500
H  22.62900 55.33400 31.45500

