158

Mg 47.30300 34.57600 26.54800
C  45.89900 33.13100 29.45200
C  47.58300 37.49400 28.14400
C  48.33700 35.71200 23.70300
C  46.57600 31.42800 25.00900
N  46.99400 35.12100 28.65200
C  46.43800 34.43200 29.65100
C  46.26200 35.26500 30.96000
C  46.67200 36.71700 30.45700
C  47.09600 36.47900 29.01100
C  45.49600 37.77200 30.70500
C  47.22900 34.75600 32.05800
C  46.75000 34.64000 33.59900
H  45.76500 35.70000 34.10500
N  47.78500 36.42200 26.02700
C  47.89000 37.47800 26.78100
C  48.50100 38.58100 25.95900
C  48.84600 37.98000 24.71400
C  48.35100 36.68300 24.79400
C  48.74100 40.07100 26.46900
C  49.53100 38.57600 23.53600
O  49.91200 37.93600 22.55000
C  49.89600 40.08400 23.64900
N  47.40100 33.69400 24.61900
C  47.89200 34.40300 23.57000
C  47.97700 33.61900 22.29100
C  47.74900 32.15600 22.78000
C  47.22400 32.40200 24.19200
C  46.90700 34.25400 21.32400
C  48.86000 31.21500 22.60600
C  50.05100 31.57100 23.47300
N  46.45700 32.60000 27.04400
C  46.26800 31.50800 26.32800
C  45.66700 30.44300 27.15200
C  45.35900 31.12100 28.33700
C  45.86200 32.43000 28.22600
C  45.18000 29.05300 26.73600
C  44.55300 31.07000 29.52400
O  43.79600 30.21800 30.01900
C  44.83200 32.37100 30.28100
C  45.03800 32.15600 31.72200
O  45.84000 31.51300 32.24500
O  43.85300 32.57000 32.35900
C  43.74600 32.31100 33.78100
H  47.75000 38.47000 28.60600
H  48.68900 36.10600 22.74700
H  46.33100 30.42600 24.65000
H  45.21600 35.26000 31.26500
H  47.58500 37.03200 30.96300
H  44.59300 37.28000 31.06500
H  45.35600 38.38700 29.81600
H  45.88200 38.41800 31.49400
H  48.18000 35.28900 32.06300
H  47.53900 33.73100 31.85600
H  47.68000 34.78700 34.14900
H  46.45400 33.62700 33.87000
H  48.21200 40.71300 25.76400
H  49.82700 40.16400 26.46100
H  48.31600 40.17300 27.46800
H  50.39500 40.34300 22.71500
H  50.63600 40.11700 24.44900
H  49.04700 40.76100 23.74100
H  48.94300 33.85600 21.84600
H  47.00600 31.66700 22.15000
H  47.36500 34.97900 20.65100
H  45.99100 34.65000 21.76100
H  46.63700 33.44300 20.64700
H  49.08500 31.36700 21.55000
H  48.49000 30.19800 22.73600
H  49.93600 32.56900 23.89500
H  50.93300 31.62700 22.83500
H  50.33100 30.80800 24.20000
H  46.06700 28.54800 26.35300
H  44.37200 29.26900 26.03700
H  44.75500 28.45300 27.54200
H  43.90900 32.94400 30.18400
H  44.24600 31.37900 34.04100
H  42.71300 32.17600 34.09900
H  44.19200 33.08900 34.40100
Mg 30.36700 58.56800 40.24900
C  27.44900 56.67100 39.34100
C  32.18500 55.80700 39.30500
C  33.03800 60.57300 39.90100
C  28.23300 61.36600 40.32600
N  29.84000 56.56200 39.23500
C  28.63900 55.93500 39.07200
C  28.67600 54.44700 38.74900
C  30.22500 54.24200 38.86200
C  30.83000 55.64800 39.10300
C  30.54900 53.23800 40.03300
C  28.10400 54.13100 37.31500
C  28.03400 55.25600 36.24000
H  28.69600 55.03200 34.86300
N  32.38800 58.18000 39.84600
C  32.94300 56.98500 39.48600
C  34.37900 57.12100 39.51100
C  34.67600 58.50700 39.62600
C  33.31900 59.20600 39.72800
C  35.22800 55.89100 39.43900
C  36.10900 58.99700 39.86000
O  37.02600 58.27300 40.10400
C  36.38100 60.47800 40.07100
N  30.54600 60.67400 40.20700
C  31.79400 61.25700 40.14100
C  31.66600 62.75800 40.52000
C  30.18700 62.94100 40.91800
C  29.57100 61.67300 40.42400
C  32.70500 63.37800 41.50800
C  29.51300 64.17700 40.25200
C  28.81200 65.19200 41.15200
N  28.27600 58.90500 40.20600
C  27.57800 60.11700 40.23200
C  26.12200 59.80100 40.09100
C  26.03800 58.50800 39.75800
C  27.40200 57.97800 39.76600
C  25.02900 60.89900 40.16700
C  25.12200 57.42500 39.37000
O  23.89900 57.42400 39.13500
C  25.95500 56.19100 39.19400
C  25.57300 55.23200 40.16500
O  25.96000 55.14300 41.32300
O  24.68500 54.33600 39.65000
C  24.33200 53.21600 40.44600
H  32.83800 54.94200 39.17300
H  33.93900 61.18600 39.82500
H  27.56000 62.21100 40.49300
H  28.05700 54.01600 39.53500
H  30.70700 53.94200 37.93100
H  29.82100 53.00100 40.80800
H  31.31800 53.59400 40.72000
H  30.84800 52.33900 39.49500
H  27.12600 53.65200 37.35300
H  28.74200 53.33200 36.93700
H  28.63700 56.08900 36.60000
H  26.98900 55.54200 36.12200
H  36.30700 56.04600 39.46600
H  35.00400 55.32900 38.53200
H  34.96700 55.19300 40.23500
H  35.87900 60.77200 40.99300
H  35.95800 61.02400 39.22700
H  37.46100 60.60700 40.13800
H  31.92400 63.35700 39.64700
H  30.07400 62.91800 42.00200
H  32.21600 63.63100 42.44800
H  33.09600 64.32400 41.13400
H  33.59000 62.75300 41.62900
H  28.80700 63.86100 39.48400
H  30.27700 64.68300 39.66300
H  29.05500 64.97700 42.19200
H  27.75600 65.02200 40.94400
H  28.91600 66.25400 40.93000
H  24.32400 60.70600 39.35900
H  25.38900 61.92800 40.14000
H  24.42900 60.74400 41.06400
H  25.76700 55.79300 38.19800
H  24.96100 53.05700 41.32200
H  24.38100 52.32900 39.81500
H  23.27900 53.38600 40.67200

