158

Mg 41.18900 6.81900 29.50400
C  42.91300 8.44000 32.29000
C  38.92300 5.68400 31.76900
C  39.75100 5.53800 26.92200
C  43.86700 7.91200 27.50100
N  40.99900 7.06800 31.83300
C  41.78500 7.70600 32.72300
C  41.22100 7.48000 34.19200
C  40.05400 6.47500 33.94100
C  39.99100 6.35200 32.42400
C  40.21300 5.02600 34.50100
C  40.78400 8.83600 34.76900
C  40.56700 8.90700 36.23100
H  41.18600 10.07600 37.07200
N  39.48800 5.84700 29.34900
C  38.63200 5.50900 30.41300
C  37.48900 4.84500 29.84800
C  37.64600 4.90600 28.44200
C  39.02200 5.44100 28.17000
C  36.41100 4.29500 30.69700
C  36.55200 4.49100 27.36700
O  36.72900 4.53100 26.15400
C  35.14700 4.22100 27.74900
N  41.73400 6.73700 27.48300
C  40.92200 6.17000 26.57100
C  41.54200 6.20300 25.16900
C  42.73600 7.09100 25.38300
C  42.82400 7.25500 26.88600
C  41.88800 4.73900 24.55300
C  42.69300 8.51400 24.66400
C  41.73800 9.65500 25.18000
N  43.12300 7.82900 29.80500
C  44.02100 8.25800 28.85400
C  45.15900 8.97600 29.51400
C  44.71400 9.07800 30.83000
C  43.47300 8.37900 30.99400
C  46.50100 9.42500 28.88600
C  45.14200 9.55400 32.15100
O  46.15400 10.18600 32.48000
C  43.94700 9.19500 33.12100
C  44.48300 8.43500 34.29300
O  45.26100 7.51300 34.14900
O  43.89200 8.81600 35.52000
C  44.25900 7.99800 36.67100
H  38.16200 5.41000 32.50300
H  39.19100 5.15900 26.06400
H  44.53800 8.19100 26.68600
H  41.99400 7.12700 34.87400
H  39.18500 6.92400 34.42200
H  39.89500 4.18200 33.88900
H  39.59300 4.92700 35.39200
H  41.24000 4.84200 34.81600
H  39.82600 9.12800 34.34100
H  41.41800 9.62900 34.37300
H  40.92200 8.04500 36.79700
H  39.48000 8.93200 36.30900
H  35.54500 4.93500 30.53300
H  36.67400 4.42100 31.74700
H  36.17900 3.23500 30.58600
H  34.60900 5.12200 28.04500
H  35.41400 3.43900 28.46100
H  34.65900 3.82600 26.85900
H  40.76200 6.71800 24.60900
H  43.65300 6.58100 25.08600
H  41.57600 4.66600 23.51200
H  41.32800 3.93800 25.03500
H  42.94800 4.53300 24.70500
H  42.56400 8.46200 23.58300
H  43.73800 8.82100 24.60900
H  42.35700 10.39200 25.69200
H  41.00500 9.29100 25.90100
H  41.16300 10.10000 24.36800
H  46.86500 8.53500 28.37300
H  47.14100 9.58000 29.75500
H  46.46900 10.32700 28.27500
H  43.54900 10.11800 33.54100
H  43.79500 7.04300 36.42700
H  43.73000 8.40500 37.53200
H  45.34400 7.97600 36.77700
Mg 48.29500 14.32700 28.53700
C  46.20300 14.44800 31.20300
C  50.58400 16.29700 30.36800
C  50.23000 14.49700 25.93500
C  45.74400 12.85200 26.63000
N  48.23600 15.41000 30.51900
C  47.34100 15.14600 31.52100
C  47.73400 15.90800 32.79900
C  49.02000 16.65800 32.39300
C  49.36400 16.08700 31.01800
C  49.03000 18.27300 32.57500
C  47.95400 14.95200 34.02400
C  47.07100 15.20500 35.25200
H  47.71300 15.51500 36.62900
N  50.22000 15.19100 28.19200
C  50.99000 15.97600 29.06300
C  52.19100 16.43500 28.31400
C  52.08800 15.89700 27.04400
C  50.81900 15.11600 27.01200
C  53.23300 17.22600 28.99200
C  52.94000 16.08100 25.86800
O  52.73700 15.56300 24.79700
C  54.19800 16.86700 25.96400
N  47.94000 13.97900 26.42000
C  48.92800 14.09800 25.53700
C  48.59000 13.40800 24.18400
C  47.16000 12.76000 24.52900
C  46.93900 13.19700 25.93900
C  48.51300 14.42400 23.02800
C  47.10300 11.20900 24.18700
C  48.02400 10.33300 25.07500
N  46.41400 13.72900 28.79200
C  45.50700 13.01600 27.97800
C  44.37700 12.57900 28.78400
C  44.62500 13.08000 30.08000
C  45.88300 13.75500 30.01500
C  43.20100 11.84200 28.29300
C  44.10100 13.20800 31.38500
O  43.07600 12.82800 31.87400
C  45.11600 14.02500 32.22500
C  44.30100 15.18500 32.83600
O  43.78400 16.12500 32.24400
O  44.14800 14.98700 34.17700
C  43.34500 15.81500 35.04700
H  51.31000 16.87400 30.94500
H  50.75100 14.47900 24.97500
H  45.05600 12.23300 26.05100
H  47.05000 16.69400 33.11900
H  49.90300 16.23700 32.87300
H  50.04300 18.67700 32.56000
H  48.61300 18.34900 33.57900
H  48.44000 18.82900 31.84600
H  48.96600 15.01600 34.42500
H  47.87900 13.93200 33.64800
H  46.52200 14.28900 35.46900
H  46.35800 15.99100 35.00200
H  54.16700 16.66300 29.01500
H  53.13100 17.41600 30.06000
H  53.47900 18.15100 28.47100
H  55.02200 16.24200 26.30900
H  54.09000 17.86200 26.39600
H  54.41700 17.05800 24.91400
H  49.36000 12.65100 24.03300
H  46.44800 13.35200 23.95500
H  49.17200 15.28500 23.13900
H  47.47400 14.64300 22.78400
H  48.88800 13.87900 22.16100
H  47.56000 10.96900 23.22800
H  46.06500 10.88000 24.22200
H  48.34900 10.71400 26.04400
H  48.95200 10.10200 24.55300
H  47.59000 9.36500 25.32300
H  42.85700 12.53200 27.52300
H  42.49700 11.70800 29.11500
H  43.39500 10.90300 27.77500
H  45.39800 13.35600 33.03800
H  43.01600 16.63400 34.40700
H  44.01500 16.18300 35.82400
H  42.43700 15.33800 35.41500

