158

Mg 24.21100 -5.85200 45.68200
C  26.39900 -3.40600 44.23200
C  21.74100 -4.31900 43.77200
C  22.35200 -8.64400 46.14100
C  27.02900 -7.35000 47.19600
N  24.12100 -4.02600 44.24600
C  25.09800 -3.22700 43.75400
C  24.61500 -2.27800 42.69900
C  23.07100 -2.35000 42.92200
C  22.93200 -3.69200 43.69200
C  22.50600 -1.08700 43.61900
C  25.08600 -2.79200 41.32300
C  25.60900 -1.65800 40.39300
H  25.22800 -1.92700 38.89800
N  22.23600 -6.34100 45.20000
C  21.38300 -5.54600 44.47700
C  20.10000 -6.15800 44.32600
C  20.19700 -7.43500 45.01700
C  21.57400 -7.55700 45.56100
C  18.95900 -5.59500 43.56700
C  19.13700 -8.51200 45.12900
O  18.04200 -8.38900 44.58400
C  19.33200 -9.77500 45.98400
N  24.56000 -7.70600 46.63000
C  23.66100 -8.66600 46.64700
C  24.19900 -9.84300 47.48300
C  25.58300 -9.42100 48.06500
C  25.78900 -8.11700 47.27100
C  23.23300 -10.53000 48.51500
C  26.73300 -10.53300 48.04500
C  27.32600 -11.01700 49.33700
N  26.25300 -5.38200 45.89800
C  27.23700 -6.11200 46.53100
C  28.47700 -5.42000 46.35700
C  28.24900 -4.29800 45.50400
C  26.84200 -4.40100 45.18800
C  29.81200 -5.88800 46.86300
C  28.87800 -3.23100 44.76400
O  30.04100 -2.84100 44.66800
C  27.66300 -2.62000 43.98300
C  27.57900 -1.16200 44.16800
O  27.42900 -0.54900 45.23500
O  27.91600 -0.55900 42.99400
C  27.89600 0.87400 42.91600
H  21.01900 -3.74700 43.18500
H  21.91100 -9.64200 46.12800
H  27.98100 -7.68200 47.61400
H  25.10300 -1.36400 43.03800
H  22.57900 -2.57400 41.97500
H  23.13000 -0.19600 43.68900
H  22.19500 -1.32600 44.63600
H  21.55600 -0.91100 43.11300
H  24.24100 -3.28900 40.84700
H  25.79900 -3.61600 41.34300
H  26.68500 -1.54300 40.52300
H  25.17300 -0.73500 40.77600
H  18.93100 -6.14700 42.62800
H  19.00900 -4.52300 43.37600
H  18.04300 -5.79500 44.12400
H  18.32400 -10.07800 46.26600
H  19.89400 -9.60700 46.90200
H  19.66100 -10.56400 45.30800
H  24.32900 -10.71500 46.84200
H  25.36200 -9.17300 49.10300
H  22.43000 -9.84400 48.78500
H  23.79600 -10.75300 49.42100
H  22.87100 -11.51700 48.22800
H  27.55700 -10.13800 47.45000
H  26.45800 -11.40400 47.45100
H  26.93400 -10.39200 50.14000
H  28.39300 -10.79500 49.31400
H  27.20000 -12.08300 49.52400
H  30.10200 -6.78200 46.31100
H  29.79100 -5.95800 47.95000
H  30.45600 -5.04000 46.62900
H  27.89900 -2.75000 42.92700
H  27.04600 1.30500 43.44600
H  28.03500 1.29000 41.91900
H  28.84300 1.10800 43.40200
Mg 54.35700 24.05300 44.78000
C  51.93200 26.50400 43.34600
C  52.57000 21.61500 43.16600
C  57.02100 22.06100 44.95900
C  56.18900 26.77800 45.87800
N  52.55400 24.20300 43.29900
C  51.69900 25.21000 42.97600
C  50.56300 24.78800 42.06400
C  50.62500 23.22600 42.31600
C  52.05300 22.91000 42.92300
C  49.53700 22.84300 43.36300
C  50.73900 25.21900 40.62200
C  52.13600 25.69000 40.12500
H  52.95800 24.64700 39.41000
N  54.62800 22.05400 44.41300
C  53.78000 21.20900 43.80900
C  54.27200 19.86500 43.99400
C  55.65200 19.97300 44.37800
C  55.83900 21.38400 44.57400
C  53.42700 18.68500 43.64500
C  56.69800 18.82600 44.58900
O  56.32600 17.66400 44.55900
C  58.11700 19.11700 45.01900
N  56.46700 24.47600 45.01600
C  57.27500 23.44800 45.18800
C  58.57900 23.85600 45.86100
C  58.31200 25.34900 46.33200
C  56.89900 25.57800 45.72600
C  59.19400 22.92700 47.02300
C  59.35200 26.36500 45.69600
C  59.58300 27.66200 46.43300
N  54.18500 26.19400 44.63600
C  54.94500 27.10500 45.28200
C  54.24800 28.37800 45.29900
C  53.08700 28.16900 44.51900
C  53.10100 26.88300 44.04900
C  54.71500 29.52200 45.97600
C  51.86100 28.86100 44.08300
O  51.42100 30.00600 44.22500
C  51.09000 27.78600 43.24100
C  50.76700 28.31200 41.85400
O  51.61700 28.65900 41.02800
O  49.40700 28.36300 41.73600
C  49.09200 28.85000 40.36900
H  51.85700 20.87400 42.79900
H  57.90600 21.42700 45.04500
H  56.72500 27.59200 46.36800
H  49.74800 25.32000 42.55500
H  50.46100 22.63500 41.41500
H  48.61000 22.86400 42.78900
H  49.54000 23.52100 44.21600
H  49.76000 21.84700 43.74500
H  50.08500 26.06900 40.43000
H  50.42000 24.38900 39.99100
H  52.77900 26.20000 40.84200
H  51.97100 26.60800 39.56100
H  53.58800 18.20300 42.68000
H  52.46500 19.14900 43.43100
H  53.31800 18.05600 44.52800
H  58.52900 18.11600 45.15100
H  58.10900 19.58300 46.00500
H  58.66200 19.71600 44.29000
H  59.19900 23.74300 44.97200
H  58.24500 25.40800 47.41800
H  58.42200 22.17800 47.19600
H  59.43900 23.47700 47.93200
H  60.11400 22.45000 46.68500
H  59.00300 26.57700 44.68600
H  60.27800 25.80000 45.58900
H  60.64000 27.80300 46.66100
H  59.00000 27.57100 47.35000
H  59.30500 28.54200 45.85200
H  55.01600 30.27400 45.24600
H  55.48200 29.25300 46.70300
H  53.81900 29.90900 46.46000
H  50.19900 27.54600 43.82000
H  49.14900 29.93800 40.42000
H  48.05600 28.69200 40.06800
H  49.77700 28.32400 39.70500

