158

Mg -2.13800 16.78500 26.67300
C  -2.64800 14.32700 29.21100
C  -3.09600 19.19300 28.70900
C  -2.18600 18.70000 23.87200
C  -1.80200 14.02000 24.46100
N  -2.80900 16.67800 28.66600
C  -2.87400 15.65800 29.56200
C  -2.94800 16.15400 31.01700
C  -3.53700 17.63600 30.83400
C  -3.17800 17.87800 29.31200
C  -5.11900 17.81300 31.02400
C  -1.62700 16.19900 31.84900
C  -1.49200 17.17200 33.04900
H  -0.67700 16.67400 34.26500
N  -2.36900 18.70900 26.36800
C  -2.79100 19.59100 27.38100
C  -2.84700 20.91600 26.78500
C  -2.56800 20.77200 25.40800
C  -2.36500 19.33200 25.13700
C  -3.26100 22.19500 27.60600
C  -2.55400 21.83600 24.36000
O  -2.52600 21.53400 23.16000
C  -2.70200 23.27700 24.64400
N  -1.88900 16.36000 24.41700
C  -1.95600 17.35700 23.50500
C  -1.84700 16.79000 22.09000
C  -1.37700 15.28800 22.37400
C  -1.74300 15.16800 23.82500
C  -3.27300 16.78300 21.41000
C  0.11700 15.02200 22.03800
C  1.18100 15.81700 22.71700
N  -2.23600 14.56200 26.77800
C  -2.04600 13.69400 25.77600
C  -1.91000 12.34200 26.38900
C  -2.24400 12.53600 27.74400
C  -2.37600 13.88500 27.90000
C  -1.75500 11.03300 25.68200
C  -2.42100 11.89400 28.97100
O  -2.34200 10.72700 29.24200
C  -2.53200 13.01800 29.99100
C  -1.25400 12.86800 30.76100
O  -0.23800 13.51200 30.62700
O  -1.44400 12.02500 31.82500
C  -0.37800 12.15300 32.76700
H  -3.09500 20.01500 29.42800
H  -2.26400 19.29500 22.96000
H  -1.46600 13.20400 23.81800
H  -3.70100 15.64600 31.62000
H  -2.96500 18.37700 31.39200
H  -5.55400 16.99900 31.60300
H  -5.60900 17.91000 30.05500
H  -5.23300 18.78200 31.51000
H  -0.85400 16.26200 31.08200
H  -1.42200 15.18600 32.19500
H  -2.45800 17.45400 33.46900
H  -1.01700 18.10900 32.75700
H  -2.47000 22.94500 27.62100
H  -3.52000 22.01300 28.64900
H  -4.13100 22.71200 27.20200
H  -1.83000 23.72500 25.12100
H  -3.64300 23.40300 25.18000
H  -2.84600 23.76100 23.67800
H  -1.06200 17.37400 21.60900
H  -1.89300 14.49700 21.83000
H  -3.55000 15.76000 21.15500
H  -3.20300 17.34500 20.47900
H  -3.98300 17.34200 22.02000
H  0.27000 15.11000 20.96300
H  0.19400 13.94300 22.17600
H  0.68600 16.69200 23.13900
H  1.92300 16.17000 22.00100
H  1.65000 15.16100 23.45000
H  -1.25500 11.30900 24.75400
H  -2.72500 10.59300 25.45300
H  -1.11900 10.44200 26.34200
H  -3.29700 12.79700 30.73600
H  0.56900 11.77000 32.38500
H  -0.65900 11.52400 33.61200
H  -0.16400 13.16300 33.11600
Mg 43.40200 2.81100 48.02400
C  41.23000 5.48200 47.15000
C  40.95200 0.50600 47.65000
C  45.73800 0.41100 48.28200
C  46.05500 5.26000 47.84100
N  41.32000 3.01000 47.23100
C  40.58700 4.18100 47.20800
C  39.06500 3.82100 47.05900
C  39.02000 2.26800 47.38300
C  40.53200 1.87100 47.47000
C  38.18100 2.02300 48.80200
C  38.55900 4.19500 45.59500
C  37.66500 5.45300 45.60800
H  37.77100 6.38600 44.35600
N  43.38800 0.75500 47.90000
C  42.24700 0.00800 47.74800
C  42.57500 -1.38400 47.97300
C  43.97100 -1.44300 48.21500
C  44.49000 -0.11400 48.10100
C  41.67300 -2.47900 47.89300
C  44.75300 -2.72900 48.56200
O  44.16400 -3.79000 48.60300
C  46.22000 -2.82200 48.61600
N  45.52800 2.83300 47.82600
C  46.20500 1.72000 48.13100
C  47.71000 2.03500 48.34800
C  47.83600 3.42500 47.73100
C  46.40000 3.90100 47.79300
C  48.14600 1.98900 49.83000
C  48.33500 3.41800 46.25700
C  49.79800 3.65100 46.04300
N  43.64400 5.03100 47.70600
C  44.76400 5.80300 47.77100
C  44.33000 7.25100 47.72100
C  42.97600 7.15700 47.46200
C  42.61400 5.78000 47.34600
C  45.21600 8.43800 48.06500
C  41.79400 7.96400 47.35000
O  41.51500 9.16300 47.29400
C  40.60100 6.84800 47.10600
C  39.60400 7.00300 48.14900
O  39.70500 6.58300 49.31600
O  38.66200 7.89000 47.70900
C  37.81200 8.40000 48.77900
H  40.11200 -0.19200 47.64600
H  46.60100 -0.22200 48.49500
H  46.86000 5.98900 47.72700
H  38.47900 4.35800 47.80500
H  38.46500 1.70400 46.63300
H  37.50300 2.84600 49.02600
H  38.84400 1.99000 49.66700
H  37.71200 1.03900 48.78300
H  37.97400 3.39000 45.15200
H  39.42400 4.38400 44.95800
H  37.67900 6.12600 46.46500
H  36.62600 5.12600 45.57300
H  41.82900 -2.94700 46.92100
H  40.62600 -2.21500 48.03600
H  41.83200 -3.23400 48.66400
H  46.52900 -2.30700 47.70600
H  46.48700 -3.87700 48.68500
H  46.54200 -2.35400 49.54600
H  48.30400 1.38400 47.70600
H  48.52900 4.06400 48.27900
H  47.28800 1.69000 50.43200
H  48.74800 2.81900 50.20100
H  48.83700 1.15100 49.92300
H  47.71400 4.14700 45.73700
H  47.98200 2.51300 45.76300
H  49.84800 4.43700 45.28900
H  50.33800 2.98700 45.36800
H  50.42600 3.86200 46.90800
H  45.97700 8.54200 47.29100
H  45.59400 8.17900 49.05300
H  44.56000 9.30200 47.95200
H  40.22700 7.03100 46.09800
H  37.09100 8.97000 48.19300
H  38.28000 9.09200 49.47900
H  37.25600 7.58900 49.25000

