158

Mg 24.36500 -5.56100 46.30500
C  26.45700 -3.35900 44.61400
C  21.85600 -4.56600 44.16000
C  22.57100 -8.17900 47.29500
C  27.12700 -6.71100 47.98600
N  24.20900 -4.18500 44.49800
C  25.18500 -3.36200 44.06600
C  24.60400 -2.34900 43.00400
C  23.00800 -2.68500 42.94400
C  23.00800 -3.90400 43.94800
C  22.08800 -1.44400 43.47200
C  25.29300 -2.50500 41.64400
C  26.08100 -1.32700 41.17900
H  25.75900 -0.87500 39.73600
N  22.50000 -6.29900 45.78700
C  21.63600 -5.71800 44.86000
C  20.39400 -6.40100 44.85100
C  20.57600 -7.46800 45.79500
C  21.91100 -7.37300 46.36300
C  19.16900 -6.06000 43.96000
C  19.49200 -8.50200 46.07400
O  18.38200 -8.29200 45.66200
C  19.81600 -9.75900 46.81800
N  24.79700 -7.26900 47.41600
C  23.85200 -8.13200 47.77300
C  24.37200 -9.28300 48.59000
C  25.80100 -8.76700 48.95800
C  25.96500 -7.50000 48.06200
C  23.65200 -9.58900 49.97500
C  27.01200 -9.81200 48.80300
C  27.58800 -10.30200 50.17900
N  26.37700 -5.05500 46.53400
C  27.38400 -5.62900 47.22400
C  28.57200 -4.86000 47.05100
C  28.20000 -3.96600 46.03800
C  26.91200 -4.18000 45.65300
C  29.94800 -5.18300 47.55000
C  28.78100 -2.97300 45.15200
O  29.94200 -2.58100 45.15500
C  27.68600 -2.46400 44.18100
C  27.51800 -1.02800 44.48800
O  26.91400 -0.59600 45.46500
O  28.14300 -0.22100 43.57600
C  28.30500 1.23600 43.72900
H  21.11600 -4.19900 43.44600
H  22.02400 -9.02300 47.72100
H  27.99200 -7.14200 48.49200
H  24.73600 -1.32200 43.34300
H  22.57000 -2.85800 41.96100
H  21.78900 -0.93600 42.55500
H  22.63900 -0.68200 44.02400
H  21.26800 -1.66300 44.15500
H  24.53100 -2.93100 40.99100
H  25.97400 -3.35600 41.66900
H  27.15800 -1.49200 41.16800
H  26.05800 -0.46900 41.85200
H  18.47300 -6.89200 43.84800
H  19.49800 -5.78300 42.95800
H  18.72900 -5.14200 44.34800
H  18.99200 -10.34300 46.40900
H  19.90000 -9.55300 47.88500
H  20.76000 -10.17200 46.46300
H  24.26000 -10.22300 48.05000
H  25.73200 -8.28000 49.93000
H  23.25100 -8.62300 50.28200
H  24.34600 -9.84700 50.77500
H  22.90700 -10.38300 50.02700
H  27.81400 -9.32200 48.25100
H  26.66200 -10.61300 48.15200
H  28.33200 -11.02900 49.85500
H  26.80600 -10.65400 50.85300
H  27.96100 -9.30100 50.39600
H  30.27200 -6.10700 47.07100
H  29.87800 -5.29300 48.63300
H  30.65100 -4.45400 47.14900
H  28.15200 -2.55300 43.20000
H  28.78200 1.33300 44.70500
H  27.34100 1.73100 43.61300
H  28.98000 1.56400 42.93900
Mg 24.99100 1.41300 29.81600
C  27.49800 1.29900 32.61600
C  22.60300 1.43100 32.06100
C  23.11400 1.21000 27.28200
C  27.94500 0.99100 27.67500
N  25.19200 1.23700 32.07900
C  26.16500 1.41500 32.96400
C  25.61500 1.50400 34.42400
C  24.10800 1.25000 34.16800
C  23.92800 1.40800 32.67400
C  23.41100 -0.11800 34.73700
C  25.98500 2.87000 35.16600
C  26.72700 2.67800 36.53400
H  26.43900 3.66600 37.69300
N  23.07400 1.29800 29.70100
C  22.17000 1.28200 30.70900
C  20.80900 1.10600 30.13200
C  21.03900 1.00500 28.76600
C  22.47100 1.15100 28.47100
C  19.56000 1.06900 31.07600
C  19.95200 0.82500 27.66100
O  20.19500 0.79800 26.48900
C  18.56600 0.71400 28.03700
N  25.50900 0.96600 27.72800
C  24.43000 1.26500 26.84600
C  24.84100 1.54000 25.34800
C  26.41700 1.38800 25.57100
C  26.70400 1.11700 27.10400
C  24.27700 0.44800 24.26900
C  27.17800 2.56800 25.10000
C  26.87700 3.91300 25.88000
N  27.28400 1.06800 30.02100
C  28.25800 0.90700 29.05300
C  29.53100 0.79200 29.72400
C  29.29900 0.95200 31.07400
C  27.89700 1.12200 31.24400
C  30.78300 0.56100 29.08800
C  29.83800 0.87300 32.43700
O  30.95400 0.56400 32.80300
C  28.73900 1.26100 33.44200
C  28.76000 0.26500 34.54700
O  28.31400 -0.83400 34.45200
O  29.43100 0.80600 35.61100
C  29.53000 -0.17600 36.79800
H  21.78400 1.44800 32.78300
H  22.49300 1.31800 26.39000
H  28.78900 0.90400 26.98700
H  26.05000 0.67800 34.98700
H  23.53100 2.06600 34.60200
H  23.20900 -0.73100 33.85900
H  22.43700 -0.05000 35.22200
H  24.22900 -0.57800 35.29100
H  25.14800 3.54500 35.34300
H  26.67500 3.47200 34.57400
H  27.80800 2.81000 36.58200
H  26.72800 1.70100 37.01600
H  18.95200 1.95800 30.90600
H  19.74400 1.06900 32.15000
H  18.80900 0.31100 30.85100
H  18.26100 1.62600 28.55100
H  18.36300 -0.15900 28.65700
H  17.94300 0.70900 27.14300
H  24.68700 2.55500 24.98300
H  26.75800 0.51700 25.01100
H  25.06700 0.00800 23.66100
H  23.51000 0.86400 23.61700
H  23.80700 -0.18700 25.02100
H  27.07800 2.85100 24.05200
H  28.24400 2.34900 25.16400
H  26.15100 3.76800 26.68100
H  26.52600 4.76200 25.29400
H  27.82000 4.12200 26.38500
H  31.17600 -0.45400 29.14400
H  31.55700 1.20300 29.50800
H  30.75200 0.82300 28.03000
H  29.02600 2.17400 33.96300
H  29.75500 -1.18200 36.44200
H  28.58900 -0.03600 37.33000
H  30.39000 -0.01900 37.45000

