158

Mg 26.73700 49.18500 25.78400
C  24.79100 50.66800 28.33400
C  28.95600 48.23400 28.24200
C  28.91600 48.36000 23.34000
C  24.77000 50.84400 23.38500
N  26.83800 49.53600 28.02700
C  25.88100 50.03000 28.89200
C  26.18200 49.75000 30.36800
C  27.56400 48.93100 30.21800
C  27.85600 48.93800 28.70300
C  28.77500 49.38600 31.16400
C  24.98800 48.92400 31.09000
C  24.45800 49.49900 32.42000
H  24.37300 48.65300 33.68700
N  28.60100 48.37100 25.80100
C  29.32800 47.90700 26.89900
C  30.45000 47.10100 26.44200
C  30.61800 47.29400 25.03600
C  29.33700 48.01500 24.67200
C  31.38700 46.37300 27.34400
C  31.72600 46.89300 24.05700
O  31.63700 47.01100 22.86300
C  33.02400 46.40500 24.57800
N  26.72800 49.41100 23.56600
C  27.74900 48.95100 22.82400
C  27.52500 49.20700 21.32900
C  26.14600 49.98400 21.30500
C  25.74500 50.00200 22.82600
C  28.61900 50.05100 20.58000
C  25.09600 49.26700 20.42000
C  24.48600 47.99400 20.98400
N  25.06800 50.39200 25.77500
C  24.35300 51.03600 24.74600
C  23.27700 51.76000 25.27900
C  23.44400 51.60000 26.65600
C  24.56600 50.81800 26.94700
C  22.23200 52.42400 24.50000
C  22.82300 52.02000 27.93100
O  21.93100 52.85000 28.14200
C  23.70900 51.37800 29.06600
C  24.13500 52.32800 30.13500
O  24.97700 53.21600 30.03600
O  23.25600 52.24600 31.15500
C  23.61400 52.96000 32.40000
H  29.60100 47.76100 28.98500
H  29.67300 48.10400 22.59500
H  24.23600 51.39400 22.60700
H  26.30500 50.72800 30.83300
H  27.42500 47.86400 30.39400
H  29.53500 49.66100 30.43300
H  29.14300 48.51600 31.70900
H  28.38400 50.16500 31.81900
H  25.43100 47.97500 31.39200
H  24.15500 48.67200 30.43300
H  23.41700 49.74000 32.20600
H  25.03500 50.37800 32.70500
H  31.77600 45.44600 26.92100
H  30.90500 46.23000 28.31100
H  32.22500 46.99400 27.66200
H  33.44000 47.24300 25.13800
H  33.53600 46.22200 23.63400
H  32.82600 45.46000 25.08500
H  27.35500 48.31900 20.71900
H  26.26200 51.05300 21.12400
H  29.35200 50.28200 21.35300
H  28.18400 50.93600 20.11700
H  29.08100 49.52900 19.74200
H  25.63100 49.12300 19.48200
H  24.25300 49.94700 20.28700
H  24.89500 47.69600 21.95000
H  24.73900 47.13800 20.35900
H  23.40000 48.02600 21.06600
H  22.01600 53.36800 24.99900
H  21.42500 51.75200 24.20800
H  22.65300 52.68700 23.53000
H  23.09800 50.62500 29.56500
H  24.58900 52.64500 32.77000
H  22.99200 52.49800 33.16700
H  23.53100 54.04700 32.41600
Mg -2.04500 34.68900 27.50700
C  -3.72900 33.20800 30.22900
C  -0.72500 36.96600 29.71100
C  -0.80100 36.29700 24.98200
C  -3.80100 32.54400 25.38600
N  -2.38300 35.15300 29.67400
C  -2.89800 34.25600 30.58500
C  -2.71800 34.73300 32.06300
C  -1.89100 36.08400 31.94300
C  -1.63600 36.10700 30.35300
C  -2.65300 37.43500 32.48000
C  -1.99000 33.70500 33.00000
C  -1.42900 34.28200 34.37000
H  -1.59700 33.46400 35.56300
N  -0.94100 36.37000 27.40100
C  -0.41800 37.16900 28.39300
C  0.42500 38.25200 27.81600
C  0.34000 38.03600 26.38200
C  -0.55100 36.83600 26.19300
C  1.01400 39.40100 28.69900
C  1.00300 38.91000 25.24400
O  0.97200 38.70600 24.05600
C  1.77400 40.15800 25.55600
N  -2.30100 34.47300 25.43500
C  -1.57500 35.18300 24.59500
C  -1.76000 34.71400 23.14800
C  -2.67000 33.44600 23.30100
C  -2.83700 33.40800 24.81200
C  -2.21600 35.80400 22.18400
C  -1.87400 32.07800 22.89600
C  -2.67200 30.97600 22.28400
N  -3.54000 33.20300 27.74500
C  -4.15600 32.42700 26.77100
C  -5.03600 31.46100 27.36400
C  -4.90300 31.71200 28.77900
C  -4.03500 32.81000 28.87300
C  -5.81000 30.48400 26.72700
C  -5.29800 31.28000 30.06300
O  -5.98500 30.34900 30.47200
C  -4.45400 32.18600 31.07200
C  -5.34900 32.71800 32.08500
O  -6.18300 33.57000 31.83700
O  -5.22000 32.01400 33.22100
C  -6.30100 32.00800 34.13000
H  -0.10000 37.58100 30.36300
H  -0.40200 36.88100 24.15100
H  -4.34200 31.86500 24.72400
H  -3.70200 34.79500 32.52700
H  -0.94400 36.05300 32.48200
H  -2.15200 37.71600 33.40600
H  -3.69600 37.22600 32.71700
H  -2.57000 38.26900 31.78300
H  -1.11700 33.30600 32.48300
H  -2.55300 32.79100 33.19100
H  -1.81700 35.24800 34.69400
H  -0.36300 34.47600 34.24900
H  2.06000 39.13300 28.84900
H  0.46800 39.36800 29.64200
H  0.89200 40.35700 28.19100
H  1.09500 40.86600 26.03100
H  2.13600 40.66800 24.66400
H  2.61600 39.85000 26.17600
H  -0.76100 34.39500 22.85300
H  -3.63700 33.55300 22.80800
H  -2.20900 36.79000 22.64900
H  -3.14900 35.56900 21.67000
H  -1.42000 35.81700 21.44000
H  -1.25400 31.69700 23.70700
H  -1.12000 32.25000 22.12800
H  -3.71600 31.28200 22.21300
H  -2.45700 30.10100 22.89800
H  -2.32000 30.70400 21.28900
H  -5.82300 29.60600 27.37300
H  -5.36300 30.24400 25.76300
H  -6.80900 30.81900 26.44700
H  -3.72900 31.54000 31.56700
H  -5.99400 32.63900 34.96400
H  -6.56100 31.01200 34.48900
H  -7.15600 32.51000 33.67700

