158

Mg -2.18400 17.00400 26.38700
C  -2.68700 14.67300 28.85500
C  -2.97900 19.50600 28.62800
C  -2.35600 19.18800 23.68500
C  -1.67100 14.36800 24.05600
N  -2.59000 17.08000 28.49500
C  -2.61500 15.96400 29.33900
C  -2.97400 16.42600 30.72400
C  -3.23300 17.97500 30.62100
C  -2.95100 18.21600 29.19000
C  -4.64000 18.49600 31.08800
C  -1.84900 16.07100 31.81700
C  -1.77200 17.10300 32.96700
H  -1.46200 16.41700 34.30900
N  -2.59700 19.13300 26.19300
C  -2.77100 19.97500 27.24800
C  -2.98700 21.32200 26.67500
C  -2.77600 21.21700 25.25600
C  -2.53600 19.77300 25.00100
C  -3.43400 22.52200 27.60600
C  -2.88400 22.26300 24.23100
O  -2.71900 22.05500 23.02500
C  -3.26800 23.63300 24.58600
N  -2.05100 16.81900 24.20200
C  -2.07400 17.86200 23.34500
C  -1.81000 17.33800 21.82500
C  -1.27200 15.89100 22.00500
C  -1.73900 15.61900 23.50100
C  -2.96800 17.58400 20.81200
C  0.25000 15.77600 21.76800
C  1.30500 16.20900 22.86600
N  -2.21600 14.98700 26.42000
C  -2.00100 14.02000 25.37300
C  -2.12600 12.71700 25.85800
C  -2.32900 12.94700 27.27600
C  -2.45400 14.31800 27.53800
C  -2.16500 11.43200 25.03100
C  -2.54200 12.25200 28.46300
O  -2.67200 11.08700 28.63700
C  -2.79900 13.31100 29.62900
C  -1.71000 13.02100 30.62900
O  -0.53600 13.24800 30.56700
O  -2.33900 12.49300 31.74400
C  -1.56400 12.29200 32.94500
H  -3.36600 20.28500 29.28700
H  -2.10400 19.91200 22.90700
H  -1.59100 13.54400 23.34400
H  -3.90900 15.87800 30.84200
H  -2.49000 18.63500 31.07000
H  -5.15000 19.00000 30.26700
H  -4.34300 19.23100 31.83700
H  -5.20500 17.70100 31.57400
H  -0.89600 16.07800 31.28800
H  -2.09700 15.08100 32.19800
H  -2.71600 17.61500 33.15400
H  -1.00100 17.79800 32.63400
H  -4.49100 22.69400 27.81000
H  -2.95700 23.46300 27.33000
H  -2.90800 22.54300 28.56100
H  -3.08200 24.27800 23.72800
H  -2.64200 24.13000 25.32700
H  -4.34500 23.59700 24.74900
H  -1.07100 18.04400 21.44600
H  -1.85900 15.28200 21.31900
H  -2.49300 17.61400 19.83200
H  -3.41100 18.54200 21.08600
H  -3.75400 16.82900 20.82400
H  0.50200 16.42700 20.93100
H  0.31200 14.74200 21.43100
H  1.93900 15.37700 23.17300
H  0.83600 16.53800 23.79300
H  1.91300 16.94800 22.34500
H  -1.53800 11.53800 24.14600
H  -3.22300 11.20900 24.89100
H  -1.64000 10.71700 25.66500
H  -3.77200 13.26100 30.11700
H  -2.16700 12.78300 33.70900
H  -0.58400 12.76800 32.94600
H  -1.52000 11.21300 33.09600
Mg 36.32300 49.49600 25.76700
C  36.34200 47.70100 28.73300
C  34.67000 52.09700 27.45700
C  35.70200 51.07900 22.73400
C  37.23100 46.64200 24.07500
N  35.57900 49.81200 27.88900
C  35.85600 49.00200 28.97500
C  35.87300 49.82800 30.28200
C  35.06700 51.03400 29.85900
C  35.07900 51.03000 28.27500
C  33.65700 51.18400 30.38600
C  37.33900 50.02000 30.74500
C  37.64500 49.73700 32.20500
H  36.42200 49.80000 33.30100
N  35.48400 51.42800 25.23500
C  34.76900 52.22400 26.03400
C  34.18800 53.30700 25.28500
C  34.45800 53.08000 23.91500
C  35.27700 51.85000 23.89900
C  33.50900 54.49700 25.92300
C  33.98800 53.89300 22.64100
O  34.22900 53.55800 21.49200
C  33.07700 55.14300 22.82800
N  36.31000 48.97600 23.64200
C  36.25000 49.80700 22.59000
C  36.58400 49.18800 21.28600
C  37.21000 47.84700 21.78400
C  36.93000 47.83200 23.29500
C  35.40600 49.09000 20.29700
C  38.75200 47.76800 21.54000
C  39.31100 46.43300 20.91200
N  36.66700 47.57200 26.19900
C  37.16200 46.55300 25.47700
C  37.35600 45.35700 26.30000
C  37.05100 45.75200 27.60000
C  36.63800 47.08800 27.47700
C  37.98400 44.10500 25.72300
C  37.05900 45.35000 28.93400
O  37.19600 44.27200 29.47300
C  36.65700 46.65800 29.75100
C  35.63500 46.32700 30.78300
O  34.46300 46.37400 30.64600
O  36.30200 46.05200 31.95200
C  35.58000 45.40200 33.08400
H  34.20300 52.89600 28.03600
H  35.66500 51.63800 21.79600
H  37.50900 45.72400 23.55200
H  35.30300 49.29700 31.04600
H  35.56400 51.96800 30.12100
H  33.47400 52.22100 30.66800
H  33.50200 50.54100 31.25200
H  32.89200 50.94200 29.64700
H  37.72500 50.98800 30.42400
H  37.88900 49.23200 30.23300
H  38.27000 50.55700 32.55900
H  38.21300 48.80700 32.19900
H  33.78000 55.37200 25.33200
H  33.69800 54.61100 26.99000
H  32.44700 54.34500 25.72500
H  33.53600 56.10100 23.07600
H  32.41300 54.84300 23.63800
H  32.56600 55.26000 21.87200
H  37.35500 49.89900 20.99000
H  36.73100 46.98400 21.32200
H  34.54600 49.01000 20.96200
H  35.52200 48.18200 19.70600
H  35.25200 49.99300 19.70500
H  39.26400 47.87800 22.49600
H  39.01000 48.55500 20.83100
H  38.74700 45.53100 21.14900
H  40.36800 46.27000 21.12300
H  39.18500 46.78800 19.88900
H  37.60600 43.75600 24.76200
H  38.01900 43.27200 26.42500
H  39.06400 44.20800 25.61400
H  37.59100 46.88900 30.26500
H  34.56800 45.14400 32.77300
H  35.47600 46.16700 33.85300
H  36.25500 44.63100 33.45700

