158

Mg 25.58800 0.12600 29.07400
C  27.34700 -0.22400 32.07000
C  22.68900 0.25500 30.97600
C  23.91000 0.61100 26.26500
C  28.46800 -0.51400 27.24200
N  25.05700 0.09500 31.35000
C  25.96000 -0.16900 32.33600
C  25.12200 -0.09800 33.68900
C  23.62500 -0.05000 33.27500
C  23.79100 0.04000 31.82300
C  22.68900 -1.24800 33.58200
C  25.43100 1.23300 34.45800
C  25.88800 1.02000 35.95000
H  25.68600 2.22100 36.87500
N  23.58600 0.37400 28.66800
C  22.56200 0.36300 29.54700
C  21.29000 0.54800 28.80900
C  21.64800 0.67400 27.45300
C  23.10200 0.56900 27.39800
C  19.94100 0.58000 29.43900
C  20.72900 0.84100 26.25400
O  21.14400 0.88200 25.13800
C  19.29100 0.88900 26.45400
N  26.03500 -0.26500 27.03000
C  25.26000 0.31400 26.08400
C  25.93000 0.43400 24.74300
C  27.31400 -0.20700 24.97500
C  27.25600 -0.36000 26.49700
C  25.18400 -0.05900 23.53100
C  28.58500 0.56100 24.45500
C  29.50400 -0.40300 23.57300
N  27.48500 -0.18200 29.49700
C  28.57500 -0.54600 28.67900
C  29.74800 -0.74800 29.50000
C  29.44100 -0.52700 30.87000
C  27.99500 -0.25100 30.77600
C  31.18400 -1.22000 29.00900
C  29.84700 -0.53800 32.25100
O  30.93300 -0.85100 32.77800
C  28.50100 -0.29000 33.09900
C  28.33500 -1.39900 34.13500
O  27.92400 -2.56400 33.85400
O  28.85500 -1.07000 35.38700
C  28.81400 -1.95300 36.53800
H  21.80000 0.34200 31.60400
H  23.43100 0.93400 25.33800
H  29.37300 -0.81500 26.70900
H  25.44600 -0.95400 34.28000
H  23.02900 0.83300 33.50300
H  22.77500 -1.79700 34.52000
H  22.75400 -2.03200 32.82700
H  21.68300 -0.84200 33.47300
H  24.56600 1.89700 34.46800
H  26.23700 1.74400 33.93200
H  26.93200 0.71400 35.89200
H  25.29000 0.25600 36.44800
H  19.95300 0.51300 30.52700
H  19.44700 -0.23500 28.91000
H  19.44300 1.48800 29.09700
H  18.98100 1.68600 27.13100
H  19.14900 -0.11000 26.86500
H  18.82900 0.96500 25.47000
H  25.99500 1.51300 24.59800
H  27.31200 -1.27100 24.73700
H  25.11100 0.77100 22.82900
H  24.23600 -0.52700 23.79800
H  25.69200 -0.89300 23.04700
H  29.17700 0.83800 25.32800
H  28.43300 1.46300 23.86300
H  28.92500 -1.05200 22.91500
H  30.18200 -1.03000 24.15200
H  30.14800 0.16900 22.90400
H  31.39700 -0.98400 27.96700
H  31.25100 -2.27500 29.27400
H  31.86900 -0.63100 29.61900
H  28.69600 0.53600 33.78300
H  28.60700 -3.01600 36.41600
H  28.07500 -1.60200 37.25800
H  29.67200 -1.89400 37.20800
Mg 35.27500 1.47700 29.05200
C  32.90700 2.28000 31.59700
C  37.58000 1.20800 31.42400
C  37.45900 1.26500 26.57600
C  32.96000 2.65400 26.77500
N  35.22600 1.73700 31.21900
C  34.18000 2.04900 32.10200
C  34.60700 1.99100 33.60200
C  36.17800 1.88100 33.42700
C  36.33900 1.52600 31.96300
C  36.93400 3.13700 33.90900
C  34.06700 0.80400 34.49000
C  34.19700 1.03900 36.00900
H  35.00800 2.18500 36.63400
N  37.26000 1.15200 29.01400
C  38.04100 0.99400 30.12200
C  39.40200 0.77700 29.73400
C  39.35400 0.67200 28.24900
C  37.96800 1.08600 27.87400
C  40.54000 0.55300 30.70500
C  40.59100 0.20800 27.31500
O  40.47800 0.24400 26.09200
C  41.90000 -0.29100 27.82700
N  35.14500 1.81700 26.91300
C  36.20600 1.60200 26.16200
C  36.04400 2.04500 24.71900
C  34.54600 2.41100 24.71300
C  34.17200 2.22000 26.17800
C  37.03500 3.11700 24.27900
C  33.70800 1.56800 23.69900
C  33.46800 0.03000 24.07000
N  33.28600 2.14200 29.11300
C  32.45800 2.49700 28.03300
C  31.08800 2.71100 28.51200
C  31.23000 2.73800 29.91100
C  32.54500 2.32500 30.22100
C  29.93200 2.99900 27.69500
C  30.56000 3.03100 31.15900
O  29.42100 3.43100 31.39700
C  31.60000 2.72300 32.28700
C  31.72700 4.04300 33.00700
O  32.32700 4.99600 32.59200
O  31.23200 3.86300 34.27100
C  31.51600 4.95100 35.18900
H  38.31200 1.12600 32.23000
H  38.17100 1.15500 25.75500
H  32.32500 2.84700 25.90800
H  34.47100 2.95900 34.08500
H  36.54500 0.92700 33.80700
H  36.31800 3.77000 34.54800
H  37.47000 3.69400 33.14100
H  37.64300 2.70700 34.61700
H  34.44200 -0.17100 34.17800
H  33.00700 0.71300 34.25500
H  34.35400 0.12800 36.58700
H  33.15800 1.20300 36.29300
H  40.22200 0.20400 31.68800
H  41.02600 1.51600 30.86300
H  41.25100 -0.06900 30.16200
H  41.63800 -1.12600 28.47700
H  42.31800 0.59500 28.30600
H  42.61400 -0.52700 27.03800
H  36.17500 1.28800 23.94600
H  34.30800 3.46200 24.54800
H  37.70500 2.78900 23.48400
H  37.59100 3.41000 25.16900
H  36.56000 3.99400 23.83800
H  34.44100 1.50900 22.89500
H  32.80100 2.06100 23.34800
H  34.15400 -0.21600 24.88100
H  33.76000 -0.62000 23.24600
H  32.40600 -0.09800 24.27900
H  30.05700 3.84100 27.01400
H  29.01000 2.98200 28.27700
H  30.14800 2.12700 27.07700
H  31.12700 1.97100 32.91900
H  30.98200 5.85100 34.88300
H  32.56100 5.12200 34.93300
H  31.42800 4.64200 36.23100

