158

Mg 48.16100 16.18100 28.49700
C  46.12000 15.86500 31.20100
C  50.21400 18.18400 30.30200
C  49.91700 16.62800 25.63800
C  45.59500 14.62900 26.49500
N  48.17700 17.01500 30.46600
C  47.32700 16.56100 31.45400
C  47.73500 17.03200 32.84700
C  48.81000 18.06000 32.51300
C  49.07000 17.76500 30.99900
C  48.26400 19.48600 32.72000
C  48.04300 15.85500 33.82200
C  47.49300 15.92400 35.24300
H  47.22600 17.29000 35.88200
N  49.98900 17.10300 28.11100
C  50.62700 17.96100 28.95900
C  51.78300 18.44000 28.34300
C  51.75600 18.00400 26.96500
C  50.50000 17.26600 26.82700
C  52.84900 19.36300 29.00500
C  52.80100 18.37700 25.79300
O  52.64900 17.95500 24.66900
C  54.07200 19.05000 26.12400
N  47.84000 15.65600 26.29700
C  48.76700 15.85000 25.39100
C  48.40900 15.24900 24.05400
C  47.14600 14.42000 24.40000
C  46.84700 14.86300 25.84000
C  48.33000 16.33600 22.90000
C  47.25100 12.91000 24.13000
C  46.02200 12.19600 23.64800
N  46.20600 15.42000 28.71000
C  45.31300 14.78900 27.90800
C  44.12700 14.37500 28.63000
C  44.37500 14.82000 29.93000
C  45.68200 15.36900 29.94300
C  43.01500 13.61200 27.98500
C  43.90200 14.89500 31.23700
O  42.78700 14.53000 31.68000
C  45.05700 15.49800 32.18000
C  44.48900 16.61900 32.93200
O  44.29600 17.76900 32.49800
O  44.16800 16.12900 34.16500
C  43.43200 17.04500 35.10500
H  50.88900 18.78500 30.91600
H  50.52800 16.95900 24.79600
H  44.89000 14.05100 25.89300
H  46.82300 17.54600 33.14900
H  49.76600 17.94200 33.02300
H  48.98200 19.93900 33.40500
H  47.29100 19.56300 33.20500
H  48.08200 20.06000 31.81200
H  49.11100 15.67100 33.94100
H  47.65800 14.96000 33.33300
H  48.22100 15.44400 35.89700
H  46.54600 15.39100 35.33300
H  53.22400 20.15500 28.35700
H  53.56000 18.57000 29.23800
H  52.41800 19.79100 29.91000
H  54.53700 18.46300 26.91700
H  54.06600 20.12700 26.29200
H  54.61700 18.86100 25.19900
H  49.23100 14.58500 23.78700
H  46.32200 14.78000 23.78300
H  47.38700 16.16500 22.38000
H  49.13500 16.25000 22.17000
H  48.27600 17.35600 23.28000
H  47.48100 12.44700 25.09000
H  48.02100 12.68200 23.39300
H  46.20900 11.88500 22.62000
H  45.15600 12.82600 23.84900
H  45.98900 11.30100 24.26900
H  43.19400 12.56600 28.23600
H  42.99800 13.75000 26.90400
H  42.06300 13.95300 28.39100
H  45.41000 14.69000 32.82100
H  42.40200 17.21400 34.79100
H  43.95700 17.99300 34.98900
H  43.58300 16.54100 36.06000
Mg -10.90700 40.51900 39.10300
C  -9.98600 37.24500 38.46600
C  -7.58500 41.50900 38.35500
C  -11.90000 43.68000 38.63100
C  -14.22000 39.43600 39.38000
N  -9.09200 39.54900 38.31900
C  -8.92900 38.16100 38.26500
C  -7.46900 37.79300 37.87600
C  -6.67400 39.12600 38.31900
C  -7.85200 40.13800 38.33100
C  -5.94400 39.14500 39.66000
C  -7.38700 37.50200 36.31600
C  -7.16000 36.00900 35.93600
H  -8.04200 35.41900 34.90300
N  -9.88800 42.38900 38.65200
C  -8.52400 42.60200 38.34000
C  -8.27700 43.97700 38.17500
C  -9.50500 44.57700 38.31800
C  -10.52900 43.57200 38.46900
C  -6.92400 44.54600 37.99000
C  -9.65600 46.08100 38.28000
O  -8.73900 46.80700 37.92000
C  -10.94100 46.73000 38.56800
N  -12.87600 41.45500 39.02200
C  -12.98000 42.79500 38.92800
C  -14.44100 43.17100 38.96600
C  -15.25700 41.85600 39.25700
C  -14.05500 40.84100 39.24900
C  -14.91700 44.31300 39.93800
C  -16.40400 41.45300 38.26700
C  -17.70900 41.09300 38.95800
N  -11.93100 38.71500 39.16200
C  -13.29400 38.41600 39.13900
C  -13.43900 36.99400 39.03400
C  -12.16200 36.48300 38.74400
C  -11.30800 37.59500 38.78500
C  -14.80400 36.31600 39.12900
C  -11.43500 35.27000 38.38000
O  -11.84000 34.12600 38.24000
C  -9.91000 35.70400 38.24000
C  -9.15300 34.90200 39.26200
O  -9.51800 34.75400 40.43900
O  -8.18100 34.20800 38.62200
C  -7.43300 33.31600 39.50000
H  -6.53100 41.77800 38.26300
H  -12.26800 44.69600 38.47300
H  -15.23000 39.03800 39.49500
H  -7.05000 37.02800 38.53000
H  -6.05500 39.49400 37.50000
H  -4.95200 39.59400 39.60900
H  -5.59800 38.15500 39.95700
H  -6.53700 39.59700 40.45500
H  -6.60400 38.11700 35.87200
H  -8.37200 37.73500 35.91300
H  -7.22100 35.32600 36.78300
H  -6.15200 35.96200 35.52400
H  -6.48900 44.93100 38.91300
H  -6.83400 45.28600 37.19500
H  -6.27200 43.77600 37.57900
H  -10.89400 47.80800 38.71900
H  -11.16200 46.53800 39.61700
H  -11.74600 46.44000 37.89300
H  -14.70600 43.47500 37.95400
H  -15.60300 41.86900 40.29000
H  -14.08100 44.81400 40.42700
H  -15.64500 44.03300 40.69900
H  -15.36200 45.09500 39.32200
H  -16.20600 40.63800 37.57100
H  -16.65800 42.30300 37.63400
H  -17.81300 41.51500 39.95700
H  -17.89200 40.02000 39.00100
H  -18.45800 41.48600 38.27100
H  -14.73000 35.48100 39.82700
H  -15.04400 35.98800 38.11800
H  -15.52500 36.96600 39.62600
H  -9.62100 35.49600 37.21000
H  -8.04000 32.46200 39.80100
H  -6.91900 33.73000 40.36700
H  -6.63300 32.92000 38.87400

