158

Mg 35.10800 48.77000 25.53200
C  35.57700 46.89900 28.61500
C  33.87800 51.36000 27.66000
C  34.32300 50.43900 22.80500
C  36.11400 45.97100 23.76100
N  34.71700 49.05200 27.81400
C  35.06100 48.15500 28.83200
C  34.75500 48.70800 30.24500
C  34.02400 50.03700 29.83900
C  34.27900 50.16700 28.35200
C  32.53900 49.85700 30.05600
C  36.06500 49.04600 31.05100
C  35.92800 48.92400 32.58900
H  34.65400 48.92300 33.30500
N  34.22600 50.69700 25.25000
C  33.84800 51.60400 26.24300
C  33.57700 52.88300 25.52000
C  33.67700 52.64100 24.16500
C  34.12200 51.23900 23.99900
C  33.21600 54.06200 26.25600
C  33.50700 53.59700 23.01000
O  33.75500 53.28000 21.85100
C  33.02800 55.03200 23.10800
N  35.12500 48.20200 23.66400
C  34.80800 49.10400 22.65300
C  34.81500 48.46300 21.29200
C  35.30000 46.98200 21.61800
C  35.57900 47.03800 23.07500
C  33.38600 48.60000 20.61800
C  36.46400 46.42500 20.68800
C  36.47000 44.97700 20.45000
N  35.67600 46.77000 26.03900
C  36.12900 45.76900 25.19000
C  36.58300 44.66800 26.04100
C  36.37500 45.05300 27.35000
C  35.86800 46.33100 27.29100
C  36.96500 43.33700 25.39700
C  36.54800 44.62100 28.76400
O  37.01300 43.55100 29.20400
C  36.01700 45.87300 29.66000
C  35.04600 45.27800 30.59300
O  34.10200 44.59900 30.22200
O  35.26300 45.54100 31.96200
C  34.35600 45.02500 32.94700
H  33.58100 52.22300 28.26000
H  34.10400 50.97800 21.88000
H  36.63900 45.22300 23.16300
H  34.06300 48.01200 30.72100
H  34.30900 50.86500 30.48800
H  32.12600 49.48100 29.12000
H  32.03900 50.82000 30.16100
H  32.31900 49.26400 30.94400
H  36.19800 50.10200 30.81600
H  36.91600 48.42700 30.76500
H  36.62800 49.55500 33.13500
H  36.35200 47.94200 32.80000
H  32.13100 54.16400 26.24000
H  33.52600 54.92800 25.67200
H  33.43300 54.09300 27.32300
H  32.88000 55.45500 22.11400
H  33.82900 55.59100 23.59100
H  32.11900 55.07500 23.70800
H  35.54300 48.96000 20.65100
H  34.45200 46.29800 21.64600
H  33.14700 47.60900 20.23300
H  33.57200 49.30600 19.80800
H  32.65700 49.05100 21.29200
H  37.40000 46.53600 21.23500
H  36.53400 47.03500 19.78700
H  36.79000 44.78000 19.42700
H  35.46600 44.57100 20.56700
H  37.04200 44.44000 21.20700
H  37.88700 43.35500 24.81600
H  36.19300 43.12100 24.65700
H  36.87100 42.58500 26.18100
H  36.82800 46.28900 30.25700
H  34.67700 45.23600 33.96700
H  34.36700 43.93500 32.92000
H  33.31100 45.32900 32.88200
Mg 16.88900 52.22400 26.74400
C  18.63500 50.81200 29.45900
C  14.37800 53.06200 28.87300
C  15.22000 53.26200 24.11800
C  19.27900 50.73800 24.55100
N  16.43700 51.66800 28.95300
C  17.41600 51.37500 29.92600
C  16.91600 51.60500 31.34800
C  15.41400 52.07600 31.09500
C  15.43600 52.40300 29.58400
C  14.35800 51.01700 31.49600
C  17.99500 52.58100 32.12600
C  18.31000 52.30500 33.59300
H  17.32300 51.61900 34.59800
N  15.00400 53.06300 26.53300
C  14.11300 53.30600 27.54700
C  12.92600 53.84400 27.02600
C  13.14100 53.89300 25.59300
C  14.49500 53.48000 25.37100
C  11.70000 54.25100 27.76700
C  12.32400 54.52600 24.44400
O  12.75500 54.82900 23.32200
C  10.99100 54.97900 24.71100
N  17.02200 51.76200 24.62100
C  16.28400 52.52200 23.74900
C  16.77800 52.40000 22.29800
C  18.25500 51.97700 22.53900
C  18.24800 51.43200 23.96400
C  15.89800 51.33200 21.48400
C  19.19600 53.23700 22.33800
C  20.68000 52.93100 22.16000
N  18.55700 50.93400 26.91200
C  19.45200 50.41800 25.95300
C  20.44600 49.66700 26.61900
C  20.14800 49.88700 27.96500
C  19.02500 50.62800 28.09600
C  21.54300 48.87700 26.03500
C  20.55100 49.50700 29.29800
O  21.44900 48.79800 29.69800
C  19.59800 50.13200 30.30000
C  19.05800 49.03200 31.22500
O  18.18900 48.24800 30.89500
O  19.74800 48.96700 32.38700
C  19.43900 47.90500 33.36400
H  13.59700 53.36800 29.57300
H  14.81300 53.73300 23.22100
H  20.11700 50.45700 23.91000
H  16.98900 50.64100 31.85100
H  15.29600 52.99700 31.66500
H  13.56400 50.85000 30.76700
H  13.79900 51.41800 32.34200
H  14.84400 50.07600 31.75300
H  17.49100 53.54200 32.01700
H  18.97300 52.63900 31.64900
H  18.51500 53.30600 33.97300
H  19.27100 51.81900 33.75600
H  11.69100 54.14500 28.85200
H  10.98400 53.63700 27.22000
H  11.46100 55.29400 27.55700
H  11.06600 55.70600 25.52000
H  10.51000 54.03800 24.97900
H  10.39100 55.32300 23.86800
H  16.64600 53.36000 21.79800
H  18.63800 51.25800 21.81500
H  16.48200 50.41500 21.40300
H  15.70200 51.62200 20.45200
H  14.90200 51.11000 21.86900
H  19.08700 53.84300 23.23800
H  18.83300 53.86000 21.52100
H  20.66700 51.84500 22.24800
H  21.40300 53.30700 22.88400
H  20.94800 53.20700 21.14000
H  22.33600 49.56900 25.75000
H  21.14900 48.43000 25.12200
H  21.87300 48.09200 26.71500
H  20.18900 50.86200 30.85400
H  20.30600 47.59600 33.94800
H  18.97400 47.05000 32.87400
H  18.70100 48.39100 34.00300

