158

Mg 9.09900 3.84600 27.38300
C  10.42400 2.34500 30.18600
C  7.08900 5.80700 29.48700
C  7.73900 5.25700 24.61400
C  10.73500 1.53000 25.39300
N  8.67700 3.86500 29.61300
C  9.46000 3.33200 30.59400
C  8.96900 3.64500 31.97600
C  7.69900 4.52200 31.60400
C  7.89300 4.84800 30.12100
C  6.27400 3.94200 31.88900
C  10.07500 4.35500 32.72600
C  10.31500 3.91900 34.21000
H  10.66600 5.01400 35.21300
N  7.66900 5.33000 27.11100
C  7.00300 6.07100 28.09000
C  6.25800 7.13600 27.39800
C  6.33000 6.89700 25.99500
C  7.29000 5.83500 25.84900
C  5.46200 8.18100 28.17400
C  5.58900 7.57800 24.91400
O  5.71600 7.33700 23.70200
C  4.77100 8.80400 25.22400
N  9.12400 3.33200 25.26700
C  8.48400 4.10000 24.33000
C  8.84700 3.62400 22.93500
C  9.66100 2.30400 23.17000
C  9.86300 2.38500 24.71500
C  7.66100 3.41900 21.93700
C  11.03500 2.23300 22.38800
C  11.19700 1.13000 21.33400
N  10.37400 2.21800 27.66700
C  10.91000 1.36700 26.82600
C  11.72700 0.37200 27.47900
C  11.58800 0.74800 28.84000
C  10.74800 1.85300 28.90000
C  12.61300 -0.57600 26.84200
C  12.01300 0.48800 30.18600
O  12.82300 -0.33200 30.57100
C  11.32100 1.53300 31.10100
C  10.52500 0.69300 32.07800
O  9.36100 0.37700 31.98800
O  11.09200 0.63100 33.31600
C  10.25400 0.18400 34.44300
H  6.59500 6.55700 30.11000
H  7.44200 5.78800 23.70700
H  11.27900 0.77000 24.82800
H  8.55200 2.73400 32.40600
H  7.69800 5.53400 32.00900
H  6.23600 3.02400 32.47500
H  5.78200 3.67600 30.95300
H  5.62900 4.68900 32.35100
H  9.97000 5.43700 32.64400
H  11.01300 4.24300 32.18100
H  11.11900 3.18300 34.20300
H  9.40700 3.42500 34.55800
H  5.58900 9.22600 27.88900
H  5.66900 8.09400 29.24100
H  4.41300 7.92800 28.02000
H  5.50700 9.56900 25.47200
H  4.11000 8.61000 26.07000
H  4.03800 9.09900 24.47300
H  9.60600 4.35500 22.65600
H  9.05400 1.42700 22.94500
H  6.75900 3.74100 22.45700
H  7.50700 2.38300 21.63600
H  7.77900 4.05600 21.06100
H  11.84900 2.12400 23.10500
H  11.04900 3.14700 21.79400
H  10.31100 0.54500 21.08500
H  12.00500 0.45100 21.60600
H  11.50600 1.47800 20.34900
H  11.99900 -1.42200 26.53100
H  13.34600 -1.00300 27.52700
H  13.17800 -0.20000 25.99000
H  11.98000 2.22300 31.62800
H  9.76800 -0.77100 34.24200
H  9.40700 0.82300 34.69000
H  10.70900 -0.10400 35.39100
Mg 48.44400 34.58400 27.27800
C  46.19200 33.48800 29.79800
C  49.29100 37.28400 29.22500
C  49.76300 36.03400 24.57600
C  46.93000 32.12200 25.13600
N  47.79200 35.26300 29.30400
C  46.92500 34.67100 30.14500
C  46.97500 35.41000 31.49600
C  47.62900 36.79900 31.11100
C  48.35000 36.45300 29.86600
C  46.61400 37.95400 30.87300
C  47.83700 34.54000 32.52000
C  47.28700 34.37800 33.92600
H  48.22500 34.87900 35.04300
N  49.46100 36.31300 26.97900
C  49.74600 37.28400 27.86800
C  50.55900 38.22700 27.20900
C  50.75300 37.92500 25.85900
C  49.94700 36.71900 25.74500
C  51.07500 39.46600 27.91000
C  51.45400 38.65700 24.77400
O  51.54400 38.14500 23.66200
C  52.17800 40.01800 25.09900
N  48.30000 34.14300 25.24700
C  49.05600 34.87800 24.32900
C  48.76000 34.37700 22.87400
C  48.16300 33.00900 23.18600
C  47.76400 33.08000 24.60300
C  47.84200 35.38400 22.13800
C  49.06900 31.76500 22.86200
C  50.15700 31.35100 23.83500
N  47.08200 32.96000 27.46500
C  46.62200 32.02000 26.50400
C  45.74600 31.00400 27.15900
C  45.50600 31.62100 28.42400
C  46.35500 32.75900 28.51400
C  45.20400 29.75100 26.52100
C  44.70800 31.48200 29.54700
O  43.89300 30.59100 29.80000
C  45.12100 32.67300 30.52400
C  45.55300 32.01600 31.80900
O  46.50200 31.26600 32.06600
O  44.55100 32.21200 32.74600
C  44.75000 31.77400 34.17900
H  49.48500 38.18600 29.80900
H  50.17400 36.40200 23.63400
H  46.66100 31.27100 24.50700
H  45.99900 35.55600 31.95800
H  48.37500 37.21800 31.78700
H  46.76100 38.80600 31.53600
H  45.57300 37.65900 31.00100
H  46.59400 38.31700 29.84500
H  48.87600 34.86600 32.55800
H  48.04200 33.59100 32.02400
H  47.18100 33.33700 34.23300
H  46.28800 34.81200 33.98600
H  50.34500 40.21500 27.59900
H  52.10000 39.60900 27.56800
H  51.12700 39.27900 28.98200
H  51.41300 40.61900 25.58900
H  52.60000 40.45500 24.19400
H  53.01100 39.77400 25.75800
H  49.65300 34.21000 22.27100
H  47.29700 32.90200 22.53300
H  47.74900 36.36400 22.60600
H  46.87900 34.91000 21.95000
H  48.27700 35.51700 21.14700
H  49.50700 32.10600 21.92500
H  48.44800 30.90000 22.62600
H  49.78200 30.42700 24.27600
H  50.40200 32.00900 24.66800
H  51.14200 31.20100 23.39300
H  45.87600 28.94500 26.81600
H  45.19800 29.85900 25.43600
H  44.20200 29.68500 26.94600
H  44.30500 33.36600 30.72700
H  45.35900 30.87000 34.20600
H  43.70100 31.58800 34.40700
H  45.13500 32.60900 34.76400

