158

Mg 47.12600 16.31900 28.26800
C  44.95300 15.80400 30.89600
C  49.21500 18.02800 30.25000
C  48.98300 17.08200 25.56900
C  44.75200 14.74100 26.13400
N  47.02300 16.81300 30.41500
C  46.14600 16.44900 31.33800
C  46.55400 16.83800 32.68500
C  47.79500 17.79500 32.40100
C  48.07400 17.52900 30.89900
C  47.68700 19.24700 32.81700
C  46.71900 15.52900 33.51700
C  47.76500 15.73200 34.59700
H  47.86400 17.00600 35.47900
N  48.96900 17.28100 27.96500
C  49.63300 17.93300 28.94100
C  50.93500 18.39900 28.41200
C  50.86900 18.18200 26.99400
C  49.54600 17.54500 26.77800
C  52.02700 19.09800 29.34300
C  51.79000 18.62500 25.93100
O  51.52000 18.49500 24.73100
C  53.09300 19.17700 26.36100
N  46.77200 16.07900 26.18200
C  47.78800 16.40700 25.31700
C  47.41200 15.98400 23.86200
C  46.13200 15.13100 24.12100
C  45.92000 15.30700 25.53700
C  47.24800 17.17500 22.86100
C  46.04300 13.69900 23.56000
C  44.82800 13.34800 22.55100
N  45.17300 15.51300 28.40900
C  44.35300 14.89700 27.43100
C  43.25100 14.25000 28.17100
C  43.42900 14.67000 29.45200
C  44.64600 15.35700 29.56400
C  42.13600 13.41900 27.54300
C  42.83200 14.66000 30.74400
O  41.84700 14.08800 31.20300
C  43.84600 15.25200 31.72000
C  43.13000 16.29100 32.57300
O  42.71700 17.33000 32.14100
O  43.01500 15.86300 33.87800
C  42.42100 16.74800 34.90400
H  49.83800 18.41400 31.05900
H  49.64900 17.24200 24.71800
H  43.98600 14.26500 25.51700
H  45.71600 17.41800 33.07200
H  48.67300 17.48300 32.96700
H  47.61400 19.93300 31.97300
H  48.65500 19.50000 33.24900
H  46.80200 19.46000 33.41800
H  47.08100 14.79700 32.79600
H  45.83700 15.11300 34.00500
H  48.77800 15.59900 34.21800
H  47.59200 14.91600 35.29800
H  53.05700 18.77200 29.20700
H  51.74600 18.68900 30.31300
H  52.02100 20.18500 29.25600
H  53.05700 20.16800 26.81300
H  53.61200 19.44700 25.44100
H  53.66200 18.36700 26.81800
H  48.09300 15.25300 23.42600
H  45.29500 15.68400 23.69400
H  47.58800 18.05700 23.40400
H  46.26500 17.22800 22.39300
H  47.94100 16.94000 22.05300
H  46.10700 12.93000 24.33100
H  46.91600 13.51400 22.93400
H  44.25600 14.25700 22.36400
H  44.29300 12.49900 22.97400
H  45.33100 13.08600 21.62000
H  42.16900 13.32800 26.45700
H  41.24800 13.97500 27.84500
H  41.90800 12.48000 28.04700
H  44.29000 14.43800 32.29200
H  41.48400 17.08700 34.46300
H  43.19200 17.50300 35.05900
H  42.40900 16.13400 35.80500
Mg -12.46300 38.48800 41.30500
C  -10.35900 35.74600 40.35500
C  -10.17900 40.56600 39.68100
C  -14.69700 40.87800 41.32500
C  -14.81900 36.05600 42.31400
N  -10.42600 38.19700 40.31700
C  -9.73600 36.99700 40.07800
C  -8.47200 37.18700 39.34000
C  -8.31000 38.73000 39.27100
C  -9.73800 39.23600 39.81700
C  -7.15200 39.39600 40.03200
C  -8.42100 36.44400 37.95700
C  -7.22200 35.47900 37.74700
H  -6.29600 35.82800 36.52700
N  -12.47000 40.57200 40.75700
C  -11.42100 41.21100 40.05600
C  -11.75700 42.64900 39.99700
C  -13.07100 42.75300 40.37600
C  -13.49300 41.36600 40.89800
C  -10.86700 43.63500 39.22100
C  -13.93100 43.95200 40.22300
O  -13.36900 45.01800 39.87600
C  -15.34700 43.88200 40.31100
N  -14.37100 38.43500 41.72200
C  -15.15900 39.59600 41.59200
C  -16.64400 39.41100 42.02200
C  -16.69900 37.81400 42.26800
C  -15.23600 37.37700 42.13600
C  -17.15800 40.32800 43.11600
C  -17.68900 37.07500 41.35400
C  -18.84400 36.13400 41.97100
N  -12.66100 36.34700 41.31100
C  -13.55500 35.52500 41.95300
C  -13.08600 34.12600 41.87100
C  -11.88200 34.20000 41.19000
C  -11.59200 35.56000 40.94900
C  -13.71000 32.95600 42.56500
C  -10.78000 33.45100 40.76000
O  -10.71400 32.18800 40.80000
C  -9.73200 34.38400 40.23300
C  -8.50600 34.16600 41.03200
O  -7.62300 33.47900 40.61400
O  -8.43200 34.88600 42.19900
C  -7.13700 34.86600 42.84200
H  -9.54700 41.09200 38.96200
H  -15.41000 41.70200 41.40900
H  -15.44700 35.26400 42.72600
H  -7.65800 36.90400 40.00800
H  -8.29500 39.03000 38.22300
H  -6.49600 38.69600 40.55100
H  -7.63600 40.01700 40.78600
H  -6.60400 39.94500 39.26700
H  -8.43300 37.16500 37.14000
H  -9.30500 35.82900 37.78400
H  -7.49800 34.46600 37.45200
H  -6.56800 35.46800 38.61900
H  -10.61800 44.42300 39.93100
H  -11.35700 44.05600 38.34300
H  -9.89500 43.22400 38.94900
H  -15.48100 44.10400 41.37000
H  -15.84000 43.02000 39.86100
H  -15.76400 44.76600 39.82900
H  -17.11300 39.62100 41.06100
H  -16.87300 37.61100 43.32500
H  -16.51700 41.05900 43.60900
H  -17.51800 39.75100 43.96700
H  -18.12300 40.69900 42.77000
H  -17.02100 36.45400 40.75700
H  -18.14300 37.86800 40.76000
H  -19.80800 36.54100 41.66700
H  -18.75500 36.14800 43.05700
H  -18.64200 35.16100 41.52300
H  -14.61400 32.50300 42.15900
H  -14.00800 33.31500 43.55000
H  -12.96800 32.18300 42.76500
H  -9.63100 34.06800 39.19500
H  -6.40500 35.48600 42.32400
H  -6.83300 33.86300 43.14200
H  -7.35100 35.49400 43.70700

