158

Mg 47.20400 24.89800 28.76400
C  48.02600 27.41600 31.25800
C  46.55000 22.78200 31.27200
C  46.97200 22.51500 26.45400
C  48.32400 27.15100 26.42300
N  47.37900 25.13100 31.06200
C  47.63500 26.19300 31.83700
C  47.37700 25.85200 33.33700
C  47.16400 24.32300 33.33500
C  47.03900 24.02200 31.82200
C  48.40700 23.51800 33.91500
C  46.19300 26.71600 33.91000
C  46.42300 27.28200 35.32900
H  45.36800 26.89400 36.42300
N  46.84400 22.91200 28.83500
C  46.50000 22.25100 29.97100
C  46.22300 20.80300 29.57100
C  46.39800 20.71000 28.14500
C  46.72600 22.04000 27.74700
C  45.79800 19.78300 30.59300
C  46.15300 19.58200 27.20100
O  46.14800 19.69000 25.98600
C  45.84200 18.23900 27.79700
N  47.89000 24.76800 26.69800
C  47.41800 23.71800 25.95400
C  47.52300 24.04000 24.46400
C  47.67300 25.61000 24.51400
C  48.03400 25.85400 25.92200
C  48.63400 23.20300 23.70800
C  46.35000 26.27800 23.93200
C  45.23200 26.56900 24.94500
N  47.85100 26.91100 28.80100
C  48.27500 27.72400 27.72900
C  48.57100 29.05500 28.10000
C  48.49500 28.95200 29.48300
C  48.09000 27.65900 29.86900
C  49.03000 30.25700 27.32000
C  48.71500 29.71400 30.71100
O  49.15400 30.85400 30.84300
C  48.33400 28.70500 31.96000
C  49.46000 28.74900 32.84300
O  50.61000 28.39400 32.63900
O  48.99900 29.20100 34.08400
C  49.98700 29.21000 35.18400
H  46.02800 22.12700 31.97200
H  46.93300 21.85200 25.58700
H  48.53000 27.74200 25.52800
H  48.34100 26.10200 33.77900
H  46.16600 24.06500 33.68900
H  49.03400 24.17000 34.52200
H  49.02500 23.04400 33.15300
H  47.93800 22.81400 34.60200
H  45.27900 26.13200 33.79800
H  45.89000 27.57100 33.30500
H  46.37600 28.36400 35.20600
H  47.38600 26.99700 35.75400
H  45.48800 20.18800 31.55600
H  46.54800 18.99200 30.61100
H  44.91500 19.31400 30.15800
H  46.74700 18.00700 28.36000
H  45.69900 17.47900 27.02900
H  45.03200 18.21000 28.52600
H  46.56200 23.87500 23.97700
H  48.63800 25.89700 24.09700
H  49.20900 22.67000 24.46400
H  49.34500 23.81000 23.14800
H  48.16200 22.47000 23.05400
H  45.83300 25.62700 23.22700
H  46.57000 27.22800 23.44400
H  44.41400 25.88400 24.72100
H  44.79000 27.56000 24.84800
H  45.45000 26.38700 25.99800
H  48.78300 31.06300 28.01100
H  48.43200 30.36500 26.41600
H  50.10800 30.19000 27.16900
H  47.50800 29.18900 32.48100
H  50.89200 28.63900 34.97200
H  49.52300 28.90100 36.12100
H  50.34700 30.21900 35.38300
Mg 46.90200 34.87100 26.90400
C  45.73300 33.49000 29.85400
C  47.29200 37.81300 28.53700
C  47.41600 36.38000 23.87800
C  46.27700 31.80400 25.26900
N  46.66700 35.50900 28.95600
C  46.32700 34.74300 30.00800
C  46.69300 35.43900 31.34900
C  46.87500 36.93900 30.90400
C  46.96400 36.76000 29.33700
C  45.74700 37.97000 31.34400
C  47.97700 34.80700 31.89200
C  48.37800 35.23900 33.35100
H  47.40700 36.11900 34.20000
N  47.26100 36.86200 26.33400
C  47.47300 37.90200 27.13800
C  47.81500 39.09800 26.39400
C  47.82200 38.68900 25.03200
C  47.44900 37.27300 25.01500
C  48.19800 40.33200 27.14200
C  48.21700 39.46200 23.74700
O  48.12400 38.98400 22.63200
C  48.88400 40.79900 23.93300
N  46.98200 34.17100 24.96500
C  47.20700 34.96300 23.89500
C  47.33200 34.07300 22.61100
C  47.10300 32.64100 23.04200
C  46.81100 32.84600 24.51600
C  46.50900 34.52500 21.34500
C  48.21300 31.65300 22.65200
C  49.58600 31.86500 23.35100
N  46.00200 33.04600 27.36700
C  45.84400 31.86400 26.68100
C  45.37300 30.80500 27.52700
C  45.23900 31.37600 28.79500
C  45.67600 32.76200 28.66800
C  45.11100 29.44100 27.07400
C  44.86000 31.18100 30.18300
O  44.50400 30.13100 30.72800
C  44.95000 32.60700 30.87100
C  45.33500 32.51700 32.30200
O  46.14200 31.74800 32.66500
O  44.58800 33.33600 33.06200
C  44.71500 32.96000 34.47400
H  47.41600 38.79200 29.00400
H  47.64100 36.67700 22.85100
H  46.33100 30.82700 24.78500
H  45.90400 35.38800 32.09900
H  47.79700 37.36300 31.30200
H  46.33400 38.83100 31.66400
H  45.24400 37.58300 32.23000
H  45.00000 38.25000 30.60100
H  48.81600 35.10000 31.26100
H  47.85000 33.72500 31.86100
H  49.38200 35.66200 33.31400
H  48.42100 34.31100 33.92100
H  47.33900 40.69400 27.70700
H  48.51300 41.17100 26.52100
H  48.99700 39.92900 27.76400
H  49.35100 41.07300 22.98700
H  49.71400 40.74400 24.63800
H  48.10300 41.55200 24.03800
H  48.38100 34.11500 22.31700
H  46.15100 32.19700 22.75000
H  46.00800 33.65200 20.92700
H  47.11200 35.03600 20.59400
H  45.71500 35.20700 21.64900
H  48.37400 31.70800 21.57500
H  47.91800 30.61000 22.76800
H  50.35000 31.97800 22.58300
H  49.67200 31.02300 24.03800
H  49.42300 32.75000 23.96700
H  45.92100 29.23500 26.37400
H  44.14300 29.49900 26.57600
H  45.21900 28.75400 27.91200
H  43.91400 32.94800 30.85800
H  44.52400 31.89400 34.60000
H  43.89200 33.46800 34.97800
H  45.64600 33.32900 34.90300

