158

Mg 0.94900 -1.93300 44.32100
C  4.29100 -0.96700 43.91400
C  0.01800 0.89400 42.52400
C  -2.23300 -3.16200 44.15100
C  2.11600 -5.08400 45.42900
N  2.02200 -0.18800 43.31900
C  3.43500 -0.00800 43.37100
C  3.89500 1.25500 42.54500
C  2.45700 1.95600 42.39600
C  1.42000 0.82600 42.66800
C  2.19200 3.25700 43.23300
C  4.66000 0.82300 41.28300
C  6.09700 1.44700 41.02100
H  6.77600 1.45000 39.55500
N  -0.94900 -1.17900 43.52200
C  -1.04800 0.03100 42.92500
C  -2.43100 0.26800 42.72800
C  -3.14900 -0.94400 43.12100
C  -2.11900 -1.87500 43.54600
C  -3.05000 1.51900 42.11700
C  -4.62700 -1.06500 42.97700
O  -5.30100 -0.10900 42.66600
C  -5.30900 -2.31500 43.39400
N  0.19200 -3.92200 44.55700
C  -1.20400 -4.07900 44.61600
C  -1.57000 -5.37100 45.36200
C  -0.21900 -5.92900 45.71600
C  0.74600 -4.91600 45.17600
C  -2.46600 -5.19900 46.58700
C  -0.07800 -7.43100 45.23900
C  -0.88600 -8.59200 45.86400
N  2.83000 -2.85600 44.71700
C  3.12800 -4.12400 45.15100
C  4.52100 -4.31500 45.17000
C  5.08500 -2.99900 44.88000
C  3.97600 -2.21300 44.50400
C  5.17800 -5.61900 45.33000
C  6.28300 -2.28300 44.66100
O  7.46000 -2.52200 44.79300
C  5.81100 -0.86300 44.01700
C  6.17200 0.29200 44.86500
O  5.76000 0.56700 45.95000
O  7.07100 1.06700 44.12300
C  7.31700 2.43900 44.73300
H  -0.24500 1.79900 41.97300
H  -3.23200 -3.57800 44.29600
H  2.41000 -6.11200 45.65000
H  4.47300 1.83200 43.26700
H  2.40900 2.37800 41.39200
H  1.27400 3.03000 43.77600
H  2.14000 4.10500 42.55000
H  3.05900 3.46500 43.86000
H  4.07300 1.29400 40.49500
H  4.73000 -0.25700 41.15300
H  6.71200 0.81400 41.66000
H  6.08900 2.47400 41.38600
H  -3.64900 1.42500 41.21100
H  -2.31400 2.20300 41.69400
H  -3.59800 2.10700 42.85400
H  -5.02400 -3.17100 42.78200
H  -6.39000 -2.17900 43.36900
H  -5.06000 -2.54900 44.42900
H  -1.98500 -6.02000 44.59100
H  -0.13700 -6.00400 46.80000
H  -3.43900 -5.59500 46.29700
H  -2.38300 -4.16100 46.90800
H  -2.22200 -5.87700 47.40500
H  0.95200 -7.78600 45.27300
H  -0.39800 -7.53300 44.20100
H  -0.19500 -9.17900 46.46900
H  -1.36500 -9.26100 45.14900
H  -1.65500 -8.20400 46.53100
H  4.54200 -6.42600 44.96700
H  5.50400 -5.89200 46.33400
H  6.14800 -5.47900 44.85400
H  6.28300 -0.80800 43.03600
H  7.76900 2.48300 45.72400
H  6.38900 3.00700 44.66400
H  7.97900 3.00300 44.07600
Mg 16.16000 -0.91000 27.01100
C  15.02100 0.82400 29.90100
C  18.46600 -2.49600 28.98600
C  17.69300 -2.04900 24.31400
C  14.17400 1.06200 25.13800
N  16.63500 -0.81900 29.16900
C  15.99700 -0.16100 30.17900
C  16.39600 -0.52500 31.52100
C  17.69400 -1.35600 31.18700
C  17.58300 -1.64900 29.64700
C  19.11000 -0.74000 31.52200
C  15.29000 -1.21900 32.37500
C  15.18200 -0.70900 33.81300
H  16.40100 0.01900 34.53500
N  17.77800 -2.28600 26.69000
C  18.57700 -2.85100 27.62000
C  19.36000 -3.86300 27.01700
C  19.06600 -3.83900 25.62900
C  18.20900 -2.68800 25.48200
C  20.21800 -4.75500 27.84100
C  19.60100 -4.71000 24.41200
O  19.19200 -4.54700 23.26500
C  20.68200 -5.80300 24.59000
N  16.06800 -0.45200 25.05700
C  16.78700 -1.07100 24.07700
C  16.54700 -0.48500 22.69900
C  15.23300 0.36600 22.97400
C  15.05800 0.24600 24.45200
C  17.80200 0.31100 22.13600
C  13.97100 0.02100 22.20000
C  13.83900 0.80300 20.89500
N  14.78400 0.51100 27.44500
C  14.01000 1.17100 26.52700
C  13.06900 1.97500 27.22400
C  13.41000 1.87200 28.57600
C  14.54400 1.06400 28.62200
C  12.01100 2.70000 26.49200
C  13.06600 2.36200 29.84800
O  12.19600 3.10300 30.24500
C  14.07600 1.61300 30.80400
C  14.71200 2.73800 31.63700
O  15.51000 3.55300 31.24900
O  14.16700 2.72800 32.94100
C  14.26100 4.14300 33.42100
H  19.11900 -2.95900 29.72900
H  18.19600 -2.40900 23.41400
H  13.41700 1.64200 24.60600
H  16.79400 0.39800 31.94100
H  17.58000 -2.37600 31.55300
H  19.56100 -0.21700 30.67900
H  19.79500 -1.52800 31.83600
H  19.05900 0.06800 32.25200
H  15.46400 -2.29400 32.33100
H  14.33000 -1.09900 31.87200
H  15.15000 -1.68200 34.30300
H  14.29000 -0.18200 34.15200
H  20.66200 -5.52500 27.20900
H  19.69200 -5.22600 28.67200
H  20.99200 -4.07600 28.19700
H  21.45400 -5.49700 25.29700
H  20.99300 -6.06100 23.57800
H  20.13300 -6.69100 24.90200
H  16.28200 -1.39400 22.15900
H  15.51300 1.41300 22.86100
H  18.50400 -0.43100 21.75600
H  18.16600 0.90600 22.97400
H  17.46300 0.97500 21.34000
H  13.13200 0.17800 22.87800
H  13.98500 -1.03200 21.91800
H  14.76600 1.23900 20.52400
H  13.09600 1.55800 21.15300
H  13.65600 0.12300 20.06300
H  12.63900 3.36800 25.90300
H  11.34100 3.30300 27.10500
H  11.46500 1.97200 25.89200
H  13.54100 0.99000 31.52100
H  14.06900 4.91900 32.68000
H  15.15700 4.37000 33.99800
H  13.42000 4.26000 34.10500

