158

Mg 48.92900 34.19100 27.02800
C  46.43800 33.00900 29.27900
C  49.42900 36.88200 28.98000
C  50.80200 35.47300 24.61100
C  47.96800 31.50500 24.92900
N  48.01900 34.83500 28.89100
C  47.14400 34.15900 29.71500
C  47.07400 34.81800 31.04400
C  47.76200 36.21900 30.73400
C  48.46200 35.98300 29.43400
C  46.85800 37.50300 30.63400
C  47.81500 33.91700 32.05400
C  47.48900 33.99300 33.54200
H  46.50900 34.94400 34.15600
N  50.11500 35.98200 26.82900
C  50.22200 36.92600 27.79900
C  51.19400 37.93900 27.42600
C  51.65000 37.53900 26.09000
C  50.82400 36.28700 25.74200
C  51.59500 39.11200 28.28100
C  52.80100 38.19000 25.17400
O  53.14100 37.65400 24.10700
C  53.58800 39.37800 25.72600
N  49.07400 33.65100 24.95000
C  50.13200 34.30800 24.28700
C  50.43000 33.63900 22.97600
C  49.68400 32.20100 23.15400
C  48.86800 32.42800 24.45600
C  49.72600 34.32700 21.69000
C  50.64600 30.94500 23.31100
C  52.14400 31.10400 22.99500
N  47.49500 32.55200 27.04200
C  47.18200 31.59100 26.12500
C  46.14900 30.67900 26.62800
C  45.79100 31.26400 27.80500
C  46.61000 32.35800 28.04300
C  45.53300 29.50500 25.86000
C  44.88200 31.13000 28.84900
O  44.01300 30.30900 29.06200
C  45.18300 32.30100 29.88400
C  45.48700 31.65200 31.14000
O  46.28600 30.74000 31.35100
O  44.60600 32.15100 31.99100
C  44.58200 31.53400 33.31000
H  49.62400 37.71300 29.66200
H  51.28700 35.92700 23.74400
H  47.75400 30.63200 24.30800
H  46.02700 34.77400 31.34500
H  48.48700 36.49400 31.50000
H  47.14700 38.20700 31.41500
H  45.87300 37.08700 30.84500
H  46.78700 37.98300 29.65800
H  48.87200 34.16700 31.95900
H  47.63300 32.86100 31.85400
H  48.40900 34.15400 34.10300
H  47.11000 33.00200 33.79200
H  50.87400 39.28500 29.08000
H  51.64200 40.08400 27.78900
H  52.56000 39.02700 28.78000
H  52.95000 40.25400 25.85000
H  54.24600 39.82200 24.97900
H  54.18800 39.22300 26.62300
H  51.50400 33.72900 22.81800
H  48.96400 32.01300 22.35700
H  49.96300 33.74400 20.80000
H  50.21200 35.29900 21.61300
H  48.65000 34.39100 21.85600
H  50.17600 30.06600 22.87000
H  50.68900 30.71400 24.37600
H  52.74900 31.65100 23.71900
H  52.16400 31.46400 21.96700
H  52.48400 30.07300 23.09600
H  44.88400 28.92800 26.51900
H  46.39700 28.92000 25.54600
H  44.95000 29.88700 25.02200
H  44.42200 33.08100 29.91000
H  45.58000 31.59000 33.74300
H  44.33600 30.47400 33.24300
H  43.92600 32.07800 33.98900
Mg 17.26000 52.12400 26.33700
C  19.17200 50.77300 28.99000
C  14.84500 52.82800 28.70700
C  15.11500 52.92700 23.83900
C  19.42100 50.75000 24.07500
N  17.09800 51.80200 28.59200
C  17.97900 51.34500 29.45100
C  17.52000 51.56600 30.97200
C  16.07400 51.98500 30.75200
C  16.00400 52.28900 29.22600
C  15.04600 50.92700 31.19400
C  18.45900 52.56200 31.78500
C  18.72900 52.23800 33.31200
H  17.62300 51.63300 34.03600
N  15.33000 52.94100 26.30700
C  14.49300 53.14400 27.34000
C  13.28800 53.73700 26.85300
C  13.33500 53.80400 25.43100
C  14.63800 53.18900 25.13400
C  12.18600 54.11600 27.86100
C  12.34000 54.35200 24.44100
O  12.53200 54.51800 23.20900
C  10.99800 54.89200 24.90900
N  17.26700 52.02200 24.27800
C  16.26900 52.26000 23.42800
C  16.61000 51.88400 21.99500
C  18.08700 51.45400 22.09600
C  18.30600 51.44800 23.56700
C  15.77800 50.99000 21.11700
C  18.94200 52.48800 21.36400
C  19.24000 53.91000 21.91500
N  19.01100 51.14700 26.43200
C  19.81300 50.62200 25.40700
C  20.91300 49.92800 25.90800
C  20.73200 49.96800 27.32000
C  19.56100 50.74400 27.60800
C  22.09600 49.39800 25.09800
C  21.31000 49.54800 28.55000
O  22.26900 48.87200 28.81800
C  20.41700 50.18600 29.68000
C  20.12300 49.04200 30.76700
O  19.51000 48.00300 30.64300
O  20.56900 49.43300 31.96800
C  20.51100 48.49500 33.06900
H  14.09700 53.00200 29.48300
H  14.55900 53.29000 22.97300
H  20.07000 50.35800 23.28900
H  17.48400 50.60500 31.48700
H  15.83200 52.90700 31.28000
H  15.52100 50.13500 31.77300
H  14.66300 50.38000 30.33300
H  14.23600 51.34800 31.78900
H  18.06200 53.57100 31.67400
H  19.40800 52.51000 31.25100
H  18.99200 53.22600 33.69000
H  19.55200 51.54400 33.48000
H  12.37300 55.18300 27.97900
H  12.32700 53.51200 28.75800
H  11.17200 53.93500 27.50700
H  11.14300 55.70200 25.62400
H  10.48400 54.03400 25.34300
H  10.45200 55.35800 24.09000
H  16.60700 52.88200 21.55800
H  18.33300 50.47200 21.69200
H  16.22400 50.10300 20.66600
H  15.26500 51.61500 20.38600
H  14.99300 50.59100 21.75900
H  18.46900 52.65500 20.39600
H  19.92600 52.03300 21.24900
H  20.23800 54.08900 22.31500
H  18.43600 54.29100 22.54500
H  19.13100 54.58800 21.06900
H  22.10500 49.99400 24.18600
H  21.79600 48.35900 24.96200
H  23.02700 49.37900 25.66500
H  21.07100 50.96400 30.07200
H  21.22700 48.91300 33.77700
H  20.66300 47.41700 33.03300
H  19.55300 48.46300 33.58700

