158

Mg 15.62600 52.24400 26.00800
C  17.66700 51.22400 28.58500
C  13.01700 52.64100 28.02700
C  13.73200 52.72300 23.28900
C  18.34300 51.13400 23.79200
N  15.35600 51.90400 28.04500
C  16.33400 51.70500 28.95100
C  15.80400 51.96000 30.38300
C  14.26100 52.10200 30.15900
C  14.16700 52.25400 28.69200
C  13.47500 50.91400 30.58800
C  16.42700 53.20100 30.99300
C  16.65200 53.13900 32.60700
H  16.03200 52.07700 33.40600
N  13.67200 52.76300 25.74800
C  12.71900 52.88900 26.67700
C  11.49500 53.41400 26.14000
C  11.59100 53.36100 24.74300
C  13.08800 52.94700 24.48900
C  10.27300 53.69600 27.01300
C  10.46100 53.50900 23.66700
O  10.58500 53.26300 22.50400
C  9.05600 53.93200 24.07500
N  15.99900 52.02900 23.81700
C  15.02300 52.36200 22.95700
C  15.52800 52.26100 21.51500
C  17.04400 51.86600 21.66400
C  17.16400 51.72700 23.21000
C  14.73400 51.30700 20.54100
C  18.05500 52.89300 21.05700
C  19.26100 52.27700 20.22400
N  17.55300 51.25500 26.09900
C  18.59400 51.01700 25.16400
C  19.75800 50.49300 25.82300
C  19.43500 50.53200 27.19300
C  18.08700 51.00100 27.29300
C  21.03500 50.10400 25.07900
C  19.91000 50.27400 28.52100
O  21.06800 49.98200 28.87200
C  18.77100 50.72600 29.47800
C  18.41100 49.49800 30.24200
O  17.90900 48.49200 29.72500
O  18.66500 49.66300 31.56400
C  18.20300 48.63800 32.48600
H  12.22800 53.00100 28.69100
H  13.13200 52.91900 22.39800
H  19.20100 51.04600 23.12300
H  15.99900 51.10700 31.03300
H  13.89300 53.03100 30.59600
H  12.72200 51.16900 31.33400
H  14.09600 50.09100 30.94200
H  12.89700 50.48300 29.77000
H  15.88300 54.11800 30.76600
H  17.43300 53.18500 30.57500
H  16.31800 54.10700 32.98100
H  17.73100 53.06100 32.74000
H  10.41300 53.68500 28.09400
H  9.50000 52.93300 26.92000
H  9.87500 54.66100 26.70000
H  9.05500 54.99900 24.29400
H  8.61400 53.38900 24.91000
H  8.52400 53.70200 23.15100
H  15.46900 53.29400 21.17100
H  17.20800 50.94300 21.10800
H  13.80500 51.02800 21.03900
H  15.36600 50.45900 20.27600
H  14.49300 51.86700 19.63800
H  18.43900 53.56100 21.82700
H  17.54100 53.44600 20.27100
H  19.35900 51.19700 20.32800
H  20.12600 52.69200 20.74100
H  19.34100 52.63000 19.19600
H  21.16700 50.63700 24.13800
H  21.02000 49.02500 24.92500
H  21.84800 50.30500 25.77600
H  19.22000 51.36300 30.24000
H  18.81000 47.73300 32.50500
H  17.23400 48.30200 32.11600
H  17.96400 49.01000 33.48200
Mg 8.71800 47.70700 25.35000
C  6.55200 47.81000 27.95000
C  11.32700 48.84800 27.44300
C  10.72600 48.51600 22.68000
C  6.00200 47.34300 23.15200
N  8.87200 48.26100 27.52100
C  7.87900 48.07400 28.43100
C  8.40700 48.24600 29.86200
C  9.79900 48.94800 29.62000
C  10.05300 48.69400 28.08300
C  9.86000 50.44200 30.00500
C  8.54400 46.91700 30.70200
C  9.27600 47.15400 32.08400
H  8.90100 46.27300 33.26100
N  10.81200 48.22900 25.10400
C  11.70500 48.64300 26.07200
C  13.06400 48.78200 25.58900
C  12.89500 48.62900 24.15800
C  11.39000 48.46400 23.90300
C  14.21600 49.17100 26.46500
C  13.98900 48.45700 23.11000
O  13.73000 48.15300 21.98900
C  15.39600 48.62100 23.52000
N  8.37700 47.99600 23.22600
C  9.37200 48.26000 22.30700
C  8.80300 48.41600 20.84600
C  7.31100 48.09800 21.07600
C  7.20000 47.78600 22.56800
C  8.95200 49.77500 20.16900
C  6.70100 46.79900 20.30200
C  5.39400 46.94600 19.51700
N  6.69900 47.49500 25.44900
C  5.73200 47.34300 24.53700
C  4.40000 47.11900 25.15200
C  4.70700 47.40300 26.50800
C  6.08800 47.54100 26.64000
C  3.11600 46.80300 24.52600
C  4.16000 47.52300 27.81800
O  3.01000 47.51500 28.27700
C  5.34000 47.71100 28.84300
C  5.43400 46.44900 29.67600
O  5.62300 45.31000 29.24600
O  5.08600 46.66400 31.01300
C  4.82400 45.45600 31.79300
H  12.05000 49.21400 28.17500
H  11.44900 48.90400 21.96000
H  5.10900 47.11700 22.56500
H  7.69800 48.89600 30.37500
H  10.62700 48.44400 30.11700
H  10.39700 50.60200 30.94000
H  8.84800 50.83000 30.11900
H  10.39500 50.97400 29.21900
H  8.92600 46.07200 30.12900
H  7.53900 46.62800 31.00900
H  9.09100 48.21600 32.24300
H  10.32700 46.97900 31.85400
H  13.97500 49.43900 27.49300
H  14.80000 49.98100 26.02800
H  14.91200 48.33500 26.52900
H  15.45500 49.54400 24.09700
H  15.97800 48.77200 22.61100
H  15.68800 47.63900 23.89300
H  9.25400 47.67600 20.18400
H  6.67300 48.95700 20.86800
H  9.81600 49.96100 19.53100
H  8.99500 50.48000 20.99900
H  8.03200 50.00400 19.63100
H  6.61200 45.94800 20.97700
H  7.51600 46.62000 19.60000
H  5.58800 47.66100 18.71700
H  4.72700 47.52900 20.15200
H  4.95100 46.07900 19.02600
H  3.34000 46.26000 23.60800
H  2.40600 47.62600 24.45300
H  2.65100 46.09200 25.20900
H  5.07400 48.57200 29.45600
H  3.97400 45.72900 32.41800
H  5.64400 45.31600 32.49800
H  4.71400 44.45400 31.37800

