158

Mg -1.44100 17.27500 27.21100
C  -2.31600 15.30600 30.06900
C  -1.92800 20.01000 29.33000
C  -0.91500 19.18500 24.67300
C  -1.33500 14.40700 25.30200
N  -1.99200 17.60400 29.47500
C  -2.21700 16.62000 30.45800
C  -2.43400 17.22800 31.84900
C  -2.57900 18.70900 31.49300
C  -2.14100 18.78900 30.02300
C  -3.94800 19.50000 31.69900
C  -1.37400 16.98000 32.99600
C  -1.99600 16.59600 34.33900
H  -1.01400 16.42400 35.46400
N  -1.36600 19.34600 27.00900
C  -1.50600 20.28300 28.02100
C  -1.24100 21.59000 27.39900
C  -0.92600 21.38600 26.01400
C  -1.12000 19.95400 25.85700
C  -1.47100 22.91500 28.11500
C  -0.50600 22.32900 24.95300
O  -0.24900 21.97300 23.82100
C  -0.34600 23.79500 25.20300
N  -1.45800 16.91800 25.27100
C  -1.09800 17.86500 24.37700
C  -0.94300 17.33300 22.92500
C  -0.72900 15.85300 23.25200
C  -1.14700 15.68400 24.73600
C  -2.02000 17.63200 21.92500
C  0.68000 15.26800 22.98600
C  1.70500 15.75000 24.06400
N  -1.72400 15.21500 27.54700
C  -1.66400 14.15700 26.65900
C  -1.91900 12.96700 27.43300
C  -2.24700 13.37100 28.74700
C  -2.11900 14.74700 28.77200
C  -2.09500 11.48900 26.89400
C  -2.63900 12.87600 30.01100
O  -2.80100 11.74600 30.42700
C  -2.61900 14.07400 30.99000
C  -1.58700 13.74300 32.05900
O  -0.32400 13.74100 32.00300
O  -2.31000 13.42900 33.19700
C  -1.57900 13.01900 34.46100
H  -2.14400 20.90600 29.91600
H  -0.74500 19.74300 23.74900
H  -1.30500 13.53700 24.64200
H  -3.37300 16.84700 32.24900
H  -1.83600 19.22900 32.09800
H  -4.76000 18.89500 32.10200
H  -4.23100 19.85900 30.71000
H  -3.89600 20.38800 32.33000
H  -0.70200 17.82800 33.13000
H  -0.66400 16.24500 32.61800
H  -2.40000 15.58400 34.32100
H  -2.75700 17.33800 34.57900
H  -0.55600 23.14600 28.66100
H  -2.26300 22.80900 28.85600
H  -1.60900 23.83400 27.54500
H  0.44800 23.79400 25.95000
H  -1.37000 24.08600 25.44000
H  -0.03900 24.33200 24.30600
H  -0.03100 17.73500 22.48400
H  -1.48600 15.30600 22.69100
H  -2.93600 18.08900 22.29900
H  -2.22100 16.70800 21.38200
H  -1.62600 18.27400 21.13700
H  1.05300 15.78500 22.10200
H  0.67200 14.18400 22.87600
H  1.36500 16.58500 24.67800
H  2.66500 16.04200 23.64000
H  1.93300 14.92900 24.74400
H  -1.40800 11.27700 26.07400
H  -3.06700 11.34600 26.42300
H  -1.90800 10.84200 27.75100
H  -3.59300 14.04300 31.47700
H  -0.68000 13.58900 34.69500
H  -1.38800 11.95200 34.57500
H  -2.27900 13.32000 35.24100
Mg 45.95800 16.63600 27.13100
C  44.34100 16.38400 30.23200
C  48.31700 18.70600 28.55300
C  46.83800 17.67700 23.97600
C  43.15800 15.01500 25.74200
N  46.22200 17.52700 29.16700
C  45.54200 17.17300 30.29800
C  46.22000 17.70000 31.56800
C  47.40500 18.60500 30.93000
C  47.38600 18.19200 29.45800
C  47.17300 20.07600 31.20700
C  46.61100 16.70300 32.57700
C  46.74500 17.15600 34.10600
H  46.54700 18.64500 34.50900
N  47.50900 17.81700 26.33900
C  48.36600 18.55500 27.10100
C  49.35300 19.15500 26.23400
C  48.95200 18.87900 24.89400
C  47.70900 18.16700 25.00300
C  50.59700 19.97600 26.67300
C  49.54100 19.41400 23.63800
O  49.00100 19.20200 22.51600
C  50.79900 20.19500 23.61300
N  45.19900 16.31500 25.11700
C  45.70200 16.85000 23.98400
C  45.05300 16.34800 22.80000
C  44.09900 15.22400 23.42700
C  44.08100 15.65300 24.84000
C  44.41200 17.58700 22.07500
C  44.62700 13.73000 23.39100
C  43.68200 12.74800 22.63400
N  44.10700 15.85000 27.79800
C  43.16000 15.08900 27.15600
C  42.07700 14.70900 28.08200
C  42.51200 15.12200 29.30800
C  43.78500 15.80100 29.08900
C  40.73400 14.20500 27.65100
C  42.23800 15.21400 30.70200
O  41.21000 14.89000 31.34400
C  43.36800 16.06800 31.39600
C  42.76400 17.19000 32.31100
O  42.39700 18.28400 31.95800
O  42.72500 16.66900 33.57800
C  42.30700 17.57300 34.65500
H  49.18200 19.16200 29.03800
H  47.12400 17.78700 22.92800
H  42.48800 14.34600 25.19700
H  45.42700 18.28900 32.03000
H  48.34400 18.37900 31.43700
H  46.18700 20.11700 31.67000
H  47.13700 20.77100 30.36800
H  47.89800 20.30900 31.98600
H  47.59700 16.35000 32.27400
H  45.91700 15.86700 32.48200
H  47.78100 16.91400 34.34200
H  46.09600 16.52200 34.71000
H  51.47200 19.50100 26.22900
H  50.64200 20.10900 27.75400
H  50.57500 20.99700 26.29100
H  50.74800 21.14500 24.14500
H  50.81900 20.60200 22.60200
H  51.63100 19.52900 23.84100
H  45.73400 15.97600 22.03500
H  43.05400 15.18000 23.12100
H  44.55900 18.51400 22.62900
H  43.33200 17.44100 22.04300
H  44.72900 17.79900 21.05400
H  44.87700 13.31900 24.36900
H  45.54500 13.73100 22.80300
H  44.11200 12.50100 21.66300
H  42.71600 13.00000 22.19700
H  43.52300 11.83600 23.20900
H  40.63700 14.50900 26.60900
H  39.91200 14.72900 28.13800
H  40.70500 13.11800 27.72300
H  43.89300 15.37000 32.04800
H  42.86600 18.50800 34.62600
H  42.49700 17.07600 35.60600
H  41.22300 17.67600 34.61300

