158

Mg 47.80700 16.31200 27.94900
C  45.91200 15.98800 30.91100
C  49.89700 18.40800 29.65400
C  49.23800 17.01500 24.98500
C  45.25700 14.46400 26.31800
N  47.89100 17.05400 30.06600
C  47.02600 16.78600 31.07800
C  47.52800 17.36800 32.46700
C  48.61000 18.36600 31.89400
C  48.82400 17.99500 30.41200
C  48.17500 19.80200 32.03900
C  48.02000 16.32600 33.51400
C  47.83800 16.83500 35.00400
H  47.63000 18.27600 35.35400
N  49.50900 17.42800 27.48100
C  50.24600 18.18500 28.33300
C  51.41600 18.73800 27.65500
C  51.20800 18.42500 26.23900
C  49.91600 17.63000 26.12100
C  52.55700 19.41600 28.41800
C  52.16000 18.72200 25.08800
O  51.89400 18.28500 23.95000
C  53.42100 19.55100 25.31000
N  47.37600 15.78700 25.97100
C  48.09000 16.20300 24.91700
C  47.54700 15.64100 23.61200
C  46.30800 14.80700 24.10000
C  46.35500 14.96800 25.59000
C  47.20000 16.68800 22.54400
C  46.35700 13.29900 23.65000
C  45.73300 13.13500 22.25200
N  45.89300 15.50600 28.45200
C  44.94500 14.77900 27.70300
C  43.82200 14.44900 28.50400
C  44.20800 14.81900 29.79200
C  45.43500 15.51100 29.70600
C  42.66700 13.56200 28.09000
C  43.73700 14.77200 31.17500
O  42.75800 14.31700 31.74800
C  44.89500 15.53000 31.90900
C  44.29700 16.73000 32.67100
O  44.03200 17.84100 32.17900
O  44.05100 16.30400 34.00000
C  43.48600 17.36900 34.87000
H  50.57600 19.05100 30.21700
H  49.68200 17.24600 24.01400
H  44.52200 13.75100 25.94000
H  46.64200 17.90900 32.79800
H  49.56700 18.24500 32.40000
H  47.40400 20.15600 32.72300
H  48.04400 20.28400 31.07100
H  49.04100 20.31000 32.46400
H  49.05500 16.09300 33.26500
H  47.39800 15.44900 33.33600
H  48.62600 16.52200 35.68700
H  46.97000 16.29500 35.38000
H  53.43700 18.78200 28.30300
H  52.46900 19.35300 29.50200
H  52.67700 20.42000 28.01200
H  53.58900 20.03500 24.34800
H  54.24100 18.91700 25.64900
H  53.17200 20.35400 26.00400
H  48.25300 14.93400 23.17600
H  45.40300 15.26900 23.70600
H  47.82700 16.63500 21.65400
H  47.41800 17.69100 22.91100
H  46.18200 16.61600 22.16000
H  45.92400 12.60200 24.36700
H  47.40900 13.01300 23.67200
H  44.87600 12.49300 22.45600
H  46.44500 12.74900 21.52300
H  45.32500 14.04800 21.81700
H  43.06300 12.74100 27.49300
H  42.01300 14.26400 27.57300
H  42.11200 13.13900 28.92800
H  45.29700 14.80100 32.61200
H  42.42900 17.39400 34.60600
H  44.06300 18.29300 34.83600
H  43.47400 17.09600 35.92500
Mg 47.63400 25.16000 28.08000
C  48.17200 27.43500 30.69600
C  46.53900 22.86600 30.46900
C  47.46400 22.93800 25.60700
C  48.88700 27.47700 25.86700
N  47.39100 25.16300 30.27600
C  47.64400 26.26400 31.17400
C  47.32700 25.93500 32.65600
C  46.93900 24.41900 32.49000
C  46.90200 24.12800 30.98900
C  47.92000 23.44100 33.20900
C  46.24100 26.88900 33.18200
C  46.35900 27.32600 34.63100
H  45.11300 27.27700 35.59000
N  47.03800 23.12100 28.00500
C  46.64000 22.37500 29.10500
C  46.07200 21.16100 28.55100
C  46.45800 21.13000 27.13200
C  46.98100 22.41000 26.80800
C  45.38700 20.01400 29.33200
C  46.25000 19.98700 26.16400
O  46.75100 20.01300 25.07200
C  45.37700 18.84200 26.40000
N  48.19000 25.19400 26.08400
C  47.98500 24.15400 25.21000
C  48.32100 24.48700 23.77800
C  48.52100 25.96700 23.85700
C  48.48400 26.21500 25.35200
C  49.39200 23.65300 23.15300
C  47.48900 26.81500 23.10800
C  46.44400 27.64300 23.87400
N  48.25500 27.16100 28.22000
C  48.80700 27.96100 27.20100
C  49.23900 29.23900 27.76900
C  49.01300 29.08000 29.18500
C  48.50800 27.74600 29.38200
C  50.04100 30.32300 27.06600
C  49.14100 29.73400 30.42100
O  49.55700 30.87000 30.68100
C  48.46300 28.75500 31.46100
C  49.38500 28.69500 32.63000
O  50.39800 27.97800 32.79700
O  49.08000 29.70500 33.44300
C  49.84900 29.69600 34.72600
H  46.14900 22.16500 31.20900
H  47.42800 22.23700 24.77000
H  49.20600 28.20200 25.11500
H  48.21300 26.10700 33.26800
H  45.92900 24.26100 32.86600
H  48.31700 22.63100 32.59800
H  47.20900 23.04000 33.93100
H  48.63900 24.07800 33.72500
H  45.29400 26.40700 32.93600
H  46.15600 27.71300 32.47400
H  46.61600 28.38500 34.62800
H  47.09100 26.71400 35.15800
H  45.94500 19.07700 29.31500
H  44.39300 19.85000 28.91500
H  45.20700 20.33200 30.35800
H  45.96300 18.30300 27.14400
H  45.27700 18.22300 25.50900
H  44.42900 19.20900 26.79300
H  47.41500 24.18600 23.25100
H  49.42900 26.26600 23.33300
H  48.87500 23.16300 22.32800
H  49.65900 22.89500 23.89000
H  50.19700 24.23400 22.70400
H  46.96400 26.20200 22.37700
H  47.95000 27.48200 22.37900
H  46.49200 27.55700 24.96000
H  45.48200 27.34500 23.45800
H  46.60200 28.71200 23.73400
H  50.34000 29.89600 26.10800
H  50.80800 30.34800 27.84000
H  49.52900 31.28600 27.06700
H  47.55900 29.24300 31.82800
H  49.68900 30.51400 35.42800
H  50.92400 29.55900 34.61400
H  49.50500 28.76000 35.16600

