158

Mg 9.13800 3.75400 27.45800
C  10.47400 2.21600 30.35300
C  7.56700 5.99600 29.39700
C  7.72800 4.95700 24.79400
C  10.46300 1.08100 25.51900
N  8.89800 3.90300 29.62600
C  9.62600 3.29800 30.61900
C  9.38800 3.93800 32.00200
C  8.20000 4.94900 31.68100
C  8.29200 5.02200 30.12900
C  6.83400 4.51300 32.14600
C  10.66400 4.48900 32.60100
C  11.07500 3.98000 34.02100
H  11.34800 5.05800 35.06100
N  7.92300 5.40700 27.10600
C  7.42500 6.23600 28.11700
C  6.49800 7.21200 27.49200
C  6.60300 6.98700 26.07100
C  7.38700 5.74200 25.93900
C  5.67400 8.26800 28.27200
C  6.07400 7.69200 24.81500
O  6.44900 7.44100 23.66800
C  5.09700 8.78600 24.98800
N  9.17900 3.10300 25.42200
C  8.42700 3.80200 24.51800
C  8.47100 3.24800 23.08500
C  9.37100 1.95600 23.33100
C  9.71300 2.07700 24.86600
C  7.13900 3.06500 22.34200
C  10.61000 1.71600 22.38100
C  10.49100 0.40100 21.68700
N  10.33900 2.06300 27.78100
C  10.82800 1.06200 26.91200
C  11.62900 0.11800 27.62400
C  11.59200 0.57000 29.00800
C  10.75700 1.69100 29.05700
C  12.31400 -0.99000 26.98600
C  11.93500 0.28200 30.31900
O  12.56800 -0.67700 30.75100
C  11.29500 1.35800 31.28400
C  10.34600 0.64800 32.28500
O  9.44700 -0.12700 32.02900
O  10.66900 1.07300 33.57200
C  9.95100 0.39100 34.64600
H  7.01200 6.65500 30.06700
H  7.30800 5.34400 23.86400
H  10.90500 0.30900 24.88600
H  9.02400 3.16400 32.67900
H  8.28700 5.94800 32.10700
H  6.18100 4.80000 31.32100
H  6.55500 5.12900 33.00100
H  6.79200 3.48100 32.49500
H  10.61800 5.56700 32.75400
H  11.47700 4.30500 31.89900
H  11.97700 3.48400 33.66300
H  10.24800 3.45200 34.49600
H  5.82600 8.40600 29.34300
H  4.64000 8.08600 27.98100
H  5.84600 9.25400 27.84200
H  5.70100 9.65700 25.24500
H  4.53900 8.60100 25.90500
H  4.41900 8.91700 24.14400
H  8.99800 4.04100 22.55400
H  8.71800 1.08600 23.38000
H  6.96900 3.78100 21.53800
H  6.25500 3.26100 22.94800
H  7.15100 2.04500 21.95700
H  11.57900 1.67900 22.87900
H  10.63400 2.64800 21.81700
H  9.57000 -0.17400 21.78400
H  11.34000 -0.20400 22.00700
H  10.58100 0.72500 20.65100
H  12.33400 -1.68800 27.82400
H  13.30500 -0.72500 26.61800
H  11.69200 -1.43100 26.20800
H  11.96300 2.04100 31.80900
H  10.68900 -0.04600 35.31800
H  9.33200 -0.45400 34.34500
H  9.35600 1.16700 35.12700
Mg -11.46800 15.65000 41.15000
C  -7.88600 15.13000 40.90200
C  -10.91600 18.86400 40.15500
C  -14.70100 15.83000 40.72800
C  -11.68700 12.15500 41.66500
N  -9.57700 16.79700 40.51900
C  -8.24500 16.43600 40.56900
C  -7.32900 17.50900 39.98500
C  -8.35600 18.72100 39.91900
C  -9.73300 18.08500 40.18200
C  -8.12800 19.79400 41.00600
C  -6.67200 17.10400 38.67800
C  -5.23800 17.36500 38.52500
H  -4.62600 17.52200 37.15800
N  -12.63200 17.16200 40.61300
C  -12.25400 18.46200 40.31200
C  -13.33900 19.29800 40.31200
C  -14.50600 18.51500 40.39600
C  -14.01400 17.07000 40.57800
C  -13.18800 20.74000 40.01800
C  -15.96500 18.99800 40.26500
O  -16.15300 20.21000 40.16700
C  -17.18400 18.08300 40.40200
N  -12.92700 14.11400 41.09900
C  -14.27800 14.47900 40.95600
C  -15.12100 13.38400 41.38800
C  -14.17600 12.15500 41.19400
C  -12.84700 12.86800 41.35800
C  -15.80000 13.62600 42.76800
C  -14.49100 11.28900 39.95300
C  -15.13900 9.92400 40.29900
N  -10.12900 13.94800 41.29300
C  -10.39600 12.62700 41.58300
C  -9.14900 11.85300 41.74000
C  -8.12700 12.85400 41.49100
C  -8.81700 14.10000 41.22600
C  -9.00500 10.36600 42.18200
C  -6.69700 13.06800 41.45200
O  -5.73800 12.40000 41.80600
C  -6.54700 14.53700 41.03300
C  -5.76700 15.16900 42.14900
O  -6.19600 15.36900 43.27000
O  -4.39900 15.27800 41.87200
C  -3.39200 15.47500 42.94100
H  -10.74500 19.87600 39.78200
H  -15.78300 15.93400 40.82500
H  -11.93300 11.10800 41.85200
H  -6.56200 17.70500 40.73400
H  -8.36600 19.18300 38.93200
H  -7.05900 20.00600 40.98100
H  -8.43500 19.41300 41.98000
H  -8.69200 20.70700 40.81500
H  -7.22900 17.68900 37.94700
H  -6.82400 16.03700 38.51500
H  -4.66200 16.69500 39.16200
H  -5.11900 18.29500 39.08100
H  -14.07400 21.35000 39.84400
H  -12.50300 20.91100 39.18800
H  -12.76800 21.25800 40.88000
H  -18.07000 18.68700 40.20700
H  -17.21200 17.69100 41.41900
H  -17.01900 17.20700 39.77400
H  -16.01600 13.31600 40.77000
H  -14.24300 11.65300 42.15900
H  -15.24500 13.29500 43.64600
H  -16.86400 13.39200 42.79500
H  -15.63600 14.69600 42.89400
H  -13.57900 11.07500 39.39500
H  -15.15600 11.96500 39.41500
H  -14.38400 9.14200 40.37800
H  -15.92000 9.72500 39.56500
H  -15.62200 9.97400 41.27500
H  -9.63000 9.86000 41.44700
H  -9.55700 10.31600 43.12000
H  -7.94400 10.12200 42.11600
H  -6.00200 14.48800 40.09000
H  -2.85100 16.39800 42.73200
H  -2.83200 14.55800 43.12700
H  -3.90200 15.68600 43.88100

