158

Mg 47.11300 17.40900 28.02100
C  45.34200 16.93200 30.91700
C  49.38600 19.21600 29.85000
C  48.68700 18.17300 25.22200
C  44.69000 15.66000 26.28300
N  47.20800 18.06400 30.13900
C  46.49900 17.68300 31.18000
C  47.03800 18.21600 32.50200
C  48.17500 19.16800 32.00300
C  48.30500 18.75700 30.55400
C  47.83500 20.65300 32.26200
C  47.46800 17.19800 33.62800
C  46.57000 17.16700 34.90000
H  46.16400 18.52800 35.51200
N  48.85800 18.44400 27.60800
C  49.63900 19.11200 28.47800
C  50.87600 19.54500 27.82900
C  50.73100 19.11600 26.46900
C  49.37200 18.66400 26.36200
C  51.98400 20.21500 28.61100
C  51.67900 19.20300 25.30100
O  51.44800 18.90100 24.15100
C  52.89100 19.93800 25.53400
N  46.76000 16.84400 26.10700
C  47.50000 17.48300 25.06100
C  47.00700 17.08400 23.70300
C  45.99700 15.97400 24.09400
C  45.81600 16.08600 25.62100
C  46.41900 18.21500 22.67500
C  46.25500 14.53600 23.52500
C  45.25500 14.00200 22.49300
N  45.39200 16.32500 28.44800
C  44.39300 15.77000 27.66000
C  43.27000 15.38100 28.47600
C  43.66300 15.73500 29.77200
C  44.86700 16.37500 29.64500
C  41.99900 14.79400 28.02700
C  43.18600 15.70300 31.10600
O  42.12600 15.29300 31.52600
C  44.31500 16.46100 31.96800
C  43.65500 17.58500 32.70800
O  43.47400 18.71100 32.30800
O  43.01500 17.04200 33.84400
C  42.07200 17.94400 34.49000
H  49.99900 19.89700 30.44400
H  49.06900 18.60900 24.29700
H  43.93300 15.17000 25.66700
H  46.18600 18.79400 32.85800
H  49.07600 18.91600 32.56200
H  46.93300 20.84200 32.84300
H  47.66000 21.17100 31.31900
H  48.62300 21.15100 32.82700
H  48.52100 17.32500 33.88000
H  47.54200 16.18300 33.23800
H  47.04600 16.49200 35.61100
H  45.70900 16.59700 34.55200
H  52.31000 21.03200 27.96700
H  52.83200 19.56700 28.83700
H  51.68000 20.76600 29.50000
H  52.63500 20.88100 26.01600
H  53.14600 20.26900 24.52700
H  53.73000 19.38000 25.94900
H  47.80900 16.54600 23.19800
H  45.02500 16.25800 23.69100
H  46.99600 18.31500 21.75500
H  46.34700 19.21400 23.10400
H  45.44700 17.89200 22.30300
H  46.37400 13.84300 24.35800
H  47.21500 14.44900 23.01500
H  44.43000 14.71400 22.47600
H  44.77200 13.12200 22.91700
H  45.72700 13.76300 21.54000
H  42.14000 13.93300 27.37300
H  41.43900 15.55400 27.48100
H  41.29800 14.53300 28.82000
H  44.72600 15.75400 32.68900
H  42.51800 18.77400 35.03700
H  41.44000 17.31200 35.11400
H  41.37800 18.33500 33.74600
Mg 37.78200 50.00800 25.09300
C  38.21300 48.05100 28.00700
C  36.07000 52.35600 26.86200
C  36.78800 51.54700 22.15700
C  38.97900 47.34800 23.16000
N  37.05200 50.01800 27.25800
C  37.54000 49.29000 28.26900
C  37.22200 49.83500 29.65100
C  36.50400 51.22800 29.19900
C  36.58700 51.24500 27.70900
C  35.02000 51.22100 29.75600
C  38.55900 50.04300 30.49300
C  38.33300 49.73300 32.06000
H  36.90000 49.87600 32.69100
N  36.76900 51.89000 24.58300
C  36.07600 52.69100 25.46300
C  35.64600 53.82300 24.77200
C  35.83500 53.57100 23.37500
C  36.43100 52.29000 23.25700
C  35.09800 55.06400 25.45500
C  35.59000 54.48900 22.19000
O  35.79800 54.14500 21.04200
C  34.97500 55.89700 22.45900
N  37.70100 49.43800 22.96000
C  37.45900 50.34800 21.95100
C  37.89800 49.81200 20.56100
C  38.80900 48.60300 20.92100
C  38.47800 48.43800 22.43800
C  36.78000 49.53000 19.57300
C  40.20500 48.77700 20.31300
C  41.40700 49.25200 21.13600
N  38.36900 48.10900 25.41200
C  38.86100 47.15100 24.56300
C  39.32700 45.96900 25.25800
C  39.17800 46.33800 26.63000
C  38.49900 47.60000 26.67700
C  39.68800 44.66600 24.76300
C  39.27600 45.87800 28.00700
O  39.75500 44.80100 28.34600
C  38.64600 46.98400 29.01400
C  37.56900 46.33800 29.76400
O  36.42600 46.06000 29.39500
O  37.96900 46.13000 31.02000
C  36.95200 45.83100 31.98300
H  35.68900 53.11100 27.55300
H  36.51400 51.99000 21.19800
H  39.56600 46.65900 22.55000
H  36.50600 49.12400 30.06300
H  36.94200 52.13300 29.61900
H  34.89900 51.97200 30.53700
H  34.69600 50.24700 30.12200
H  34.36600 51.53200 28.94200
H  38.87400 51.08000 30.37700
H  39.37000 49.39100 30.16800
H  38.99900 50.43300 32.56500
H  38.59000 48.70200 32.30400
H  34.03600 54.82700 25.52100
H  35.42400 56.05900 25.15200
H  35.48400 55.08900 26.47400
H  33.97800 55.77100 22.88100
H  34.78000 56.43300 21.53000
H  35.67100 56.56400 22.96800
H  38.39500 50.67900 20.12700
H  38.41600 47.72500 20.40700
H  36.87000 50.28500 18.79100
H  35.85200 49.74500 20.10200
H  36.73300 48.52500 19.15400
H  40.12900 49.46400 19.47000
H  40.57500 47.84800 19.88100
H  41.28600 50.30700 21.38300
H  42.29100 49.27100 20.50000
H  41.55800 48.57600 21.97800
H  39.98500 44.06600 25.62300
H  40.47300 44.69200 24.00700
H  38.83200 44.10800 24.38200
H  39.42500 47.33400 29.69200
H  36.59200 44.85600 31.65500
H  36.14500 46.55800 32.07000
H  37.46600 45.61300 32.91900

