158

Mg 0.35300 7.85300 25.23600
C  1.16700 10.04300 27.87500
C  0.36600 5.12400 27.39300
C  -0.61600 5.95100 22.77100
C  0.60900 10.66400 23.03200
N  0.90200 7.61000 27.29700
C  1.00500 8.68100 28.20200
C  1.13600 8.04600 29.62700
C  0.98200 6.57200 29.46700
C  0.68600 6.42400 27.97700
C  2.20300 5.64300 29.92300
C  0.17600 8.57600 30.69100
C  0.53400 8.68100 32.16800
H  1.74900 7.92600 32.70300
N  -0.00200 5.80700 25.03200
C  0.01700 4.81900 26.02800
C  -0.37100 3.55500 25.51100
C  -0.65000 3.72200 24.11600
C  -0.50900 5.22800 23.91600
C  -0.48300 2.34600 26.40800
C  -0.85000 2.71700 23.09000
O  -0.98800 3.03900 21.93100
C  -0.83600 1.26300 23.35300
N  -0.03400 8.33200 23.24100
C  -0.37600 7.28500 22.48100
C  -0.55500 7.74300 21.01100
C  -0.28200 9.30800 21.10400
C  0.08900 9.44700 22.54700
C  0.21100 7.01400 19.93700
C  -1.45600 10.14500 20.66500
C  -1.17000 11.14100 19.55600
N  0.83100 9.92000 25.33700
C  0.96600 10.93800 24.34200
C  1.30300 12.19200 25.05800
C  1.36000 11.93000 26.44100
C  1.11600 10.47500 26.55800
C  1.43700 13.48100 24.41600
C  1.68400 12.38900 27.74800
O  2.12200 13.55800 28.06100
C  1.46300 11.20400 28.78700
C  2.66700 11.15600 29.65500
O  3.63000 10.45300 29.41100
O  2.46500 11.91000 30.80900
C  3.69300 12.01900 31.71600
H  0.25600 4.33000 28.13500
H  -0.97000 5.37500 21.91400
H  0.60300 11.49000 22.31800
H  2.12600 8.20800 30.05400
H  0.10300 6.28400 30.04500
H  2.89300 6.21600 30.54100
H  2.73900 5.20100 29.08200
H  1.88500 4.85700 30.60800
H  -0.81700 8.15200 30.53900
H  0.00300 9.60600 30.37900
H  -0.34000 8.28800 32.68800
H  0.53900 9.72100 32.49600
H  -1.49400 1.93700 26.40800
H  -0.32500 2.58000 27.46100
H  0.28400 1.58900 26.25100
H  -1.57100 0.99700 24.11200
H  0.09300 0.89900 23.79200
H  -0.96500 0.65600 22.45600
H  -1.62700 7.58600 20.89700
H  0.61600 9.53400 20.52900
H  -0.37200 6.18300 19.53900
H  1.14400 6.61900 20.33900
H  0.38000 7.76500 19.16500
H  -1.76600 10.76600 21.50500
H  -2.28300 9.51900 20.33000
H  -0.54400 10.80000 18.73200
H  -0.57900 11.82400 20.16600
H  -2.02200 11.71900 19.19600
H  0.68200 13.44400 23.63000
H  2.36100 13.47000 23.83800
H  1.40400 14.38500 25.02400
H  0.63000 11.51100 29.42000
H  4.58000 11.82500 31.11300
H  3.69300 11.38000 32.59900
H  3.90400 13.01400 32.10900
Mg 47.60200 25.38500 28.98800
C  48.40200 27.46900 31.72800
C  46.15700 23.12600 31.38700
C  47.34900 23.08300 26.61500
C  49.36400 27.45100 26.93500
N  47.55800 25.21800 31.29600
C  47.71000 26.32200 32.15200
C  47.09700 26.11200 33.51600
C  46.55400 24.60800 33.50200
C  46.75800 24.25000 31.93700
C  47.41400 23.66500 34.43400
C  45.94300 27.13100 33.91700
C  45.92300 27.72700 35.38200
H  46.87900 27.20500 36.48400
N  46.84300 23.39200 28.96300
C  46.26000 22.71100 30.01000
C  45.67100 21.48400 29.51900
C  45.99600 21.41500 28.11900
C  46.70300 22.66900 27.78400
C  45.02400 20.47600 30.26900
C  45.74100 20.30000 27.14400
O  46.15700 20.34100 25.95400
C  44.82400 19.09700 27.45100
N  48.41400 25.21500 27.09900
C  48.11800 24.23400 26.25100
C  48.65700 24.46000 24.89300
C  49.08100 25.92000 24.95600
C  48.99400 26.23800 26.42700
C  49.71900 23.40900 24.39100
C  48.24300 26.83700 24.05900
C  48.97100 27.72100 22.98100
N  48.71500 27.11800 29.24600
C  49.30100 27.89700 28.30700
C  49.85800 29.17900 28.88400
C  49.59100 29.00800 30.28700
C  48.85800 27.78200 30.36600
C  50.59900 30.14100 28.07500
C  49.63100 29.61100 31.61100
O  50.05200 30.71100 31.89300
C  48.92600 28.58800 32.53700
C  49.85500 28.19400 33.62100
O  50.49400 27.15500 33.78100
O  49.94900 29.28000 34.45200
C  50.77100 29.18200 35.67900
H  45.57800 22.48300 32.05300
H  47.27500 22.31800 25.83900
H  49.77600 28.10600 26.16400
H  47.83700 26.14100 34.31500
H  45.50300 24.50100 33.76900
H  46.80600 23.38700 35.29600
H  48.38400 24.04100 34.75900
H  47.58000 22.75500 33.85800
H  44.95700 26.70400 33.73100
H  46.04600 27.98800 33.25100
H  44.91300 27.81400 35.78000
H  46.22400 28.75300 35.17000
H  44.73700 20.63400 31.30900
H  45.47400 19.48800 30.36800
H  44.06600 20.31400 29.77600
H  45.25600 18.52700 28.27400
H  44.65100 18.54000 26.53000
H  43.91000 19.50200 27.88400
H  47.84200 24.38800 24.17200
H  50.11100 26.11100 24.65500
H  49.42700 22.81400 23.52600
H  49.91800 22.70800 25.20300
H  50.65900 23.87700 24.09900
H  47.64000 27.50000 24.67900
H  47.54300 26.31400 23.40800
H  48.57200 27.45300 22.00300
H  50.03500 27.56400 23.16000
H  48.81400 28.75200 23.29600
H  50.84900 29.73600 27.09400
H  51.45700 30.42100 28.68600
H  50.11700 31.11900 28.08600
H  48.10100 29.12000 33.00900
H  51.76500 28.78200 35.48000
H  50.24500 28.57800 36.42000
H  50.95700 30.16900 36.10100

