158

Mg 9.18700 4.64400 27.58000
C  10.59000 3.11200 30.22300
C  7.40900 6.63700 29.79800
C  7.48200 5.95600 24.94700
C  10.90400 2.52500 25.33400
N  9.05300 4.91900 29.84200
C  9.73600 4.16500 30.70500
C  9.38800 4.51100 32.18700
C  8.34100 5.68000 32.03200
C  8.29700 5.78900 30.47900
C  6.93800 5.42300 32.67400
C  10.74000 4.92800 32.95000
C  10.50600 5.58700 34.24500
H  11.19700 5.11200 35.53900
N  7.73200 6.12200 27.40100
C  7.10800 6.81800 28.36400
C  6.23900 7.89800 27.80400
C  6.24600 7.61100 26.42100
C  7.17100 6.53800 26.20400
C  5.43900 8.90400 28.62300
C  5.52600 8.34100 25.32100
O  5.66000 8.01800 24.14700
C  4.58100 9.38500 25.55200
N  9.20600 4.35400 25.47800
C  8.33000 4.89500 24.62700
C  8.59900 4.39400 23.19100
C  9.85300 3.46500 23.23300
C  10.03500 3.45100 24.81100
C  7.36700 3.84200 22.45400
C  11.05400 4.03700 22.39100
C  11.75100 3.04900 21.55600
N  10.53200 3.08100 27.64100
C  11.08100 2.31200 26.74500
C  11.94800 1.36300 27.39800
C  11.76900 1.56600 28.77300
C  10.89700 2.67100 28.84200
C  12.74700 0.36300 26.70200
C  12.13300 1.14400 30.16400
O  12.83400 0.26000 30.59400
C  11.37000 2.12900 31.10600
C  10.51300 1.35100 32.06800
O  9.37000 0.89200 31.82600
O  11.15500 1.26200 33.29600
C  10.29600 1.06100 34.44200
H  6.84700 7.31400 30.44400
H  7.14700 6.42300 24.01800
H  11.56000 1.86700 24.75900
H  8.79900 3.67100 32.55500
H  8.91800 6.52500 32.41000
H  6.76900 4.49600 33.22200
H  6.15100 5.47200 31.92100
H  6.69300 6.29100 33.28600
H  11.43000 5.53300 32.36200
H  11.23300 3.99500 33.22100
H  9.43100 5.51500 34.40800
H  10.76700 6.64000 34.13900
H  4.38900 8.64900 28.76700
H  5.57200 9.83600 28.07400
H  5.91100 9.04200 29.59500
H  3.64700 9.19600 26.08100
H  4.35200 9.71400 24.53800
H  5.11700 10.20300 26.03400
H  8.87400 5.26900 22.60300
H  9.68900 2.42800 22.93900
H  7.16900 4.40200 21.54000
H  6.54500 3.87600 23.16900
H  7.58700 2.81600 22.16100
H  11.66600 4.32600 23.24600
H  10.92400 5.03300 21.96800
H  12.55700 2.56900 22.11200
H  12.15900 3.62700 20.72700
H  11.11200 2.24400 21.19300
H  13.40800 0.71300 25.90900
H  12.07000 -0.18900 26.05000
H  13.27700 -0.32200 27.36300
H  12.07400 2.76300 31.64600
H  9.25100 1.21500 34.17100
H  10.61200 1.76400 35.21300
H  10.35300 0.03600 34.80800
Mg -1.95100 35.26500 27.27000
C  -3.95900 33.48000 29.66600
C  -0.98300 37.48500 29.67800
C  -0.60800 37.18500 24.76200
C  -3.44100 33.28300 24.84200
N  -2.41500 35.42100 29.42400
C  -3.09800 34.48800 30.22800
C  -3.15100 35.01700 31.63600
C  -2.23100 36.24500 31.60200
C  -1.83100 36.37900 30.10900
C  -2.79400 37.55500 32.25200
C  -2.93800 33.94600 32.80400
C  -1.93500 34.33400 33.92800
H  -1.98800 33.51500 35.16500
N  -0.87700 37.05900 27.26800
C  -0.49000 37.77700 28.33900
C  0.36800 38.88700 28.01000
C  0.46900 38.85100 26.56200
C  -0.36400 37.70800 26.14800
C  1.12900 39.69700 28.96000
C  1.18500 39.77800 25.58300
O  1.18700 39.62600 24.34800
C  1.93500 40.93100 26.11700
N  -2.04400 35.28600 25.03000
C  -1.47500 36.24500 24.21200
C  -1.60400 35.92100 22.68700
C  -2.38600 34.55600 22.83500
C  -2.55100 34.30500 24.34400
C  -2.26500 36.96600 21.76900
C  -1.80100 33.29600 22.25200
C  -2.72200 32.59800 21.22400
N  -3.42800 33.71300 27.21100
C  -3.88000 32.99600 26.17500
C  -4.70600 31.89100 26.64500
C  -4.82300 32.08000 27.99000
C  -4.02900 33.21500 28.31500
C  -5.31400 30.78900 25.74800
C  -5.39700 31.59500 29.26500
O  -6.04800 30.54900 29.45800
C  -4.88700 32.54700 30.41100
C  -6.09800 33.36000 30.94600
O  -6.75100 34.21700 30.40100
O  -6.36300 32.86300 32.16600
C  -7.34700 33.53200 33.01500
H  -0.60700 38.14000 30.46700
H  -0.17300 37.71600 23.91200
H  -3.85400 32.65300 24.05200
H  -4.17800 35.27100 31.89700
H  -1.33000 36.15800 32.21000
H  -3.05200 38.23700 31.44100
H  -2.07700 38.03800 32.91500
H  -3.72800 37.42600 32.79800
H  -2.55700 33.01200 32.39100
H  -3.87900 33.72200 33.30600
H  -2.01900 35.35600 34.29800
H  -0.97500 34.15600 33.44200
H  0.93500 39.23700 29.92900
H  0.69200 40.68600 28.81900
H  2.21000 39.71900 28.81800
H  2.80600 40.49200 26.60400
H  1.36100 41.55700 26.80000
H  2.27600 41.47600 25.23700
H  -0.54800 35.84000 22.42600
H  -3.45100 34.76000 22.72200
H  -2.39400 37.83100 22.41900
H  -3.16000 36.51900 21.33800
H  -1.63400 37.25200 20.92700
H  -1.47100 32.61700 23.03900
H  -0.95400 33.66500 21.67400
H  -2.30400 32.86100 20.25200
H  -3.71600 33.04600 21.20800
H  -2.77300 31.52800 21.42500
H  -4.73300 30.69500 24.83000
H  -6.26300 31.04100 25.27500
H  -5.42000 29.83900 26.27100
H  -4.33800 32.02400 31.19400
H  -6.97500 34.53900 33.19900
H  -7.54300 32.90300 33.88400
H  -8.32200 33.67400 32.54700

