158

Mg 41.09900 8.60100 29.25900
C  42.90600 9.83600 31.98400
C  38.98900 7.02100 31.62700
C  39.25900 7.40700 26.73900
C  43.63000 9.59500 27.19100
N  40.97000 8.52800 31.57000
C  41.78500 9.11300 32.46800
C  41.23800 9.09000 33.89400
C  39.93300 8.20400 33.80200
C  39.99100 7.88600 32.22200
C  39.77900 7.09900 34.84400
C  41.09300 10.51800 34.51300
C  40.23700 10.68800 35.78800
H  40.87300 11.62900 36.81800
N  39.33500 7.40300 29.23700
C  38.64600 6.91200 30.29800
C  37.31500 6.37900 29.85300
C  37.40100 6.41600 28.46200
C  38.73400 7.01800 28.05300
C  36.13700 6.07900 30.76400
C  36.32400 6.02900 27.45500
O  36.56300 6.11700 26.25400
C  35.07000 5.46300 27.87300
N  41.35500 8.55900 27.25300
C  40.41300 8.00700 26.37400
C  40.82500 8.26100 24.94000
C  42.29800 8.74700 25.14400
C  42.50000 9.04500 26.59300
C  40.61400 6.97300 24.03000
C  42.64300 10.00700 24.22500
C  43.72100 9.76600 23.12300
N  42.89900 9.44000 29.47900
C  43.86700 9.80700 28.55900
C  45.03300 10.34900 29.21700
C  44.61500 10.38100 30.56800
C  43.34100 9.94300 30.67700
C  46.28700 10.77400 28.62500
C  45.12700 10.78100 31.89600
O  46.23300 11.27500 32.26400
C  43.98100 10.42900 32.86300
C  44.41700 9.36300 33.77500
O  44.60100 8.17700 33.51500
O  44.71000 9.97300 34.98700
C  45.47900 9.22600 35.92600
H  38.37600 6.54100 32.39200
H  38.53200 7.13200 25.97200
H  44.54800 9.61600 26.59900
H  41.99800 8.62900 34.52500
H  39.10500 8.91300 33.77600
H  38.94700 7.03400 35.54500
H  40.62300 7.35300 35.48600
H  39.98500 6.12400 34.40300
H  40.81500 11.16100 33.67800
H  42.06500 10.89500 34.83000
H  40.10500 9.67500 36.16900
H  39.26300 11.13100 35.58300
H  36.06500 4.99300 30.81700
H  35.24400 6.63100 30.47300
H  36.43000 6.40000 31.76300
H  34.66800 5.02900 26.95800
H  34.45000 6.31800 28.14100
H  35.09500 4.72200 28.67300
H  40.14600 8.99900 24.51500
H  42.95400 7.92900 24.84700
H  41.50800 6.95100 23.40700
H  39.75300 7.15100 23.38500
H  40.51900 6.01300 24.53600
H  42.97500 10.77100 24.92700
H  41.77700 10.40600 23.69600
H  44.66500 10.13100 23.52800
H  43.49600 10.43900 22.29600
H  43.86500 8.76200 22.72300
H  46.90200 11.16300 29.43700
H  46.15100 11.59300 27.91800
H  46.87200 10.01600 28.10300
H  43.64900 11.36200 33.31800
H  46.47300 8.94200 35.58000
H  44.88600 8.38600 36.28900
H  45.68200 9.78300 36.84100
Mg 48.25700 34.13600 27.01800
C  46.32000 32.53900 29.44300
C  48.54700 36.76700 29.05400
C  49.79000 35.59400 24.50600
C  47.33500 31.37700 24.78400
N  47.54400 34.51700 29.10100
C  46.89900 33.70300 29.92800
C  46.93500 34.18500 31.37300
C  47.17200 35.66000 31.09400
C  47.90700 35.64200 29.65300
C  45.94000 36.50800 31.18200
C  48.10300 33.56300 32.22000
C  48.35700 34.08800 33.64000
H  47.24800 34.85100 34.43300
N  49.16200 35.86500 26.86500
C  49.18700 36.87000 27.81400
C  50.00600 38.01600 27.24200
C  50.32200 37.70100 25.90900
C  49.73400 36.36000 25.74400
C  50.29100 39.32100 28.09100
C  51.17800 38.49500 24.85400
O  51.51300 38.05800 23.74900
C  51.52500 39.91500 25.20800
N  48.44500 33.63100 24.89800
C  49.15500 34.39600 24.15800
C  49.28200 33.84700 22.78100
C  48.68500 32.39500 22.93900
C  48.07600 32.46400 24.28200
C  48.79100 34.64200 21.58300
C  49.64400 31.19200 22.69400
C  50.49400 31.25300 21.43300
N  46.88900 32.44200 26.94500
C  46.68600 31.36800 26.01500
C  45.88100 30.39100 26.70200
C  45.68000 30.83100 27.99500
C  46.35500 32.07800 28.09700
C  45.53800 29.00800 26.12800
C  45.10300 30.42800 29.31900
O  44.52500 29.40300 29.67200
C  45.41300 31.64600 30.20300
C  45.72200 31.09400 31.55300
O  46.69400 30.39500 31.76600
O  44.77100 31.44600 32.45300
C  45.12800 31.09700 33.82300
H  48.43900 37.76300 29.48800
H  50.28800 36.02500 23.63600
H  47.08400 30.53600 24.13500
H  46.01700 34.00500 31.93300
H  47.77600 36.16900 31.84500
H  45.98200 37.28800 30.42200
H  45.86600 37.10900 32.08800
H  44.98100 36.00100 31.07700
H  49.07900 33.66400 31.74400
H  47.98900 32.48000 32.27100
H  49.24400 34.72100 33.59600
H  48.50700 33.16800 34.20400
H  51.35200 39.53800 28.21200
H  49.98100 39.17700 29.12600
H  49.69300 40.09900 27.61500
H  52.04000 40.08800 26.15300
H  50.54100 40.37300 25.10800
H  52.03100 40.40100 24.37400
H  50.36800 33.77100 22.72800
H  47.82800 32.15800 22.30800
H  48.04600 34.09200 21.00800
H  49.67200 34.85500 20.97700
H  48.27400 35.52100 21.96900
H  49.09600 30.25200 22.76000
H  50.30300 31.22600 23.56200
H  50.21200 30.39300 20.82600
H  51.53600 30.99500 21.61900
H  50.36000 32.12500 20.79200
H  45.69700 29.10100 25.05400
H  44.49300 28.79400 26.35400
H  46.30100 28.26700 26.36900
H  44.53700 32.28800 30.29600
H  45.98300 31.61800 34.25600
H  45.38400 30.03800 33.83500
H  44.29000 31.30000 34.49000

