158

Mg -0.64400 7.46500 26.88100
C  0.22200 9.71100 29.55000
C  -0.06100 4.90300 29.10300
C  -1.02200 5.29200 24.36800
C  -0.83300 10.16000 24.64100
N  -0.17500 7.42600 29.11700
C  0.15300 8.38800 30.02100
C  0.30500 7.88300 31.39900
C  0.58300 6.38700 31.15700
C  0.03400 6.15000 29.73200
C  1.96800 5.79100 31.33700
C  -0.98800 8.32500 32.19800
C  -0.74600 8.64000 33.67600
H  0.04600 7.56300 34.49600
N  -0.59400 5.31000 26.81700
C  -0.29200 4.47200 27.79000
C  -0.28900 3.12000 27.32800
C  -0.67500 3.21100 25.97500
C  -0.81100 4.64000 25.64000
C  0.01300 1.88000 28.23600
C  -0.84800 2.05600 24.95800
O  -1.06600 2.22500 23.73300
C  -0.89500 0.60700 25.47700
N  -0.69000 7.67200 24.86200
C  -1.02900 6.64900 24.10700
C  -1.28500 7.07200 22.64900
C  -1.59300 8.56700 22.83500
C  -0.98200 8.84900 24.16600
C  0.02700 6.77000 21.81200
C  -3.12300 8.79100 22.71700
C  -3.66600 9.87300 21.77600
N  -0.26200 9.56200 27.01800
C  -0.32800 10.48300 25.97800
C  0.03900 11.75700 26.54200
C  0.32400 11.50300 27.89700
C  0.07600 10.16000 28.19300
C  -0.03600 12.96700 25.77900
C  0.71900 12.07900 29.11400
O  1.01100 13.27200 29.38100
C  0.65100 10.96900 30.20600
C  1.85800 10.96700 31.10000
O  2.68300 10.13700 31.22100
O  1.85600 12.06500 31.97900
C  2.73700 11.99500 33.17700
H  0.17200 4.11900 29.82600
H  -1.16300 4.64200 23.50200
H  -1.05300 10.87100 23.84200
H  1.14000 8.43000 31.83600
H  -0.05100 5.73900 31.76200
H  1.91600 4.93300 32.00800
H  2.63000 6.55800 31.73900
H  2.34800 5.46300 30.37000
H  -1.79500 7.59700 32.11300
H  -1.29100 9.30900 31.84300
H  -1.72500 8.73500 34.14700
H  -0.25500 9.60500 33.80200
H  -0.66700 1.02800 28.24400
H  0.00500 2.09800 29.30400
H  1.02200 1.57500 27.95800
H  0.04500 0.06400 25.57200
H  -1.49200 -0.00400 24.80000
H  -1.42200 0.53800 26.42900
H  -2.15900 6.56600 22.23900
H  -1.10600 9.18100 22.07800
H  0.42000 7.72600 21.46700
H  -0.15800 6.34100 20.82600
H  0.75300 6.17600 22.36600
H  -3.46700 9.01700 23.72600
H  -3.66300 7.89600 22.40800
H  -4.27500 9.34300 21.04400
H  -2.80100 10.47400 21.49500
H  -4.29700 10.54200 22.36100
H  0.19000 13.79500 26.45000
H  -1.03000 13.15400 25.37300
H  0.67200 12.87700 24.95600
H  -0.14100 11.27000 30.89100
H  3.79100 12.03000 32.89900
H  2.64100 11.04700 33.70600
H  2.47500 12.80700 33.85400
Mg -1.60200 33.66400 27.12000
C  -3.44500 32.28000 29.85400
C  0.09700 35.69500 29.30900
C  -0.28400 35.25500 24.40900
C  -3.73200 32.02200 24.92100
N  -1.67800 33.96700 29.42200
C  -2.42500 33.24500 30.31300
C  -2.01000 33.67100 31.77100
C  -0.93900 34.82800 31.46800
C  -0.84600 34.89900 29.95300
C  -1.31800 36.22200 32.11700
C  -1.54300 32.47500 32.68700
C  -2.48500 31.92500 33.65800
H  -2.07700 31.89100 35.13500
N  -0.20200 35.21600 26.86800
C  0.33600 35.94100 27.91600
C  1.30200 36.82200 27.37000
C  1.16100 36.76900 25.90500
C  0.20800 35.71600 25.65000
C  2.07200 37.75900 28.22300
C  1.84300 37.56400 24.90800
O  1.70900 37.38100 23.68200
C  2.86400 38.65500 25.36400
N  -1.97200 33.74900 24.98400
C  -1.26400 34.34500 24.09100
C  -1.66100 34.03900 22.63600
C  -2.48400 32.71500 22.84700
C  -2.78000 32.82300 24.35800
C  -2.48100 35.15000 22.04300
C  -1.78100 31.31700 22.53600
C  -2.68500 30.18800 21.93100
N  -3.21000 32.35500 27.26000
C  -3.96200 31.73200 26.29200
C  -4.87100 30.85100 26.92000
C  -4.65600 30.99600 28.30700
C  -3.70200 31.95100 28.47800
C  -5.93500 29.99200 26.18800
C  -5.12600 30.63700 29.60800
O  -6.04500 29.78600 29.89900
C  -4.37200 31.48300 30.65400
C  -5.45600 32.37000 31.13700
O  -6.13300 33.19200 30.55500
O  -5.82700 31.97200 32.35900
C  -7.05200 32.62200 32.82700
H  0.69100 36.23000 30.05400
H  0.06400 35.58900 23.43000
H  -4.29700 31.52200 24.13200
H  -2.88300 34.13200 32.23200
H  0.07000 34.62400 31.82700
H  -1.75600 36.86900 31.35700
H  -0.44700 36.76400 32.48600
H  -2.07600 36.17500 32.89800
H  -0.69800 32.87800 33.24400
H  -1.12200 31.69000 32.05900
H  -2.69300 30.86400 33.52200
H  -3.47100 32.37600 33.54700
H  1.67100 37.74400 29.23700
H  1.92300 38.80400 27.94900
H  3.13300 37.51200 28.25600
H  3.42700 39.06300 24.52400
H  3.57500 38.13200 26.00400
H  2.29000 39.42700 25.87600
H  -0.75600 33.80400 22.07600
H  -3.42000 32.74200 22.28900
H  -2.35200 36.07100 22.61000
H  -3.52100 34.92400 21.80600
H  -2.04600 35.48200 21.10100
H  -1.48300 30.99800 23.53400
H  -0.84500 31.51800 22.01300
H  -2.86300 29.41200 22.67600
H  -2.20600 29.60300 21.14600
H  -3.63300 30.57900 21.56100
H  -5.46500 29.04100 25.93700
H  -6.33000 30.66500 25.42700
H  -6.74600 29.75900 26.87700
H  -3.90500 30.83300 31.39400
H  -7.82700 32.44900 32.08100
H  -6.86100 33.68800 32.95400
H  -7.44100 32.12300 33.71500

