158

Mg 6.96900 53.26000 41.02800
C  6.52200 49.67000 40.88800
C  10.10200 52.67900 39.51300
C  7.04600 56.39700 40.22400
C  3.58700 53.49000 41.85700
N  8.13500 51.42500 40.24800
C  7.81700 50.08000 40.43500
C  8.94800 49.09600 39.86000
C  10.11600 50.09200 39.89900
C  9.39100 51.52200 39.84600
C  11.06400 50.05600 41.14600
C  8.68400 48.37700 38.43900
C  8.56600 49.25000 37.20700
H  7.36400 49.10500 36.29100
N  8.40600 54.39700 40.10400
C  9.67600 54.05600 39.59300
C  10.34400 55.23600 39.12600
C  9.40800 56.33900 39.31000
C  8.22700 55.73300 39.87600
C  11.68600 55.25300 38.48200
C  9.67100 57.75900 38.93100
O  10.75800 58.09900 38.50300
C  8.70200 58.88700 39.16600
N  5.39500 54.67700 40.90000
C  5.78800 55.97300 40.69600
C  4.67200 56.95100 41.04900
C  3.60900 55.91900 41.49800
C  4.24300 54.60900 41.45400
C  5.05500 58.13500 42.00600
C  2.25400 56.05300 40.63800
C  1.83000 55.12900 39.50300
N  5.40600 51.90600 41.53000
C  4.10600 52.16500 41.89300
C  3.53400 50.93300 42.34200
C  4.43300 49.92900 41.90700
C  5.53400 50.59000 41.38200
C  2.23000 50.68000 42.97300
C  4.59800 48.50200 41.83900
O  3.90100 47.62000 42.29400
C  5.92000 48.25300 41.02000
C  5.36800 47.59200 39.77600
O  4.77000 48.26700 38.88800
O  5.67700 46.24300 39.70600
C  5.44800 45.63400 38.37700
H  11.09300 52.46600 39.10500
H  6.92400 57.47500 40.09500
H  2.58100 53.77200 42.17600
H  9.16200 48.34800 40.62400
H  10.82700 49.93500 39.08800
H  11.93900 49.49800 40.81100
H  10.50500 49.37300 41.78500
H  11.33200 51.02700 41.56300
H  7.92900 47.61300 38.62300
H  9.62500 47.84700 38.29400
H  9.51800 49.14600 36.68700
H  8.57600 50.29800 37.50900
H  12.21800 54.31500 38.64100
H  12.38500 55.99300 38.87200
H  11.70300 55.43300 37.40700
H  8.57400 59.03200 40.23800
H  7.72000 58.66100 38.74900
H  9.03100 59.80500 38.67800
H  4.36400 57.46600 40.13800
H  3.35700 56.12100 42.53900
H  6.11700 58.09800 42.24900
H  4.49600 58.11000 42.94100
H  4.72400 59.04200 41.50000
H  2.23000 57.10100 40.34000
H  1.48000 55.95400 41.39800
H  1.83500 55.71300 38.58300
H  0.83800 54.73400 39.72200
H  2.55300 54.31600 39.42900
H  1.66500 49.99400 42.34200
H  1.60100 51.55800 43.12200
H  2.48600 50.18400 43.91000
H  6.60500 47.62400 41.58900
H  6.24300 44.88800 38.34900
H  5.67400 46.36100 37.59700
H  4.43300 45.27800 38.19800
Mg -11.97400 16.21700 42.20900
C  -8.97300 14.66700 41.65600
C  -10.75200 19.08400 40.72500
C  -15.18600 17.36700 41.76000
C  -13.32500 13.19300 43.20500
N  -10.12800 16.77500 41.17300
C  -9.00400 15.98400 41.10500
C  -7.82700 16.67100 40.32500
C  -8.36800 18.13000 40.25900
C  -9.83600 17.99000 40.74700
C  -7.63100 19.22900 41.15200
C  -7.60900 15.92300 38.97200
C  -6.15400 15.73800 38.66800
H  -5.60300 16.36600 37.35200
N  -12.79900 18.03100 41.56900
C  -12.04200 19.08500 41.11100
C  -12.87100 20.22400 40.98800
C  -14.26500 19.83700 41.19400
C  -14.16700 18.35300 41.54000
C  -12.34200 21.61600 40.76000
C  -15.50400 20.68300 41.12400
O  -15.42400 21.86300 40.91100
C  -16.86200 20.08700 41.28400
N  -13.92500 15.33300 42.19900
C  -15.08300 16.00700 42.07000
C  -16.35000 15.19400 42.44200
C  -15.78600 13.96100 43.12100
C  -14.25000 14.14900 42.85400
C  -17.44900 15.92600 43.28900
C  -16.50900 12.64700 42.69200
C  -17.29500 11.79700 43.73200
N  -11.27800 14.26300 42.49000
C  -11.92500 13.12700 42.88100
C  -10.92700 12.11700 43.10400
C  -9.76400 12.65600 42.61400
C  -10.01100 13.97300 42.23400
C  -11.05600 10.75200 43.76200
C  -8.41600 12.34800 42.30400
O  -7.82800 11.28200 42.34900
C  -7.84900 13.61500 41.66600
C  -6.77800 14.15400 42.44200
O  -6.85600 14.45500 43.62700
O  -5.65100 14.33300 41.73500
C  -4.53700 14.98900 42.48600
H  -10.25900 19.96500 40.30900
H  -16.19200 17.75000 41.94400
H  -13.76900 12.37500 43.77800
H  -7.01500 16.71500 41.05100
H  -8.37900 18.36000 39.19300
H  -8.37300 19.66500 41.82100
H  -7.10700 19.89200 40.46300
H  -6.91200 18.83400 41.87000
H  -8.07000 16.44300 38.13200
H  -8.09500 14.95200 39.07500
H  -5.85800 14.68900 38.66900
H  -5.48900 16.06200 39.47000
H  -13.18000 22.27800 40.54000
H  -11.62400 21.61500 39.94000
H  -11.94900 22.11700 41.64500
H  -17.63800 20.71000 40.84000
H  -16.92200 19.93500 42.36200
H  -16.98300 19.18800 40.68000
H  -16.79400 15.00300 41.46500
H  -15.86600 14.11300 44.19700
H  -18.15800 16.36300 42.58700
H  -16.96400 16.63900 43.95700
H  -17.96700 15.20700 43.92400
H  -15.86100 11.94100 42.17400
H  -17.23400 12.91400 41.92400
H  -17.56300 12.36900 44.62100
H  -16.70600 10.97700 44.14300
H  -18.25900 11.40000 43.41400
H  -11.39100 10.00800 43.04000
H  -11.86800 10.73500 44.48900
H  -10.12800 10.41700 44.22500
H  -7.48500 13.27900 40.69500
H  -4.49300 14.68700 43.53300
H  -4.80100 16.04600 42.46500
H  -3.61700 14.68400 41.98600

