158

Mg 39.93400 9.72500 30.05600
C  41.78000 10.84300 32.80200
C  37.99200 7.88000 32.25000
C  38.29800 8.59500 27.41900
C  42.44200 11.04400 28.03600
N  40.04900 9.28200 32.25200
C  40.75700 9.97800 33.21500
C  40.36700 9.52200 34.65900
C  39.35000 8.43500 34.35600
C  39.01700 8.54100 32.87700
C  39.84200 6.95900 34.70300
C  39.90600 10.75700 35.55200
C  40.37600 10.72500 36.98200
H  39.32500 11.16900 38.12100
N  38.27900 8.48000 29.89900
C  37.56000 7.90700 30.87600
C  36.43400 7.18400 30.25200
C  36.53300 7.44100 28.88100
C  37.71100 8.19200 28.69000
C  35.44100 6.29700 30.99400
C  35.52000 7.05600 27.76500
O  35.51700 7.69500 26.67600
C  34.38100 6.04700 28.10100
N  40.45200 9.62000 28.09800
C  39.48000 9.27700 27.14100
C  39.96400 9.59800 25.69200
C  41.26500 10.47400 26.02000
C  41.45300 10.26700 27.46400
C  40.23400 8.26600 24.85900
C  41.17900 11.95800 25.57900
C  39.96500 12.76300 26.16500
N  41.77500 10.73700 30.26800
C  42.69400 11.20200 29.34300
C  43.81900 11.83000 30.04800
C  43.41200 11.78100 31.44300
C  42.19200 11.08700 31.52800
C  45.06200 12.27200 29.42200
C  43.78900 12.15000 32.78100
O  44.69200 12.82600 33.14000
C  42.82500 11.51900 33.77400
C  43.55700 10.64100 34.81800
O  43.80300 9.48800 34.68200
O  43.58800 11.30300 35.95600
C  44.28300 10.71600 37.09100
H  37.35000 7.26900 32.88800
H  37.79700 8.46700 26.45700
H  43.19400 11.50600 27.39300
H  41.20200 9.06900 35.19400
H  38.37800 8.60300 34.82000
H  39.93900 6.29300 33.84600
H  39.00400 6.48500 35.21500
H  40.77500 6.78000 35.23800
H  38.82300 10.87300 35.59600
H  40.29000 11.64400 35.04700
H  41.11000 11.52700 37.05800
H  40.71400 9.73800 37.29700
H  35.58300 6.31000 32.07500
H  35.67700 5.30800 30.60200
H  34.43600 6.68600 30.83000
H  33.84100 5.84000 27.17700
H  33.71900 6.46900 28.85600
H  34.72700 5.06700 28.43000
H  39.23400 10.11600 25.07000
H  42.08300 9.93300 25.54500
H  40.03700 8.40300 23.79600
H  39.57600 7.47200 25.21100
H  41.24700 7.86500 24.88600
H  40.96500 11.81700 24.52000
H  42.06700 12.56400 25.76300
H  39.25900 12.16000 26.73500
H  39.49200 13.17000 25.27100
H  40.31500 13.55400 26.82900
H  44.80600 13.15900 28.84300
H  45.49200 11.51800 28.76300
H  45.65200 12.64300 30.26000
H  42.36900 12.34000 34.32700
H  43.53500 10.02300 37.47400
H  44.64300 11.44400 37.81800
H  45.09100 10.09200 36.70900
Mg 46.33400 17.10800 29.05500
C  44.58800 16.64400 32.20400
C  48.66800 18.77900 30.69600
C  47.43800 17.80900 26.17200
C  43.46200 15.51000 27.60300
N  46.57300 17.73100 31.25200
C  45.78400 17.36200 32.33300
C  46.44700 17.91000 33.60000
C  47.67100 18.77100 33.10300
C  47.62400 18.53500 31.59700
C  47.67500 20.27900 33.51700
C  46.88400 16.84500 34.66600
C  46.05800 16.84800 35.99800
H  45.83100 18.21900 36.63500
N  47.99100 17.95600 28.51700
C  48.89400 18.56600 29.30900
C  50.09900 18.94900 28.51800
C  49.75100 18.66600 27.19500
C  48.31800 18.19300 27.23000
C  51.28700 19.59800 29.06900
C  50.52100 18.67600 25.95900
O  50.00300 18.45300 24.88500
C  51.96100 18.91200 25.97800
N  45.52800 16.72400 27.15700
C  46.15900 17.16200 26.10000
C  45.43900 16.85500 24.74400
C  44.31800 15.83400 25.26500
C  44.44900 15.92000 26.75900
C  45.00900 18.18100 24.03000
C  44.44600 14.46400 24.69500
C  43.56400 14.12700 23.51600
N  44.39500 16.30200 29.72800
C  43.37900 15.68200 28.95200
C  42.36400 15.17400 29.80200
C  42.79200 15.52700 31.08400
C  44.03500 16.23300 30.97300
C  41.01100 14.55600 29.33600
C  42.42800 15.51600 32.48700
O  41.42100 15.01700 33.04800
C  43.57000 16.19900 33.23900
C  42.93100 17.32300 33.96900
O  42.78200 18.46300 33.46400
O  42.47000 16.84500 35.15400
C  41.44800 17.79600 35.80800
H  49.46000 19.32900 31.20900
H  47.79300 18.15800 25.20000
H  42.71100 14.82300 27.20900
H  45.68400 18.51200 34.09400
H  48.59400 18.32800 33.47600
H  48.42200 20.47000 34.28800
H  46.73700 20.62600 33.95100
H  47.83500 20.93300 32.66000
H  47.93700 16.97300 34.91400
H  46.73300 15.86000 34.22500
H  46.63100 16.38100 36.79900
H  45.18000 16.22900 35.81500
H  51.32300 20.65600 28.81300
H  52.13000 19.01500 28.69900
H  51.25200 19.48000 30.15200
H  52.49200 18.09200 26.46300
H  52.25700 19.86000 26.42600
H  52.29700 18.87900 24.94200
H  46.15300 16.32800 24.11100
H  43.29200 16.12800 25.04400
H  45.59600 19.00500 24.43600
H  43.94900 18.35700 24.20900
H  45.28600 18.17800 22.97600
H  44.14700 13.68800 25.39900
H  45.46000 14.12900 24.47300
H  44.11400 14.53500 22.66800
H  42.55600 14.50700 23.68100
H  43.60400 13.04200 23.41900
H  40.58100 15.05400 28.46800
H  40.31400 14.52500 30.17400
H  41.20700 13.52100 29.05600
H  43.93400 15.50500 33.99700
H  42.11200 18.21600 36.56400
H  40.64000 17.30700 36.35200
H  40.99700 18.54200 35.15300

