158

Mg 1.65600 -2.58100 44.28600
C  5.15500 -1.72200 43.76600
C  1.05800 0.43200 42.58000
C  -1.40400 -3.70100 43.75900
C  2.76000 -5.72800 45.38600
N  2.97900 -0.89200 43.16300
C  4.34000 -0.72700 43.23300
C  4.75900 0.57300 42.67500
C  3.42800 1.36000 42.52800
C  2.40100 0.28700 42.85700
C  3.42300 2.52800 43.54600
C  5.57000 0.28400 41.28300
C  6.95600 0.95500 41.22100
H  7.21000 2.01000 40.10800
N  0.04200 -1.69500 43.48600
C  -0.02800 -0.47900 42.86500
C  -1.39300 -0.21300 42.45300
C  -2.16900 -1.36500 42.89500
C  -1.14200 -2.34800 43.46100
C  -1.93100 1.03100 41.79700
C  -3.68200 -1.51600 42.84900
O  -4.41500 -0.66400 42.41600
C  -4.34800 -2.68900 43.55700
N  0.77600 -4.48500 44.47400
C  -0.52000 -4.73300 44.21400
C  -0.91700 -6.23300 44.46800
C  0.34200 -6.70000 45.25500
C  1.40300 -5.60300 45.02500
C  -2.28300 -6.55600 45.22900
C  0.81000 -8.11000 44.92500
C  1.21800 -8.25900 43.46000
N  3.52800 -3.57700 44.49200
C  3.75300 -4.80200 45.07800
C  5.20300 -4.89200 45.38700
C  5.72900 -3.68600 44.88700
C  4.74700 -2.95000 44.23900
C  5.98600 -6.02500 45.98900
C  7.00200 -2.92700 44.86500
O  8.10000 -3.14800 45.34500
C  6.70100 -1.58800 44.10700
C  6.99000 -0.46100 45.04600
O  6.46000 -0.27700 46.16100
O  7.79200 0.37300 44.35100
C  8.13000 1.62500 45.04100
H  0.77400 1.41700 42.20400
H  -2.37500 -4.19800 43.72100
H  3.09700 -6.62600 45.90800
H  5.40300 1.11600 43.36800
H  3.27800 1.82000 41.55100
H  3.39400 2.04500 44.52300
H  2.69000 3.32800 43.44300
H  4.40800 2.99600 43.54900
H  4.96800 0.62900 40.44300
H  5.67900 -0.78700 41.10900
H  7.60000 0.07900 41.30400
H  7.17800 1.54100 42.11300
H  -1.40100 1.22000 40.86400
H  -1.75400 1.95500 42.34700
H  -2.95900 1.02500 41.43600
H  -5.37700 -2.38700 43.75300
H  -3.87200 -2.87400 44.52000
H  -4.40000 -3.64500 43.03600
H  -0.94200 -6.61500 43.44800
H  0.24900 -6.73700 46.34100
H  -3.13700 -6.66600 44.56100
H  -2.58900 -5.71600 45.85300
H  -2.24900 -7.53700 45.70200
H  -0.07400 -8.72300 45.10100
H  1.55800 -8.49400 45.61800
H  1.34100 -7.31200 42.93300
H  0.49800 -8.86000 42.90600
H  2.15000 -8.82400 43.47200
H  6.76200 -5.66300 46.66400
H  6.47800 -6.54400 45.16700
H  5.46300 -6.70800 46.65800
H  7.43100 -1.54700 43.29800
H  9.19800 1.63500 45.26200
H  7.60000 1.77800 45.98100
H  7.81900 2.43300 44.38000
Mg 42.29600 41.39900 26.05100
C  41.50100 43.69700 28.57000
C  44.02900 39.58700 28.33600
C  42.66600 38.96300 23.82300
C  41.32600 43.62200 23.74100
N  42.78100 41.69400 28.26800
C  42.15600 42.58900 29.10600
C  42.42100 42.30400 30.52800
C  43.30900 40.91800 30.39800
C  43.34400 40.68500 28.90800
C  44.56500 40.97200 31.25000
C  41.14100 41.96100 31.36100
C  40.59200 42.96800 32.43700
H  40.05300 42.38800 33.75200
N  43.41300 39.61300 26.02400
C  44.07800 39.05100 27.07500
C  44.62700 37.78600 26.61500
C  44.04900 37.49300 25.34700
C  43.32600 38.71500 25.01300
C  45.54600 36.94400 27.48900
C  44.09200 36.22800 24.51800
O  43.51000 36.15500 23.37700
C  44.86800 35.08900 24.99000
N  42.17800 41.36900 24.06800
C  42.23400 40.22400 23.35200
C  41.82900 40.42500 21.93100
C  41.49600 41.96800 21.85500
C  41.67300 42.37700 23.28700
C  43.05200 40.04300 20.98400
C  40.01700 42.18300 21.33000
C  39.80400 43.25900 20.30700
N  41.42400 43.23400 26.10900
C  41.07000 44.02800 25.07100
C  40.57300 45.27000 25.55100
C  40.66100 45.18000 26.92200
C  41.21600 43.91800 27.20700
C  40.11100 46.38900 24.60700
C  40.43100 45.83600 28.15000
O  39.95800 46.96200 28.45400
C  40.90300 44.87600 29.36500
C  41.80200 45.63100 30.18700
O  42.93100 45.85000 30.00900
O  41.19300 45.96400 31.30600
C  41.95200 46.69900 32.40300
H  44.51700 38.94000 29.06800
H  42.52200 38.15700 23.10100
H  41.17700 44.33600 22.92900
H  43.01100 43.12200 30.94100
H  42.72100 40.08600 30.78400
H  45.57600 40.93200 30.84200
H  44.48300 40.29000 32.09600
H  44.54300 41.94000 31.75000
H  41.15800 40.97500 31.82600
H  40.27000 41.96900 30.70600
H  39.76100 43.57800 32.08100
H  41.36200 43.72900 32.56500
H  46.35300 36.68600 26.80200
H  44.94600 36.14700 27.92800
H  45.97800 37.53300 28.29800
H  44.67000 34.81300 26.02600
H  45.91400 35.29400 24.76400
H  44.52900 34.17800 24.49600
H  40.97800 39.77800 21.71700
H  42.14000 42.66600 21.32100
H  42.96300 39.06100 20.51900
H  44.01100 40.18400 21.48400
H  42.96200 40.77400 20.18100
H  39.31100 42.30400 22.15100
H  39.65800 41.24300 20.91100
H  39.17700 44.07000 20.67800
H  39.53900 42.88100 19.31900
H  40.67500 43.91200 20.23300
H  39.24300 45.93200 24.13200
H  40.85700 46.68100 23.86800
H  39.66600 47.13600 25.26500
H  40.02900 44.66200 29.98100
H  42.04800 46.10600 33.31300
H  41.41500 47.63500 32.55800
H  42.94000 46.98700 32.04400

