158

Mg 23.98500 -6.85600 46.10500
C  26.35000 -4.83200 44.61800
C  21.67300 -5.53900 43.96400
C  22.14000 -9.73600 46.47600
C  26.68200 -8.54900 47.66800
N  24.08100 -5.47700 44.31700
C  25.12200 -4.71900 43.94700
C  24.81100 -3.67300 42.87200
C  23.23700 -3.67200 42.94700
C  22.94300 -5.03600 43.76200
C  22.61800 -2.41500 43.62900
C  25.36700 -4.09700 41.46000
C  25.83700 -2.92700 40.47500
H  25.37200 -2.82800 38.98100
N  22.15400 -7.45200 45.44200
C  21.27500 -6.65400 44.63300
C  19.99900 -7.29500 44.60100
C  20.09600 -8.54100 45.28900
C  21.50100 -8.62800 45.76800
C  18.83800 -6.78600 43.84300
C  18.94800 -9.52700 45.41400
O  17.85000 -9.17100 45.01600
C  19.16800 -10.80800 46.09700
N  24.38600 -8.92400 47.03500
C  23.44100 -9.87400 47.04300
C  24.01400 -11.14000 47.72800
C  25.44000 -10.69700 48.32800
C  25.54500 -9.34300 47.59300
C  23.01800 -11.91300 48.68100
C  26.54200 -11.73900 47.97800
C  26.86000 -12.86300 48.94400
N  26.07000 -6.62200 46.29600
C  26.97800 -7.35600 46.96600
C  28.31900 -6.71000 46.87200
C  28.07200 -5.62400 46.02900
C  26.71300 -5.72600 45.62300
C  29.60000 -7.11400 47.41900
C  28.64300 -4.47900 45.39600
O  29.74900 -3.97900 45.59800
C  27.60200 -3.96100 44.33600
C  27.53900 -2.47600 44.31000
O  27.94800 -1.77400 43.38300
O  27.01700 -2.04100 45.43800
C  26.99300 -0.60200 45.75800
H  20.85900 -4.99700 43.47900
H  21.60700 -10.66900 46.66900
H  27.58700 -8.94200 48.13600
H  25.18600 -2.70400 43.20000
H  22.75500 -3.74700 41.97200
H  21.97600 -1.81100 42.98800
H  23.42300 -1.78500 44.00800
H  21.92500 -2.58200 44.45300
H  24.62600 -4.63300 40.86700
H  26.13000 -4.86800 41.56500
H  26.92200 -3.03400 40.49700
H  25.55200 -2.00700 40.98600
H  18.05100 -6.65400 44.58700
H  18.55300 -7.40100 42.99000
H  19.00700 -5.75500 43.53100
H  19.45000 -10.69200 47.14300
H  19.71100 -11.50600 45.46000
H  18.15000 -11.19300 46.14100
H  24.21000 -11.76300 46.85600
H  25.23400 -10.46800 49.37400
H  22.03500 -11.44400 48.63700
H  23.38900 -11.97800 49.70400
H  22.91400 -12.92400 48.29000
H  27.49500 -11.21800 47.89300
H  26.35100 -12.19400 47.00600
H  27.04700 -13.75700 48.35000
H  25.95600 -12.87900 49.55300
H  27.66100 -12.60000 49.63600
H  29.92800 -8.13400 47.21700
H  29.59100 -7.04500 48.50700
H  30.31200 -6.33600 47.14600
H  27.99300 -4.17700 43.34200
H  27.55300 0.07200 45.11000
H  27.17300 -0.51800 46.83000
H  25.96800 -0.29200 45.55400
Mg 35.20300 48.87500 24.93200
C  35.29100 47.35300 28.06500
C  33.84000 51.64100 26.45300
C  35.09600 50.32100 21.84100
C  36.21300 45.92300 23.48400
N  34.70900 49.43600 27.06500
C  34.81300 48.67600 28.13600
C  34.38000 49.37600 29.38600
C  34.01100 50.80600 28.87000
C  34.19600 50.61900 27.36200
C  32.65500 51.28600 29.28600
C  35.48700 49.47300 30.50500
C  34.97900 48.86900 31.90800
H  34.71200 49.90200 33.01600
N  34.52100 50.77100 24.25300
C  33.96900 51.72800 25.06700
C  33.75700 52.84500 24.18600
C  34.11900 52.56100 22.83400
C  34.57800 51.18600 22.92600
C  33.08300 54.12000 24.70700
C  33.87600 53.33200 21.53400
O  34.14900 52.90600 20.41400
C  33.22800 54.67800 21.59700
N  35.60000 48.15500 22.92700
C  35.53400 48.98800 21.82800
C  36.00900 48.22600 20.50300
C  36.57600 46.95500 21.12000
C  36.05600 46.96500 22.61600
C  35.05200 47.93600 19.47600
C  38.13600 46.78000 21.05300
C  38.61700 45.33500 20.86700
N  35.55700 47.00900 25.60200
C  35.89900 45.86500 24.82900
C  36.27500 44.84800 25.83100
C  35.98200 45.39500 27.07300
C  35.52000 46.71700 26.87700
C  36.80400 43.43300 25.65300
C  36.03500 45.05600 28.44700
O  36.40300 44.07500 29.08900
C  35.51300 46.29500 29.12300
C  34.22900 45.90400 29.84200
O  33.22400 45.53500 29.22400
O  34.31700 45.82600 31.19400
C  33.16700 45.34300 32.00200
H  33.65800 52.58300 26.97400
H  35.17000 50.68000 20.81200
H  36.78600 45.05500 23.15000
H  33.43200 49.03000 29.79900
H  34.68700 51.62800 29.10300
H  31.87800 51.08400 28.54900
H  32.63500 52.36100 29.46700
H  32.31800 50.76800 30.18400
H  35.68100 50.53800 30.63400
H  36.44400 49.03700 30.22100
H  35.68900 48.09400 32.19700
H  34.08800 48.26000 31.75300
H  32.26700 54.47000 24.07500
H  33.78800 54.95100 24.74600
H  32.66300 54.06800 25.71100
H  33.90400 55.28800 22.19700
H  32.18800 54.48500 21.85900
H  33.22600 54.96300 20.54500
H  36.86400 48.73800 20.06200
H  35.99800 46.12700 20.71100
H  35.25100 48.69900 18.72300
H  34.01300 48.00900 19.79700
H  35.27700 47.02200 18.92700
H  38.58200 47.10600 21.99300
H  38.55200 47.40400 20.26100
H  37.88700 44.64400 20.44400
H  38.83600 44.92900 21.85400
H  39.49500 45.25800 20.22600
H  37.55300 43.23200 26.41800
H  37.12700 43.33300 24.61700
H  35.93000 42.84400 25.93000
H  36.28700 46.52100 29.85700
H  33.27100 44.31100 32.33500
H  32.20600 45.45000 31.50000
H  33.18400 45.92800 32.92200

