158

Mg 26.81500 -1.28800 29.39800
C  28.70000 -1.13500 32.24900
C  23.91800 -1.19500 31.29300
C  25.14500 -1.29500 26.48200
C  29.79800 -1.81400 27.53400
N  26.46600 -1.17800 31.53800
C  27.33200 -1.05700 32.57700
C  26.60400 -0.87800 34.00200
C  25.11900 -0.87400 33.56000
C  25.12700 -1.07600 32.00800
C  24.29400 -1.89700 34.40800
C  27.08900 0.33600 34.95500
C  26.65900 0.01900 36.41800
H  27.12900 0.91800 37.58400
N  24.88500 -1.25100 28.97800
C  23.78400 -1.32200 29.88400
C  22.63900 -1.39400 29.17100
C  22.93600 -1.29800 27.76700
C  24.38400 -1.20400 27.65800
C  21.32100 -1.67700 29.84400
C  22.01600 -1.32200 26.54500
O  22.39300 -1.01500 25.43200
C  20.46900 -1.66000 26.73700
N  27.41300 -1.56500 27.25500
C  26.52700 -1.42000 26.25600
C  27.25700 -1.45200 24.87600
C  28.70900 -1.35700 25.27200
C  28.71300 -1.55500 26.76800
C  26.83600 -2.61800 23.89600
C  29.35200 0.01100 25.03700
C  28.64100 1.29700 25.60700
N  28.78900 -1.65400 29.83600
C  29.86000 -1.87100 28.96600
C  31.08400 -1.89100 29.71400
C  30.67900 -1.58700 31.02400
C  29.29400 -1.44300 30.99000
C  32.51800 -2.03300 29.20600
C  31.09700 -1.34800 32.40700
O  32.22800 -1.42900 32.81300
C  29.85800 -0.92700 33.21700
C  29.78800 -1.84800 34.39900
O  29.52800 -3.05600 34.25200
O  30.10700 -1.13300 35.51600
C  30.23000 -1.93000 36.72700
H  23.01400 -1.01600 31.87800
H  24.65500 -1.26300 25.50600
H  30.68800 -1.91400 26.91000
H  26.79400 -1.77400 34.59200
H  24.68500 0.09000 33.82600
H  24.00300 -2.58400 33.61300
H  23.37600 -1.46700 34.80800
H  24.83600 -2.46000 35.16900
H  26.38700 1.16400 34.85200
H  28.14600 0.60000 34.92400
H  26.93500 -0.99800 36.69700
H  25.58000 0.17800 36.40600
H  20.66000 -0.91200 29.43600
H  21.33000 -1.59900 30.93200
H  21.02300 -2.66300 29.49000
H  20.07100 -2.03200 25.79300
H  20.03800 -0.74100 27.13400
H  20.23300 -2.47700 27.41900
H  26.96800 -0.55900 24.32100
H  29.31600 -2.20700 24.96200
H  26.08300 -3.23700 24.38300
H  27.70400 -3.24100 23.68100
H  26.37400 -2.20300 23.00100
H  29.49300 0.09400 23.96000
H  30.39600 0.00400 25.35400
H  29.40000 1.71200 26.27000
H  27.81800 0.96200 26.23900
H  28.32600 1.97200 24.81200
H  32.87100 -2.99900 29.56700
H  33.14500 -1.22800 29.58800
H  32.64800 -1.86400 28.13700
H  30.07500 0.12300 33.41500
H  30.08800 -3.00300 36.60400
H  29.48800 -1.57400 37.44100
H  31.27500 -1.80000 37.00900
Mg 16.34300 51.79300 25.43900
C  18.00100 50.70600 28.21200
C  13.66300 52.87200 27.35200
C  14.55300 52.41000 22.52300
C  18.75800 50.11200 23.44100
N  15.88300 51.68100 27.49100
C  16.80700 51.39400 28.45200
C  16.38900 51.91700 29.84800
C  14.88900 52.31400 29.50500
C  14.83900 52.38200 28.00900
C  13.70800 51.44400 30.02500
C  17.33100 53.09600 30.35600
C  18.01200 52.94100 31.77000
H  17.33700 52.06800 32.80600
N  14.38500 52.61900 25.02000
C  13.42900 52.91900 25.96100
C  12.31100 53.51800 25.23500
C  12.65200 53.50700 23.82900
C  13.94600 52.88100 23.75700
C  11.22500 54.22200 25.86400
C  11.77600 53.88300 22.64800
O  12.19900 53.97700 21.49100
C  10.34400 54.24000 22.85800
N  16.68300 51.27000 23.33700
C  15.70900 51.59900 22.40900
C  16.10900 51.17800 21.00900
C  17.52200 50.59300 21.22700
C  17.70700 50.65000 22.75300
C  15.08500 50.27500 20.29300
C  18.77500 51.32700 20.61700
C  18.75700 52.82100 20.67800
N  17.96000 50.61500 25.68800
C  18.90000 50.08100 24.83300
C  19.93500 49.38800 25.55400
C  19.59800 49.54100 26.88300
C  18.34700 50.25500 26.92800
C  21.16200 48.64600 25.01600
C  20.04000 49.36100 28.26200
O  21.11800 48.83100 28.61900
C  18.97400 50.03100 29.24600
C  18.43200 49.02100 30.10300
O  17.35500 48.41800 30.06300
O  19.37200 48.69800 31.05000
C  18.92500 47.77500 32.12500
H  12.94200 53.28700 28.05900
H  14.01000 52.50100 21.58000
H  19.47700 49.56100 22.83100
H  16.51700 51.10800 30.56700
H  14.79100 53.34900 29.83300
H  13.53700 50.54100 29.43900
H  12.79100 51.94100 30.34400
H  14.02100 51.04700 30.99100
H  16.87000 54.04700 30.09000
H  18.13300 52.98000 29.62700
H  17.98800 53.97200 32.12400
H  19.06400 52.70300 31.61100
H  10.84800 55.07600 25.30200
H  11.49400 54.57000 26.86100
H  10.53600 53.40700 26.08600
H  10.06000 55.24200 23.17800
H  10.01700 53.50300 23.59100
H  9.89900 54.01800 21.88800
H  16.04200 52.02100 20.32200
H  17.53600 49.54000 20.94600
H  14.19100 50.27000 20.91600
H  15.51400 49.27400 20.23500
H  14.70100 50.62700 19.33600
H  18.70100 50.98700 19.58300
H  19.72600 50.99900 21.03600
H  17.90400 53.30600 21.15200
H  18.84000 53.29400 19.69900
H  19.56500 53.05700 21.37100
H  21.06500 48.56500 23.93300
H  21.30900 47.60500 25.30300
H  22.10600 49.15100 25.22100
H  19.48900 50.83800 29.76600
H  19.21000 46.79800 31.73500
H  17.85100 47.76200 32.31100
H  19.40300 48.04100 33.06800

