158

Mg 16.86000 -2.49500 28.22500
C  16.04900 -0.29800 30.96200
C  18.71700 -4.21100 30.44500
C  18.04600 -4.05900 25.62600
C  15.17100 -0.30800 26.22100
N  17.16400 -2.34000 30.47900
C  16.84600 -1.34500 31.34100
C  17.21200 -1.66000 32.76300
C  18.11700 -2.92300 32.64500
C  17.99500 -3.21200 31.13800
C  19.54300 -2.87900 33.28500
C  15.91900 -1.83600 33.65100
C  15.95800 -1.22800 35.09300
H  17.35700 -0.77500 35.61500
N  18.15900 -4.05100 28.06200
C  18.80900 -4.64300 29.10100
C  19.56200 -5.70700 28.52400
C  19.31100 -5.70600 27.14900
C  18.47200 -4.58400 26.88900
C  20.33000 -6.79100 29.36400
C  19.78400 -6.67900 26.05000
O  19.43200 -6.59300 24.86800
C  20.83700 -7.73800 26.49200
N  16.61000 -2.30500 26.23700
C  17.28600 -2.99400 25.32700
C  17.13500 -2.47500 23.90600
C  16.04900 -1.30300 24.07100
C  15.84100 -1.34300 25.63200
C  18.42800 -2.10800 23.11100
C  14.66800 -1.51300 23.28800
C  13.57000 -2.33700 24.03100
N  15.73800 -0.80800 28.49300
C  15.05300 -0.03200 27.57100
C  14.35500 1.07100 28.18500
C  14.76900 1.03200 29.49600
C  15.58100 -0.12800 29.62800
C  13.47200 2.03100 27.47800
C  14.59300 1.69400 30.70200
O  13.97200 2.71300 30.99000
C  15.39900 0.87100 31.70700
C  16.50300 1.73300 32.30500
O  17.55100 2.01100 31.77800
O  16.02700 2.39200 33.45000
C  16.75600 3.41800 34.15500
H  19.40400 -4.74300 31.10700
H  18.47100 -4.60900 24.78400
H  14.72000 0.41500 25.53900
H  17.78300 -0.80500 33.12600
H  17.66200 -3.77400 33.15100
H  20.28100 -3.34100 32.62900
H  19.49400 -3.56500 34.13000
H  19.84600 -1.88400 33.61100
H  15.77000 -2.90800 33.77900
H  15.03300 -1.48300 33.12300
H  15.73200 -2.01900 35.80800
H  15.23500 -0.41400 35.15700
H  21.38200 -6.52300 29.45700
H  19.97200 -7.74800 28.98600
H  19.87800 -6.84700 30.35500
H  20.37000 -8.56400 27.02800
H  21.57000 -7.27700 27.15300
H  21.25800 -8.14400 25.57200
H  16.70300 -3.23500 23.25500
H  16.47100 -0.31100 23.91100
H  18.36200 -1.09800 22.70700
H  18.79200 -2.83800 22.38700
H  19.21200 -1.99600 23.86000
H  14.77400 -2.11200 22.38400
H  14.28500 -0.52400 23.04000
H  12.95500 -1.61600 24.57000
H  14.09500 -2.99600 24.72200
H  12.97400 -2.81400 23.25300
H  13.03000 1.45800 26.66300
H  14.02000 2.78300 26.91100
H  12.75000 2.55300 28.10600
H  14.71400 0.69900 32.53700
H  17.00300 4.24500 33.49000
H  17.51700 2.95300 34.78200
H  16.12100 3.90600 34.89400
Mg -2.51800 34.73200 26.95800
C  -4.05600 32.99700 29.49900
C  -1.20500 36.99200 29.26900
C  -1.22600 36.67700 24.38800
C  -4.22000 32.80200 24.55000
N  -2.71600 35.03700 29.12600
C  -3.44100 34.15700 29.95000
C  -3.09400 34.51800 31.47000
C  -2.26300 35.88300 31.32500
C  -2.01600 36.00100 29.78400
C  -2.88600 37.20500 31.86700
C  -2.53900 33.38300 32.39300
C  -1.32700 33.72000 33.17900
H  -1.10400 32.84200 34.37100
N  -1.20600 36.41000 26.89100
C  -0.83100 37.21800 27.95300
C  0.02800 38.25400 27.52000
C  0.17000 38.14500 26.09800
C  -0.75100 37.04700 25.75300
C  0.63000 39.22900 28.42400
C  1.00500 38.99700 25.17700
O  1.04300 38.76900 23.97100
C  1.90000 40.00000 25.77200
N  -2.88000 34.90000 24.78100
C  -2.14100 35.68000 23.93800
C  -2.35900 35.46200 22.44000
C  -3.26000 34.16800 22.53700
C  -3.48800 33.90000 24.01500
C  -3.07400 36.65000 21.70400
C  -2.67700 32.87200 21.76300
C  -1.78600 31.93300 22.59200
N  -3.85300 33.21400 26.94800
C  -4.41100 32.48200 25.89700
C  -5.32700 31.51600 26.52300
C  -5.03700 31.54600 27.87400
C  -4.24600 32.63200 28.11200
C  -6.23700 30.61300 25.61500
C  -5.35300 30.92800 29.15500
O  -5.99300 29.94100 29.45900
C  -4.78600 31.92300 30.30000
C  -6.01800 32.34300 30.99300
O  -6.81500 33.16900 30.49100
O  -6.03800 31.80800 32.24700
C  -6.98800 32.43900 33.20400
H  -0.95400 37.72000 30.04300
H  -0.99400 37.45000 23.65200
H  -4.73500 32.28700 23.73600
H  -4.07500 34.75200 31.88300
H  -1.26000 35.74900 31.73100
H  -3.80900 37.09800 32.43700
H  -3.08700 37.86200 31.02000
H  -2.20900 37.74900 32.52600
H  -2.16900 32.59000 31.74300
H  -3.29500 32.88600 33.00000
H  -1.34200 34.74300 33.55500
H  -0.52500 33.51700 32.46900
H  1.71200 39.14900 28.32300
H  0.27800 39.24200 29.45600
H  0.34000 40.20700 28.04100
H  1.21700 40.78100 26.10700
H  2.52700 40.45400 25.00400
H  2.56300 39.61100 26.54400
H  -1.42300 35.26300 21.91800
H  -4.24800 34.28800 22.09300
H  -3.79300 36.32100 20.95400
H  -2.35600 37.28600 21.18600
H  -3.39200 37.27700 22.53700
H  -2.30100 33.16500 20.78300
H  -3.59700 32.32700 21.55100
H  -1.43400 32.51000 23.44800
H  -0.97700 31.72600 21.89100
H  -2.30100 31.01000 22.85800
H  -5.62500 29.93300 25.02300
H  -6.84700 31.19400 24.92300
H  -6.63000 30.00900 26.43400
H  -4.25300 31.24900 30.97200
H  -6.40300 32.83500 34.03400
H  -7.66500 31.72800 33.67900
H  -7.55800 33.27600 32.80000

