158

Mg 44.83900 4.30200 46.35400
C  43.06200 7.25700 46.27000
C  41.90000 2.55100 45.72600
C  46.69500 1.53000 45.76900
C  47.86600 6.15300 46.52900
N  42.78500 4.84900 45.84900
C  42.24700 6.17000 45.83600
C  40.73100 6.13500 45.74200
C  40.32300 4.61800 45.76000
C  41.71300 3.98200 45.78900
C  39.31100 4.17500 46.89800
C  40.19900 6.80300 44.39800
C  40.93400 6.60800 43.06600
H  40.08700 6.46900 41.78300
N  44.34800 2.31700 45.79000
C  43.09700 1.76700 45.71900
C  43.19100 0.36200 45.54700
C  44.55600 0.02800 45.62600
C  45.29700 1.32800 45.72200
C  41.96100 -0.53200 45.35300
C  45.12000 -1.38700 45.65200
O  44.32100 -2.29100 45.65800
C  46.52900 -1.80800 45.84500
N  46.91600 3.89300 46.00500
C  47.46600 2.66400 45.88200
C  49.00700 2.62100 46.10000
C  49.25400 4.06600 46.52800
C  47.91800 4.76800 46.25600
C  49.60900 1.59200 47.08300
C  50.49600 4.71700 45.87400
C  51.60300 4.97500 46.90700
N  45.41700 6.36800 46.62000
C  46.65500 6.94400 46.63800
C  46.42900 8.38000 46.70900
C  45.01100 8.55000 46.69500
C  44.46200 7.28100 46.51500
C  47.52600 9.35800 46.70900
C  43.99200 9.51800 46.76800
O  44.01200 10.72900 47.00500
C  42.61600 8.73600 46.49100
C  41.74000 8.91200 47.67300
O  41.65000 8.09800 48.56900
O  40.82100 9.94200 47.52600
C  39.68900 9.98600 48.45400
H  40.97300 1.98400 45.62300
H  47.38400 0.68300 45.79000
H  48.82700 6.63200 46.72900
H  40.31800 6.73900 46.55000
H  39.83600 4.42700 44.80300
H  39.54600 3.25800 47.43700
H  38.40400 3.97100 46.32900
H  39.20800 5.01800 47.58100
H  40.26700 7.87200 44.60200
H  39.13300 6.60000 44.29800
H  41.55000 5.72600 43.24400
H  41.59400 7.47300 43.00800
H  42.10800 -1.08100 44.42300
H  40.95400 -0.12200 45.26800
H  42.05000 -1.40200 46.00200
H  47.17600 -1.49100 45.02600
H  46.59100 -2.89200 45.75600
H  46.77400 -1.31600 46.78600
H  49.53100 2.53800 45.14900
H  49.26800 3.99600 47.61600
H  50.13700 0.83200 46.50700
H  48.82600 1.13900 47.69100
H  50.38200 2.01200 47.72800
H  50.34600 5.66100 45.35100
H  50.93300 4.05100 45.13000
H  52.58700 4.79000 46.47500
H  51.41900 4.47000 47.85600
H  51.50600 6.02500 47.18100
H  48.30700 9.27600 47.46600
H  47.17600 10.36400 46.94100
H  47.99800 9.38400 45.72700
H  42.02500 9.22700 45.71800
H  40.01900 10.05200 49.49000
H  39.17700 9.02400 48.42200
H  38.96700 10.75900 48.19200
Mg 41.61200 8.47600 29.79900
C  43.54600 9.47600 32.50400
C  39.24500 7.34800 32.12800
C  39.90300 7.17500 27.25000
C  44.26700 9.18200 27.66600
N  41.55000 8.29500 32.04300
C  42.36600 8.90600 32.95000
C  41.86000 8.86500 34.38800
C  40.51500 8.01100 34.22100
C  40.40200 7.84100 32.69900
C  40.61500 6.65500 34.99100
C  41.57000 10.34100 34.87600
C  40.67700 10.49700 36.10700
H  41.19000 11.30200 37.27400
N  39.82000 7.41100 29.69700
C  38.95300 7.09300 30.76600
C  37.77100 6.48500 30.21000
C  37.84200 6.61300 28.74000
C  39.23900 7.05700 28.51300
C  36.55200 5.85100 31.07200
C  36.71200 6.42400 27.73000
O  36.98900 6.41100 26.46400
C  35.31500 6.27500 28.23100
N  42.06500 8.04400 27.75300
C  41.12900 7.57200 26.92300
C  41.51800 7.64400 25.48400
C  42.95600 8.35000 25.55100
C  43.11600 8.60800 27.07100
C  41.59900 6.20500 24.78900
C  42.98700 9.65700 24.73400
C  42.19400 10.92500 25.16000
N  43.53500 9.16800 29.99000
C  44.45500 9.50400 29.03000
C  45.63500 10.01300 29.65300
C  45.30000 10.11000 30.99800
C  44.02500 9.54600 31.12900
C  46.88700 10.34800 29.04200
C  45.78500 10.49500 32.30900
O  46.85900 11.00600 32.62300
C  44.59400 10.21400 33.31200
C  45.15200 9.41100 34.40700
O  45.79500 8.35300 34.26300
O  45.06100 10.05400 35.61200
C  45.67800 9.42000 36.75400
H  38.47900 7.14300 32.87800
H  39.34600 7.01800 26.32400
H  45.13500 9.44800 27.05900
H  42.58500 8.35300 35.02100
H  39.68700 8.61600 34.59200
H  40.72000 5.80100 34.32100
H  39.78700 6.51900 35.68600
H  41.46800 6.54600 35.66100
H  41.37900 10.92500 33.97500
H  42.48800 10.67700 35.35600
H  40.47700 9.49100 36.47400
H  39.76000 11.00200 35.80400
H  36.78900 5.94000 32.13200
H  36.30400 4.82000 30.81900
H  35.65500 6.42500 30.84100
H  34.67800 6.13900 27.35700
H  34.91700 7.06600 28.86700
H  35.41400 5.35200 28.80200
H  40.88500 8.31900 24.90800
H  43.76800 7.72300 25.18300
H  41.47100 5.33900 25.43900
H  42.47300 6.05400 24.15600
H  40.81100 6.21900 24.03600
H  42.55000 9.53200 23.74300
H  44.01400 9.89100 24.45400
H  41.40400 11.17700 24.45300
H  42.88200 11.76900 25.14900
H  41.74100 10.80500 26.14500
H  46.75800 10.97200 28.15800
H  47.44000 9.48800 28.66300
H  47.44500 10.88800 29.80700
H  44.25400 11.16100 33.73000
H  46.41900 10.09900 37.17700
H  46.31700 8.56900 36.51900
H  44.91400 9.12200 37.47100

