158

Mg -0.09100 8.13200 26.89000
C  0.50800 10.01900 29.62500
C  -0.20800 5.30400 28.87500
C  -0.34600 6.27500 24.04200
C  0.23900 10.98200 24.85100
N  0.12900 7.73700 28.96300
C  0.31500 8.69300 29.90800
C  0.23800 8.03500 31.37800
C  0.29300 6.47400 31.09100
C  0.09200 6.49700 29.53000
C  1.65500 5.67600 31.41300
C  -1.11300 8.41500 32.05600
C  -1.19400 8.37600 33.60100
H  0.02600 7.92000 34.43900
N  -0.40900 6.13800 26.47400
C  -0.33500 5.13300 27.46600
C  -0.56300 3.84000 26.80900
C  -0.64300 4.06000 25.38700
C  -0.43700 5.53700 25.21000
C  -0.66400 2.49100 27.51700
C  -0.90400 3.07200 24.21600
O  -0.92200 3.44000 23.08900
C  -1.28500 1.66400 24.57400
N  -0.10800 8.58600 24.84900
C  -0.25400 7.64500 23.84100
C  -0.17600 8.32500 22.39400
C  -0.34000 9.80700 22.72100
C  0.00900 9.79500 24.19700
C  1.18200 8.11800 21.64600
C  -1.64400 10.48700 22.32500
C  -2.99900 9.80900 22.47200
N  0.40600 10.11700 27.17300
C  0.48700 11.17000 26.25200
C  0.86500 12.32700 26.99100
C  0.98000 11.91500 28.29900
C  0.58800 10.60200 28.35100
C  1.17900 13.66900 26.36900
C  1.27500 12.32900 29.65400
O  1.65900 13.46200 30.06000
C  0.84900 11.15200 30.55300
C  2.11900 10.85000 31.37700
O  3.14400 10.33100 30.98800
O  1.90200 11.13200 32.68600
C  2.90900 10.63000 33.63200
H  -0.27100 4.40500 29.49200
H  -0.24200 5.66200 23.14400
H  0.24200 11.85700 24.19700
H  1.14400 8.32000 31.91400
H  -0.45700 5.82900 31.54900
H  1.53200 4.72600 31.93300
H  2.25500 6.35500 32.01900
H  2.20500 5.46600 30.49600
H  -1.92000 7.78300 31.68500
H  -1.44100 9.42700 31.81500
H  -2.10200 7.84100 33.87600
H  -1.35600 9.41300 33.89500
H  -1.65400 2.06700 27.68300
H  -0.16200 2.62700 28.47600
H  -0.05300 1.74000 27.01600
H  -0.40000 1.07300 24.80800
H  -1.62500 1.25000 23.62400
H  -2.01800 1.74200 25.37600
H  -0.95400 8.03000 21.69000
H  0.43600 10.35300 22.18400
H  1.09100 7.33900 20.88900
H  1.97600 7.78000 22.31200
H  1.44400 8.92600 20.96400
H  -1.44800 10.70400 21.27500
H  -1.72600 11.39900 22.91600
H  -3.31600 9.53100 21.46700
H  -3.71000 10.49100 22.94000
H  -2.88600 8.95000 23.13300
H  1.20700 14.48400 27.09200
H  0.58900 14.01300 25.51900
H  2.16700 13.40800 25.98900
H  0.03400 11.47000 31.20300
H  2.73700 11.06900 34.61500
H  3.95100 10.78800 33.35300
H  2.67900 9.57300 33.76600
Mg -12.69000 15.77100 42.43400
C  -9.48900 14.38300 42.49800
C  -11.32200 18.58300 40.84000
C  -15.77300 16.97900 41.93300
C  -13.98900 12.61200 43.18900
N  -10.65000 16.34200 41.69700
C  -9.47800 15.61700 41.89200
C  -8.31100 16.23100 41.12000
C  -8.93500 17.65100 40.71200
C  -10.44000 17.55200 41.11700
C  -8.39200 18.96800 41.34300
C  -8.02800 15.36400 39.82200
C  -6.54300 15.27000 39.40200
H  -6.16700 16.10500 38.20500
N  -13.42900 17.59200 41.51400
C  -12.70400 18.59800 40.94200
C  -13.66900 19.64500 40.45400
C  -15.00900 19.22700 40.91500
C  -14.79900 17.86700 41.46600
C  -13.24100 21.07800 39.91300
C  -16.28800 19.99200 40.67700
O  -16.35600 21.08600 40.13900
C  -17.63800 19.53800 41.20600
N  -14.59000 14.85300 42.39200
C  -15.71000 15.63500 42.25100
C  -16.95100 14.74500 42.49400
C  -16.38700 13.29700 42.77600
C  -14.87000 13.60300 42.76400
C  -17.89900 15.37000 43.53300
C  -16.81400 12.19000 41.75200
C  -18.01100 11.27600 42.28300
N  -11.89700 13.85100 42.93700
C  -12.52300 12.67300 43.25700
C  -11.54600 11.71600 43.59400
C  -10.29400 12.33800 43.25400
C  -10.61100 13.64900 42.82900
C  -11.75900 10.35300 44.19800
C  -8.79500 12.15500 43.24400
O  -8.05600 11.18900 43.53500
C  -8.20200 13.52000 42.64800
C  -7.14200 14.14400 43.60700
O  -7.28600 14.75000 44.64300
O  -5.87500 13.89700 43.01700
C  -4.76400 14.62600 43.64900
H  -11.06600 19.59600 40.52200
H  -16.79900 17.30800 41.75800
H  -14.38200 11.63100 43.46600
H  -7.52700 16.27300 41.87700
H  -9.01800 17.81100 39.63700
H  -9.11300 19.08100 42.15200
H  -8.46400 19.75800 40.59600
H  -7.38600 18.90300 41.75900
H  -8.53600 15.69400 38.91600
H  -8.50100 14.39000 39.94900
H  -6.33700 14.22000 39.19900
H  -6.00000 15.62200 40.27900
H  -13.98200 21.82400 40.20000
H  -12.99700 21.11300 38.85100
H  -12.36100 21.48600 40.41100
H  -18.00300 18.62300 40.73900
H  -18.29800 20.38500 41.02100
H  -17.45400 19.51600 42.28000
H  -17.55600 14.80300 41.59000
H  -16.47400 12.99300 43.81900
H  -18.92300 15.26100 43.17500
H  -17.67800 16.41000 43.77500
H  -17.80400 14.89700 44.51100
H  -15.99900 11.57100 41.37800
H  -17.22000 12.78000 40.93100
H  -17.64300 10.25200 42.34400
H  -18.74600 11.38400 41.48500
H  -18.36100 11.51500 43.28700
H  -11.91300 9.48800 43.55300
H  -12.62200 10.41700 44.86200
H  -10.88700 10.14600 44.81800
H  -7.68600 13.23400 41.73200
H  -4.23100 14.12000 44.45400
H  -5.03300 15.66300 43.84800
H  -4.01800 14.56700 42.85600

