158

Mg 47.37500 25.77300 27.62500
C  48.17400 28.18200 30.15300
C  47.02400 23.49500 30.13900
C  46.91800 23.40600 25.21800
C  48.91000 27.83600 25.26300
N  47.51300 25.89100 29.81400
C  47.72700 26.97000 30.66600
C  47.59300 26.64800 32.11100
C  47.50300 25.08300 32.05200
C  47.33900 24.81400 30.60900
C  48.72000 24.28300 32.70900
C  46.44500 27.45600 32.78900
C  45.84300 26.96200 34.12900
H  45.80300 27.93200 35.28900
N  46.90600 23.72900 27.63300
C  46.79500 22.97000 28.82900
C  46.29200 21.63400 28.53000
C  46.19000 21.60200 27.04700
C  46.74400 22.89100 26.55400
C  46.10700 20.56800 29.55600
C  45.69700 20.48800 26.15700
O  45.75800 20.59300 24.93600
C  45.13500 19.25500 26.64400
N  47.79700 25.62500 25.51000
C  47.52300 24.58100 24.69100
C  47.89800 24.87400 23.21400
C  48.08200 26.42700 23.25400
C  48.32100 26.63900 24.75700
C  49.03600 23.94800 22.73800
C  46.92200 27.29000 22.65000
C  47.35500 28.49800 21.79800
N  48.29000 27.64800 27.63900
C  48.93300 28.26800 26.63100
C  49.34600 29.59200 27.13400
C  49.06600 29.59600 28.51800
C  48.47200 28.38000 28.79100
C  49.88000 30.70000 26.32400
C  49.15600 30.38900 29.76400
O  49.68200 31.51200 29.93100
C  48.58100 29.48400 30.93500
C  49.62700 29.28800 31.95500
O  50.54000 28.40900 32.00900
O  49.25900 30.05900 33.06000
C  49.82400 29.57200 34.31700
H  46.87300 22.71000 30.88400
H  46.85000 22.67700 24.40800
H  49.32600 28.48200 24.48800
H  48.58400 26.90400 32.48400
H  46.65000 24.77100 32.65500
H  49.51000 24.91900 33.10800
H  49.24900 23.71600 31.94300
H  48.33600 23.58200 33.45000
H  45.61000 27.55200 32.09600
H  46.90800 28.43000 32.94900
H  46.22100 25.96600 34.36100
H  44.77700 26.77000 34.01100
H  45.07400 20.22500 29.51300
H  46.19400 20.88000 30.59600
H  46.77700 19.76000 29.26400
H  44.21600 19.40400 27.20900
H  45.92700 18.72800 27.17500
H  44.78000 18.72600 25.76000
H  47.04900 24.60900 22.58500
H  49.03800 26.52000 22.73900
H  49.38100 23.38000 23.60100
H  49.80900 24.57500 22.29400
H  48.52800 23.26800 22.05400
H  46.31500 27.63900 23.48500
H  46.22900 26.66300 22.08900
H  47.45000 29.37600 22.43800
H  46.53400 28.65200 21.09800
H  48.26300 28.32500 21.22000
H  49.16100 31.06600 25.59100
H  50.81100 30.47900 25.80300
H  50.09400 31.47100 27.06500
H  47.71300 29.89600 31.45100
H  50.90800 29.48400 34.23700
H  49.29400 28.64100 34.51500
H  49.63400 30.33900 35.06900
Mg 1.73800 42.69300 26.04500
C  2.88900 43.00000 29.34200
C  -1.35600 41.57100 27.47400
C  0.44600 42.17000 22.90100
C  4.75100 43.58000 24.80400
N  0.90400 42.25000 28.17200
C  1.55900 42.60400 29.37400
C  0.68900 42.23400 30.53500
C  -0.70400 41.69000 29.90100
C  -0.37000 41.87400 28.39800
C  -1.20700 40.25600 30.28000
C  0.43500 43.51100 31.38800
C  0.60500 43.40400 32.88000
H  0.30200 42.07600 33.48100
N  -0.12300 41.85000 25.26100
C  -1.24500 41.47600 26.03200
C  -2.28400 41.02500 25.15500
C  -1.78500 41.21800 23.80100
C  -0.42200 41.77000 23.94700
C  -3.57500 40.54500 25.71400
C  -2.53800 41.00700 22.55600
O  -2.04700 41.28900 21.43300
C  -4.00400 40.61000 22.53700
N  2.51700 42.64900 24.14300
C  1.82800 42.62900 22.97900
C  2.66900 43.10200 21.74700
C  3.86900 43.77000 22.46500
C  3.73800 43.28600 23.88400
C  3.08300 41.95700 20.84200
C  3.65900 45.34000 22.31800
C  4.32400 45.97200 21.07700
N  3.51900 43.18300 26.85400
C  4.68700 43.52200 26.24700
C  5.76700 43.67100 27.20300
C  5.08700 43.52500 28.41300
C  3.70300 43.18200 28.16700
C  7.15100 44.25000 27.00800
C  5.21200 43.70800 29.85800
O  6.18400 44.07400 30.47400
C  3.84600 43.33000 30.50400
C  4.26400 42.12600 31.31600
O  4.93400 41.15300 30.86700
O  3.98500 42.24400 32.66300
C  4.50700 41.18400 33.49800
H  -2.30100 41.17800 27.85500
H  0.03400 42.22300 21.89100
H  5.70200 43.74000 24.29300
H  1.19400 41.48400 31.14400
H  -1.58500 42.27900 30.15800
H  -1.70600 40.32100 31.24700
H  -0.28800 39.69200 30.44100
H  -1.84000 39.88300 29.47600
H  -0.59000 43.85700 31.24700
H  1.05800 44.35600 31.09400
H  0.08600 44.16500 33.46300
H  1.64200 43.63200 33.12900
H  -3.62300 40.25200 26.76300
H  -3.75300 39.68300 25.07100
H  -4.32000 41.33400 25.62200
H  -4.50200 40.80600 21.58700
H  -4.47800 41.34300 23.18900
H  -4.02400 39.61600 22.98300
H  2.03100 43.75100 21.14700
H  4.78400 43.32900 22.06900
H  2.26100 41.38300 20.41400
H  3.79400 41.32600 21.37600
H  3.51800 42.45700 19.97800
H  4.04600 45.81400 23.22000
H  2.60100 45.58000 22.21300
H  4.90300 46.74600 21.58000
H  3.65800 46.31400 20.28400
H  4.94300 45.23400 20.56800
H  7.43700 44.90900 27.82700
H  7.02900 44.75400 26.04900
H  7.95500 43.54300 26.80200
H  3.42400 44.11300 31.13400
H  3.98800 40.26700 33.22000
H  4.24100 41.31100 34.54700
H  5.59600 41.13900 33.47300

