158

Mg 24.80600 -7.50900 48.55200
C  27.24200 -5.26700 46.91900
C  22.56600 -6.28100 46.24700
C  22.81000 -9.72000 49.83000
C  27.57900 -9.08000 50.07600
N  24.94300 -5.85700 46.77200
C  25.98500 -5.03500 46.39700
C  25.49600 -4.02800 45.32900
C  23.93400 -4.39200 45.25800
C  23.73500 -5.50800 46.24500
C  23.07200 -3.09100 45.40400
C  26.22700 -4.06800 43.94300
C  26.64600 -2.70700 43.34900
H  26.53900 -2.51000 41.86800
N  22.94500 -7.93300 48.12800
C  22.26700 -7.32000 47.08500
C  20.95100 -7.96700 47.09900
C  20.92600 -8.88200 48.20000
C  22.23800 -8.83600 48.81600
C  19.75600 -7.62100 46.11000
C  19.78800 -9.78600 48.55100
O  18.63700 -9.62200 48.07100
C  19.93100 -10.90500 49.54500
N  25.17300 -9.19100 49.76200
C  24.12600 -9.91800 50.21600
C  24.57200 -10.97600 51.18700
C  26.11500 -10.87900 51.14200
C  26.28800 -9.62600 50.29300
C  24.04500 -10.88600 52.67300
C  26.90900 -12.08300 50.56800
C  28.04600 -12.69200 51.47500
N  26.96600 -7.26800 48.62000
C  27.93300 -7.93800 49.35000
C  29.21200 -7.40000 49.10300
C  28.99300 -6.26200 48.34700
C  27.57000 -6.31600 47.91500
C  30.50300 -8.03800 49.62600
C  29.70500 -5.13900 47.67600
O  30.85800 -4.83100 47.71500
C  28.49800 -4.39200 46.74800
C  28.26800 -3.02200 47.26600
O  27.86500 -2.65500 48.36400
O  28.64600 -2.15700 46.35700
C  28.21600 -0.80700 46.56100
H  21.77200 -5.93300 45.58300
H  22.24600 -10.54300 50.27500
H  28.34300 -9.69600 50.55600
H  25.63100 -3.02400 45.73100
H  23.50200 -4.79000 44.34000
H  22.73700 -2.85700 46.41400
H  22.13900 -3.32300 44.88900
H  23.51100 -2.24700 44.87200
H  25.49500 -4.43100 43.22200
H  27.09600 -4.72600 43.91800
H  27.67000 -2.45200 43.62300
H  25.95300 -1.96800 43.75400
H  19.88800 -8.22100 45.21000
H  19.82400 -6.60000 45.73500
H  18.76200 -7.87300 46.47800
H  20.57700 -11.63400 49.05500
H  18.95000 -11.33700 49.74100
H  20.29500 -10.57300 50.51800
H  24.21500 -11.97200 50.92500
H  26.52700 -10.69000 52.13400
H  23.99500 -9.86100 53.04100
H  24.68500 -11.50300 53.30400
H  23.05100 -11.32300 52.76100
H  27.35500 -11.89300 49.59100
H  26.22000 -12.92700 50.56800
H  29.06500 -12.61700 51.09500
H  27.79900 -13.72600 51.71500
H  27.92300 -12.18200 52.43100
H  30.31800 -9.09300 49.42700
H  30.46500 -7.89700 50.70700
H  31.42400 -7.65700 49.18600
H  28.81700 -4.26700 45.71300
H  28.65200 -0.29300 47.41700
H  27.13000 -0.71500 46.53500
H  28.45500 -0.23800 45.66300
Mg 41.20700 40.73800 27.53600
C  40.25600 43.30900 29.76600
C  41.88700 38.75400 30.22800
C  42.14000 38.39400 25.37000
C  40.82800 43.11300 24.92200
N  41.04000 40.97300 29.65000
C  40.48700 42.06100 30.34900
C  40.69200 41.86900 31.83400
C  41.10600 40.36000 31.95000
C  41.48500 40.02500 30.55300
C  42.22900 39.98600 32.91300
C  39.29800 42.12300 32.59300
C  39.34800 43.13300 33.74200
H  38.49400 42.79100 35.00400
N  41.89400 38.75600 27.77600
C  42.06900 38.10400 29.00600
C  42.49500 36.74900 28.69800
C  42.53700 36.68000 27.27000
C  42.19200 37.96100 26.71900
C  42.58000 35.74400 29.75600
C  42.73300 35.41400 26.46300
O  42.67200 35.42600 25.25900
C  43.18600 34.16000 27.17800
N  41.49300 40.75900 25.48100
C  41.91400 39.66500 24.81400
C  42.02700 39.90300 23.26000
C  41.46500 41.37000 23.18000
C  41.18300 41.77800 24.60000
C  43.43500 39.48700 22.71000
C  40.24200 41.67500 22.25400
C  38.91100 40.97400 22.70700
N  40.51800 42.74900 27.30100
C  40.59800 43.54500 26.23800
C  40.20000 44.83600 26.59300
C  40.06500 44.75900 27.99100
C  40.31100 43.49800 28.38100
C  39.84100 46.03700 25.72900
C  39.74000 45.57000 29.16700
O  39.32700 46.70100 29.21900
C  40.02100 44.70200 30.41300
C  41.29700 45.15000 31.09300
O  42.41400 45.11600 30.63300
O  40.88300 45.65600 32.28700
C  41.88000 46.17600 33.16400
H  42.25200 38.09300 31.01700
H  42.43400 37.71300 24.56800
H  40.64200 43.87000 24.15800
H  41.54100 42.49300 32.11400
H  40.23500 39.76800 32.23100
H  43.10900 39.84100 32.28700
H  42.08500 39.16100 33.61100
H  42.32300 40.85700 33.56200
H  38.93300 41.13200 32.86300
H  38.59300 42.55900 31.88500
H  38.95200 44.07000 33.35100
H  40.41900 43.20800 33.93100
H  42.24400 34.78100 29.37200
H  42.08300 36.03400 30.68200
H  43.61200 35.65700 30.09600
H  43.98400 34.38700 27.88500
H  43.52000 33.51200 26.36800
H  42.24100 33.70700 27.47800
H  41.30900 39.26500 22.74500
H  42.33900 41.93100 22.84900
H  44.08000 39.19300 23.53800
H  44.02700 40.21400 22.15500
H  43.42800 38.62900 22.03700
H  40.50000 41.35600 21.24400
H  39.95800 42.72600 22.20400
H  38.23300 41.61300 23.27300
H  39.12300 40.13600 23.37000
H  38.46200 40.58000 21.79600
H  39.58100 45.64400 24.74600
H  40.73900 46.63700 25.58300
H  39.05700 46.67400 26.13800
H  39.11900 44.72900 31.02300
H  41.62100 47.21000 33.39200
H  42.85300 46.10400 32.67800
H  42.12800 45.59100 34.04900

