158

Mg 8.72700 3.25900 26.91300
C  10.11600 1.48500 29.69200
C  6.92400 5.11400 28.98100
C  7.83100 4.75400 24.15800
C  10.22100 0.66700 24.80700
N  8.49100 3.26300 29.11600
C  9.25000 2.61000 30.03300
C  8.91300 3.08800 31.50000
C  7.60500 3.96800 31.25000
C  7.67300 4.11900 29.68400
C  6.33400 3.32300 31.69300
C  10.17800 3.75700 32.11800
C  10.73000 3.10200 33.41800
H  11.49600 4.03600 34.45100
N  7.51600 4.76200 26.60700
C  6.99600 5.46900 27.66400
C  6.32200 6.59700 27.09500
C  6.43500 6.49700 25.68200
C  7.31800 5.31700 25.43800
C  5.51900 7.55900 27.92100
C  5.82100 7.37300 24.69500
O  5.99000 7.04300 23.50200
C  5.24700 8.70700 24.99300
N  8.99800 2.73100 24.78700
C  8.52700 3.63300 23.84900
C  8.81400 3.16400 22.40900
C  9.46800 1.79800 22.62900
C  9.60400 1.70900 24.17200
C  7.65200 3.16500 21.41100
C  10.60000 1.26200 21.68500
C  10.56100 -0.23300 21.33300
N  9.82900 1.38600 27.16000
C  10.38000 0.51700 26.21300
C  11.06200 -0.55600 26.83100
C  11.07700 -0.17200 28.19000
C  10.29900 0.98800 28.38100
C  11.67300 -1.77800 26.24000
C  11.60900 -0.38500 29.49100
O  12.26200 -1.27800 29.92700
C  10.93300 0.61300 30.56400
C  10.02400 -0.11800 31.45800
O  9.22800 -0.96400 31.11400
O  10.30000 0.26500 32.74300
C  9.29000 -0.30600 33.74000
H  6.31200 5.66400 29.69900
H  7.59000 5.45000 23.35100
H  10.72000 -0.05900 24.16100
H  8.51600 2.32700 32.17100
H  7.76300 4.98100 31.62100
H  6.36200 3.22800 32.77900
H  6.19800 2.29400 31.36100
H  5.42100 3.85300 31.42200
H  10.03800 4.81300 32.35200
H  10.88100 3.71100 31.28600
H  11.49700 2.37800 33.14500
H  9.96100 2.63000 34.02900
H  5.76800 7.47200 28.97900
H  4.47400 7.34900 27.69400
H  5.84000 8.56200 27.64200
H  6.05600 9.23600 25.49600
H  4.37800 8.55500 25.63400
H  4.95200 9.15300 24.04300
H  9.52800 3.84200 21.94200
H  8.68200 1.04700 22.56000
H  6.74400 3.65000 21.76800
H  7.27800 2.19900 21.07100
H  7.88300 3.81700 20.56800
H  11.50600 1.33900 22.28800
H  10.80800 1.85200 20.79300
H  9.53800 -0.60900 21.30400
H  11.15800 -0.83100 22.02100
H  11.01000 -0.40900 20.35600
H  12.32400 -1.38700 25.45800
H  10.96600 -2.30100 25.59500
H  12.22900 -2.37300 26.96300
H  11.62900 1.26600 31.09000
H  9.36700 -1.37700 33.93100
H  8.28100 -0.09800 33.38400
H  9.52700 0.12500 34.71200
Mg 35.35300 1.39800 29.36000
C  32.89700 2.44900 31.56200
C  37.78200 1.59100 31.67100
C  37.64900 0.82300 26.86500
C  32.84600 1.64600 26.72600
N  35.40500 2.17300 31.37800
C  34.20500 2.40800 32.09700
C  34.58600 2.46000 33.62600
C  36.17400 2.31100 33.59700
C  36.49800 1.99100 32.12400
C  36.85700 3.55800 34.13900
C  33.88100 1.32600 34.43800
C  33.51400 1.55400 35.93300
H  33.74400 2.93400 36.38200
N  37.41000 1.04900 29.34800
C  38.21800 1.07500 30.41800
C  39.52500 0.49700 30.11700
C  39.49800 0.32000 28.64700
C  38.15100 0.76300 28.20400
C  40.53800 0.10000 31.10700
C  40.59700 -0.31700 27.68600
O  40.45900 -0.43100 26.48100
C  41.84200 -0.87000 28.35600
N  35.30600 1.33000 27.12700
C  36.38500 0.95500 26.38600
C  36.05500 0.70800 24.93300
C  34.46500 0.92300 24.87100
C  34.14000 1.34200 26.28300
C  36.83500 1.59300 24.00100
C  33.53500 -0.22000 24.33500
C  32.74600 0.18900 23.08100
N  33.26500 1.83500 29.16800
C  32.39300 1.88600 28.05700
C  31.04500 2.33800 28.57500
C  31.16800 2.39500 29.99600
C  32.58600 2.26300 30.23900
C  29.82300 2.42000 27.80800
C  30.44400 2.79800 31.19600
O  29.29500 3.14100 31.35700
C  31.56200 2.75300 32.29600
C  31.70500 3.97500 33.07500
O  32.32500 4.94600 32.65400
O  30.93400 3.94300 34.28700
C  30.77500 5.30200 34.89100
H  38.53400 1.45600 32.45100
H  38.34600 0.59000 26.05700
H  32.22300 1.89800 25.86500
H  34.25000 3.46900 33.86500
H  36.39700 1.42800 34.19500
H  37.86600 3.56000 33.72800
H  36.92400 3.44300 35.22100
H  36.30000 4.48000 33.97100
H  34.56300 0.47700 34.48900
H  33.03900 0.86400 33.92200
H  34.12800 0.95000 36.60100
H  32.44800 1.33800 36.01300
H  40.77300 -0.92800 30.83100
H  40.20600 0.01200 32.14200
H  41.35100 0.82500 31.11800
H  42.62400 -1.18200 27.66300
H  41.57600 -1.69100 29.02100
H  42.26600 -0.08400 28.98100
H  36.25400 -0.33300 24.67800
H  34.18300 1.80000 24.28900
H  37.26500 0.94700 23.23600
H  37.57700 2.12900 24.59300
H  36.12800 2.26400 23.51300
H  32.83500 -0.53700 25.10800
H  34.13200 -1.11200 24.14200
H  31.77900 -0.31300 23.07700
H  33.27900 -0.13500 22.18800
H  32.54500 1.24900 22.92800
H  29.69800 3.41300 27.37700
H  29.06400 2.21300 28.56200
H  29.88500 1.63000 27.05900
H  31.45600 1.91700 32.98800
H  30.30000 5.14900 35.86000
H  30.10500 5.84000 34.22000
H  31.68800 5.89100 34.97500

