158

Mg 0.62400 -2.74700 43.43300
C  4.00000 -1.99500 42.32100
C  -0.43600 -0.22600 41.38700
C  -2.50900 -3.85200 43.79300
C  1.82100 -5.80300 44.55300
N  1.72500 -1.40100 41.93900
C  3.06700 -1.16900 41.64300
C  3.24600 -0.00400 40.67500
C  1.83100 0.67500 40.61000
C  0.96800 -0.42800 41.33100
C  1.76300 2.10800 41.24900
C  3.88600 -0.37000 39.29700
C  5.15300 0.32800 38.95300
H  5.42800 0.69800 37.47000
N  -1.25000 -1.98900 42.90600
C  -1.48900 -0.93900 42.08400
C  -2.86800 -0.68400 42.00300
C  -3.49800 -1.69200 42.77000
C  -2.42600 -2.55500 43.23400
C  -3.39000 0.50600 41.37400
C  -4.95600 -1.71100 43.00400
O  -5.69700 -0.83900 42.46900
C  -5.60700 -2.81500 43.73100
N  -0.22200 -4.69200 43.88000
C  -1.59900 -4.86100 44.02100
C  -1.86400 -6.36900 44.40400
C  -0.41900 -6.79000 44.89600
C  0.50500 -5.66800 44.46800
C  -3.01800 -6.46100 45.49300
C  0.00500 -8.20700 44.42200
C  -1.03200 -9.31400 44.39400
N  2.51000 -3.68200 43.63600
C  2.86700 -4.91800 44.15800
C  4.30900 -4.93300 44.18100
C  4.79600 -3.82700 43.50600
C  3.66400 -3.12000 43.07300
C  5.17600 -6.06700 44.83500
C  5.98500 -3.14100 43.11000
O  7.17400 -3.26100 43.43400
C  5.52500 -1.90900 42.29600
C  6.19000 -0.65900 42.68300
O  7.00500 -0.08600 41.94700
O  5.85300 -0.34200 44.00300
C  6.36700 1.02000 44.41800
H  -0.71000 0.74200 40.96100
H  -3.51600 -4.24400 43.94800
H  2.14700 -6.74300 45.00400
H  3.91700 0.63200 41.25200
H  1.51200 0.88300 39.58900
H  1.28700 2.18500 42.22700
H  1.32200 2.84200 40.57500
H  2.81500 2.31700 41.44100
H  3.20800 0.03600 38.54500
H  4.09500 -1.43300 39.18300
H  6.03700 -0.20900 39.29700
H  5.19400 1.22100 39.57600
H  -3.93600 0.29000 40.45600
H  -2.71500 1.35300 41.24800
H  -4.10100 1.03900 42.00500
H  -5.08000 -3.11900 44.63500
H  -5.63500 -3.76300 43.19600
H  -6.58700 -2.41900 43.99600
H  -2.15200 -6.97300 43.54300
H  -0.43800 -6.70700 45.98300
H  -3.23500 -5.42900 45.76700
H  -2.72000 -6.78900 46.48900
H  -3.92600 -6.94900 45.13800
H  0.79800 -8.57200 45.07400
H  0.53200 -8.18000 43.46800
H  -1.33200 -9.31000 43.34600
H  -1.93800 -9.18000 44.98400
H  -0.61900 -10.28300 44.67400
H  6.13600 -5.58100 45.01100
H  5.26800 -6.91500 44.15600
H  4.88200 -6.50300 45.79000
H  5.72800 -2.11200 41.24500
H  7.26700 1.01600 45.03300
H  5.67800 1.58000 45.05000
H  6.63400 1.68300 43.59500
Mg 49.26100 46.14400 42.65300
C  45.74300 46.23500 41.66100
C  49.41300 42.95300 41.51200
C  52.55200 46.30300 42.94100
C  48.96700 49.60000 43.13100
N  47.72600 44.76000 41.77400
C  46.40900 44.95900 41.50100
C  45.82900 43.59600 41.04600
C  46.97500 42.56200 41.11500
C  48.11900 43.45600 41.60300
C  46.84600 41.39700 42.14200
C  44.89600 43.52300 39.76000
C  45.57800 43.82900 38.34800
H  45.50500 42.65400 37.35300
N  50.77500 44.70700 42.44200
C  50.64500 43.42300 42.02300
C  51.90400 42.77500 41.93900
C  52.86600 43.69600 42.36700
C  52.05800 44.97600 42.67300
C  51.93200 41.28000 41.55000
C  54.33600 43.50400 42.40100
O  54.78400 42.38400 42.22400
C  55.27400 44.55600 42.66900
N  50.55100 47.78800 43.02700
C  51.90200 47.59800 43.07300
C  52.61800 49.00600 43.16500
C  51.41700 50.01400 43.04000
C  50.24600 49.06800 43.13400
C  53.46200 49.19100 44.41300
C  51.46900 50.79400 41.70500
C  51.47300 52.32600 41.79100
N  47.61700 47.61500 42.67300
C  47.69200 48.97900 42.88900
C  46.37400 49.59700 42.76000
C  45.56300 48.51500 42.35800
C  46.38400 47.38000 42.30000
C  45.93800 51.07100 42.91600
C  44.24400 48.17400 41.93800
O  43.25800 48.81800 41.90900
C  44.30700 46.70200 41.37500
C  43.32900 45.82900 42.18000
O  42.38200 45.15400 41.67400
O  43.66300 45.78800 43.48000
C  42.83800 44.92700 44.41900
H  49.49600 41.93200 41.13300
H  53.60100 46.60300 42.97700
H  48.79900 50.65100 43.37800
H  45.14400 43.46700 41.88400
H  47.26700 42.31000 40.09500
H  45.85900 41.33000 42.60000
H  47.45900 41.56100 43.02800
H  47.06100 40.43800 41.67000
H  44.11600 44.26500 39.93000
H  44.42500 42.54100 39.78400
H  46.58700 44.22200 38.47300
H  45.01000 44.65200 37.91600
H  52.38600 41.30100 40.55900
H  51.01500 40.73100 41.33500
H  52.45400 40.73400 42.33400
H  55.01000 45.34400 41.96300
H  56.25300 44.16000 42.40400
H  55.11000 44.93100 43.68000
H  53.27900 49.02700 42.29800
H  51.29200 50.65900 43.90900
H  54.51400 49.06800 44.15300
H  53.09400 48.51500 45.18400
H  53.42900 50.16700 44.89700
H  50.55900 50.55600 41.15400
H  52.30700 50.43100 41.11000
H  50.58900 52.76400 41.32800
H  52.27400 52.65300 41.12900
H  51.67600 52.60800 42.82400
H  45.23200 51.39300 42.15100
H  46.82400 51.69800 43.01400
H  45.43700 51.17700 43.87900
H  44.00200 46.58400 40.33500
H  43.12300 45.11600 45.45400
H  42.81000 43.84900 44.26100
H  41.78600 45.15300 44.24100

