158

Mg 0.30100 8.36500 26.42500
C  0.86600 10.18300 29.50600
C  -0.06900 5.50000 28.37200
C  0.31000 6.73600 23.63100
C  1.23400 11.27400 24.80200
N  0.34600 7.96600 28.70300
C  0.56900 8.88300 29.72400
C  0.51600 8.11600 31.08800
C  0.46800 6.58000 30.62600
C  0.20300 6.64900 29.14200
C  1.71500 5.68100 30.99300
C  -0.66600 8.57300 32.00300
C  -0.47000 8.48300 33.58300
H  0.85900 7.89300 34.19400
N  0.08300 6.39100 26.04300
C  -0.00200 5.30900 26.88200
C  -0.03500 4.07300 26.09900
C  -0.08000 4.43900 24.75100
C  0.12400 5.89600 24.79100
C  -0.11400 2.68600 26.69800
C  -0.15600 3.59400 23.55500
O  -0.14400 4.07600 22.42400
C  -0.26300 2.09800 23.70800
N  0.43600 9.01900 24.46100
C  0.54100 8.10200 23.46400
C  0.69300 8.87600 22.13000
C  0.69700 10.37200 22.51600
C  0.91200 10.19600 24.03500
C  2.02200 8.43700 21.44000
C  -0.67900 11.06500 22.39700
C  -1.21200 11.23000 20.88800
N  0.89300 10.42100 26.97500
C  1.17100 11.42300 26.20500
C  1.43500 12.56200 27.00200
C  1.43600 12.06600 28.28400
C  0.97900 10.80900 28.27100
C  1.67700 13.93800 26.63900
C  1.66300 12.46600 29.68500
O  2.00100 13.54100 30.20000
C  1.24200 11.24000 30.50300
C  2.22900 10.86900 31.58800
O  3.27500 10.23000 31.46500
O  1.77800 11.35300 32.77300
C  2.70700 11.45100 33.91700
H  -0.02900 4.53900 28.88900
H  0.37800 6.21900 22.67100
H  1.48400 12.22100 24.31900
H  1.45500 8.33600 31.59500
H  -0.50700 6.20700 30.94200
H  2.41700 6.11400 31.70500
H  2.26700 5.42400 30.08900
H  1.44700 4.72900 31.45100
H  -1.48800 7.88900 31.79100
H  -0.94300 9.59600 31.75000
H  -1.25500 7.82300 33.95200
H  -0.67700 9.49700 33.92500
H  0.18800 2.65100 27.74500
H  0.49400 1.99200 26.11600
H  -1.16500 2.40500 26.63600
H  -0.64100 1.63100 22.79800
H  -1.00800 1.94200 24.48800
H  0.72900 1.74300 23.98700
H  -0.11100 8.77800 21.40100
H  1.48400 10.98000 22.07000
H  2.36700 7.67300 22.13600
H  2.73000 9.25600 21.31100
H  1.81400 7.92900 20.49800
H  -0.69500 12.06400 22.83300
H  -1.40100 10.44200 22.92400
H  -0.39400 11.08500 20.18300
H  -1.58700 12.24300 20.74500
H  -1.98100 10.50200 20.62900
H  1.90500 14.09000 25.58400
H  2.34300 14.39800 27.36800
H  0.71200 14.43600 26.73300
H  0.32400 11.55600 30.99700
H  2.93100 12.51100 34.04100
H  3.67600 11.04400 33.62900
H  2.34400 10.91700 34.79500
Mg 5.60800 54.59200 39.79700
C  4.21200 51.25900 39.80100
C  8.60100 53.16500 39.30200
C  6.66800 57.67300 39.28800
C  2.24500 55.83900 39.93700
N  6.23000 52.44200 39.62100
C  5.54100 51.22000 39.62200
C  6.47300 50.10400 39.52300
C  7.84700 50.74900 39.90700
C  7.55300 52.22800 39.56600
C  8.20700 50.48900 41.35600
C  6.57900 49.34800 38.14700
C  6.49900 50.26300 36.90700
H  5.23600 49.98200 36.06900
N  7.41500 55.34900 39.36600
C  8.51900 54.58000 39.18200
C  9.60400 55.51100 38.88600
C  9.14800 56.88000 38.87800
C  7.72100 56.72300 39.26400
C  11.02800 55.07400 38.67200
C  9.94400 58.17400 38.80400
O  11.14400 58.09700 38.67300
C  9.28200 59.52300 38.71000
N  4.62800 56.49300 39.89200
C  5.34600 57.57900 39.56000
C  4.35700 58.78200 39.41900
C  2.93200 58.23200 39.65400
C  3.27200 56.74800 39.91800
C  4.80700 60.09300 40.03400
C  1.88300 58.58900 38.61300
C  0.44000 58.90000 39.11900
N  3.70500 53.81900 39.95200
C  2.42200 54.43900 40.02200
C  1.36400 53.43400 40.32900
C  2.05200 52.18600 40.24300
C  3.41400 52.46900 39.98100
C  -0.13600 53.55700 40.48600
C  1.89500 50.76400 40.29500
O  0.86200 50.13100 40.50900
C  3.21000 50.13500 40.00200
C  3.01200 49.13400 38.95800
O  2.46000 49.38200 37.84900
O  3.42900 47.88400 39.42300
C  3.40100 46.75500 38.45700
H  9.61800 52.83400 39.51900
H  7.07000 58.64700 39.00300
H  1.23400 56.24000 40.02500
H  6.18100 49.34300 40.24600
H  8.58900 50.23200 39.29800
H  9.11600 49.88800 41.37400
H  7.47500 49.92400 41.93300
H  8.56300 51.36700 41.89500
H  5.80800 48.57900 38.10100
H  7.53000 48.81900 38.20800
H  7.32700 50.10400 36.21600
H  6.56900 51.30400 37.22100
H  11.22500 54.03000 38.91600
H  11.61500 55.69300 39.35100
H  11.40000 55.19600 37.65500
H  10.14700 60.18700 38.72600
H  8.61400 59.79900 39.52600
H  8.70000 59.55600 37.79000
H  4.29000 58.93900 38.34300
H  2.62200 58.56600 40.64500
H  3.96000 60.77600 40.10600
H  5.63000 60.62000 39.55100
H  5.23500 59.79500 40.99100
H  1.88100 57.63600 38.08500
H  2.18300 59.35000 37.89200
H  -0.07100 59.25500 38.22400
H  0.34900 59.51500 40.01400
H  -0.04400 57.98500 39.46000
H  -0.53400 53.16200 41.42100
H  -0.68500 53.08200 39.67300
H  -0.36800 54.62000 40.54000
H  3.50100 49.62600 40.92000
H  2.49300 46.16600 38.58800
H  4.35400 46.25300 38.62000
H  3.50900 47.10400 37.43000

