158

Mg 9.09200 3.66300 28.13700
C  10.41200 2.16100 30.92300
C  7.35000 5.85200 30.32600
C  8.43300 5.75700 25.57500
C  10.67800 1.48700 25.98500
N  8.81100 3.86500 30.40300
C  9.54800 3.20700 31.35100
C  9.19700 3.68300 32.84300
C  8.13600 4.80400 32.61100
C  8.02100 4.83100 30.99500
C  6.67500 4.56100 33.23000
C  10.42700 4.20100 33.69900
C  10.88100 3.23100 34.82700
H  11.48600 3.90000 36.01400
N  7.92500 5.52500 27.94600
C  7.27100 6.17900 28.94700
C  6.65900 7.40900 28.43700
C  7.00900 7.44200 27.06000
C  7.82000 6.22500 26.78500
C  5.81800 8.34200 29.18500
C  6.83200 8.57000 25.94300
O  7.27300 8.44500 24.78400
C  6.23900 9.89500 26.34000
N  9.22000 3.43700 26.03700
C  9.01300 4.53200 25.20000
C  9.24600 4.14100 23.77300
C  10.05900 2.81800 23.89900
C  9.96100 2.55100 25.36700
C  7.89000 3.96800 22.99200
C  11.52100 3.04000 23.39600
C  12.22000 1.85100 22.82900
N  10.14400 2.08600 28.37800
C  10.75700 1.26900 27.38600
C  11.52300 0.29500 28.10500
C  11.37900 0.59300 29.46900
C  10.59400 1.69000 29.56900
C  12.44900 -0.75100 27.57900
C  11.81500 0.11900 30.82300
O  12.61300 -0.76900 31.20500
C  11.15700 1.22200 31.79600
C  10.32700 0.65000 32.85600
O  9.14100 0.30800 32.68600
O  11.04200 0.34800 33.97400
C  10.38500 -0.43800 34.96500
H  6.91300 6.49800 31.09000
H  8.38900 6.49000 24.76600
H  11.33000 0.83700 25.39900
H  8.66500 2.84200 33.28800
H  8.49700 5.76100 32.98700
H  6.06200 4.12900 32.43900
H  6.39800 5.56500 33.55100
H  6.75300 3.76800 33.97300
H  10.11300 5.13500 34.16600
H  11.25300 4.37400 33.00900
H  11.76400 2.78100 34.37400
H  10.12300 2.49900 35.10700
H  4.81800 8.45500 28.76900
H  6.28700 9.30700 28.99400
H  5.82500 8.17000 30.26200
H  6.90300 10.29400 27.10700
H  5.23900 9.71500 26.73300
H  6.18300 10.68000 25.58500
H  9.81000 5.00300 23.41700
H  9.60900 2.02500 23.30200
H  7.76600 4.82000 22.32400
H  7.03500 3.96300 23.66700
H  7.67500 3.06300 22.42500
H  12.07800 3.39500 24.26300
H  11.64700 3.83100 22.65600
H  12.15200 1.80400 21.74200
H  11.78600 0.86400 22.98900
H  13.26600 1.88200 23.13500
H  12.02500 -1.71500 27.85800
H  13.39200 -0.55700 28.09100
H  12.64800 -0.68000 26.50900
H  11.99000 1.67000 32.33700
H  10.04200 0.27000 35.71800
H  11.12500 -1.10900 35.40300
H  9.53500 -1.05200 34.66800
Mg 47.01400 34.85900 26.14900
C  45.73700 33.29600 29.08900
C  47.28300 37.71800 28.11900
C  48.00900 36.44900 23.44600
C  46.51700 31.90000 24.43900
N  46.62100 35.40300 28.34200
C  46.25200 34.59900 29.39300
C  46.31200 35.29000 30.72700
C  46.66000 36.76200 30.40900
C  46.97700 36.60400 28.88100
C  45.71000 37.77400 30.96100
C  47.51200 34.56400 31.54000
C  47.52000 34.52000 33.06700
H  46.33600 35.23700 33.70200
N  47.48800 36.81100 25.78900
C  47.50800 37.85100 26.73100
C  47.93000 39.12600 26.05700
C  48.34900 38.62700 24.71400
C  47.86500 37.26500 24.57200
C  48.18200 40.38600 26.83400
C  49.09200 39.47100 23.68200
O  49.44500 39.02800 22.57800
C  49.51600 40.85900 24.05200
N  47.01400 34.29100 24.22800
C  47.66600 35.09600 23.28200
C  48.14500 34.34900 22.04900
C  47.67100 32.85500 22.32200
C  47.03100 33.04000 23.69400
C  47.70900 34.89200 20.66100
C  48.87000 31.76300 22.37000
C  49.25200 30.99000 21.10100
N  46.25100 33.00500 26.57500
C  46.13400 31.86400 25.77000
C  45.51600 30.79800 26.53000
C  45.23400 31.32300 27.81600
C  45.75200 32.67000 27.82500
C  45.16900 29.39500 25.93900
C  44.67000 31.11800 29.06100
O  43.98000 30.16700 29.35700
C  44.91200 32.43000 29.94100
C  45.44300 31.80900 31.18200
O  46.36900 31.01400 31.30600
O  44.50700 31.99900 32.17800
C  44.72400 31.44800 33.56900
H  47.26700 38.66400 28.66400
H  48.35000 36.91800 22.52100
H  46.37700 30.98700 23.85600
H  45.37500 35.13300 31.26000
H  47.56200 37.13100 30.89700
H  45.20400 38.17000 30.08000
H  46.22800 38.63300 31.38800
H  45.07100 37.28400 31.69500
H  48.35300 35.16600 31.19700
H  47.71000 33.53300 31.24800
H  48.45000 34.70200 33.60500
H  47.32000 33.45400 33.17200
H  47.91700 41.23000 26.19600
H  49.23100 40.28800 27.11400
H  47.68500 40.51800 27.79500
H  48.67800 41.55500 24.10700
H  50.12700 41.22600 23.22700
H  50.22700 40.89000 24.87700
H  49.23400 34.36300 22.10000
H  46.88500 32.49200 21.66100
H  46.72500 35.36000 20.67700
H  47.76300 34.14700 19.86700
H  48.43800 35.67100 20.43900
H  48.77600 31.12700 23.24900
H  49.81800 32.29600 22.45200
H  50.26100 31.18000 20.73600
H  48.57900 31.35200 20.32300
H  49.18400 29.91300 21.25500
H  45.02000 28.64300 26.71300
H  46.10000 29.07800 25.46900
H  44.30000 29.38800 25.28000
H  43.96000 32.89600 30.19200
H  43.80300 31.17000 34.08000
H  45.17300 32.25200 34.15300
H  45.49900 30.68600 33.65400

