158

Mg 47.64000 26.43800 28.15800
C  48.87700 28.50700 30.82100
C  46.42000 24.27300 30.52300
C  47.08900 24.21100 25.74000
C  49.41700 28.52100 25.93600
N  47.72300 26.41600 30.46000
C  48.15700 27.36500 31.35200
C  47.70600 27.08500 32.80700
C  47.08400 25.65600 32.64400
C  47.02900 25.42400 31.10100
C  47.84600 24.54500 33.52500
C  46.64400 28.11700 33.25500
C  45.68200 27.64400 34.44300
H  45.50700 28.52100 35.64200
N  46.89000 24.46000 28.11900
C  46.45900 23.77700 29.23500
C  46.09800 22.44600 28.82200
C  46.30500 22.36200 27.39100
C  46.78200 23.68800 27.00500
C  45.61800 21.41100 29.84000
C  46.22300 21.13700 26.44400
O  46.55400 21.26400 25.26500
C  45.78700 19.79900 26.91800
N  48.07400 26.44300 26.11800
C  47.58600 25.46500 25.34500
C  47.83700 25.88400 23.83800
C  48.65700 27.24300 23.90500
C  48.71200 27.48000 25.37800
C  48.56300 24.91800 22.82500
C  47.99000 28.36500 23.14900
C  48.91600 29.44500 22.54800
N  48.85100 28.21200 28.30300
C  49.51500 28.87400 27.29300
C  50.30600 29.90500 27.84000
C  50.02400 29.89200 29.23000
C  49.16700 28.76200 29.48300
C  51.26500 30.81300 27.08900
C  50.29400 30.55900 30.42000
O  51.06900 31.50600 30.66700
C  49.40000 29.77300 31.48400
C  50.33300 29.35200 32.57900
O  51.23600 28.58500 32.42000
O  50.06500 30.06800 33.69000
C  51.13600 29.93200 34.73100
H  45.98200 23.64800 31.30500
H  46.91100 23.51500 24.91800
H  50.18900 28.95700 25.30000
H  48.61700 27.08400 33.40500
H  46.06300 25.72100 33.02100
H  48.58400 25.08600 34.11600
H  48.36500 23.82400 32.89400
H  47.12200 24.06000 34.18000
H  46.12900 28.41800 32.34300
H  47.20200 29.01700 33.51400
H  46.04000 26.72700 34.91000
H  44.65500 27.55500 34.08600
H  44.54000 21.29300 29.73700
H  45.81000 21.59600 30.89700
H  46.02500 20.42900 29.59600
H  46.60900 19.47000 27.55400
H  45.68900 19.23200 25.99200
H  44.87100 19.79400 27.50900
H  46.82000 26.16400 23.56100
H  49.68600 27.14400 23.55900
H  47.81600 24.56900 22.11200
H  48.95600 24.14300 23.48200
H  49.28500 25.44700 22.20300
H  47.36500 28.87700 23.88100
H  47.31500 27.95800 22.39600
H  48.70900 30.47400 22.84100
H  48.84800 29.38500 21.46200
H  49.96000 29.23000 22.77700
H  51.56500 31.51400 27.86900
H  50.83700 31.25000 26.18700
H  52.14400 30.21000 26.86200
H  48.61400 30.48000 31.75000
H  52.11800 29.89200 34.26000
H  51.00100 29.06800 35.38200
H  51.07500 30.75700 35.44100
Mg -4.44400 24.74000 25.92100
C  -2.96300 26.12100 28.84000
C  -6.40800 22.85300 28.01000
C  -5.26400 22.89700 23.23500
C  -2.05800 26.42900 23.99600
N  -4.55200 24.48100 28.15800
C  -3.92100 25.23700 29.12300
C  -4.55200 25.01500 30.49300
C  -5.35900 23.73800 30.22200
C  -5.49200 23.63600 28.69500
C  -4.81800 22.38500 30.77700
C  -5.38400 26.33500 30.93600
C  -5.54300 26.66700 32.42900
H  -5.10400 25.58900 33.39400
N  -5.71200 23.16300 25.65600
C  -6.50000 22.63000 26.63100
C  -7.36400 21.63700 25.93600
C  -6.91600 21.49800 24.63100
C  -5.94100 22.58900 24.42500
C  -8.58000 21.00300 26.64700
C  -7.32600 20.53900 23.55400
O  -6.80800 20.42200 22.45400
C  -8.30900 19.47600 23.92000
N  -3.63500 24.50500 23.93000
C  -4.27100 23.85600 22.98300
C  -3.43400 23.94000 21.67600
C  -2.59400 25.20500 21.89100
C  -2.77000 25.42000 23.38700
C  -2.67100 22.65300 21.29500
C  -2.94400 26.47900 20.98800
C  -1.68600 27.23300 20.43600
N  -2.87700 26.04200 26.27400
C  -1.97100 26.70000 25.41300
C  -1.14700 27.63400 26.16400
C  -1.50300 27.45200 27.53300
C  -2.52200 26.44300 27.53600
C  -0.18200 28.63200 25.58400
C  -1.18500 27.82400 28.84800
O  -0.27800 28.49100 29.35200
C  -2.14500 27.03000 29.77100
C  -1.44900 26.40900 30.83200
O  -0.63000 25.50600 30.67500
O  -1.73700 26.97200 32.05300
C  -1.10500 26.25800 33.22500
H  -7.13300 22.32700 28.63500
H  -5.40400 22.29300 22.33600
H  -1.35400 26.92400 23.32500
H  -3.77400 24.77000 31.21600
H  -6.32800 24.01200 30.64000
H  -3.99300 22.71700 31.40700
H  -4.35900 21.77400 30.00000
H  -5.46900 21.79400 31.42100
H  -6.35700 26.23500 30.45500
H  -5.00600 27.28500 30.55600
H  -6.53400 27.05300 32.66800
H  -4.97700 27.57100 32.65000
H  -9.35700 20.94300 25.88400
H  -8.79700 21.63900 27.50500
H  -8.26700 20.02000 26.99800
H  -8.14700 18.93500 24.85200
H  -8.30700 18.73500 23.12100
H  -9.26100 19.99200 24.04900
H  -4.09600 24.09500 20.82400
H  -1.56700 24.84900 21.81400
H  -1.59400 22.78000 21.18200
H  -2.96600 22.20600 20.34600
H  -2.67400 21.93000 22.11100
H  -3.48500 27.16500 21.64000
H  -3.58000 26.12700 20.17600
H  -1.68400 28.09000 21.11000
H  -1.87400 27.65700 19.44900
H  -0.82500 26.58600 20.60300
H  0.58200 28.81800 26.33900
H  -0.53200 29.61300 25.26100
H  0.29400 28.23700 24.68700
H  -2.81800 27.79900 30.15200
H  -1.47100 26.63800 34.17900
H  -0.02400 26.36700 33.14300
H  -1.31900 25.19300 33.13100

