158

Mg 48.89900 44.65700 43.08700
C  45.43600 45.06900 42.31800
C  48.59400 41.45200 42.25400
C  52.17700 44.64400 43.15700
C  48.98200 48.18200 43.84000
N  47.12100 43.38200 42.23000
C  45.80100 43.73300 42.06200
C  45.03700 42.53600 41.62800
C  46.03300 41.33300 41.95600
C  47.33700 42.06700 42.09300
C  45.65100 40.65800 43.27200
C  44.41700 42.47300 40.21300
C  45.05100 43.24100 39.03500
H  45.02900 42.55300 37.65800
N  50.26500 43.26600 42.58100
C  49.95900 41.94900 42.36200
C  51.25500 41.24600 42.21900
C  52.28500 42.09700 42.53600
C  51.56100 43.38500 42.75800
C  51.36100 39.75100 41.78400
C  53.72700 41.73000 42.63200
O  54.08800 40.56200 42.39600
C  54.71300 42.68500 43.19000
N  50.35600 46.22600 43.46600
C  51.65200 45.87300 43.53900
C  52.60100 47.10800 43.78400
C  51.54300 48.24100 44.13700
C  50.18100 47.52300 43.89800
C  53.74400 46.91900 44.76500
C  51.73700 49.65000 43.49300
C  51.91100 50.71000 44.58000
N  47.50100 46.31000 43.18000
C  47.67600 47.62000 43.47600
C  46.44800 48.33700 43.17900
C  45.55100 47.37900 42.73000
C  46.21800 46.16400 42.73900
C  46.24200 49.81700 43.24000
C  44.23600 47.24400 42.11800
O  43.33300 48.05400 41.83800
C  44.08600 45.66200 41.85800
C  42.77500 45.21900 42.55900
O  41.85800 44.65800 41.94700
O  42.89200 45.47900 43.93500
C  41.68600 45.09200 44.63200
H  48.54300 40.37200 42.09600
H  53.26700 44.59800 43.19200
H  48.99200 49.24700 44.08400
H  44.14200 42.56400 42.25000
H  46.08400 40.51100 41.24200
H  45.63400 39.56800 43.28700
H  44.70700 41.05700 43.64200
H  46.37500 41.01400 44.00500
H  43.42400 42.89200 40.37900
H  44.46900 41.41000 39.98200
H  46.09100 43.47400 39.26200
H  44.50400 44.16600 38.85300
H  50.36700 39.51100 41.40800
H  51.55700 39.20200 42.70500
H  52.12500 39.59400 41.02200
H  55.05000 43.50200 42.55100
H  55.51800 42.05500 43.57000
H  54.27400 43.26000 44.00500
H  52.92100 47.31400 42.76300
H  51.68600 48.37300 45.21000
H  53.59400 46.04300 45.39700
H  53.79100 47.84500 45.33800
H  54.70000 46.73800 44.27500
H  50.95800 49.86300 42.76100
H  52.70200 49.65900 42.98700
H  52.80200 51.31500 44.41200
H  51.91500 50.38200 45.62000
H  51.01800 51.33400 44.57700
H  47.17600 50.18700 42.81700
H  46.00600 50.23400 44.21900
H  45.40200 49.99700 42.56900
H  43.91900 45.48200 40.79600
H  41.91700 45.20400 45.69200
H  41.47600 44.06600 44.32900
H  40.83100 45.71500 44.37100
Mg -12.32800 15.53300 41.53600
C  -9.33200 13.71900 41.10200
C  -11.03400 18.00300 39.55000
C  -15.31900 17.08900 41.52300
C  -13.76900 12.72000 43.04200
N  -10.39900 15.72600 40.27900
C  -9.29000 14.98000 40.46700
C  -8.04500 15.62700 39.83100
C  -8.64900 17.02700 39.38800
C  -10.11100 16.90300 39.75400
C  -7.92100 18.25300 40.01000
C  -7.43100 14.93000 38.59200
C  -6.12400 15.48100 38.17000
H  -6.20200 16.50000 37.02500
N  -13.02100 17.39600 40.76900
C  -12.31300 18.29500 39.98400
C  -13.15300 19.42000 39.62400
C  -14.42200 19.22200 40.22600
C  -14.34000 17.79700 40.84000
C  -12.69200 20.55500 38.81400
C  -15.62300 20.20600 40.12300
O  -15.53400 21.31600 39.57700
C  -17.01500 19.95400 40.66600
N  -14.27600 14.85100 42.12000
C  -15.32100 15.82600 42.13200
C  -16.58600 15.19000 42.76100
C  -16.10300 13.78200 43.28800
C  -14.67500 13.73800 42.73800
C  -17.25000 16.09200 43.89100
C  -16.89300 12.51200 42.75200
C  -17.28300 11.46500 43.82500
N  -11.66800 13.62700 42.08000
C  -12.38400 12.56700 42.68000
C  -11.45300 11.57900 42.98000
C  -10.21800 11.93200 42.36600
C  -10.42700 13.21000 41.82900
C  -11.72000 10.35600 43.84400
C  -8.84000 11.49400 42.12500
O  -8.23500 10.41600 42.39400
C  -8.21900 12.68100 41.24800
C  -6.84700 13.11700 41.80200
O  -6.69800 13.55500 42.91000
O  -5.86900 13.07700 40.83600
C  -4.73400 13.99100 41.13700
H  -10.55000 18.77600 38.95000
H  -16.34500 17.45800 41.57400
H  -14.20100 12.00900 43.74900
H  -7.37300 15.88400 40.64900
H  -8.65100 17.11300 38.30100
H  -8.62400 18.77200 40.66200
H  -7.64200 18.89500 39.17500
H  -6.97200 18.12400 40.53200
H  -8.16800 15.05500 37.79900
H  -7.32200 13.84700 38.65100
H  -5.48300 14.63200 37.93100
H  -5.73200 16.05100 39.01300
H  -13.26400 20.54300 37.88600
H  -11.60600 20.55700 38.71500
H  -12.95700 21.43600 39.39800
H  -17.76800 20.59700 40.20900
H  -17.07400 20.05100 41.75000
H  -17.23400 18.95700 40.28700
H  -17.30200 15.07400 41.94800
H  -16.02500 13.71600 44.37300
H  -18.20200 16.59500 43.72600
H  -16.47400 16.82000 44.13100
H  -17.33500 15.37800 44.71000
H  -16.38700 12.05400 41.90100
H  -17.83600 12.84500 42.31800
H  -17.10700 10.47100 43.41500
H  -18.36400 11.59100 43.89000
H  -16.73100 11.66600 44.74400
H  -12.47400 10.58900 44.59500
H  -10.75500 10.20300 44.32600
H  -11.97200 9.47600 43.25100
H  -7.85800 12.17500 40.35200
H  -3.95600 13.73200 40.41800
H  -4.27900 13.79100 42.10800
H  -5.08600 15.00100 40.92800

