158

Mg 8.04900 2.44100 27.37000
C  9.72500 0.94000 30.29000
C  6.44200 4.59600 29.45200
C  6.18900 3.44600 24.73700
C  9.71700 0.10000 25.43900
N  8.08000 2.61100 29.58100
C  8.89500 2.01800 30.60200
C  8.66100 2.65600 31.90100
C  7.46400 3.55900 31.60200
C  7.34800 3.67800 30.07300
C  6.08400 3.15500 32.23100
C  9.89400 3.26800 32.65300
C  10.47900 2.52700 33.93300
H  11.12000 3.36700 35.07200
N  6.41900 3.68300 27.18400
C  5.95100 4.55900 28.10800
C  4.86000 5.38400 27.59100
C  4.81200 5.08700 26.23500
C  5.84700 3.98400 26.00300
C  4.04700 6.35600 28.46000
C  3.80600 5.57800 25.18400
O  3.74100 5.22400 23.99800
C  2.74800 6.46800 25.68000
N  7.92600 1.86900 25.41400
C  7.12400 2.46100 24.44200
C  7.45300 1.88600 23.05400
C  8.60000 0.90500 23.24000
C  8.73700 0.88800 24.80800
C  6.26000 1.27600 22.26400
C  9.95500 1.14500 22.52800
C  10.44300 0.14800 21.50800
N  9.49300 0.77000 27.73200
C  10.02700 -0.07400 26.79900
C  10.95700 -0.93600 27.49900
C  10.88200 -0.62000 28.85100
C  9.96700 0.46400 28.91700
C  11.78000 -2.06400 26.79200
C  11.35600 -0.94000 30.18700
O  12.15800 -1.78500 30.48600
C  10.75300 0.10700 31.17700
C  10.13100 -0.54200 32.38600
O  8.89100 -0.79000 32.52800
O  11.05200 -0.82300 33.38600
C  10.34800 -1.06000 34.64500
H  5.99000 5.31500 30.13800
H  5.64100 3.93600 23.92900
H  10.19600 -0.57900 24.73100
H  8.14500 1.94200 32.54200
H  7.56000 4.57600 31.98100
H  5.37000 3.91900 32.53900
H  6.31400 2.65200 33.17000
H  5.50000 2.65500 31.45900
H  9.64600 4.25700 33.03800
H  10.62300 3.34500 31.84600
H  11.24100 1.83400 33.57600
H  9.69000 1.98700 34.45700
H  4.47000 6.46100 29.45800
H  3.04000 5.94200 28.52200
H  4.09500 7.29500 27.90900
H  2.04000 5.94500 26.32200
H  2.12700 6.85000 24.86900
H  3.25100 7.33200 26.11400
H  7.79500 2.74000 22.47000
H  8.38800 -0.13100 22.97400
H  5.33200 1.47300 22.80200
H  6.28600 0.20400 22.06900
H  6.39400 1.83000 21.33600
H  10.67500 1.18400 23.34600
H  10.03400 2.14800 22.10800
H  10.75300 0.86100 20.74400
H  9.65600 -0.54800 21.21800
H  11.28800 -0.46500 21.82200
H  11.60600 -3.01600 27.29300
H  12.83300 -1.78500 26.84000
H  11.43500 -2.20200 25.76800
H  11.53600 0.72200 31.61900
H  9.75000 -0.22700 35.01400
H  11.05300 -1.23900 35.45700
H  9.57100 -1.82400 34.61600
Mg 9.23600 48.11600 25.83000
C  7.30700 48.32600 28.68000
C  11.90200 49.46100 27.60800
C  10.97400 48.34300 23.05700
C  6.18100 47.44300 23.94100
N  9.52300 48.83400 27.92800
C  8.61100 48.80500 28.94200
C  9.23100 49.18800 30.33100
C  10.60200 49.85800 29.85500
C  10.71000 49.30500 28.38100
C  10.51300 51.41000 29.90200
C  9.53400 48.07300 31.32300
C  9.02900 48.36700 32.72400
H  9.32400 47.24800 33.70000
N  11.25000 48.69000 25.39200
C  12.17600 49.11800 26.26700
C  13.38900 49.24300 25.49200
C  13.14700 48.94400 24.09300
C  11.74500 48.63800 24.14200
C  14.71300 49.38500 26.10100
C  14.13400 48.91300 22.89700
O  13.66700 48.67000 21.76100
C  15.48800 49.26800 23.02100
N  8.63700 47.82800 23.75900
C  9.58100 48.04900 22.81500
C  9.02900 47.70700 21.41400
C  7.53000 47.19400 21.72000
C  7.40600 47.49100 23.22700
C  9.11400 48.86500 20.41900
C  7.25800 45.70500 21.51800
C  8.13600 44.74400 22.34900
N  7.08900 47.93600 26.10600
C  6.02700 47.61500 25.32000
C  4.83300 47.46000 26.17400
C  5.29100 47.74400 27.48200
C  6.69900 48.01800 27.40900
C  3.54700 46.98900 25.69200
C  4.89600 47.88200 28.85800
O  3.80400 47.72700 29.40000
C  6.23000 48.10400 29.66400
C  6.49800 46.89000 30.42200
O  6.90000 45.86800 29.88900
O  6.04900 47.07900 31.67400
C  6.46900 45.97400 32.59200
H  12.74200 49.93000 28.12500
H  11.43400 48.40100 22.06900
H  5.30300 47.24400 23.32400
H  8.63100 49.87900 30.92200
H  11.41700 49.53800 30.50400
H  9.48300 51.72300 29.73000
H  11.14100 51.94500 29.18900
H  10.79100 51.73200 30.90600
H  10.59700 47.89600 31.49200
H  8.98400 47.18100 31.02200
H  7.95900 48.54300 32.62300
H  9.44800 49.26400 33.18000
H  14.62900 49.40400 27.18800
H  15.17000 50.31200 25.75600
H  15.27100 48.49300 25.81500
H  16.05600 48.37700 23.29200
H  15.62000 50.11600 23.69200
H  15.75900 49.65100 22.03700
H  9.75100 47.01300 20.98400
H  6.76200 47.76000 21.19300
H  8.24500 49.01500 19.77700
H  9.99300 48.76000 19.78200
H  9.31400 49.78500 20.96700
H  7.40900 45.53700 20.45200
H  6.22200 45.56100 21.82200
H  7.35200 44.27600 22.94200
H  8.95900 45.30900 22.78700
H  8.48700 43.90700 21.74500
H  3.68900 45.99200 25.27600
H  3.29700 47.63300 24.84800
H  2.82100 47.08000 26.50000
H  6.18200 49.00400 30.27800
H  7.40900 45.46600 32.38100
H  5.65200 45.27200 32.76100
H  6.72200 46.47200 33.52800

