158

Mg 43.13400 41.55300 26.34500
C  41.97800 43.87100 28.54200
C  44.29100 39.50600 28.82000
C  44.68000 39.72100 23.93000
C  42.42400 43.93100 23.78500
N  43.24000 41.79900 28.46100
C  42.47000 42.69400 29.12800
C  42.36200 42.41900 30.66100
C  43.16500 41.01100 30.69700
C  43.62700 40.74500 29.24500
C  44.47200 41.01200 31.51200
C  40.85200 42.25400 31.27500
C  40.72400 41.47300 32.57100
H  39.91900 42.05000 33.71100
N  44.18300 39.78200 26.37000
C  44.49600 39.07400 27.47300
C  45.09000 37.81800 27.06600
C  45.19300 37.81600 25.68300
C  44.70300 39.16600 25.26300
C  45.53600 36.83800 28.08500
C  45.64200 36.77500 24.67300
O  45.71900 37.00300 23.45300
C  46.04700 35.42800 25.11000
N  43.73200 41.88700 24.13200
C  44.23900 40.89900 23.40700
C  44.25200 41.25900 21.86700
C  43.47000 42.63200 21.80300
C  43.21300 42.90000 23.32400
C  45.64000 41.27200 21.24700
C  42.19300 42.54300 20.98300
C  42.01100 43.61000 19.88700
N  42.33500 43.50100 26.14200
C  42.08500 44.25800 25.06000
C  41.46100 45.50800 25.48200
C  41.30800 45.43100 26.89100
C  41.86300 44.19500 27.19200
C  41.01400 46.61200 24.59700
C  40.83100 46.02300 28.12000
O  40.28400 47.11000 28.23500
C  41.20100 45.01200 29.28100
C  42.17400 45.71800 30.13000
O  43.38400 45.82300 30.03600
O  41.55000 46.11300 31.29600
C  42.44400 46.56200 32.46700
H  44.38500 38.78500 29.63500
H  45.14200 39.13300 23.13400
H  42.04800 44.61000 23.01700
H  42.90900 43.19400 31.19700
H  42.51200 40.22200 31.07000
H  44.24700 41.81400 32.21400
H  45.31500 41.32500 30.89500
H  44.72600 40.09700 32.04700
H  40.20100 41.92800 30.46400
H  40.59800 43.25000 31.63700
H  41.66300 41.07200 32.95400
H  40.20600 40.53200 32.38800
H  44.99300 35.90200 27.95300
H  45.46900 37.13100 29.13300
H  46.55100 36.57500 27.78800
H  45.31700 34.99200 25.79300
H  46.99600 35.55400 25.63100
H  46.28500 34.78600 24.26200
H  43.78900 40.42300 21.34300
H  44.13000 43.43900 21.48400
H  46.33300 40.95100 22.02500
H  45.88100 42.23600 20.80100
H  45.71400 40.46700 20.51600
H  41.33700 42.68300 21.64300
H  42.05900 41.58300 20.48500
H  41.89800 43.09300 18.93400
H  42.91400 44.13500 19.57500
H  41.19600 44.33400 19.92900
H  40.51800 47.37000 25.20400
H  40.43200 46.17800 23.78400
H  41.87100 47.18000 24.23500
H  40.31700 44.49500 29.65300
H  43.51000 46.68400 32.27200
H  42.27900 45.74500 33.17000
H  42.03700 47.48100 32.88700
Mg 17.16900 51.42800 26.43900
C  19.10900 49.88500 28.94100
C  14.86100 52.04900 28.84200
C  15.45100 52.57800 23.96100
C  19.59600 50.20300 24.11200
N  17.00000 50.84700 28.65100
C  17.97100 50.34300 29.42400
C  17.57200 50.33500 30.95500
C  16.08200 50.84300 30.85000
C  15.98300 51.32300 29.36200
C  15.03300 49.77200 31.18500
C  18.56100 51.26600 31.79400
C  18.84400 51.16600 33.24600
H  17.86900 50.30000 34.09600
N  15.38600 52.28900 26.38400
C  14.55500 52.39900 27.44200
C  13.31100 52.99200 26.97300
C  13.50900 53.33700 25.57800
C  14.85100 52.71200 25.17800
C  12.08900 53.40200 27.82300
C  12.61400 54.14100 24.56000
O  12.86500 54.15900 23.35500
C  11.38000 54.85300 24.93600
N  17.43700 51.31700 24.30700
C  16.54000 51.91700 23.51200
C  17.06000 51.94800 22.10700
C  18.48400 51.38100 22.19700
C  18.56100 50.96000 23.60400
C  16.19300 51.07700 21.14800
C  19.60100 52.36400 21.74900
C  19.80000 53.57500 22.69100
N  18.96900 50.35500 26.47300
C  19.81300 49.91900 25.47500
C  21.00400 49.30500 26.02300
C  20.74100 49.32200 27.36800
C  19.49600 49.95000 27.59200
C  22.18400 48.83400 25.31300
C  21.34800 48.98000 28.67300
O  22.38400 48.35900 28.90800
C  20.27700 49.29400 29.73000
C  19.95500 48.02000 30.46000
O  19.51800 46.98400 29.97800
O  20.47500 48.05500 31.69900
C  19.96500 47.07400 32.70600
H  14.08900 52.35800 29.54900
H  14.97300 53.14800 23.16200
H  20.34000 49.90700 23.37000
H  17.53400 49.32400 31.36000
H  15.91000 51.82200 31.29700
H  14.39600 50.27700 31.91200
H  15.38300 48.90800 31.75000
H  14.44900 49.35100 30.36700
H  18.22000 52.26700 31.52800
H  19.57700 51.28400 31.40000
H  18.73000 52.16700 33.66300
H  19.84200 50.79700 33.48100
H  11.85300 54.46300 27.73800
H  12.33400 53.24900 28.87400
H  11.21700 52.81500 27.53400
H  11.57600 55.72800 25.55600
H  10.74300 54.09300 25.38900
H  10.96100 55.21500 23.99800
H  17.05700 52.93100 21.63700
H  18.65800 50.48700 21.59900
H  15.23700 50.93500 21.65200
H  16.53000 50.04400 21.05400
H  16.06400 51.61900 20.21200
H  19.57200 52.62200 20.69000
H  20.51600 51.77400 21.80600
H  20.80500 53.50900 23.10700
H  19.07400 53.67200 23.49800
H  19.81000 54.50700 22.12400
H  23.01800 49.53400 25.35700
H  21.80800 48.48300 24.35200
H  22.51900 47.88200 25.72500
H  20.81800 49.97100 30.39100
H  20.54600 46.15200 32.72500
H  18.94500 46.76900 32.47200
H  20.05700 47.61200 33.65000

