158

Mg 2.49400 -0.36100 43.43800
C  5.93700 -0.00000 43.45400
C  2.14600 2.62900 41.78400
C  -0.86800 -1.21400 42.91200
C  3.02900 -3.64500 44.60800
N  3.89600 1.15100 42.75500
C  5.27000 1.03800 42.76400
C  5.92000 2.27600 42.07200
C  4.60000 3.18100 41.81900
C  3.45800 2.27000 42.09000
C  4.51100 4.51000 42.59800
C  6.73300 1.99200 40.75600
C  6.04500 1.08500 39.68700
H  5.74200 1.62400 38.28500
N  0.84300 0.68100 42.57700
C  0.93000 1.90800 42.01700
C  -0.41200 2.27500 41.67500
C  -1.31200 1.14700 41.93900
C  -0.46500 0.07900 42.44000
C  -0.77100 3.65100 41.23200
C  -2.80300 1.18400 41.53200
O  -3.39300 2.16900 41.04900
C  -3.62800 -0.07600 41.71500
N  1.27500 -2.14100 43.55800
C  -0.08000 -2.24700 43.39800
C  -0.58500 -3.58700 43.83800
C  0.71400 -4.45800 43.89100
C  1.72200 -3.34100 44.01700
C  -1.36200 -3.55400 45.19900
C  1.01200 -5.31900 42.67300
C  1.54200 -6.72900 43.01100
N  4.16600 -1.58600 44.06300
C  4.17000 -2.84800 44.59300
C  5.48700 -3.15600 45.09300
C  6.25800 -2.08600 44.60100
C  5.37500 -1.16000 44.04400
C  6.03100 -4.38900 45.85200
C  7.63900 -1.55100 44.40700
O  8.75900 -2.03200 44.74500
C  7.50000 -0.23100 43.68800
C  8.24900 0.86700 44.33500
O  9.14600 1.56700 43.85900
O  7.79100 1.03100 45.62000
C  8.54800 2.09500 46.34700
H  2.00200 3.55600 41.22500
H  -1.93600 -1.44100 42.92600
H  3.13400 -4.68600 44.92100
H  6.54900 2.74700 42.82700
H  4.65300 3.46700 40.76800
H  3.45800 4.73400 42.76900
H  4.96800 5.33700 42.05300
H  4.96900 4.35000 43.57400
H  7.58900 1.43900 41.14400
H  7.09500 2.94000 40.35700
H  5.11300 0.63100 40.02500
H  6.85100 0.35700 39.59300
H  -0.77300 3.80400 40.15200
H  -0.04900 4.27800 41.75500
H  -1.74700 3.97400 41.59400
H  -3.68400 -0.34000 42.77200
H  -3.36800 -0.92200 41.07800
H  -4.58700 0.14800 41.25000
H  -1.24700 -3.97200 43.06200
H  0.82700 -5.09100 44.77100
H  -0.96600 -4.13900 46.02900
H  -2.31700 -3.98000 44.89400
H  -1.46900 -2.56300 45.64200
H  1.56000 -4.78000 41.90000
H  0.10300 -5.58600 42.13300
H  2.37400 -6.83000 42.31500
H  0.93100 -7.62100 42.87100
H  1.97200 -6.68400 44.01100
H  5.71500 -4.23400 46.88400
H  7.11200 -4.48800 45.75000
H  5.54000 -5.23000 45.36200
H  7.85200 -0.29900 42.65800
H  9.55500 1.73700 46.56200
H  8.13200 2.14600 47.35400
H  8.37000 3.01800 45.79500
Mg 34.72400 48.69000 25.54400
C  34.98100 46.98500 28.56100
C  33.04300 51.22400 27.25400
C  34.17700 50.16600 22.70600
C  36.09900 45.84900 23.91800
N  33.99500 48.95600 27.64400
C  34.32200 48.20800 28.69600
C  33.89100 48.87900 30.00600
C  33.00000 50.02300 29.51400
C  33.35400 50.07500 28.05900
C  31.46100 49.86700 29.81500
C  35.10200 49.35900 30.92400
C  34.98300 48.97500 32.39600
H  33.65600 49.12600 33.01700
N  33.70400 50.37800 25.03100
C  33.19100 51.36400 25.88000
C  32.62400 52.48000 25.14500
C  32.92600 52.14300 23.83700
C  33.67100 50.86900 23.78700
C  31.97900 53.77200 25.64300
C  32.63300 52.91500 22.61200
O  33.16300 52.76400 21.47200
C  31.75100 54.19100 22.65100
N  35.26900 48.13800 23.63000
C  34.92800 48.96000 22.61900
C  35.34400 48.37700 21.24800
C  36.14700 47.04900 21.69900
C  35.79900 47.02000 23.18900
C  34.16400 48.10000 20.31300
C  37.70600 46.93900 21.49200
C  38.45500 47.89300 20.56100
N  35.44700 46.73200 26.08200
C  35.95700 45.73900 25.37400
C  36.38400 44.69300 26.23700
C  36.04200 45.10800 27.54100
C  35.38300 46.36000 27.33700
C  36.96000 43.32800 25.80800
C  36.10600 44.80700 28.90800
O  36.46900 43.74000 29.47800
C  35.49100 46.02200 29.68100
C  34.44000 45.58400 30.67200
O  33.24100 45.60800 30.49300
O  35.02900 45.05500 31.81600
C  34.20400 44.64400 32.98400
H  32.60500 52.03600 27.83800
H  34.14400 50.64000 21.72300
H  36.44900 44.96000 23.39000
H  33.29600 48.24000 30.65900
H  33.28300 50.98100 29.95000
H  31.17200 50.82800 30.23900
H  31.24500 49.17500 30.63000
H  30.90800 49.46500 28.96600
H  35.21700 50.42800 30.74300
H  36.02100 48.99000 30.47000
H  35.77900 49.53400 32.88600
H  35.13600 47.89900 32.47900
H  30.93000 53.83500 25.35200
H  32.52800 54.63200 25.26000
H  32.05100 53.80100 26.73100
H  32.20000 55.08200 23.09000
H  30.77700 53.98800 23.09500
H  31.60200 54.47700 21.61000
H  35.95100 49.10600 20.71000
H  35.64400 46.22100 21.20000
H  33.36300 47.64600 20.89600
H  34.43900 47.43500 19.49500
H  33.70400 49.01600 19.94100
H  38.01100 45.95800 21.12900
H  38.13300 47.05700 22.48800
H  37.79500 48.26100 19.77600
H  39.27700 47.34500 20.09900
H  38.87600 48.79200 21.01000
H  36.31500 42.60200 25.31300
H  37.53100 42.89400 26.62900
H  37.73400 43.52000 25.06600
H  36.41700 46.32600 30.16800
H  33.65500 43.73000 32.75800
H  33.70100 45.55200 33.31600
H  34.89000 44.32700 33.77000

