158

Mg 29.88900 57.70400 41.11200
C  27.28500 55.52700 40.20100
C  32.05800 55.48300 39.89300
C  32.26300 60.17000 40.80800
C  27.40700 60.34900 41.56400
N  29.60600 55.75000 40.21400
C  28.46300 54.98900 39.94000
C  28.89500 53.64800 39.43200
C  30.41200 53.62000 39.52900
C  30.73800 55.03600 39.85800
C  30.94200 52.53800 40.59200
C  28.40400 53.38300 38.01500
C  28.48700 54.54100 36.97100
H  27.79500 54.26700 35.68900
N  31.95200 57.74500 40.59200
C  32.66700 56.64600 40.21700
C  34.05400 57.02000 40.09800
C  34.17900 58.45000 40.31600
C  32.73300 58.87100 40.55200
C  35.15100 56.15400 39.67600
C  35.50800 59.14900 40.20600
O  36.56700 58.51800 40.11600
C  35.57500 60.65900 40.36700
N  29.80100 59.99200 41.02100
C  30.95300 60.74300 40.98000
C  30.66300 62.19100 41.43800
C  29.18200 62.16900 41.88500
C  28.76000 60.67300 41.60700
C  31.74000 62.88800 42.47400
C  28.30700 63.33100 41.20100
C  27.71600 64.33000 42.19300
N  27.84400 57.90100 41.03500
C  26.93300 59.00800 41.22200
C  25.57600 58.56700 41.01700
C  25.67000 57.24900 40.63900
C  27.03100 56.88300 40.61500
C  24.37000 59.41400 41.05600
C  24.87300 56.09800 40.18900
O  23.67200 55.82400 40.06800
C  25.96400 55.00300 39.91600
C  25.76600 53.88200 40.97000
O  25.87400 53.91600 42.17800
O  25.32700 52.71000 40.37200
C  25.21700 51.49900 41.23300
H  32.79800 54.75800 39.54700
H  32.97600 60.98400 40.95700
H  26.60900 61.03600 41.85300
H  28.49400 52.90000 40.11600
H  30.80200 53.46900 38.52200
H  32.02000 52.64400 40.71900
H  30.73500 51.55000 40.18000
H  30.48200 52.58500 41.57900
H  27.34900 53.10900 38.03100
H  28.84600 52.46400 37.62900
H  29.53900 54.75200 36.78100
H  27.85700 55.32000 37.39900
H  35.78500 56.61500 38.92000
H  34.73900 55.25500 39.21900
H  35.76500 55.69200 40.45000
H  35.17500 60.95100 41.33800
H  34.95700 61.12600 39.60000
H  36.60900 60.99700 40.43200
H  30.69300 62.64200 40.44600
H  29.07100 62.35400 42.95300
H  31.25400 63.53000 43.20900
H  32.42900 63.54100 41.93800
H  32.39400 62.16900 42.96600
H  27.42100 62.89800 40.73600
H  28.98400 63.74600 40.45500
H  26.69000 64.01500 42.38600
H  27.65000 65.35700 41.83400
H  28.30800 64.29900 43.10700
H  23.68800 59.20000 41.87900
H  23.82300 59.27900 40.12300
H  24.59000 60.48000 41.10900
H  25.82400 54.64600 38.89600
H  26.15500 50.95200 41.32900
H  24.61100 50.75400 40.71900
H  24.68000 51.74500 42.14900
Mg 9.91400 47.36500 26.13500
C  7.85700 47.60000 29.02000
C  12.49100 48.87300 27.83400
C  11.77900 47.20000 23.35700
C  7.08000 46.52500 24.31200
N  10.15700 48.08600 28.26700
C  9.16400 48.09100 29.25400
C  9.86600 48.61000 30.60800
C  11.09800 49.43400 30.07100
C  11.29800 48.81200 28.61300
C  10.93200 50.98500 30.05300
C  10.32800 47.33900 31.43900
C  10.69400 47.52200 32.95000
H  10.39700 46.43800 34.01400
N  11.93700 47.75900 25.74500
C  12.81000 48.37500 26.60100
C  14.07200 48.56700 25.88200
C  13.83000 48.01000 24.58800
C  12.48400 47.61800 24.49900
C  15.31000 49.18400 26.53300
C  14.84700 47.81300 23.40500
O  14.60900 47.18600 22.32000
C  16.21500 48.30600 23.56000
N  9.52600 46.91700 24.08200
C  10.42200 46.95800 23.14000
C  9.82200 46.57500 21.70700
C  8.31200 46.40100 22.09900
C  8.31100 46.62100 23.58000
C  9.96000 47.69600 20.71900
C  7.58800 45.12300 21.56400
C  6.05700 45.22600 21.25100
N  7.81500 47.12200 26.51100
C  6.79500 46.71700 25.66300
C  5.62500 46.50100 26.45100
C  5.97600 46.82000 27.78800
C  7.28700 47.24100 27.73900
C  4.25100 46.16700 25.80500
C  5.45900 46.96800 29.15200
O  4.35600 46.73800 29.61600
C  6.69300 47.38200 30.05500
C  6.98100 46.21500 30.91500
O  7.36200 45.14600 30.48300
O  6.75000 46.52600 32.23700
C  6.97300 45.44800 33.20000
H  13.25600 49.42500 28.38400
H  12.18400 47.29100 22.34600
H  6.21100 46.20000 23.73500
H  9.21400 49.27100 31.17900
H  12.00700 49.25700 30.64500
H  11.16900 51.48700 29.11500
H  11.59900 51.44400 30.78200
H  10.00100 51.33100 30.50100
H  11.21500 46.99100 30.91000
H  9.65100 46.49400 31.31100
H  10.26900 48.47600 33.26300
H  11.77600 47.62900 33.03100
H  15.12500 49.69200 27.48000
H  15.91200 49.87400 25.94300
H  15.91100 48.32800 26.83900
H  16.28200 49.35000 23.87000
H  16.76100 48.29000 22.61700
H  16.64200 47.63500 24.30600
H  10.16200 45.57600 21.43500
H  7.74900 47.26900 21.75600
H  10.12300 48.62300 21.26900
H  9.07300 47.88100 20.11200
H  10.86100 47.50300 20.13700
H  7.64800 44.38100 22.36000
H  8.13800 44.66500 20.74100
H  5.50300 46.12800 21.51000
H  5.52600 44.44100 21.79000
H  5.91300 44.94800 20.20600
H  4.22300 45.41700 25.01500
H  3.88100 47.14300 25.48900
H  3.72000 45.81100 26.68700
H  6.47100 48.24900 30.67800
H  6.80500 44.42700 32.85800
H  6.28500 45.68600 34.01100
H  7.99100 45.45600 33.58900

