158

Mg 47.56000 45.30000 43.79100
C  44.19600 44.96500 43.03200
C  48.06900 42.13200 42.70900
C  50.76600 45.94600 43.93800
C  46.98000 48.72300 44.54000
N  46.32800 43.85300 42.91800
C  44.98900 43.89700 42.65300
C  44.53700 42.65400 41.90200
C  45.56000 41.59600 42.43600
C  46.73500 42.55900 42.74100
C  45.05100 40.83700 43.69600
C  44.51100 42.82700 40.36700
C  43.10600 42.72000 39.64600
H  43.11200 41.84700 38.29300
N  49.24800 44.11900 43.45700
C  49.25800 42.90700 42.88600
C  50.68700 42.44800 42.83000
C  51.49600 43.52100 43.34100
C  50.50600 44.59000 43.57200
C  51.03300 41.05100 42.35800
C  52.95000 43.42000 43.67800
O  53.63800 42.48800 43.30300
C  53.73800 44.56300 44.41300
N  48.65800 47.13600 44.00700
C  50.02300 47.13500 44.05000
C  50.65300 48.43000 44.47500
C  49.46400 49.33100 44.62700
C  48.27500 48.37600 44.42500
C  51.61200 48.42900 45.72400
C  49.42300 50.54000 43.59300
C  49.28900 51.90300 44.23300
N  45.92200 46.63600 43.88300
C  45.84200 47.91500 44.15800
C  44.42500 48.41300 44.13500
C  43.71500 47.26100 43.73300
C  44.70000 46.19100 43.56200
C  43.86900 49.74500 44.41900
C  42.38900 46.71100 43.32700
O  41.32100 47.31500 43.28000
C  42.69400 45.14500 42.91800
C  42.04100 44.35500 44.06100
O  41.15900 43.56600 43.89100
O  42.57300 44.67400 45.29900
C  42.32800 43.89500 46.47900
H  48.23400 41.05800 42.60000
H  51.83000 46.12100 44.11000
H  46.65400 49.74700 44.73200
H  43.54600 42.46800 42.31600
H  45.83000 40.89400 41.64700
H  44.00300 40.97200 43.96400
H  45.61800 41.19000 44.55700
H  45.27600 39.79800 43.45400
H  45.22900 42.12900 39.93700
H  44.89600 43.79800 40.05700
H  42.76600 43.65700 39.20600
H  42.30100 42.24300 40.20600
H  51.88700 40.92300 41.69300
H  50.23500 40.49500 41.86400
H  51.30100 40.47000 43.24000
H  54.00500 45.37000 43.73100
H  54.68000 44.19700 44.82100
H  53.13700 45.07300 45.16700
H  51.17600 48.81200 43.59800
H  49.43800 49.71400 45.64700
H  51.46200 49.24400 46.43200
H  52.59600 48.54800 45.27000
H  51.46500 47.44200 46.16200
H  48.58400 50.27300 42.95100
H  50.37200 50.56700 43.05700
H  48.28300 52.12100 44.59300
H  49.60100 52.59600 43.45300
H  49.95500 51.96200 45.09400
H  43.98000 50.38100 43.54100
H  44.54200 50.07900 45.20900
H  42.80800 49.60500 44.62600
H  42.31000 44.90800 41.92600
H  41.85500 44.58300 47.17900
H  43.22300 43.68600 47.06500
H  41.83900 42.93300 46.32600
Mg 6.89500 56.29800 41.91800
C  5.90300 52.95600 41.95900
C  9.86200 55.25100 40.59900
C  7.57800 59.52600 41.26900
C  3.69400 57.28500 43.08800
N  7.68000 54.33400 41.17200
C  7.07000 53.12100 41.26300
C  7.99000 52.06800 40.54000
C  9.39800 52.77500 40.70200
C  8.98000 54.22400 40.79600
C  10.35400 52.28700 41.81200
C  7.69100 51.82700 39.01700
C  7.84800 50.41100 38.52400
H  7.02000 49.99900 37.33300
N  8.62500 57.30900 41.22200
C  9.75300 56.68300 40.79200
C  10.62800 57.71000 40.32400
C  9.98800 58.95600 40.43000
C  8.69000 58.68500 41.02700
C  11.98100 57.39900 39.63100
C  10.52900 60.31500 39.93400
O  11.55200 60.40300 39.26300
C  9.84000 61.67200 40.17500
N  5.75500 58.18500 42.03400
C  6.26600 59.33200 41.64500
C  5.34100 60.47700 41.82900
C  4.11700 59.82100 42.61000
C  4.47200 58.29300 42.53100
C  5.78900 61.83700 42.50200
C  2.70800 60.17800 41.99000
C  1.64700 60.87500 42.87200
N  5.07400 55.34000 42.42900
C  3.99300 55.84300 43.06100
C  3.12000 54.74800 43.51600
C  3.78300 53.63700 42.97000
C  5.00700 54.00100 42.41200
C  1.77400 54.83200 44.20200
C  3.74200 52.17900 42.74400
O  2.78500 51.39700 42.94000
C  5.12800 51.71200 42.25400
C  4.91500 50.78100 41.09600
O  4.50700 51.06100 39.95000
O  5.21800 49.51800 41.47300
C  4.63900 48.44500 40.66800
H  10.86700 54.87700 40.39200
H  7.77000 60.53600 40.90000
H  2.74700 57.49000 43.59100
H  8.05300 51.16000 41.14000
H  10.04800 52.79300 39.82700
H  9.98100 51.53700 42.50900
H  10.70800 53.10800 42.43500
H  11.12300 51.66700 41.34900
H  8.31100 52.54100 38.47500
H  6.63800 52.07600 38.88300
H  7.51300 49.81100 39.37000
H  8.90600 50.27200 38.30100
H  11.79100 57.66500 38.59100
H  12.14000 56.33000 39.48500
H  12.81700 57.96400 40.04200
H  9.59400 61.94500 41.20100
H  8.90600 61.61100 39.61600
H  10.47500 62.44000 39.73400
H  4.98300 60.67500 40.81900
H  4.10700 60.06000 43.67300
H  6.01400 62.42400 41.61200
H  6.70200 61.62900 43.05900
H  5.05200 62.28000 43.17300
H  2.20500 59.27900 41.63400
H  2.88100 60.80900 41.11800
H  1.90600 60.76900 43.92500
H  0.67500 60.41100 42.70800
H  1.59000 61.93800 42.63500
H  1.59900 54.10200 44.99300
H  1.12800 54.54300 43.37300
H  1.56300 55.85100 44.52700
H  5.72200 51.18600 43.00100
H  4.80000 48.68700 39.61800
H  3.56900 48.30300 40.82100
H  5.06400 47.47100 40.91000

