158

Mg 1.23300 -2.70500 44.18200
C  4.53800 -2.07300 43.54800
C  0.43200 -0.13500 41.97100
C  -1.89800 -3.34200 44.84100
C  2.18400 -5.69900 45.84200
N  2.35700 -1.37300 42.73200
C  3.74000 -1.22100 42.80600
C  4.25000 -0.04700 41.87500
C  2.88700 0.69700 41.62500
C  1.80300 -0.33300 42.11200
C  2.80500 2.02600 42.35500
C  4.96200 -0.59400 40.64400
C  6.09400 0.35500 40.15500
H  6.66800 0.00700 38.73500
N  -0.47600 -1.82100 43.50000
C  -0.60200 -0.83100 42.59800
C  -2.03900 -0.52800 42.46800
C  -2.79000 -1.45200 43.28000
C  -1.72500 -2.24000 43.93800
C  -2.56200 0.49200 41.56400
C  -4.30500 -1.60200 43.41900
O  -4.99100 -0.93000 42.73600
C  -4.96100 -2.40200 44.50200
N  0.29400 -4.43400 45.10900
C  -1.01300 -4.26800 45.41000
C  -1.51000 -5.52800 46.17600
C  -0.23100 -6.49700 46.28600
C  0.81700 -5.50200 45.73800
C  -2.13400 -5.37600 47.53800
C  -0.26900 -7.79000 45.40300
C  -0.37500 -9.05900 46.34500
N  3.06700 -3.69000 44.67500
C  3.30700 -4.79200 45.44400
C  4.67300 -4.88800 45.69900
C  5.26800 -3.74200 45.07700
C  4.18800 -3.08900 44.40200
C  5.47000 -5.94900 46.48100
C  6.45500 -2.96700 44.78200
O  7.56900 -3.14200 45.16500
C  5.99000 -1.91300 43.75800
C  6.41900 -0.61600 44.23300
O  7.44100 -0.06000 43.98800
O  5.57700 -0.07800 45.12700
C  5.82000 1.29300 45.60300
H  0.25300 0.74100 41.34500
H  -2.92300 -3.60200 45.11000
H  2.53000 -6.53200 46.45900
H  4.96100 0.43000 42.54900
H  2.63400 0.93900 40.59300
H  1.88600 2.24700 42.89600
H  3.08200 2.83600 41.68000
H  3.48500 2.01000 43.20700
H  4.23700 -0.74500 39.84400
H  5.40600 -1.58100 40.76900
H  6.87000 0.13600 40.88800
H  5.95300 1.43500 40.18600
H  -2.56600 0.12900 40.53600
H  -1.87500 1.33100 41.67300
H  -3.50500 0.91100 41.91300
H  -4.48000 -2.32400 45.47700
H  -5.10600 -3.44100 44.20300
H  -5.96100 -1.99900 44.65900
H  -2.25000 -6.00300 45.53300
H  0.07900 -6.83200 47.27600
H  -2.23600 -6.35400 48.00800
H  -3.12400 -4.96600 47.33600
H  -1.58900 -4.67000 48.16500
H  0.55500 -7.88100 44.69600
H  -1.19200 -7.75400 44.82400
H  0.60600 -9.53400 46.34800
H  -1.15900 -9.71500 45.96700
H  -0.80400 -8.93500 47.34000
H  5.99600 -5.53000 47.33900
H  6.06200 -6.46000 45.72200
H  4.71000 -6.61600 46.89000
H  6.60800 -2.16800 42.89700
H  5.77800 1.86600 44.67700
H  6.81800 1.56300 45.94700
H  4.98400 1.52900 46.26300
Mg 9.95600 47.60900 25.63700
C  8.09300 47.42900 28.52800
C  12.38200 49.23600 27.29200
C  11.71300 47.48900 22.84600
C  7.17300 46.56700 23.83000
N  10.07100 48.43000 27.67400
C  9.32600 48.11300 28.80000
C  9.88900 48.75700 30.09400
C  10.98400 49.75000 29.45000
C  11.18600 49.12100 28.03700
C  10.73300 51.31300 29.40800
C  10.53200 47.73200 31.01700
C  10.60000 47.98000 32.58300
H  10.12500 46.89800 33.60700
N  11.77100 48.21700 25.16500
C  12.67500 48.76900 26.02000
C  13.97400 48.68200 25.38200
C  13.79100 48.29400 24.04000
C  12.34500 48.02500 23.95000
C  15.30100 48.84900 26.19400
C  14.86700 47.96300 22.99300
O  14.62500 47.47100 21.88800
C  16.27600 48.31800 23.28000
N  9.40800 47.29400 23.55600
C  10.40400 47.18100 22.66600
C  9.84300 46.62200 21.30600
C  8.36900 46.29000 21.61800
C  8.28800 46.76200 23.06600
C  9.92300 47.72000 20.19700
C  8.00000 44.84600 21.41300
C  8.62800 43.86000 22.40100
N  7.93900 47.18700 26.03600
C  6.93300 46.71500 25.25700
C  5.87700 46.40600 26.02600
C  6.26600 46.61300 27.34400
C  7.56000 47.06600 27.30800
C  4.46900 46.02100 25.38200
C  5.92100 46.44500 28.76000
O  4.90000 46.00900 29.30000
C  7.10000 46.91800 29.48500
C  7.55600 45.87000 30.44300
O  8.25700 44.99600 30.01700
O  7.03100 45.95800 31.70300
C  7.39300 44.86800 32.63000
H  13.18400 49.88300 27.65600
H  12.22200 47.37700 21.88600
H  6.38200 46.21400 23.16400
H  9.16200 49.36900 30.62800
H  11.90700 49.74400 30.02900
H  11.37900 51.85600 30.09700
H  9.67200 51.49900 29.57600
H  11.02500 51.73200 28.44600
H  11.53700 47.49200 30.66800
H  9.95500 46.80900 30.96100
H  9.97000 48.81200 32.89800
H  11.62500 48.30200 32.76100
H  15.22300 48.81000 27.28100
H  15.69400 49.83500 25.94600
H  16.01800 48.04700 26.01500
H  16.25100 49.25300 23.84100
H  16.70400 48.55200 22.30600
H  16.75500 47.51900 23.84600
H  10.34000 45.67400 21.10000
H  7.59800 46.75100 21.00100
H  10.73500 48.39200 20.47600
H  8.94900 48.13600 19.94000
H  10.22000 47.19800 19.28700
H  8.45200 44.58500 20.45600
H  6.91400 44.80300 21.33900
H  9.49200 44.29700 22.90200
H  8.89300 42.95400 21.85600
H  7.75100 43.56400 22.97600
H  4.06500 46.86900 24.82900
H  3.78200 45.66900 26.15100
H  4.47900 45.25000 24.61200
H  6.84800 47.77700 30.10700
H  6.52500 44.25900 32.88200
H  7.64700 45.38400 33.55600
H  8.22400 44.18100 32.47200

