158

Mg 25.58600 1.97600 29.61200
C  27.57400 1.64700 32.43600
C  22.66200 1.97200 31.75000
C  23.48600 1.96900 26.94000
C  28.18000 1.01600 27.56100
N  25.13200 1.79500 31.81500
C  26.14900 1.83200 32.73000
C  25.56600 2.10400 34.19600
C  24.05800 2.02600 33.99900
C  23.89400 1.97800 32.43000
C  23.40700 0.87000 34.89800
C  26.14000 3.39500 34.90300
C  27.09100 3.06000 36.04200
H  27.16200 3.95800 37.37400
N  23.43200 2.05600 29.44300
C  22.48300 1.98000 30.42000
C  21.10800 1.96100 29.84400
C  21.32100 2.15400 28.39600
C  22.78900 2.01400 28.23300
C  19.91100 1.88800 30.64400
C  20.33900 2.35800 27.31400
O  20.65800 2.49400 26.15700
C  18.89400 2.48400 27.59500
N  25.79700 1.52000 27.59000
C  24.84000 1.90300 26.69600
C  25.38100 1.96300 25.23500
C  26.92500 1.64400 25.45800
C  27.02300 1.47600 26.95500
C  24.71000 0.99900 24.19300
C  27.97700 2.61300 24.91400
C  29.02500 2.02000 23.93400
N  27.52000 1.52500 29.91800
C  28.50000 1.08800 29.01000
C  29.72000 0.89600 29.64400
C  29.45900 1.21100 30.99900
C  28.09500 1.55400 31.13300
C  30.93900 0.34600 28.91700
C  30.00800 1.11000 32.37100
O  31.09400 0.74600 32.74700
C  28.84600 1.49900 33.32500
C  28.54800 0.42200 34.39600
O  28.01100 -0.62600 34.28600
O  29.27700 0.73600 35.55900
C  29.09400 -0.14000 36.73200
H  21.75600 1.97000 32.36000
H  22.86000 2.13900 26.06100
H  28.89900 0.59200 26.85700
H  25.89600 1.25800 34.79900
H  23.76100 3.00500 34.37500
H  22.77300 0.33400 34.19200
H  22.88000 1.32800 35.73400
H  24.18700 0.19600 35.25200
H  25.34300 4.08100 35.19000
H  26.76000 3.93800 34.18900
H  28.06900 2.91600 35.58300
H  26.76500 2.13900 36.52600
H  19.12900 2.60500 30.39300
H  20.02000 1.97200 31.72500
H  19.53600 0.86500 30.60600
H  18.54000 1.49100 27.87300
H  18.41700 3.00000 26.76200
H  18.69300 3.23100 28.36200
H  25.19100 2.98700 24.91300
H  27.23000 0.64800 25.13700
H  23.73700 1.41600 23.93200
H  24.43900 0.08700 24.72600
H  25.42000 0.93800 23.36800
H  28.36000 3.00300 25.85700
H  27.55600 3.48800 24.41900
H  29.60700 2.81300 23.46500
H  28.50800 1.46000 23.15400
H  29.56500 1.27600 24.51900
H  31.31400 1.20900 28.36600
H  30.71500 -0.48400 28.24700
H  31.60200 0.00100 29.71000
H  29.12700 2.42800 33.82200
H  28.05000 -0.43700 36.83900
H  29.45500 0.35200 37.63500
H  29.66300 -1.03200 36.47000
Mg 45.01300 4.77500 48.41200
C  42.76100 7.40100 47.77400
C  42.39500 2.52200 47.77800
C  47.24400 2.27600 48.06400
C  47.53700 7.16000 48.31800
N  42.75200 4.99800 47.80100
C  42.13000 6.16900 47.58000
C  40.69300 5.89600 47.16300
C  40.53700 4.34100 47.36300
C  41.98100 3.89900 47.60200
C  39.65100 3.94600 48.55300
C  40.48900 6.31100 45.64100
C  39.32700 7.13300 45.32700
H  38.82200 7.02800 43.89100
N  44.86400 2.69200 48.19600
C  43.70700 1.97900 48.03700
C  44.01100 0.61400 47.94000
C  45.46800 0.44900 48.00700
C  45.91500 1.85200 48.12100
C  43.00500 -0.45700 47.75300
C  46.21700 -0.88000 47.93800
O  45.65400 -2.00200 47.77800
C  47.71700 -0.83000 48.14400
N  47.08000 4.75100 48.38100
C  47.76800 3.55500 48.08100
C  49.31000 3.87200 47.91700
C  49.41400 5.30200 48.35700
C  47.91900 5.80600 48.37300
C  50.15400 2.83700 48.72800
C  50.43300 6.21200 47.52500
C  51.20300 7.27200 48.31400
N  45.21300 6.82200 48.10600
C  46.20700 7.67100 48.21300
C  45.76200 9.03700 48.07300
C  44.43500 8.94800 47.93200
C  44.09600 7.61800 47.93600
C  46.63600 10.21600 48.13500
C  43.24300 9.79600 47.75700
O  43.12400 10.99200 47.81100
C  42.13900 8.83500 47.54600
C  41.13600 9.09400 48.63200
O  41.23000 8.65400 49.77000
O  40.17800 9.97300 48.20000
C  39.22700 10.37700 49.20900
H  41.62800 1.76500 47.60000
H  48.02700 1.59700 47.72100
H  48.22800 7.97500 48.54500
H  40.00800 6.34400 47.88300
H  40.15000 3.78200 46.51100
H  38.88800 4.71400 48.68000
H  40.26300 3.91800 49.45400
H  39.01900 3.08500 48.33400
H  40.49900 5.43000 44.99900
H  41.30400 7.00100 45.42100
H  39.70400 8.14800 45.45700
H  38.45900 6.99300 45.97100
H  43.39100 -1.30000 48.32600
H  42.91700 -0.71100 46.69600
H  42.02400 -0.22800 48.16700
H  47.95500 -1.88900 48.23700
H  48.08300 -0.28200 49.01300
H  48.16300 -0.53500 47.19400
H  49.60500 3.78300 46.87200
H  49.76000 5.26500 49.39000
H  50.92300 2.37100 48.11100
H  49.54700 2.08000 49.22300
H  50.63300 3.32400 49.57800
H  49.80600 6.73100 46.80100
H  51.05600 5.50600 46.97400
H  50.97000 8.27000 47.94200
H  52.28200 7.15100 48.21200
H  51.13900 7.24800 49.40200
H  46.36200 10.59900 49.11800
H  46.47800 10.89200 47.29500
H  47.69800 9.98900 48.22300
H  41.66500 8.99400 46.57700
H  39.34600 11.40600 49.54800
H  39.18900 9.74500 50.09700
H  38.25200 10.36300 48.72100

