158

Mg 35.69600 3.40600 30.82400
C  33.02300 4.34000 32.76900
C  37.66600 3.35400 33.59800
C  38.32900 2.47700 28.86800
C  33.66300 3.54800 28.01300
N  35.32300 3.63000 32.92900
C  34.14500 4.00500 33.52200
C  34.24500 3.99700 35.04300
C  35.80400 3.95800 35.27200
C  36.30600 3.63600 33.85100
C  36.41100 5.24800 35.86500
C  33.34400 2.85800 35.61900
C  33.54600 2.20700 36.99700
H  33.97400 3.04700 38.20200
N  37.68600 2.91000 31.26900
C  38.34200 2.99800 32.43000
C  39.75300 2.82800 32.22800
C  39.91500 2.27500 30.92800
C  38.60400 2.52600 30.26000
C  40.74300 2.91500 33.33000
C  41.02200 1.54000 30.32200
O  40.97900 1.16200 29.12900
C  42.11600 1.11900 31.22900
N  35.90300 2.98500 28.77200
C  37.11700 2.71900 28.18900
C  37.04300 2.62700 26.64700
C  35.54000 2.95300 26.36200
C  35.00900 3.21600 27.78000
C  37.87400 3.68600 25.89800
C  34.79200 1.74800 25.76200
C  34.31900 0.55800 26.69400
N  33.74400 3.89200 30.36900
C  33.03200 3.88600 29.20500
C  31.67000 4.22800 29.44600
C  31.59100 4.51500 30.83700
C  32.87400 4.20200 31.38600
C  30.57400 4.21100 28.42000
C  30.78100 4.93000 31.96600
O  29.66100 5.46400 32.01800
C  31.65100 4.80500 33.25900
C  31.75900 6.15500 33.96100
O  32.56900 6.99400 33.59800
O  30.84100 6.30500 34.99200
C  31.05800 7.34500 36.00500
H  38.17600 3.37200 34.56300
H  39.16900 2.40100 28.17400
H  32.94300 3.65300 27.19900
H  33.80600 4.94600 35.35100
H  36.16100 3.13900 35.89600
H  36.94500 5.87700 35.15200
H  37.03300 5.22100 36.76000
H  35.52700 5.82500 36.13600
H  33.51600 2.01200 34.95400
H  32.28300 3.07700 35.49700
H  34.26300 1.40600 36.81800
H  32.56900 1.74600 37.14200
H  41.72200 3.18200 32.93400
H  40.65500 2.00800 33.92900
H  40.65600 3.76300 34.01000
H  42.52000 0.23900 30.72700
H  41.73200 0.76800 32.18700
H  43.01300 1.72800 31.34200
H  37.29500 1.59300 26.41400
H  35.43100 3.88800 25.81200
H  38.74100 3.18500 25.46600
H  38.26000 4.34300 26.67800
H  37.45900 4.25900 25.06900
H  35.45500 1.33200 25.00400
H  33.98000 2.20900 25.19900
H  33.89800 0.85700 27.65400
H  35.05800 -0.23700 26.80500
H  33.54700 0.14500 26.04500
H  30.52000 3.30900 27.81000
H  30.59100 4.99000 27.65800
H  29.62500 4.27900 28.95200
H  31.14000 4.15800 33.97200
H  31.33100 6.79100 36.90200
H  30.15300 7.85500 36.33600
H  31.91800 7.99500 35.84300
Mg 9.12200 47.92500 26.25300
C  7.14700 48.01300 29.26300
C  11.72500 49.20200 28.01800
C  10.66900 47.97700 23.40100
C  5.95100 47.30600 24.49800
N  9.35100 48.68300 28.43200
C  8.49100 48.43100 29.51300
C  9.13300 49.02000 30.86700
C  10.60500 49.39900 30.34700
C  10.59900 49.15100 28.84500
C  11.19900 50.74100 30.90500
C  9.20000 48.00000 32.02200
C  8.53300 48.46000 33.41300
H  8.39200 47.39600 34.49400
N  10.94700 48.38700 25.82700
C  11.92700 49.00200 26.65500
C  13.16500 48.98800 25.92100
C  12.99500 48.55400 24.64600
C  11.47300 48.32300 24.55700
C  14.49700 49.31800 26.60800
C  13.96800 48.30600 23.48100
O  13.63800 47.71900 22.43800
C  15.42700 48.79400 23.66300
N  8.34200 47.88400 24.08900
C  9.28400 47.75200 23.18500
C  8.61300 47.38200 21.82400
C  7.16300 47.05200 22.21700
C  7.05900 47.47700 23.69300
C  8.74700 48.52800 20.81400
C  6.76500 45.63900 21.85400
C  7.60500 44.47800 22.49300
N  6.99600 47.71600 26.65700
C  5.83400 47.47300 25.86300
C  4.69100 47.38300 26.72200
C  5.13100 47.50300 27.99100
C  6.59100 47.75800 27.95400
C  3.33800 47.06200 26.20600
C  4.70300 47.60600 29.38100
O  3.58600 47.48400 29.83400
C  6.01900 47.76700 30.22300
C  6.34400 46.65000 31.07400
O  6.99500 45.68700 30.73400
O  5.61200 46.61700 32.25900
C  5.55000 45.31800 32.99900
H  12.58600 49.41200 28.65600
H  11.22600 47.99600 22.46200
H  5.03400 47.01300 23.98200
H  8.55800 49.86800 31.23800
H  11.23800 48.56200 30.63900
H  11.42200 51.32200 30.01000
H  12.14900 50.63100 31.43000
H  10.44400 51.29800 31.46000
H  10.21400 47.68100 32.26300
H  8.73100 47.06400 31.71900
H  7.53700 48.87300 33.24700
H  9.22400 49.16100 33.88100
H  14.92700 50.15800 26.06200
H  15.03500 48.37100 26.60700
H  14.39300 49.66400 27.63700
H  16.00900 48.71100 22.74500
H  15.83900 48.31300 24.55000
H  15.62800 49.82900 23.93800
H  9.26300 46.56700 21.50700
H  6.51700 47.75200 21.68800
H  8.33100 49.41400 21.29500
H  8.15900 48.35200 19.91300
H  9.80100 48.63800 20.56200
H  6.79100 45.58700 20.76500
H  5.71900 45.40600 22.05300
H  8.23400 44.89900 23.27700
H  8.14100 43.94100 21.71000
H  6.97400 43.70600 22.93300
H  2.79000 47.95800 25.91600
H  2.70300 46.61600 26.97100
H  3.41600 46.28400 25.44700
H  6.11500 48.72800 30.72900
H  5.73700 45.60800 34.03300
H  6.32300 44.59000 32.75400
H  4.57500 44.87600 32.79100

