158

Mg 30.35100 57.59300 41.16400
C  27.34200 55.89800 40.21200
C  32.07200 54.81900 40.16800
C  32.95500 59.53100 41.42600
C  28.23500 60.50700 41.64100
N  29.74200 55.57800 40.27800
C  28.48500 55.16200 39.92500
C  28.58800 53.95100 39.15200
C  30.01600 53.35500 39.46900
C  30.68100 54.61000 40.08200
C  30.07500 52.21200 40.53200
C  28.26300 54.18700 37.61700
C  27.00800 53.50200 36.96400
H  26.47700 54.22200 35.65700
N  32.29000 57.24500 40.84200
C  32.83700 56.02300 40.45900
C  34.24400 56.16400 40.60900
C  34.52400 57.49700 41.14600
C  33.25600 58.13800 41.20100
C  35.33200 55.18500 40.06100
C  35.89700 58.04900 41.51000
O  36.87400 57.37800 41.30900
C  36.16100 59.40400 42.09400
N  30.53000 59.77000 41.54500
C  31.79500 60.27200 41.57300
C  31.76700 61.87300 41.60500
C  30.20500 62.16500 41.80600
C  29.62800 60.75000 41.66400
C  32.78100 62.58300 42.61500
C  29.50800 63.23000 40.87000
C  28.81600 64.43600 41.56100
N  28.24600 58.09300 41.15500
C  27.57000 59.26300 41.42200
C  26.12600 59.06700 41.48700
C  26.00200 57.72300 40.99000
C  27.33300 57.23700 40.78300
C  25.07200 60.09400 41.90000
C  25.04200 56.62400 40.60200
O  23.82900 56.55400 40.65400
C  25.82500 55.49500 39.98000
C  25.49100 54.16000 40.54600
O  25.96400 53.78400 41.64900
O  24.43800 53.49300 39.91300
C  24.21000 52.15800 40.44900
H  32.72500 53.96100 39.99200
H  33.79900 60.22200 41.47500
H  27.70700 61.43400 41.87500
H  27.90700 53.15000 39.43900
H  30.66500 53.00600 38.66600
H  30.94300 51.56600 40.40500
H  29.21200 51.55200 40.43700
H  30.16600 52.61100 41.54200
H  29.12900 53.71900 37.14700
H  28.31100 55.27400 37.56300
H  26.24900 53.50900 37.74600
H  27.28900 52.46600 36.77700
H  34.88500 54.45000 39.39300
H  35.95900 54.64300 40.76900
H  36.05300 55.71800 39.44100
H  35.41000 59.63000 42.85100
H  36.10100 60.18000 41.33100
H  37.17200 59.52700 42.48000
H  32.07100 62.13800 40.59300
H  29.99700 62.42100 42.84500
H  32.57000 62.36000 43.66100
H  32.65900 63.66600 42.59300
H  33.78100 62.23400 42.35700
H  28.77900 62.69000 40.26500
H  30.32100 63.61600 40.25600
H  27.74700 64.23000 41.50400
H  28.95500 65.39400 41.06000
H  29.12700 64.53200 42.60200
H  24.53000 60.51700 41.05400
H  25.55900 60.99200 42.28000
H  24.37200 59.63700 42.60000
H  25.67100 55.34800 38.91100
H  23.14000 52.11800 40.24600
H  24.23000 52.02000 41.53000
H  24.71900 51.40600 39.84700
Mg 26.41700 50.17700 27.00100
C  24.29900 51.16800 29.53000
C  28.51300 48.81000 29.44800
C  28.66700 49.19400 24.56100
C  24.21500 51.49600 24.58400
N  26.43000 50.03200 29.25300
C  25.46900 50.49600 30.08000
C  25.72700 50.04500 31.62500
C  27.11400 49.44100 31.51800
C  27.38900 49.43700 29.98500
C  28.18400 50.09900 32.36900
C  24.57400 49.09700 32.11400
C  24.01100 49.40900 33.49100
H  24.82900 49.86900 34.69300
N  28.31500 49.18900 27.01000
C  29.00200 48.73400 28.12900
C  30.34700 48.43400 27.75100
C  30.43300 48.55000 26.32200
C  29.12000 48.99100 25.86200
C  31.44000 48.10500 28.79100
C  31.54900 48.29100 25.43400
O  31.50800 48.52300 24.23100
C  32.86200 47.76000 25.86100
N  26.50900 50.38300 24.85900
C  27.44300 49.73000 24.05700
C  26.87600 49.69100 22.57400
C  25.68100 50.71300 22.63800
C  25.44000 50.89000 24.14800
C  27.91200 49.96100 21.43400
C  24.52200 50.10600 21.79500
C  23.98500 50.91100 20.54500
N  24.71200 51.27400 27.01000
C  23.87800 51.71300 25.94900
C  22.75400 52.45500 26.55700
C  22.84100 52.22500 27.94200
C  24.01000 51.39500 28.15700
C  21.75800 53.42600 25.85900
C  22.24000 52.53300 29.21000
O  21.27300 53.14800 29.50900
C  23.14100 51.81800 30.30600
C  23.59100 52.72800 31.45200
O  24.69700 53.34300 31.46100
O  22.55300 52.90600 32.30100
C  22.88100 53.81000 33.40600
H  29.21900 48.43100 30.19000
H  29.35200 48.74400 23.83900
H  23.50900 51.87300 23.84200
H  25.72300 50.89500 32.30900
H  27.07100 48.39300 31.81500
H  28.88000 50.64100 31.72900
H  28.79400 49.37200 32.90600
H  27.75900 50.82000 33.06800
H  24.89700 48.05800 32.17700
H  23.72300 49.01100 31.43900
H  23.44400 48.50900 33.73000
H  23.26400 50.19300 33.37100
H  31.21200 48.45100 29.79900
H  32.39100 48.54800 28.49400
H  31.59400 47.02800 28.72400
H  32.73800 47.00400 26.63600
H  33.28400 48.68700 26.24900
H  33.49500 47.41900 25.04100
H  26.55600 48.64900 22.59400
H  26.05700 51.59000 22.11200
H  28.18200 49.00700 20.98200
H  28.79400 50.29500 21.98100
H  27.62800 50.68000 20.66600
H  23.68000 49.82900 22.42900
H  24.80500 49.11600 21.43900
H  22.93200 51.14000 20.71000
H  24.03300 50.60700 19.49900
H  24.51500 51.86200 20.50200
H  22.36800 54.03700 25.19300
H  21.43800 53.98600 26.73700
H  20.96500 52.93700 25.29300
H  22.46700 51.07000 30.72300
H  23.47900 54.67500 33.11600
H  23.46300 53.15500 34.05400
H  21.95800 54.01600 33.94800

