158

Mg 8.43400 3.35000 27.68700
C  10.01000 2.06200 30.42600
C  6.44400 5.28500 29.79500
C  6.58600 4.29400 24.96600
C  10.26400 1.06200 25.66800
N  8.24800 3.57300 29.83900
C  8.98900 2.93600 30.81300
C  8.57100 3.43400 32.27800
C  7.45300 4.48300 31.93600
C  7.36600 4.48000 30.42100
C  6.08800 4.19300 32.60400
C  9.81600 3.98800 33.03400
C  9.52100 5.11800 34.10700
H  10.20200 5.02400 35.47800
N  6.78000 4.53800 27.38400
C  6.17900 5.32200 28.35900
C  5.18900 6.27900 27.71600
C  5.28300 6.02200 26.33200
C  6.24000 4.89500 26.16700
C  4.35200 7.29300 28.41900
C  4.57500 6.75800 25.19800
O  4.68500 6.45900 23.99300
C  3.61400 7.86200 25.50000
N  8.25300 2.56700 25.68400
C  7.49200 3.29500 24.71200
C  7.97100 2.92300 23.28900
C  9.25600 2.12900 23.52000
C  9.25100 1.90700 25.03600
C  6.79600 2.13700 22.49200
C  10.57800 2.83000 22.97100
C  11.28100 3.90100 23.86000
N  9.72300 1.71000 27.97000
C  10.40000 0.94500 27.04700
C  11.43200 0.23400 27.70700
C  11.29700 0.60300 29.12600
C  10.26400 1.49900 29.18900
C  12.47100 -0.68600 26.96900
C  11.83500 0.43400 30.43800
O  12.71800 -0.34900 30.80100
C  11.04900 1.38700 31.36500
C  10.38700 0.62300 32.43300
O  9.47300 -0.18100 32.26200
O  11.07000 0.72400 33.59900
C  10.42100 0.08800 34.72600
H  5.76500 5.89000 30.40000
H  6.21800 4.77000 24.05500
H  10.96300 0.45800 25.08700
H  8.20900 2.51100 32.73100
H  7.76400 5.49700 32.18900
H  5.49300 3.47300 32.04200
H  5.74400 5.22600 32.55900
H  6.11600 3.79500 33.61800
H  10.52600 4.34300 32.28800
H  10.35900 3.23200 33.60000
H  8.44400 5.02700 34.25300
H  9.73900 6.00000 33.50500
H  3.27800 7.24100 28.24200
H  4.67600 8.29600 28.14200
H  4.44400 7.16700 29.49800
H  2.71500 7.43000 25.94000
H  3.37400 8.16200 24.48100
H  4.14800 8.65400 26.02600
H  8.14100 3.85500 22.74900
H  9.11200 1.19900 22.97100
H  5.88400 2.08100 23.08700
H  7.02600 1.12900 22.14600
H  6.51600 2.76700 21.64800
H  10.28300 3.28000 22.02300
H  11.35200 2.08700 22.77500
H  10.70800 4.04600 24.77600
H  11.27000 4.87000 23.36200
H  12.27000 3.51900 24.11400
H  12.77800 -0.09600 26.10600
H  11.93300 -1.61200 26.76700
H  13.25700 -0.91500 27.68800
H  11.76000 2.08300 31.81000
H  9.90900 0.90900 35.22800
H  11.23300 -0.27300 35.35700
H  9.76200 -0.74500 34.48200
Mg -10.73100 16.75200 40.65000
C  -7.39300 16.09900 41.14800
C  -10.00800 19.98300 39.84700
C  -13.86700 17.06600 39.45900
C  -11.24900 13.19700 40.71600
N  -8.86600 17.84500 40.53600
C  -7.62600 17.42700 40.74100
C  -6.61400 18.55100 40.53100
C  -7.54300 19.85000 40.57100
C  -8.90300 19.21600 40.36700
C  -7.64300 20.64000 41.94800
C  -5.95500 18.41600 39.08700
C  -4.48500 17.94300 39.07000
H  -4.19300 16.69200 38.27300
N  -11.86300 18.28200 39.90200
C  -11.34700 19.52900 39.60900
C  -12.40900 20.31900 38.96500
C  -13.60800 19.58700 38.97800
C  -13.12300 18.26000 39.46400
C  -12.15100 21.59000 38.38700
C  -15.00400 20.00200 38.59900
O  -15.17700 21.16900 38.34300
C  -16.17300 19.09800 38.78000
N  -12.24900 15.28900 39.94500
C  -13.51300 15.71700 39.77300
C  -14.50600 14.59700 39.90300
C  -13.61700 13.30200 39.96800
C  -12.28700 13.94400 40.25500
C  -15.59200 14.79300 41.10200
C  -13.69100 12.33500 38.76300
C  -13.79800 10.85000 39.08200
N  -9.54100 14.92500 40.88600
C  -9.99000 13.65100 41.01900
C  -8.75800 12.85700 41.38600
C  -7.70600 13.74900 41.48200
C  -8.29300 14.99000 41.15400
C  -8.73500 11.45100 41.78800
C  -6.30000 13.93600 41.75300
O  -5.38800 13.09600 41.96700
C  -6.07600 15.47400 41.63100
C  -5.73800 15.98100 42.95400
O  -6.45400 16.10700 43.94200
O  -4.36100 16.20000 43.02800
C  -3.82100 16.54200 44.35700
H  -9.62400 20.97500 39.60000
H  -14.89100 17.10500 39.08300
H  -11.37800 12.12000 40.84900
H  -5.89900 18.49900 41.35200
H  -7.33000 20.61900 39.82900
H  -7.68300 21.69900 41.69400
H  -6.75300 20.38600 42.52400
H  -8.53400 20.40700 42.53000
H  -6.04300 19.43100 38.70200
H  -6.60200 17.75300 38.51300
H  -4.25100 17.76200 40.11900
H  -3.88100 18.74800 38.65200
H  -12.00500 21.48500 37.31200
H  -11.24100 22.04400 38.78000
H  -12.87200 22.39800 38.51400
H  -16.94200 19.86000 38.90900
H  -16.07300 18.45800 39.65700
H  -16.41600 18.52300 37.88700
H  -15.12600 14.48700 39.01200
H  -13.77000 12.72200 40.87800
H  -16.04700 15.72600 40.76900
H  -15.24000 15.07400 42.09500
H  -16.33100 14.02700 41.33600
H  -12.82300 12.44700 38.11400
H  -14.51300 12.60900 38.10100
H  -13.38400 10.56700 40.05000
H  -13.22900 10.26700 38.35800
H  -14.81500 10.50400 38.89700
H  -7.97300 11.22100 42.53200
H  -8.49500 10.88700 40.88600
H  -9.72600 11.12100 42.09900
H  -5.15700 15.65300 41.07200
H  -2.78200 16.84900 44.24100
H  -3.89200 15.77100 45.12400
H  -4.32400 17.42000 44.76400

