158

Mg 25.98000 0.29900 28.98300
C  27.77400 -0.01500 31.91900
C  23.16000 0.75900 31.02600
C  24.04300 0.31600 26.20600
C  28.64500 -0.83200 27.11200
N  25.53500 0.30900 31.31500
C  26.50000 0.37100 32.18600
C  25.92600 0.63700 33.53700
C  24.37000 0.71100 33.36500
C  24.33200 0.54900 31.84800
C  23.49500 -0.30900 34.21500
C  26.62400 1.84200 34.27700
C  25.82800 2.71600 35.17900
H  26.40000 2.93100 36.58500
N  23.98200 0.65100 28.68200
C  22.97400 0.81800 29.60900
C  21.67300 1.20000 28.97700
C  21.97000 1.11700 27.61300
C  23.37900 0.65600 27.45800
C  20.32200 1.45400 29.77100
C  20.96000 1.34300 26.48000
O  21.25300 1.14500 25.33500
C  19.60700 1.85500 26.68400
N  26.33600 -0.08800 26.95500
C  25.37000 -0.06500 26.00400
C  25.93400 -0.28500 24.60700
C  27.40000 -0.66100 24.87500
C  27.53300 -0.44200 26.38500
C  25.30100 -1.39600 23.71300
C  28.55900 0.05700 24.04700
C  28.93100 1.49500 24.43100
N  27.85100 -0.29300 29.35900
C  28.84800 -0.70400 28.52200
C  30.00300 -0.98000 29.30100
C  29.65300 -0.71300 30.64800
C  28.29700 -0.34200 30.66200
C  31.25300 -1.40200 28.60600
C  30.12900 -0.61400 31.96700
O  31.20200 -0.84900 32.42400
C  28.90200 -0.13400 32.88600
C  28.58900 -1.25200 33.81900
O  28.22500 -2.37600 33.54700
O  28.68100 -0.70200 35.14300
C  28.47500 -1.56800 36.32700
H  22.30000 1.08600 31.61500
H  23.37500 0.37800 25.34400
H  29.47000 -1.11200 26.45400
H  26.14700 -0.27300 34.09400
H  24.03600 1.74400 33.46100
H  22.69900 0.23000 34.73000
H  24.09400 -0.81400 34.97200
H  23.04100 -1.02900 33.53400
H  27.03700 2.48700 33.50200
H  27.48800 1.62200 34.90400
H  24.88300 2.24300 35.44800
H  25.55300 3.66600 34.72100
H  19.79300 2.32300 29.38000
H  20.34200 1.55200 30.85600
H  19.79000 0.51500 29.62100
H  19.02700 1.16700 27.29900
H  19.07700 1.91500 25.73300
H  19.72200 2.84900 27.11600
H  25.99500 0.61700 23.99900
H  27.67600 -1.71000 24.77000
H  25.98100 -2.21800 23.48600
H  24.84200 -1.01000 22.80300
H  24.48000 -1.86000 24.25900
H  28.11700 -0.03800 23.05500
H  29.47700 -0.53100 24.03800
H  30.01100 1.57600 24.55200
H  28.44000 1.98600 25.27100
H  28.69700 2.21600 23.64900
H  31.96500 -0.81600 29.18600
H  31.45400 -1.05800 27.59100
H  31.43200 -2.46500 28.44500
H  29.13200 0.78500 33.42400
H  27.70900 -1.18100 37.00000
H  29.41400 -1.58700 36.88000
H  28.28300 -2.60700 36.05700
Mg 0.13900 43.73100 25.51100
C  2.39300 43.79300 28.16900
C  -2.27300 42.75100 27.77500
C  -1.88200 42.99800 22.95900
C  2.85300 44.12700 23.32400
N  0.09300 43.29000 27.78700
C  1.13900 43.52500 28.62600
C  0.64600 43.57500 30.11300
C  -0.79800 42.97500 29.99200
C  -1.06200 43.03000 28.44800
C  -0.95500 41.60100 30.55400
C  0.74000 45.07900 30.58900
C  0.62000 45.18000 32.16600
H  0.47800 43.97500 33.14800
N  -1.85800 43.16200 25.42500
C  -2.64700 42.80500 26.44900
C  -4.04200 42.62500 25.99500
C  -3.92700 42.65500 24.62700
C  -2.48900 42.95800 24.24200
C  -5.25000 42.47200 26.86200
C  -5.06900 42.54000 23.56000
O  -4.84000 42.62400 22.31600
C  -6.54200 42.41600 23.94700
N  0.49000 43.40600 23.41500
C  -0.50500 43.17800 22.56600
C  -0.10600 43.34500 21.07600
C  1.38200 43.84600 21.21200
C  1.60800 43.87700 22.73000
C  -0.35800 41.98000 20.23900
C  1.68200 45.20100 20.38600
C  2.21800 45.05500 18.90300
N  2.21500 44.03400 25.64900
C  3.22700 44.18100 24.69900
C  4.56700 44.18700 25.34700
C  4.29300 44.10600 26.73800
C  2.84400 43.94000 26.83500
C  5.92400 44.29300 24.71000
C  4.88000 43.99400 28.05200
O  6.02300 43.77100 28.41600
C  3.65200 44.01600 29.03600
C  3.85400 42.85600 30.02000
O  3.77100 41.62600 29.77400
O  4.18200 43.41400 31.23600
C  4.42700 42.44600 32.30300
H  -3.01400 42.40700 28.50000
H  -2.54800 42.97700 22.09400
H  3.69300 44.15600 22.62700
H  1.27800 42.92900 30.72200
H  -1.47700 43.61200 30.55900
H  -1.33300 40.94900 29.76700
H  -1.60400 41.71400 31.42200
H  -0.01100 41.18300 30.90500
H  -0.13500 45.56900 30.16000
H  1.65700 45.57300 30.27000
H  -0.14200 45.95900 32.17200
H  1.53200 45.51100 32.66400
H  -5.85500 41.68700 26.41000
H  -5.89500 43.34900 26.81400
H  -5.06700 42.20100 27.90200
H  -6.86000 43.27100 24.54400
H  -6.46600 41.45700 24.45900
H  -7.02600 42.29100 22.97900
H  -0.64800 44.18300 20.63600
H  1.97200 43.06200 20.73600
H  -1.09200 42.14700 19.45000
H  -0.85700 41.23600 20.85900
H  0.62100 41.57400 19.98400
H  2.28900 45.92600 20.92800
H  0.68500 45.63800 20.33200
H  1.28800 45.23200 18.36300
H  2.55900 44.04400 18.68100
H  3.05600 45.70600 18.65300
H  6.59300 44.76900 25.42600
H  5.89400 44.89400 23.80100
H  6.26700 43.29000 24.45700
H  3.79700 44.98100 29.52200
H  5.43100 42.02500 32.24400
H  3.67900 41.66800 32.15400
H  4.28000 42.93100 33.26900

