158

Mg 49.39500 45.03600 43.50600
C  45.96100 45.80600 42.72400
C  48.86800 41.91900 42.23300
C  52.55200 44.87100 43.17300
C  49.60900 48.58600 44.33400
N  47.58300 44.04100 42.62200
C  46.23200 44.43200 42.50600
C  45.32300 43.31900 41.87400
C  46.32700 42.09300 41.96200
C  47.72000 42.72000 42.29200
C  45.91900 41.06700 43.03700
C  44.83200 43.63700 40.43700
C  45.89600 44.25400 39.49900
H  45.43900 44.19900 38.00300
N  50.56100 43.52900 42.84300
C  50.21200 42.27700 42.41000
C  51.46600 41.49900 42.29200
C  52.55700 42.41100 42.37100
C  51.88400 43.66700 42.86100
C  51.47600 40.13500 41.83000
C  54.00700 42.14300 42.09800
O  54.41900 41.07700 41.61200
C  55.09100 43.14400 42.38400
N  50.83200 46.55300 43.66100
C  52.10800 46.15700 43.56300
C  53.08300 47.30300 43.77200
C  52.16500 48.42100 44.42800
C  50.81300 47.90400 44.05200
C  54.30600 47.04300 44.64300
C  52.53800 49.80000 43.84800
C  53.34900 50.77000 44.77300
N  48.08500 46.82700 43.72000
C  48.34100 48.14700 44.00000
C  47.19200 48.95300 43.84700
C  46.24300 48.09400 43.33800
C  46.83800 46.79700 43.28000
C  47.10400 50.39700 44.11200
C  44.89400 48.09600 42.79800
O  44.02000 48.92200 42.63200
C  44.63800 46.62900 42.42100
C  43.47100 46.13700 43.18300
O  42.41200 45.86400 42.62900
O  43.64400 45.96700 44.50900
C  42.36400 45.61200 45.27000
H  48.67400 40.85200 42.10900
H  53.63400 44.96400 43.05500
H  49.72600 49.57100 44.79000
H  44.36000 43.24000 42.37700
H  46.36600 41.62100 40.98000
H  45.11700 41.46900 43.65500
H  46.75100 40.93500 43.72900
H  45.73800 40.11100 42.54400
H  43.98200 44.29200 40.62700
H  44.38000 42.74700 39.99900
H  46.77900 43.62700 39.62500
H  45.97200 45.31300 39.74400
H  51.65600 40.07600 40.75700
H  50.49400 39.70600 42.02900
H  52.24600 39.59700 42.38300
H  54.85500 43.93000 41.66700
H  56.05800 42.74100 42.08400
H  55.07900 43.56100 43.39100
H  53.41600 47.57600 42.77100
H  52.27100 48.38000 45.51200
H  54.13800 45.99500 44.89200
H  54.30800 47.62400 45.56500
H  55.22800 47.01400 44.06200
H  51.69500 50.45600 43.63300
H  53.03800 49.67300 42.88800
H  52.83500 51.72800 44.83900
H  54.37300 51.01100 44.48500
H  53.69300 50.42500 45.74800
H  46.08000 50.76700 44.17500
H  47.46000 50.86100 43.19300
H  47.57900 50.69900 45.04500
H  44.40600 46.42500 41.37600
H  42.10200 44.62400 44.89300
H  41.60800 46.31500 44.91800
H  42.45200 45.54900 46.35400
Mg -11.84100 16.40300 41.69400
C  -8.46300 14.99700 41.38000
C  -10.50200 19.29600 40.32500
C  -14.91800 17.43400 41.13600
C  -12.93300 13.10300 42.03900
N  -9.73500 16.97800 40.94900
C  -8.56600 16.29200 40.93400
C  -7.45200 17.12700 40.30600
C  -8.11800 18.53600 39.90500
C  -9.55700 18.21400 40.40300
C  -7.52600 19.82300 40.51300
C  -6.86000 16.36400 39.02400
C  -5.35800 16.30000 38.79600
H  -4.87800 16.98200 37.54100
N  -12.59900 18.14900 40.96400
C  -11.88500 19.28400 40.57400
C  -12.70500 20.35400 40.45700
C  -14.06900 19.88800 40.67200
C  -13.93000 18.42700 40.94300
C  -12.18900 21.81200 40.25400
C  -15.32500 20.82400 40.59200
O  -15.25500 22.03200 40.35000
C  -16.63100 20.22100 41.01800
N  -13.63200 15.36600 41.46500
C  -14.82000 16.09500 41.45400
C  -15.99900 15.15100 41.80900
C  -15.34700 13.79800 42.11500
C  -13.90600 14.09600 41.87700
C  -16.79600 15.75200 43.05300
C  -15.94900 12.71800 41.08800
C  -16.99000 11.70500 41.63300
N  -10.94900 14.53300 41.89300
C  -11.57100 13.29600 42.11200
C  -10.55200 12.28600 42.36000
C  -9.34700 12.91900 42.18000
C  -9.58600 14.29100 41.84300
C  -10.82400 10.88400 42.75000
C  -7.85300 12.76200 42.20500
O  -7.20800 11.75400 42.40800
C  -7.22900 14.05300 41.56800
C  -6.24200 14.52800 42.48800
O  -6.47000 14.70400 43.72100
O  -4.98400 14.71700 41.89200
C  -3.89800 15.26300 42.78600
H  -10.03500 20.24600 40.05600
H  -15.96300 17.74600 41.19100
H  -13.36200 12.12200 42.25500
H  -6.70100 17.27600 41.08200
H  -8.21200 18.70300 38.83200
H  -7.75700 20.56500 39.74800
H  -6.44600 19.68500 40.57000
H  -7.89500 20.09200 41.50300
H  -7.38300 16.85400 38.20300
H  -7.29000 15.36600 38.93100
H  -5.10300 15.24200 38.73500
H  -4.87200 16.75600 39.65800
H  -11.74700 21.96100 39.26900
H  -11.37700 21.97200 40.96400
H  -12.97900 22.55000 40.39100
H  -17.33000 21.02100 40.77300
H  -16.77900 20.08700 42.09000
H  -16.97700 19.36300 40.44100
H  -16.82400 15.10300 41.09800
H  -15.58700 13.43200 43.11300
H  -16.29400 16.51800 43.64600
H  -17.02200 14.94500 43.75000
H  -17.70200 16.15400 42.60000
H  -15.13000 12.07000 40.77400
H  -16.34600 13.23000 40.21200
H  -17.00500 10.75700 41.09500
H  -17.92900 12.20300 41.38900
H  -16.92000 11.61500 42.71700
H  -10.05200 10.41300 43.35900
H  -10.91000 10.34500 41.80700
H  -11.73700 10.78300 43.33700
H  -6.66000 13.85000 40.66100
H  -3.82800 16.26500 42.36200
H  -3.01500 14.75200 42.40100
H  -3.96000 15.15000 43.86800

