158

Mg 53.63400 23.88000 46.12900
C  51.02300 25.72200 44.99300
C  51.85700 21.05200 45.14400
C  56.48600 22.02500 46.51300
C  55.54500 26.79900 46.70000
N  51.70900 23.39800 45.08500
C  50.79100 24.38200 44.78400
C  49.41200 23.73000 44.30700
C  49.62100 22.25700 44.69200
C  51.11900 22.23200 44.96200
C  48.83600 21.67600 45.92700
C  49.13600 23.90700 42.73700
C  47.70800 24.50600 42.42800
H  47.11900 23.96100 41.11500
N  54.10300 21.82500 45.84800
C  53.22400 20.83300 45.43400
C  53.96200 19.52000 45.48800
C  55.31600 19.83900 45.77000
C  55.32300 21.23500 46.10200
C  53.32000 18.22700 44.99300
C  56.43200 18.84300 45.95200
O  56.35000 17.66700 45.66100
C  57.85200 19.18700 46.48500
N  55.73100 24.36800 46.33900
C  56.62900 23.42500 46.63700
C  57.93000 23.98000 47.24800
C  57.72600 25.49400 47.07900
C  56.25200 25.57600 46.70500
C  58.20000 23.45600 48.67300
C  58.57500 26.14800 45.93400
C  59.36900 27.39900 46.44500
N  53.39900 25.89900 46.02100
C  54.25200 26.94800 46.32400
C  53.43700 28.15000 46.23700
C  52.20500 27.73300 45.67000
C  52.23300 26.36500 45.54200
C  53.67500 29.53700 46.69600
C  50.88000 28.20900 45.22600
O  50.41800 29.33700 45.28900
C  50.14700 26.92700 44.67800
C  50.17500 27.25300 43.21700
O  51.01500 26.88400 42.42000
O  49.02000 27.90900 42.82900
C  48.82300 28.21000 41.35200
H  51.20500 20.18700 45.00500
H  57.42600 21.53300 46.77300
H  55.99200 27.73300 47.04800
H  48.62900 24.08100 44.98000
H  49.35200 21.63700 43.83700
H  48.12100 20.93600 45.56800
H  48.21900 22.45600 46.37400
H  49.36600 21.34400 46.82000
H  49.24100 22.97600 42.17900
H  49.85500 24.51700 42.19100
H  47.73500 25.59600 42.42300
H  47.05000 24.43400 43.29500
H  53.58900 17.47000 45.73000
H  53.81000 17.98500 44.05000
H  52.23600 18.29900 44.89600
H  58.49200 19.86100 45.91800
H  58.35700 18.25000 46.72100
H  57.80800 19.62300 47.48400
H  58.87000 23.72500 46.75900
H  57.86000 25.94000 48.06400
H  57.34600 22.93900 49.11400
H  58.42100 24.20600 49.43200
H  58.98200 22.69900 48.72900
H  57.96900 26.51500 45.10500
H  59.31300 25.42800 45.58200
H  60.35600 27.44000 45.98400
H  59.30100 27.54900 47.52200
H  58.93700 28.31600 46.04400
H  52.99700 30.16700 46.12000
H  54.70700 29.85200 46.54100
H  53.50700 29.73700 47.75400
H  49.11000 26.82500 44.99800
H  49.85000 28.37800 41.02500
H  48.10500 29.02900 41.34800
H  48.40900 27.38100 40.77700
Mg 46.97400 34.17000 27.40700
C  45.29700 32.88100 30.11400
C  47.70500 36.80200 29.21200
C  48.26000 35.60600 24.61800
C  45.98300 31.39700 25.52800
N  46.76600 34.51900 29.64700
C  46.00400 33.97500 30.53100
C  45.96200 34.72500 31.81900
C  46.57700 36.08200 31.44600
C  47.13600 35.83400 30.02900
C  45.70200 37.27700 31.70600
C  46.69100 33.91900 32.98300
C  46.18800 34.01700 34.38100
H  45.78500 35.38800 34.92700
N  47.76400 36.04800 26.92000
C  47.98100 37.00400 27.85700
C  48.73900 38.06600 27.29000
C  48.91600 37.83300 25.90200
C  48.30600 36.45200 25.74500
C  49.19000 39.25300 28.05000
C  49.55400 38.65600 24.72700
O  49.84800 38.07700 23.67900
C  49.86400 40.19500 24.92100
N  47.16500 33.53500 25.45700
C  47.78400 34.30300 24.49400
C  47.78900 33.57900 23.14900
C  47.32900 32.16700 23.55200
C  46.73000 32.38300 24.93000
C  46.78900 34.07300 21.92700
C  48.48600 31.03600 23.50100
C  49.07800 30.80900 22.12200
N  46.00400 32.43800 27.71000
C  45.62300 31.42300 26.88000
C  44.78100 30.46900 27.61400
C  44.62500 31.02200 28.79500
C  45.34100 32.21300 28.85200
C  44.22600 29.26400 27.08500
C  43.98200 30.82600 30.15100
O  43.35000 29.89600 30.56000
C  44.17000 32.13000 30.91500
C  44.42600 31.79300 32.40900
O  45.30900 31.07000 32.78700
O  43.34800 32.27700 33.12300
C  43.04600 31.71000 34.48600
H  47.91000 37.75600 29.70300
H  48.72600 36.01800 23.72100
H  45.61200 30.51700 24.99900
H  44.91800 34.90200 32.07900
H  47.38500 36.33200 32.13400
H  44.82300 37.05300 32.31100
H  45.39900 37.75200 30.77300
H  46.18700 37.95800 32.40500
H  47.66700 34.40000 33.05700
H  46.87000 32.88700 32.68000
H  46.95400 33.61700 35.04500
H  45.34300 33.33800 34.48900
H  50.27700 39.28100 28.12100
H  48.71700 39.35600 29.02600
H  48.93000 40.07300 27.38000
H  48.92500 40.74900 24.92200
H  50.48300 40.51700 24.08400
H  50.46800 40.40300 25.80400
H  48.82500 33.53800 22.81300
H  46.51100 31.75200 22.96300
H  45.88300 33.49300 21.75200
H  47.21200 34.03100 20.92400
H  46.64000 35.14600 21.81000
H  48.05100 30.18000 24.01600
H  49.24500 31.26800 24.24900
H  50.15500 30.68500 22.24100
H  49.07800 31.60700 21.38000
H  48.61700 29.90500 21.72200
H  44.37200 28.45800 27.80400
H  44.74700 28.86100 26.21700
H  43.21500 29.52700 26.77700
H  43.24200 32.68900 30.78900
H  43.91500 31.36400 35.04500
H  42.45500 30.81700 34.28100
H  42.45400 32.35100 35.13800

