158

Mg -2.67100 17.03600 27.06300
C  -3.01300 14.98300 29.86700
C  -2.79400 19.71700 29.12300
C  -2.16800 19.01300 24.44200
C  -2.65000 14.13900 25.00200
N  -2.81400 17.25500 29.31800
C  -2.81800 16.32100 30.31000
C  -2.94500 16.93200 31.69600
C  -2.87700 18.53300 31.36300
C  -2.86200 18.54500 29.82700
C  -4.08100 19.27100 32.04100
C  -1.89300 16.43400 32.78400
C  -1.53600 17.33500 33.96100
H  -1.02500 16.67600 35.25700
N  -2.57800 19.09000 26.74900
C  -2.72400 20.04500 27.78000
C  -2.58300 21.42500 27.25700
C  -2.44400 21.22200 25.84700
C  -2.36000 19.73800 25.62900
C  -2.74600 22.71700 28.09900
C  -2.38500 22.22000 24.69900
O  -2.20600 21.89100 23.54200
C  -2.18600 23.67600 25.02000
N  -2.48700 16.65400 25.02500
C  -2.24000 17.64200 24.16200
C  -2.07000 17.05800 22.70700
C  -1.96900 15.52400 22.91300
C  -2.39800 15.39500 24.39300
C  -3.36100 17.49300 21.87700
C  -0.52800 14.84200 22.62600
C  0.64100 15.63100 23.20000
N  -2.84900 14.99300 27.42200
C  -2.81700 13.92000 26.39200
C  -3.07200 12.74300 27.15900
C  -3.07600 13.10400 28.55000
C  -2.91200 14.42300 28.61900
C  -3.41700 11.41700 26.57100
C  -3.28100 12.56400 29.96800
O  -3.59900 11.51100 30.49500
C  -3.12600 13.88000 30.82600
C  -1.84400 13.60700 31.54700
O  -0.75700 13.89400 31.17200
O  -2.11500 13.04200 32.78000
C  -1.04200 12.76900 33.75500
H  -2.78200 20.61800 29.74000
H  -1.89800 19.59400 23.55800
H  -2.58500 13.30700 24.29700
H  -3.90000 16.69800 32.16500
H  -1.95100 18.84500 31.84700
H  -4.47800 18.68500 32.87000
H  -4.90800 19.60900 31.41700
H  -3.71500 20.18500 32.51100
H  -1.00900 16.14900 32.21400
H  -2.27600 15.53000 33.25800
H  -2.23300 18.10300 34.29600
H  -0.55600 17.79600 33.83700
H  -2.58900 22.67400 29.17700
H  -3.73200 23.10900 27.84900
H  -2.03300 23.49600 27.83300
H  -1.41000 23.86600 25.76100
H  -3.08200 24.06600 25.50400
H  -1.94400 24.34400 24.19400
H  -1.14300 17.48800 22.32500
H  -2.72200 15.02800 22.29900
H  -3.93800 18.23800 22.42500
H  -3.98400 16.65800 21.55600
H  -3.10000 17.97700 20.93500
H  -0.41400 14.81200 21.54300
H  -0.48900 13.78600 22.89500
H  1.22100 16.06500 22.38600
H  1.41400 15.01900 23.66500
H  0.38700 16.25100 24.06000
H  -3.86900 10.79600 27.34500
H  -2.50500 10.93600 26.21800
H  -4.14800 11.56700 25.77700
H  -3.95400 14.04500 31.51500
H  -1.39500 12.67400 34.78200
H  -0.18000 13.43700 33.73000
H  -0.74000 11.73900 33.56900
Mg 44.92600 4.70900 45.98100
C  43.31400 7.76900 46.04500
C  41.85900 3.17800 45.32800
C  46.63900 1.91200 45.31000
C  48.02000 6.56300 45.82400
N  42.86200 5.43400 45.44800
C  42.36500 6.74900 45.77200
C  40.91200 6.87200 45.51400
C  40.50900 5.32600 45.54000
C  41.82700 4.53100 45.52800
C  39.44700 4.94700 46.64800
C  40.65600 7.60400 44.21100
C  41.49900 7.15200 42.99700
H  40.76700 6.71900 41.72100
N  44.30200 2.79100 45.43400
C  43.01600 2.34000 45.17100
C  43.00600 0.95600 44.79000
C  44.41600 0.54800 44.88200
C  45.18900 1.75600 45.37500
C  41.81100 0.18000 44.46200
C  44.84500 -0.85900 44.52200
O  44.10400 -1.72200 44.07800
C  46.25900 -1.28300 44.64500
N  47.13700 4.33400 45.60500
C  47.50500 2.99300 45.44300
C  49.02600 2.93200 45.23400
C  49.38100 4.43200 45.62800
C  48.09400 5.18000 45.69000
C  49.70700 1.85100 46.19600
C  50.52900 5.09100 44.84400
C  51.57900 5.73900 45.74000
N  45.55800 6.74400 45.90100
C  46.80000 7.34100 45.94900
C  46.71900 8.74000 46.07200
C  45.30000 8.94400 46.16400
C  44.66100 7.70100 46.05100
C  47.71500 9.78700 46.09400
C  44.34800 9.94400 46.47200
O  44.53500 11.15800 46.69600
C  42.97800 9.21100 46.31400
C  42.13200 9.39600 47.52000
O  41.97600 8.54000 48.38600
O  41.38800 10.60300 47.46600
C  40.44400 10.66100 48.59300
H  40.85400 2.78800 45.15600
H  47.12500 0.96600 45.06000
H  48.96600 7.09600 45.93400
H  40.40600 7.27500 46.39100
H  39.96900 5.00200 44.65100
H  38.68200 5.69400 46.86300
H  39.93500 4.58800 47.55400
H  38.97900 4.07700 46.18800
H  40.72400 8.68600 44.32000
H  39.63000 7.30000 44.00300
H  42.20700 6.33700 43.15100
H  42.07600 7.99500 42.61800
H  41.87100 -0.60400 43.70700
H  40.95200 0.77700 44.15400
H  41.64000 -0.28200 45.43400
H  46.22600 -2.29100 44.23300
H  46.54800 -1.34000 45.69500
H  46.81000 -0.56600 44.03600
H  49.33200 2.60500 44.24000
H  49.64400 4.33700 46.68100
H  49.96500 0.97600 45.59900
H  48.98200 1.52100 46.94000
H  50.58100 2.26800 46.69600
H  50.15900 5.87300 44.18000
H  51.07000 4.42600 44.17000
H  51.52300 5.35800 46.75900
H  51.40300 6.81500 45.72200
H  52.54900 5.50600 45.30100
H  48.59100 9.31400 45.65000
H  47.95500 10.08600 47.11500
H  47.31200 10.68200 45.61900
H  42.49500 9.59100 45.41400
H  41.02500 10.77600 49.50800
H  39.73100 9.83700 48.57300
H  39.90800 11.60900 48.53400

