158

Mg 24.36200 -4.67100 46.25400
C  26.41800 -2.23100 44.98500
C  21.81000 -3.66300 44.16600
C  22.70300 -7.63900 46.85600
C  26.97300 -5.73200 48.47100
N  24.22200 -3.24200 44.54700
C  25.18500 -2.27800 44.25000
C  24.66600 -1.29600 43.16800
C  23.07700 -1.53600 43.36200
C  23.03300 -2.90900 44.08500
C  22.37100 -0.37400 44.14000
C  25.34900 -1.73100 41.80700
C  25.53100 -0.59600 40.79100
H  25.76100 -0.92300 39.32400
N  22.54900 -5.44800 45.65000
C  21.59900 -4.88400 44.84200
C  20.43300 -5.68900 44.67500
C  20.67000 -6.82900 45.54600
C  22.03300 -6.65600 46.11000
C  19.25700 -5.31200 43.80400
C  19.61700 -7.88700 45.82300
O  18.55600 -7.83400 45.24100
C  19.84300 -8.97300 46.84400
N  24.69100 -6.42900 47.48300
C  23.88800 -7.52500 47.62600
C  24.55300 -8.62700 48.44300
C  25.78700 -7.86600 49.10500
C  25.87400 -6.57600 48.27900
C  23.67400 -9.37200 49.48000
C  27.08600 -8.62400 49.33500
C  27.57900 -8.79500 50.77000
N  26.24700 -4.05600 46.73100
C  27.16800 -4.47600 47.70600
C  28.33400 -3.59800 47.68900
C  28.09600 -2.74700 46.57800
C  26.80400 -3.05500 46.07100
C  29.56600 -3.54700 48.71400
C  28.70600 -1.62900 45.82000
O  29.77200 -1.01400 45.83000
C  27.58700 -1.28400 44.76300
C  27.23000 0.16500 45.05900
O  26.23000 0.53600 45.69300
O  28.13800 1.07000 44.35000
C  27.68800 2.47300 44.20100
H  20.88400 -3.20600 43.81200
H  22.34000 -8.66700 46.78900
H  27.79600 -5.98500 49.14200
H  24.87900 -0.25000 43.38700
H  22.70900 -1.48400 42.33800
H  22.07500 -0.62100 45.16000
H  21.50300 -0.06900 43.55500
H  23.01700 0.48200 44.33300
H  24.82100 -2.55300 41.32300
H  26.30100 -2.14000 42.14500
H  26.32300 0.05300 41.16500
H  24.64900 0.04500 40.79300
H  19.19100 -6.03000 42.98700
H  19.23100 -4.29100 43.42200
H  18.35600 -5.32100 44.41700
H  18.86700 -9.41900 47.03700
H  20.20100 -8.53100 47.77400
H  20.60400 -9.54300 46.31000
H  24.91000 -9.36300 47.72400
H  25.40600 -7.58400 50.08600
H  23.46800 -10.41100 49.22600
H  22.72500 -8.83800 49.52500
H  24.05600 -9.28800 50.49800
H  27.83700 -8.13500 48.71500
H  27.06900 -9.62100 48.89400
H  28.43500 -8.15200 50.97900
H  27.77100 -9.84400 50.99300
H  26.84100 -8.38200 51.45800
H  30.44500 -3.85900 48.15000
H  29.36900 -4.38300 49.38500
H  29.83700 -2.60500 49.18900
H  27.96600 -1.27300 43.74100
H  27.22000 2.83700 45.11600
H  27.11100 2.79100 43.33200
H  28.70700 2.84200 44.08900
Mg 53.59500 24.16400 44.19300
C  50.89200 26.46900 43.38300
C  51.73200 21.69800 42.63100
C  56.28600 22.39600 44.26900
C  55.42400 26.95600 45.46900
N  51.65000 24.22300 43.00200
C  50.67400 25.17000 42.86100
C  49.50700 24.62500 42.07500
C  49.66900 23.05400 42.38800
C  51.13500 22.94500 42.62100
C  48.79000 22.47600 43.51600
C  49.56300 24.95600 40.52200
C  50.67300 25.82200 39.87500
H  51.71800 25.11600 39.03300
N  53.96600 22.23400 43.57100
C  53.04600 21.34500 43.02500
C  53.65900 20.00300 43.09000
C  54.96800 20.18400 43.62700
C  55.13500 21.69200 43.79500
C  52.96800 18.73100 42.65000
C  55.88100 19.13600 44.02400
O  55.62300 17.98700 43.66400
C  57.17500 19.27400 44.82200
N  55.66500 24.61100 44.68100
C  56.59000 23.72200 44.49000
C  57.95600 24.31500 45.00300
C  57.72200 25.82800 45.25700
C  56.18400 25.79800 45.22900
C  58.55000 23.70100 46.27600
C  58.20800 26.88700 44.25400
C  58.86200 28.24700 44.78500
N  53.21300 26.25100 44.53600
C  54.02900 27.22800 45.10800
C  53.23900 28.45400 45.23800
C  52.02600 28.16600 44.56500
C  52.09000 26.85700 44.03100
C  53.74500 29.63900 45.97700
C  50.73000 28.77800 44.23400
O  50.26000 29.88300 44.49300
C  49.96500 27.67600 43.37200
C  49.68500 28.26900 42.08000
O  50.53600 28.70400 41.34300
O  48.35600 28.21400 41.75300
C  47.75400 28.74500 40.48700
H  51.17300 20.84600 42.23900
H  57.20900 21.81900 44.35000
H  55.89200 27.89300 45.77900
H  48.57500 25.08800 42.39600
H  49.40500 22.59200 41.43600
H  47.98000 23.13700 43.82300
H  49.40900 22.11800 44.33900
H  48.21700 21.63900 43.11500
H  48.69800 25.56000 40.24600
H  49.40800 23.98200 40.05700
H  51.19700 26.46000 40.58600
H  50.23600 26.64400 39.30700
H  52.83300 18.32400 43.65200
H  53.57600 18.02700 42.08100
H  52.03700 18.87900 42.10200
H  57.32700 18.35700 45.39100
H  57.02700 20.10300 45.51400
H  57.93200 19.51700 44.07500
H  58.68700 24.18100 44.20500
H  58.02900 26.20600 46.23200
H  59.63300 23.61100 46.18600
H  58.15000 22.71600 46.51700
H  58.37500 24.24900 47.20200
H  57.40000 26.97500 43.52700
H  59.01900 26.41500 43.70000
H  58.68900 28.36600 45.85400
H  58.41000 29.08500 44.25500
H  59.91300 28.34300 44.51100
H  54.57200 30.05600 45.40100
H  54.00800 29.36000 46.99700
H  52.86800 30.26800 46.12900
H  49.02100 27.44100 43.86400
H  48.38100 28.48200 39.63500
H  47.53800 29.81200 40.52000
H  46.73100 28.37200 40.45100

