158

Mg 7.96200 3.05100 27.75900
C  9.60000 2.09300 30.79800
C  5.97600 5.14800 29.65000
C  6.32500 3.77300 24.98800
C  9.69500 0.42600 26.20100
N  7.66000 3.34400 30.04800
C  8.44800 2.95900 31.03500
C  8.06500 3.73000 32.36000
C  6.83900 4.63600 32.00100
C  6.76300 4.32300 30.48600
C  5.47400 4.44600 32.80100
C  9.18800 4.45100 33.14900
C  8.67400 5.00900 34.48900
H  9.50800 4.66500 35.71000
N  6.46300 4.32200 27.34800
C  5.82100 5.15600 28.21900
C  5.01600 6.03500 27.43400
C  5.19600 5.78900 26.05500
C  5.90400 4.54300 26.08100
C  4.23200 7.13200 28.01700
C  4.82300 6.58500 24.85200
O  5.13900 6.21900 23.74300
C  4.07000 7.85700 24.99500
N  7.93100 2.12300 26.00200
C  7.20800 2.66500 24.92500
C  7.40900 1.87400 23.62000
C  8.54500 0.91800 24.06200
C  8.75900 1.14300 25.49900
C  6.20900 1.27200 22.90900
C  9.79200 1.03900 23.14400
C  10.71400 2.22800 23.35500
N  9.40100 1.49300 28.29300
C  10.01500 0.52900 27.56200
C  10.97000 -0.17900 28.39600
C  10.78000 0.41200 29.65100
C  9.81200 1.45900 29.52700
C  11.81700 -1.23900 27.94400
C  11.23000 0.40100 31.03800
O  12.06800 -0.32500 31.53900
C  10.37700 1.41700 31.88800
C  9.48600 0.64700 32.85000
O  8.55000 -0.11700 32.56500
O  9.97300 0.91700 34.06700
C  9.42700 0.21900 35.22600
H  5.44500 5.92100 30.20800
H  5.87700 4.01500 24.02200
H  10.20400 -0.39200 25.68600
H  7.69600 3.01300 33.09300
H  7.17200 5.66800 32.11700
H  5.57300 3.93800 33.76000
H  4.87800 3.84900 32.11100
H  4.96100 5.38800 32.99500
H  9.57800 5.29800 32.58300
H  9.98500 3.76800 33.44300
H  7.66200 4.63700 34.65000
H  8.67300 6.08200 34.30000
H  4.01800 7.04900 29.08300
H  3.22400 7.10500 27.60400
H  4.69900 8.09000 27.79100
H  3.04800 7.62000 25.29000
H  4.03200 8.20500 23.96300
H  4.54400 8.58300 25.65600
H  7.95900 2.59000 23.00900
H  8.18600 -0.09400 23.87600
H  6.36100 0.22900 22.63000
H  6.03700 1.81400 21.98000
H  5.29200 1.40900 23.48200
H  9.65600 1.26400 22.08600
H  10.39800 0.14700 23.30200
H  11.68200 1.82300 23.64900
H  10.30100 2.95200 24.05700
H  10.90800 2.72300 22.40400
H  11.45200 -2.13000 28.45400
H  12.87000 -1.06400 28.16400
H  11.59200 -1.37000 26.88500
H  10.97500 2.12700 32.46000
H  9.81100 0.50800 36.20500
H  9.76200 -0.79500 35.01100
H  8.33800 0.18700 35.25100
Mg 48.20600 16.69300 28.24300
C  46.39500 16.23800 31.16500
C  50.59100 18.42500 30.09700
C  49.91200 17.29100 25.40800
C  45.76100 15.03200 26.56900
N  48.32700 17.37700 30.38900
C  47.58800 16.91800 31.44600
C  48.06000 17.37500 32.87600
C  49.38200 18.15700 32.40100
C  49.44700 17.96600 30.84300
C  49.51700 19.67600 32.88200
C  48.31500 16.14300 33.74900
C  48.32300 16.27800 35.21300
H  47.78500 17.57800 35.77200
N  50.01400 17.74800 27.81400
C  50.89600 18.31800 28.75800
C  52.09900 18.73400 28.02100
C  51.84300 18.62800 26.57600
C  50.54500 17.88300 26.50100
C  53.41700 19.18800 28.75900
C  52.61100 19.12000 25.35600
O  52.24900 18.92000 24.19300
C  53.87800 19.78700 25.60600
N  47.79800 16.33300 26.22400
C  48.67100 16.65000 25.23300
C  48.11600 16.20900 23.92300
C  46.87700 15.32300 24.26900
C  46.81600 15.51900 25.78000
C  47.86200 17.39000 22.90000
C  46.86600 13.82400 23.79600
C  46.31800 13.58100 22.42700
N  46.37900 15.77300 28.68500
C  45.49900 15.16000 27.91200
C  44.30500 14.87300 28.73400
C  44.64000 15.21700 29.95700
C  45.92400 15.74100 29.89500
C  43.01100 14.29900 28.31100
C  44.22300 15.22200 31.37300
O  43.12700 14.94300 31.82200
C  45.32600 15.81000 32.20800
C  44.62000 16.92900 32.84800
O  44.33000 17.99100 32.30600
O  44.31200 16.63300 34.14900
C  43.62700 17.72700 34.85300
H  51.37100 18.84000 30.73900
H  50.52500 17.36200 24.50800
H  44.95300 14.65900 25.93600
H  47.20100 17.97900 33.17200
H  50.27200 17.71500 32.84800
H  48.62800 20.07000 33.37200
H  49.77800 20.37000 32.08200
H  50.25300 19.75000 33.68300
H  49.26300 15.76200 33.36900
H  47.56800 15.35800 33.62700
H  49.36800 16.10400 35.47000
H  47.85800 15.40000 35.66000
H  53.95000 19.93400 28.17000
H  53.97800 18.25400 28.74700
H  53.09800 19.62800 29.70400
H  53.67000 20.79700 25.96000
H  54.40100 19.74100 24.65100
H  54.53500 19.21700 26.26300
H  48.93800 15.64300 23.48400
H  45.93600 15.69100 23.86100
H  46.80200 17.47900 22.66300
H  48.39000 17.24700 21.95700
H  48.21100 18.33200 23.32400
H  46.28700 13.30900 24.56300
H  47.89100 13.45800 23.85800
H  46.30000 14.57800 21.98800
H  45.27500 13.26600 22.39000
H  46.89500 12.90400 21.79600
H  42.83300 14.82100 27.37100
H  42.31700 14.55200 29.11300
H  43.07100 13.22300 28.14500
H  45.65500 15.17400 33.02900
H  42.56300 17.61200 34.64600
H  43.86700 18.73800 34.52600
H  43.82600 17.53800 35.90800

