158

Mg -0.13400 7.04900 25.68200
C  0.79300 9.06000 28.55000
C  -0.15400 4.42000 27.78700
C  -0.57100 5.07200 23.08200
C  0.54000 9.75200 23.73000
N  0.58600 6.75600 27.88500
C  0.61100 7.70800 28.88300
C  0.63700 7.09800 30.31300
C  0.57500 5.63800 29.96300
C  0.36400 5.53700 28.47600
C  1.79600 4.76600 30.36100
C  -0.43300 7.59300 31.30200
C  0.10300 7.97700 32.73300
H  1.30500 7.23400 33.31300
N  -0.43700 5.01000 25.46600
C  -0.43900 4.07800 26.46900
C  -0.81100 2.79700 25.92500
C  -0.91300 2.92700 24.55300
C  -0.65100 4.34200 24.31200
C  -1.12000 1.64500 26.70700
C  -1.21800 1.87100 23.50700
O  -1.20100 2.21700 22.31500
C  -1.65200 0.38100 23.70500
N  0.15200 7.28000 23.74800
C  -0.32900 6.38300 22.87300
C  -0.38300 7.04400 21.45300
C  0.07700 8.49700 21.66900
C  0.19600 8.51800 23.18700
C  0.45800 6.36500 20.36400
C  -0.85400 9.54600 21.12300
C  -2.03000 9.96000 21.87600
N  0.51800 9.04600 26.03100
C  0.74800 10.03600 25.09100
C  1.04800 11.27200 25.74600
C  1.07300 10.97100 27.13500
C  0.82300 9.57700 27.25100
C  1.31000 12.67500 25.03800
C  1.30500 11.44100 28.47500
O  1.74100 12.51600 28.77800
C  0.98600 10.24600 29.47200
C  2.15900 10.12900 30.36000
O  3.09800 9.33800 30.23500
O  2.09100 11.05600 31.41900
C  3.33000 10.95400 32.25600
H  -0.21300 3.56000 28.45800
H  -0.58400 4.47400 22.16900
H  0.63500 10.59500 23.04100
H  1.62900 7.33600 30.69800
H  -0.28800 5.08900 30.34000
H  2.44200 4.69900 29.48500
H  1.57000 3.72600 30.59400
H  2.38400 5.23200 31.15200
H  -1.22900 6.85600 31.40900
H  -0.92800 8.43800 30.82300
H  -0.75400 7.94700 33.40600
H  0.49400 8.99400 32.71500
H  -2.13700 1.69000 27.09800
H  -0.33400 1.64400 27.46300
H  -0.98300 0.67100 26.23600
H  -1.05000 -0.14100 24.44900
H  -1.51500 -0.10600 22.74000
H  -2.67100 0.43400 24.08900
H  -1.40500 7.14500 21.08600
H  1.09100 8.67900 21.31100
H  0.67100 5.30800 20.52300
H  1.39000 6.93100 20.34900
H  0.00500 6.45900 19.37700
H  -1.20800 9.22100 20.14500
H  -0.29100 10.46200 20.94700
H  -1.96800 10.98100 22.25300
H  -2.22300 9.28500 22.71000
H  -2.91700 9.91600 21.24400
H  0.30300 13.06800 24.90200
H  1.89400 12.57000 24.12400
H  1.84300 13.37400 25.68200
H  0.05600 10.38000 30.02600
H  4.27000 11.23400 31.78100
H  3.35200 9.94500 32.66800
H  3.16500 11.71700 33.01700
Mg 40.13100 9.78100 29.07700
C  42.23800 10.68700 31.75400
C  37.92500 8.54700 31.22000
C  38.26500 8.81000 26.44800
C  42.66500 10.79300 26.91100
N  40.21400 9.55400 31.22000
C  40.97600 10.18700 32.10700
C  40.40600 10.13900 33.57100
C  39.05100 9.38100 33.32200
C  39.04900 9.07200 31.81800
C  38.96300 8.06600 34.11200
C  40.27900 11.51500 34.31300
C  39.46300 11.45300 35.63900
H  40.34800 11.72700 36.87400
N  38.28400 8.82200 28.88900
C  37.54500 8.37300 29.87200
C  36.47200 7.56100 29.33000
C  36.54400 7.72300 27.97600
C  37.72600 8.46000 27.72100
C  35.46000 6.78900 30.19300
C  35.58400 7.23400 26.92700
O  35.83600 7.21600 25.72900
C  34.33800 6.60600 27.35100
N  40.44600 9.60000 26.91900
C  39.55100 9.28700 26.04200
C  39.99900 9.45400 24.55700
C  41.27700 10.34300 24.79900
C  41.51300 10.23800 26.30000
C  40.32300 8.06400 23.96000
C  41.18200 11.77200 24.18700
C  39.83900 12.56700 24.48400
N  42.10500 10.54200 29.22800
C  42.97500 10.98800 28.28000
C  44.14200 11.67100 28.93100
C  43.81500 11.58800 30.28000
C  42.60500 10.88000 30.39800
C  45.29100 12.24800 28.25700
C  44.32200 11.95200 31.56100
O  45.35800 12.52000 31.87300
C  43.24000 11.48800 32.57600
C  43.83100 10.54100 33.53700
O  44.26400 9.41700 33.33200
O  43.85100 11.03700 34.83800
C  43.91800 10.03300 35.92500
H  37.22800 8.08000 31.91900
H  37.60000 8.60300 25.60700
H  43.32000 11.15800 26.11700
H  41.02900 9.53600 34.23200
H  38.24900 10.02300 33.68700
H  39.75600 7.89100 34.84000
H  39.14000 7.22900 33.43600
H  37.92300 7.95600 34.41800
H  39.84800 12.34300 33.75000
H  41.29000 11.87000 34.51300
H  38.87500 10.53900 35.73200
H  38.72700 12.25400 35.57400
H  34.43600 7.16100 30.21500
H  35.85400 6.72900 31.20700
H  35.43400 5.75400 29.85100
H  33.76000 7.31100 27.94800
H  34.48200 5.71800 27.96700
H  33.65500 6.35300 26.54000
H  39.25900 9.97700 23.95200
H  42.15900 9.81300 24.43900
H  39.66900 7.85600 23.11300
H  40.31000 7.19700 24.62100
H  41.38900 7.96200 23.75900
H  41.40900 11.68100 23.12500
H  41.98200 12.31900 24.68500
H  39.29700 12.77300 23.56100
H  39.93400 13.58700 24.85600
H  39.20000 12.00200 25.16300
H  45.00800 12.79800 27.35900
H  46.01600 11.44000 28.16100
H  45.46400 13.04300 28.98200
H  42.80200 12.41500 32.94800
H  44.86200 9.49000 35.89100
H  43.17200 9.29500 35.63000
H  43.64000 10.41000 36.90900

