158

Mg 1.67400 -0.73100 44.42900
C  4.96600 0.21900 44.07300
C  0.59600 2.24500 43.20000
C  -1.60900 -1.84300 44.33700
C  2.72000 -3.96400 45.49400
N  2.67000 0.94700 43.62000
C  4.08200 1.23900 43.65600
C  4.37400 2.73400 43.22200
C  2.93700 3.30900 42.98400
C  2.01500 2.10100 43.34000
C  2.54700 4.60200 43.78600
C  5.38100 2.79500 42.08200
C  5.75600 4.19600 41.65700
H  5.64000 4.63900 40.17100
N  -0.32300 0.11000 43.92100
C  -0.45500 1.32200 43.29300
C  -1.87000 1.47200 42.99100
C  -2.57600 0.29800 43.33000
C  -1.52700 -0.55800 43.86800
C  -2.52200 2.73000 42.36700
C  -4.01700 -0.01800 43.15200
O  -4.75600 0.80200 42.64400
C  -4.71200 -1.17800 43.79600
N  0.67100 -2.57200 44.73900
C  -0.67300 -2.75400 44.73300
C  -1.06500 -4.19800 44.88900
C  0.27300 -4.82900 45.46500
C  1.32800 -3.73900 45.25700
C  -2.26300 -4.51700 45.81000
C  0.65000 -6.24600 44.79000
C  0.78100 -7.38600 45.85800
N  3.41600 -1.76200 44.69400
C  3.73800 -3.04100 45.12000
C  5.22200 -3.17600 45.26000
C  5.70600 -1.94700 44.79800
C  4.61300 -1.13600 44.48900
C  5.95700 -4.41600 45.62100
C  6.99300 -1.17400 44.60400
O  8.15500 -1.56400 44.73700
C  6.58900 0.26400 44.15100
C  6.96400 1.35800 45.13200
O  6.46600 1.52100 46.21900
O  8.01200 2.04700 44.53300
C  8.40100 3.21000 45.38900
H  0.29100 3.24300 42.87700
H  -2.58000 -2.33600 44.26200
H  3.04800 -4.93700 45.86600
H  4.82500 3.17800 44.10900
H  2.92300 3.46600 41.90600
H  3.39300 4.93500 44.38700
H  1.75300 4.39700 44.50400
H  2.32200 5.43200 43.11500
H  5.04400 2.24700 41.20200
H  6.33600 2.41600 42.44700
H  6.72400 4.44400 42.09500
H  5.02000 4.87900 42.08300
H  -1.70200 3.43500 42.23100
H  -3.28700 3.12600 43.03500
H  -2.84300 2.38000 41.38600
H  -5.79300 -1.05200 43.85300
H  -4.26300 -1.26700 44.78500
H  -4.42300 -2.10000 43.29200
H  -1.19000 -4.58500 43.87800
H  0.02100 -4.81500 46.52500
H  -2.03600 -5.30400 46.53000
H  -3.14400 -4.88900 45.28800
H  -2.61900 -3.60200 46.28300
H  1.66900 -6.12800 44.42100
H  0.06100 -6.61400 43.94900
H  1.80200 -7.68100 46.10000
H  0.25800 -8.28800 45.54300
H  0.35300 -6.93700 46.75500
H  5.44700 -4.77400 46.51500
H  7.02300 -4.26100 45.78800
H  5.73300 -5.15000 44.84800
H  7.01400 0.47600 43.17000
H  9.32300 3.67800 45.04500
H  8.60100 2.92500 46.42200
H  7.56600 3.90900 45.34200
Mg 26.70600 50.15100 26.42300
C  24.44900 51.35300 28.91600
C  28.74600 49.23900 29.03000
C  28.88500 49.10200 24.09300
C  24.81900 51.81100 23.96900
N  26.53500 50.23600 28.73600
C  25.41900 50.57000 29.49100
C  25.76700 50.42700 31.03200
C  27.21600 49.76100 31.03400
C  27.58000 49.79400 29.48500
C  28.25400 50.43200 31.99600
C  24.69200 49.59000 31.87800
C  24.21800 50.26700 33.17000
H  23.82000 49.38800 34.34900
N  28.52100 49.24000 26.59200
C  29.21000 48.94500 27.77100
C  30.47400 48.31200 27.45600
C  30.57200 48.25900 25.98000
C  29.25400 48.86200 25.47900
C  31.52400 47.98200 28.43900
C  31.63900 47.88100 25.07600
O  31.53200 48.19800 23.88900
C  32.87900 47.18400 25.68900
N  26.80200 50.38000 24.36000
C  27.78600 49.81200 23.63800
C  27.64400 50.05500 22.12100
C  26.26300 50.88500 22.07900
C  25.93400 50.97200 23.57300
C  28.80700 50.84600 21.51100
C  25.12400 50.11700 21.36600
C  24.27400 50.91000 20.28700
N  25.06300 51.38200 26.42000
C  24.36000 51.95200 25.33400
C  23.15700 52.63500 25.80900
C  23.10800 52.35700 27.22900
C  24.27600 51.64300 27.50000
C  22.00100 53.19200 24.97300
C  22.32100 52.48300 28.39300
O  21.19100 52.93000 28.50500
C  23.14300 51.88400 29.56400
C  23.47700 52.85100 30.65500
O  24.40800 53.66300 30.48900
O  22.55700 52.88900 31.69000
C  22.72200 53.98200 32.70200
H  29.38700 48.87200 29.83400
H  29.50300 48.75600 23.26200
H  24.21800 52.11400 23.10800
H  25.77900 51.45600 31.39000
H  27.13800 48.70700 31.30100
H  28.36400 49.75900 32.84700
H  27.85400 51.39200 32.32300
H  29.18800 50.55100 31.44600
H  25.21700 48.65800 32.08500
H  23.87200 49.51100 31.16400
H  23.44300 51.03200 33.11100
H  24.97000 50.92800 33.60100
H  32.27800 48.74300 28.23900
H  31.74700 46.93400 28.23900
H  31.26100 48.02400 29.49600
H  33.71700 47.13500 24.99400
H  32.67200 46.25300 26.21800
H  33.27000 47.84700 26.46000
H  27.60400 49.07900 21.63700
H  26.29900 51.86400 21.60200
H  28.49700 51.73700 20.96300
H  29.45900 50.29400 20.83400
H  29.38900 51.17400 22.37200
H  24.47700 49.70600 22.14000
H  25.65900 49.29100 20.89800
H  24.19600 50.12500 19.53500
H  24.65400 51.74700 19.70100
H  23.28300 51.19800 20.63800
H  21.18300 53.52300 25.61200
H  21.46500 52.50800 24.31500
H  22.33300 53.99700 24.31700
H  22.47000 51.11500 29.94400
H  21.89900 54.68200 32.55900
H  23.59600 54.60000 32.49900
H  22.66300 53.51800 33.68700

