158

Mg 30.21400 58.95200 39.60500
C  27.76200 56.53000 39.16700
C  32.54200 56.61800 38.64500
C  32.53900 61.39300 39.59000
C  27.71800 61.27400 40.24300
N  30.09200 56.80100 39.01000
C  28.98500 56.00600 38.86500
C  29.29600 54.71700 38.34200
C  30.90400 54.66300 38.39300
C  31.19300 56.11700 38.74000
C  31.51000 53.71100 39.37300
C  28.75500 54.78500 36.86500
C  27.93500 53.54800 36.55100
H  27.41500 53.48100 35.09800
N  32.30400 58.95200 39.27100
C  33.07300 57.91400 38.89500
C  34.45000 58.27100 38.64800
C  34.46300 59.70700 38.76300
C  33.11700 60.06800 39.29500
C  35.51500 57.20900 38.29400
C  35.63700 60.50300 38.41800
O  36.68000 59.98800 37.91900
C  35.63300 61.97300 38.69400
N  30.14800 60.94700 39.88300
C  31.25600 61.73800 39.90200
C  30.88900 63.22900 40.10900
C  29.39300 63.17600 40.38800
C  29.05800 61.68500 40.07600
C  31.58200 63.96700 41.26400
C  28.58300 64.26000 39.51700
C  27.94900 65.37000 40.34100
N  28.11400 58.98600 39.79500
C  27.26600 59.96900 40.08800
C  25.94100 59.44300 40.29700
C  26.08300 58.09300 39.85400
C  27.41800 57.87500 39.55300
C  24.74000 60.26200 40.61900
C  25.34200 56.88200 39.49700
O  24.19300 56.60400 39.51300
C  26.43700 55.82300 39.14100
C  26.51000 54.84500 40.25700
O  26.81100 55.13500 41.38800
O  25.99500 53.66600 39.82400
C  26.07100 52.63700 40.87200
H  33.15300 55.89200 38.10400
H  33.36500 62.10400 39.65200
H  26.97000 62.04400 40.44100
H  28.88400 53.90100 38.93600
H  31.37600 54.48900 37.42600
H  30.79900 52.88400 39.36500
H  31.69600 54.15100 40.35200
H  32.45900 53.45600 38.90200
H  29.59500 54.67000 36.17900
H  28.15200 55.65200 36.59600
H  27.00300 53.41300 37.09900
H  28.52900 52.64600 36.70000
H  35.27600 56.23200 38.71300
H  36.54700 57.38500 38.59900
H  35.39400 57.04100 37.22400
H  34.83000 62.43600 38.12100
H  36.56600 62.47500 38.43600
H  35.50400 62.22500 39.74700
H  31.12700 63.67500 39.14300
H  29.16200 63.25500 41.45000
H  31.78700 63.29300 42.09600
H  31.09900 64.88100 41.60900
H  32.58800 64.31000 41.02100
H  27.84700 63.72300 38.91800
H  29.20600 64.80100 38.80400
H  28.12300 65.19300 41.40200
H  26.87900 65.39900 40.13400
H  28.29900 66.31100 39.91400
H  24.68200 61.09600 39.91900
H  24.70400 60.71700 41.60900
H  23.91400 59.57300 40.44800
H  26.17600 55.41100 38.16600
H  25.16200 52.80200 41.45000
H  26.97400 52.71500 41.47800
H  26.05700 51.61900 40.48300
Mg 6.97900 53.33100 41.45500
C  6.32900 49.77200 41.22000
C  10.10100 52.65700 40.36300
C  7.19700 56.61500 40.94100
C  3.52800 53.68600 42.23100
N  7.97300 51.45000 40.70800
C  7.65700 50.12200 40.86600
C  8.95600 49.18500 40.69500
C  10.07400 50.24700 40.59000
C  9.34900 51.54100 40.58500
C  11.09700 50.15300 41.80900
C  8.92600 48.22800 39.38600
C  8.79600 48.94500 38.03000
H  7.61900 48.58200 37.15500
N  8.44300 54.44400 40.69100
C  9.73000 54.04200 40.36600
C  10.50800 55.20300 40.06700
C  9.64700 56.30500 40.19700
C  8.33700 55.80800 40.56400
C  11.95300 55.11600 39.87300
C  10.11000 57.71800 40.05800
O  11.28300 57.93100 39.75700
C  9.28700 58.93100 40.20000
N  5.57300 54.95000 41.43200
C  5.97700 56.25900 41.32500
C  4.75900 57.20000 41.58800
C  3.58200 56.13700 41.71800
C  4.26000 54.79300 41.83300
C  4.96400 58.20000 42.71200
C  2.65900 56.17100 40.37200
C  1.05000 56.19500 40.41300
N  5.30800 52.06900 41.79700
C  3.96100 52.34400 42.12300
C  3.25400 51.14100 42.47600
C  4.16900 50.12500 42.17600
C  5.37300 50.71700 41.66900
C  1.81900 51.03800 42.78800
C  4.25400 48.64600 42.05000
O  3.37600 47.81500 42.20400
C  5.70000 48.37900 41.47600
C  5.39700 47.54800 40.23400
O  5.24000 47.85200 39.08800
O  5.39100 46.26100 40.64700
C  5.32200 45.22500 39.69200
H  11.17500 52.48800 40.25900
H  7.30500 57.69800 40.84600
H  2.53200 53.91400 42.61700
H  9.09700 48.61200 41.61200
H  10.63700 50.07900 39.67200
H  12.03900 49.82100 41.37200
H  10.68000 49.57800 42.63500
H  11.26700 51.15700 42.19800
H  8.11500 47.51700 39.54800
H  9.91000 47.77100 39.27600
H  9.65500 48.83600 37.36900
H  8.71500 50.00500 38.27400
H  12.12400 55.55600 38.89100
H  12.22800 54.06200 39.89200
H  12.58000 55.60500 40.61900
H  8.48300 58.80700 39.47500
H  9.89000 59.79400 39.91900
H  8.96700 59.05400 41.23500
H  4.72500 57.72700 40.63500
H  3.00200 56.17800 42.63900
H  5.20600 59.16800 42.27400
H  5.87600 57.86000 43.20300
H  4.05300 58.23000 43.30900
H  2.89600 55.46100 39.58000
H  2.85800 57.15700 39.95300
H  0.79200 57.21000 40.71400
H  0.71400 55.52700 41.20700
H  0.56900 55.88300 39.48600
H  1.60100 50.35400 43.60800
H  1.40300 50.60700 41.87700
H  1.29700 51.95500 43.06000
H  6.25300 47.83500 42.24200
H  5.87200 44.32000 39.95000
H  5.75100 45.55700 38.74700
H  4.28300 44.90400 39.62100

