158

Mg 35.73000 2.15300 30.13600
C  33.18800 3.51000 32.19200
C  37.84800 2.00500 32.81700
C  38.26700 1.49300 28.04100
C  33.55500 2.62100 27.37600
N  35.59000 2.85400 32.27500
C  34.44000 3.28800 32.95500
C  34.70400 3.28500 34.38900
C  36.30500 3.19400 34.52900
C  36.62200 2.60400 33.13900
C  37.02400 4.56700 34.75100
C  33.98100 2.13600 35.08600
C  33.39900 2.38300 36.54900
H  33.99600 3.59000 37.39500
N  37.69700 1.59900 30.43100
C  38.34600 1.53800 31.63100
C  39.62500 1.02400 31.41200
C  39.89300 0.97100 30.01500
C  38.62400 1.39000 29.43800
C  40.55700 0.70600 32.52300
C  41.14700 0.56400 29.22300
O  41.25500 0.77700 27.98800
C  42.22600 -0.13700 29.96700
N  35.94100 2.19100 28.01300
C  37.07100 1.85200 27.40600
C  36.79800 1.68800 25.85600
C  35.31000 2.08400 25.70900
C  34.87300 2.24100 27.16600
C  37.77800 2.48000 24.96000
C  34.37600 1.06600 24.83000
C  33.67000 -0.08600 25.47300
N  33.76000 2.95800 29.78500
C  33.02500 2.97000 28.59200
C  31.65300 3.35100 28.90700
C  31.64200 3.57600 30.35300
C  32.91700 3.32800 30.80300
C  30.54600 3.44200 27.95600
C  30.82200 3.96700 31.52100
O  29.60800 4.26000 31.62500
C  31.82800 3.81700 32.78100
C  31.86200 5.10000 33.48100
O  32.07700 6.17400 32.99700
O  31.64700 4.92700 34.83100
C  31.71200 6.08300 35.68000
H  38.47000 1.79800 33.69100
H  39.09300 1.27500 27.36100
H  32.83900 2.42000 26.57600
H  34.36300 4.26800 34.71500
H  36.71800 2.49300 35.25400
H  37.67600 4.68100 33.88500
H  37.68700 4.49700 35.61300
H  36.32200 5.38000 34.93700
H  34.58700 1.26300 35.33000
H  33.13300 1.81100 34.48500
H  33.57100 1.47800 37.13300
H  32.33700 2.57700 36.40000
H  41.33200 1.47100 32.48800
H  41.00700 -0.28600 32.48800
H  39.99900 0.64100 33.45800
H  42.91100 -0.37100 29.15200
H  41.91200 -1.03300 30.50200
H  42.57700 0.69400 30.58000
H  36.87100 0.63300 25.59300
H  35.18400 3.08500 25.29900
H  38.36700 3.16900 25.56600
H  37.25200 3.12200 24.25300
H  38.42700 1.87800 24.32500
H  35.06400 0.56200 24.15000
H  33.62200 1.64400 24.29700
H  33.81100 -0.92900 24.79600
H  32.58300 -0.08500 25.55300
H  34.19600 -0.30500 26.40300
H  30.79200 3.40700 26.89500
H  29.95200 4.34400 28.10800
H  29.74200 2.74100 28.17900
H  31.44200 2.94800 33.31300
H  30.90200 6.75100 35.39000
H  32.68500 6.53700 35.49000
H  31.61400 5.79500 36.72700
Mg -5.89900 25.17400 26.38400
C  -4.61100 26.64500 29.38700
C  -7.66500 23.08200 28.55800
C  -6.60700 23.49400 23.65400
C  -3.93400 27.42300 24.55800
N  -6.14000 24.96200 28.75800
C  -5.53200 25.69500 29.71400
C  -6.02500 25.28200 31.12000
C  -6.70200 23.94300 30.77100
C  -6.97800 24.00400 29.31600
C  -5.85900 22.65000 31.14300
C  -6.88900 26.40200 31.68600
C  -7.27700 26.51300 33.17600
H  -6.81000 25.52700 34.26400
N  -7.16200 23.62100 26.08700
C  -7.78900 22.86400 27.06100
C  -8.73200 21.95000 26.33200
C  -8.34700 21.96000 25.02900
C  -7.31600 23.04900 24.87400
C  -9.78200 21.00200 27.06200
C  -8.86200 21.12500 23.89900
O  -8.45500 21.33400 22.78900
C  -9.94000 20.07500 24.03700
N  -5.20100 25.30400 24.45600
C  -5.67800 24.47100 23.45900
C  -5.05000 24.89300 22.08700
C  -4.50300 26.26200 22.37600
C  -4.51300 26.32900 23.92400
C  -4.27700 23.72000 21.39300
C  -5.46100 27.37800 21.76200
C  -5.21100 27.81800 20.27600
N  -4.50300 26.75700 26.86400
C  -3.79100 27.56100 25.98200
C  -2.89000 28.45300 26.72700
C  -3.20400 28.17800 28.08200
C  -4.17100 27.11300 28.09300
C  -1.82500 29.44300 26.15500
C  -2.81700 28.48100 29.46800
O  -1.91300 29.20300 29.93800
C  -3.82400 27.64100 30.37500
C  -3.00900 26.97400 31.39900
O  -2.16400 26.09100 31.26700
O  -3.42400 27.42100 32.62100
C  -2.96700 26.78800 33.78700
H  -8.19000 22.28700 29.09200
H  -6.73000 22.84900 22.78200
H  -3.38700 28.19600 24.01500
H  -5.13400 25.14300 31.73200
H  -7.64400 23.82700 31.30600
H  -5.65000 22.13800 30.20400
H  -6.48300 22.13700 31.87500
H  -4.91800 22.87400 31.64400
H  -7.76200 26.33800 31.03700
H  -6.38100 27.34700 31.49200
H  -8.36100 26.45100 33.27000
H  -6.97000 27.51900 33.46200
H  -10.80100 21.29600 26.81000
H  -9.74500 21.08900 28.14800
H  -9.69800 19.94300 26.81900
H  -9.47300 19.37000 24.72500
H  -10.13700 19.52400 23.11800
H  -10.81500 20.59300 24.43100
H  -5.91400 24.99200 21.43000
H  -3.49700 26.36600 21.97000
H  -3.21300 23.95700 21.40300
H  -4.68800 23.45300 20.42000
H  -4.37800 22.85000 22.04100
H  -5.41000 28.31700 22.31300
H  -6.50000 27.05800 21.84900
H  -4.67400 27.01400 19.77200
H  -4.49700 28.63200 20.39500
H  -6.10400 28.03400 19.68900
H  -1.43600 28.86200 25.31900
H  -1.01800 29.63000 26.86400
H  -2.25000 30.39600 25.83900
H  -4.43700 28.40400 30.85400
H  -1.90400 27.02700 33.79300
H  -3.08400 25.70800 33.69500
H  -3.38300 27.18000 34.71500

