158

Mg 42.48700 41.25500 26.64200
C  41.92000 43.49900 29.30400
C  43.22300 38.76300 29.12900
C  43.60000 39.24400 24.21400
C  42.42700 43.92100 24.46900
N  42.60100 41.13600 28.96100
C  42.20300 42.17600 29.77700
C  42.26500 41.74000 31.29800
C  42.57400 40.21500 31.21200
C  42.95600 39.99800 29.72000
C  43.66900 39.81100 32.22100
C  41.06400 42.19700 32.08100
C  40.74000 41.27600 33.32300
H  40.31200 42.04300 34.59900
N  43.20700 39.23400 26.65400
C  43.30900 38.34200 27.67300
C  43.83200 37.09000 27.17600
C  44.14200 37.29500 25.78800
C  43.66200 38.63600 25.47800
C  44.20600 35.92900 27.99300
C  44.93100 36.35500 24.89400
O  45.22700 36.69300 23.77900
C  45.23500 34.86900 25.34900
N  42.99500 41.57200 24.61500
C  43.39500 40.59400 23.80600
C  43.47400 41.11400 22.27100
C  42.80300 42.50600 22.33800
C  42.81000 42.69100 23.91200
C  44.95400 41.10700 21.87500
C  41.38600 42.57300 21.70400
C  40.15700 41.69200 22.24300
N  42.11800 43.31500 26.81600
C  42.09900 44.21100 25.77400
C  41.78400 45.51300 26.31400
C  41.67200 45.28200 27.72800
C  41.90800 43.92000 27.95600
C  41.71700 46.79100 25.64800
C  41.48400 45.98000 28.98600
O  41.33900 47.18500 29.23000
C  41.60400 44.77300 30.06900
C  42.60700 45.30900 31.04500
O  43.84900 45.39700 30.90900
O  41.94400 45.58100 32.22800
C  42.68100 45.97000 33.40000
H  43.44400 37.96200 29.83800
H  43.78100 38.53600 23.40200
H  42.29100 44.70400 23.71900
H  43.14100 42.21400 31.74100
H  41.62200 39.70600 31.36300
H  44.53000 39.62100 31.58000
H  43.34600 38.91800 32.75500
H  43.97800 40.57700 32.93300
H  40.32700 42.43200 31.31300
H  41.35700 43.12500 32.57100
H  41.51100 40.53500 33.53200
H  39.82300 40.78400 32.99800
H  43.81900 34.97800 27.62900
H  43.91600 36.08700 29.03200
H  45.27500 35.88700 28.20400
H  45.52000 34.32200 24.45100
H  44.39500 34.31200 25.76400
H  45.99600 34.91900 26.12800
H  43.04800 40.41200 21.55300
H  43.39900 43.25400 21.81400
H  45.56100 41.03700 22.77800
H  45.23500 42.02500 21.35900
H  45.04700 40.27900 21.17300
H  41.57900 42.28100 20.67200
H  41.09300 43.60200 21.91600
H  39.43700 42.44800 22.55700
H  40.55800 41.01700 22.99800
H  39.82200 41.03600 21.44000
H  41.55700 46.75100 24.57000
H  42.67400 47.30800 25.71400
H  40.91800 47.40200 26.06900
H  40.61600 44.69500 30.52300
H  43.67700 45.52800 33.44400
H  42.07000 45.87600 34.29800
H  42.90400 47.03100 33.28500
Mg 29.26400 57.91100 40.66400
C  26.53100 56.09100 39.71800
C  31.36200 55.30000 39.47700
C  32.15900 60.02800 40.83500
C  27.38800 60.62100 41.26600
N  28.96100 55.91800 39.73900
C  27.74400 55.33900 39.52900
C  27.79500 53.92100 39.08800
C  29.39000 53.58700 39.24300
C  29.94600 55.05400 39.51500
C  29.93000 52.57000 40.22100
C  27.32200 53.67200 37.58600
C  27.92100 54.40100 36.40300
H  27.08300 55.46000 35.69500
N  31.41500 57.69100 40.28500
C  32.06700 56.56800 39.75600
C  33.47200 56.82000 39.54900
C  33.77400 58.12700 40.06400
C  32.38400 58.68500 40.45600
C  34.41500 55.76500 38.99100
C  35.23400 58.70100 40.25100
O  36.21900 58.05100 39.98100
C  35.50300 60.06500 40.81400
N  29.70900 60.04400 41.01100
C  30.94400 60.66600 41.06100
C  30.85900 62.17200 41.46800
C  29.32900 62.29800 41.75700
C  28.75400 60.90300 41.37900
C  31.80100 62.73700 42.53400
C  28.64300 63.51900 41.04500
C  27.89600 64.42200 42.03600
N  27.38900 58.32500 40.52800
C  26.70700 59.48500 40.80600
C  25.27200 59.33200 40.65600
C  25.16700 57.95300 40.30100
C  26.47000 57.38600 40.20900
C  24.27600 60.33000 40.81100
C  24.19500 56.98500 39.83000
O  23.00400 57.03800 39.66700
C  25.03700 55.64100 39.52500
C  24.47300 54.54600 40.34100
O  24.39500 54.55200 41.55100
O  23.99600 53.53200 39.44500
C  23.18400 52.54400 40.15400
H  31.86100 54.39300 39.12900
H  32.98600 60.73100 40.71400
H  26.75700 61.48700 41.47300
H  27.21000 53.41500 39.85500
H  29.63100 53.21100 38.24900
H  29.08000 52.32600 40.85600
H  30.74100 52.91700 40.86100
H  30.21800 51.65800 39.69800
H  26.24200 53.68400 37.43800
H  27.49600 52.60300 37.46100
H  28.29900 53.65400 35.70600
H  28.76900 54.99800 36.74000
H  33.88200 55.01100 38.41100
H  34.95200 55.25500 39.79100
H  35.12000 56.17800 38.26800
H  35.32400 60.93100 40.17700
H  36.57100 60.04500 41.03200
H  34.83700 60.01400 41.67500
H  31.10400 62.75000 40.57700
H  29.27800 62.44500 42.83500
H  32.31500 61.83200 42.85500
H  31.21000 63.06300 43.39000
H  32.44200 63.55000 42.19400
H  28.08700 63.31000 40.13100
H  29.53000 64.09800 40.78700
H  28.59500 65.25200 42.13500
H  27.66100 63.89400 42.96000
H  26.96500 64.86600 41.68100
H  23.47700 60.11800 40.10000
H  24.63500 61.32900 40.56400
H  23.88900 60.26600 41.82800
H  25.02300 55.38900 38.46500
H  23.64600 51.57700 39.95700
H  22.21800 52.57000 39.65100
H  22.95800 52.64800 41.21600

