158

Mg -0.05000 43.76700 26.26000
C  2.07200 43.19200 29.08600
C  -2.66300 42.22200 28.12700
C  -2.01900 43.65500 23.42700
C  2.72500 44.41800 24.53600
N  -0.37200 42.88900 28.42900
C  0.68400 42.85900 29.38900
C  0.09500 42.48900 30.87700
C  -1.36500 41.92600 30.38500
C  -1.49300 42.45200 28.90400
C  -1.68100 40.43100 30.55400
C  0.16600 43.80900 31.72400
C  0.21400 43.59600 33.20100
H  -0.21500 42.23900 33.78200
N  -2.13300 43.19500 25.89800
C  -2.97400 42.49600 26.75800
C  -4.29700 42.41100 26.13300
C  -4.19300 42.88200 24.79100
C  -2.72200 43.25300 24.59500
C  -5.55800 41.87400 26.89200
C  -5.20100 42.97600 23.67400
O  -5.01000 43.49000 22.60600
C  -6.61500 42.52500 23.97600
N  0.28900 43.90500 24.29300
C  -0.65600 43.98100 23.29700
C  -0.15400 44.73000 22.03700
C  1.38700 44.87900 22.42400
C  1.49800 44.41100 23.83900
C  -0.40500 43.89400 20.70800
C  2.06800 46.27300 22.32400
C  1.62900 47.23100 21.18300
N  1.94900 43.88600 26.69400
C  3.01700 44.13400 25.85400
C  4.31900 43.87400 26.46800
C  3.98000 43.61900 27.76800
C  2.54300 43.61100 27.88400
C  5.68800 44.03500 25.78200
C  4.56200 43.28300 29.05600
O  5.71100 43.10600 29.45000
C  3.32700 43.20900 29.98100
C  3.48000 41.86700 30.63100
O  3.20500 40.78900 30.20400
O  3.87600 42.12000 31.96700
C  4.15400 40.89600 32.77000
H  -3.46300 41.71900 28.67400
H  -2.70200 43.73000 22.57800
H  3.56700 44.63100 23.87500
H  0.68500 41.67600 31.29800
H  -2.02000 42.41300 31.10700
H  -0.90300 39.84200 31.03900
H  -1.75400 39.97800 29.56500
H  -2.54300 40.25800 31.19800
H  -0.67500 44.39800 31.35800
H  1.08100 44.27200 31.35600
H  -0.45700 44.32500 33.65600
H  1.22600 43.89300 33.47700
H  -5.49500 40.78700 26.84700
H  -6.56900 42.16900 26.61300
H  -5.42400 42.14300 27.94000
H  -7.01900 42.37200 22.97600
H  -7.12200 43.36500 24.45100
H  -6.61800 41.57300 24.50700
H  -0.59500 45.71000 21.85600
H  1.88100 44.18600 21.74300
H  -0.97700 44.57600 20.07900
H  -0.97300 42.96800 20.79500
H  0.47500 43.58200 20.14600
H  3.13000 46.13700 22.12100
H  2.13600 46.78500 23.28400
H  1.22800 48.17800 21.54400
H  1.03600 46.81000 20.37200
H  2.51000 47.48000 20.59100
H  6.36600 44.59300 26.42800
H  5.70200 44.57500 24.83500
H  6.09800 43.03900 25.61500
H  3.43500 44.04600 30.67100
H  5.11000 40.93600 33.29400
H  4.21400 39.96800 32.20200
H  3.38600 40.81400 33.53900
Mg -11.49200 16.52200 42.58300
C  -8.10600 17.48800 42.89500
C  -12.24900 19.74000 41.84800
C  -14.58000 15.52900 41.74000
C  -10.50800 13.14200 42.78500
N  -10.23600 18.30400 42.14600
C  -8.90200 18.51300 42.38200
C  -8.46600 19.97500 42.13800
C  -9.83200 20.69300 42.25500
C  -10.88900 19.57200 42.07300
C  -10.05700 21.58100 43.47400
C  -7.73000 20.18900 40.79100
C  -6.24300 20.48700 40.81600
H  -5.36200 19.55300 39.95000
N  -13.26000 17.54300 41.99700
C  -13.33100 18.89500 41.75700
C  -14.70100 19.15200 41.29400
C  -15.39900 17.94500 41.12000
C  -14.42600 16.92400 41.58900
C  -15.14000 20.57600 41.30900
C  -16.93400 17.67400 40.79500
O  -17.62000 18.56900 40.39400
C  -17.69800 16.30100 40.65600
N  -12.37700 14.63400 42.28900
C  -13.73400 14.53500 42.18200
C  -14.28500 13.15400 42.37500
C  -13.01500 12.36900 42.62500
C  -11.84100 13.45300 42.56500
C  -15.35900 13.16200 43.54800
C  -12.76900 11.13600 41.73800
C  -13.83400 10.49800 40.90500
N  -9.63300 15.47000 42.73900
C  -9.45200 14.08400 42.88400
C  -8.03800 13.90900 43.26000
C  -7.48900 15.20600 43.31600
C  -8.51100 16.14100 42.98100
C  -7.47800 12.63400 43.51300
C  -6.24800 16.01400 43.54800
O  -5.10000 15.65100 43.89800
C  -6.66000 17.51900 43.27900
C  -6.69700 18.19400 44.61000
O  -7.29300 17.89700 45.63600
O  -5.78000 19.16600 44.49300
C  -5.48900 19.92900 45.77200
H  -12.49400 20.76400 41.55900
H  -15.59100 15.19700 41.49500
H  -10.19700 12.10200 42.90300
H  -7.95100 20.36800 43.01500
H  -9.94600 21.21000 41.30300
H  -9.23900 21.56600 44.19400
H  -10.93200 21.20700 44.00500
H  -10.30300 22.58500 43.13000
H  -8.29100 20.92800 40.21800
H  -7.89700 19.32200 40.15200
H  -5.87600 20.35100 41.83300
H  -6.08900 21.48400 40.40400
H  -15.04300 20.79000 40.24500
H  -14.43300 21.23200 41.81900
H  -16.11100 20.65500 41.79900
H  -18.66800 16.42700 40.17600
H  -18.01100 15.95300 41.64100
H  -17.11000 15.48500 40.23700
H  -14.80600 12.92500 41.44500
H  -13.19800 11.97400 43.62400
H  -16.03400 13.99900 43.36500
H  -14.87700 13.17600 44.52500
H  -15.89500 12.21300 43.53900
H  -12.54400 10.33200 42.43900
H  -11.93100 11.36600 41.07900
H  -13.82900 10.96100 39.91800
H  -14.77500 10.47000 41.45300
H  -13.69400 9.43000 40.73600
H  -6.46200 12.80400 43.86800
H  -7.46400 11.85800 42.74800
H  -8.00500 12.32500 44.41500
H  -5.87900 17.94500 42.65000
H  -6.41200 20.03200 46.34200
H  -4.93600 20.85600 45.62300
H  -4.76900 19.25100 46.23000

