158

Mg 26.18200 0.64800 29.01700
C  27.81500 0.43700 32.17100
C  23.35600 1.02400 30.77400
C  24.58900 0.82600 26.16100
C  29.19000 -0.29700 27.48400
N  25.67300 0.59600 31.29300
C  26.50400 0.80300 32.35200
C  25.67000 0.93200 33.67600
C  24.21100 0.94800 33.16700
C  24.43900 0.84300 31.65600
C  23.22500 -0.13800 33.63900
C  26.23500 2.12700 34.47300
C  26.90800 1.76000 35.85100
H  26.49700 2.60900 37.06500
N  24.18000 0.86200 28.48600
C  23.16200 0.98400 29.38500
C  21.88300 1.16700 28.70100
C  22.19200 1.18100 27.30300
C  23.66200 1.00200 27.23900
C  20.58000 1.17600 29.46600
C  21.27800 1.38100 26.09400
O  21.65900 1.26700 24.89300
C  19.83800 1.65200 26.30600
N  26.79500 0.29500 27.10800
C  25.97600 0.50500 26.08400
C  26.65800 0.59800 24.76800
C  28.10700 0.14200 25.10600
C  28.08300 0.02400 26.65600
C  25.99900 -0.04400 23.46900
C  29.29200 0.90000 24.55200
C  29.81200 0.61800 23.15000
N  28.10300 0.15700 29.63400
C  29.21500 -0.24800 28.87400
C  30.30600 -0.55700 29.75400
C  29.76800 -0.29400 31.03300
C  28.43100 0.14200 30.87500
C  31.72400 -0.86900 29.28600
C  30.09600 -0.34100 32.42200
O  31.18500 -0.70000 32.95700
C  28.89900 0.26200 33.19500
C  28.58000 -0.73100 34.23000
O  28.00600 -1.79000 34.01300
O  29.19200 -0.47100 35.43600
C  29.02300 -1.58100 36.39200
H  22.44600 1.19500 31.35300
H  24.05500 0.84900 25.20800
H  30.13700 -0.56000 27.00800
H  25.73500 -0.02200 34.19900
H  23.92600 1.97400 33.40300
H  23.70100 -0.67900 34.45700
H  23.01500 -0.83900 32.83100
H  22.38000 0.38900 34.08200
H  25.46500 2.89000 34.58800
H  27.09300 2.54700 33.94700
H  27.98700 1.91700 35.83600
H  26.67700 0.70100 35.97200
H  19.84800 1.82100 28.98100
H  20.80600 1.44200 30.49900
H  20.16600 0.17100 29.37900
H  19.36200 0.77300 26.74100
H  19.21600 1.63300 25.41100
H  19.66000 2.49000 26.97900
H  26.66900 1.66100 24.53000
H  28.24700 -0.88000 24.75600
H  25.70400 0.71400 22.74400
H  25.04700 -0.49600 23.74700
H  26.66700 -0.78900 23.03700
H  30.18100 0.74600 25.16300
H  28.88900 1.91200 24.51300
H  30.83800 0.24800 23.15700
H  29.86400 1.56700 22.61600
H  29.25100 -0.19600 22.69100
H  32.33300 -0.04700 28.91100
H  31.65500 -1.64300 28.52100
H  32.15500 -1.39500 30.13800
H  29.28600 1.14800 33.69700
H  27.96600 -1.71700 36.61900
H  29.55500 -1.29300 37.29900
H  29.36700 -2.59300 36.18200
Mg 46.91300 24.77700 28.70400
C  47.71900 27.19200 31.17800
C  45.76900 22.77500 31.22000
C  46.41700 22.45900 26.51400
C  48.26000 26.87900 26.26500
N  46.76400 24.97300 30.87900
C  47.07800 26.02600 31.69200
C  46.83700 25.81900 33.17500
C  46.32600 24.35800 33.20000
C  46.34500 23.93700 31.69800
C  47.22100 23.26700 33.88600
C  45.69800 26.73700 33.72400
C  45.77200 27.28800 35.14300
H  46.01800 26.40700 36.35900
N  46.13100 22.90800 28.78100
C  45.68100 22.26300 29.90300
C  45.18500 20.94200 29.54200
C  45.32100 20.83100 28.13600
C  45.94000 22.06900 27.72400
C  44.63600 19.87000 30.52100
C  44.79800 19.66100 27.22700
O  45.06400 19.63200 26.06000
C  44.10000 18.51700 27.86000
N  47.47200 24.62700 26.57400
C  47.00600 23.59100 25.88900
C  47.22500 23.78300 24.38500
C  47.55700 25.28300 24.30500
C  47.74300 25.67100 25.83600
C  48.29100 22.80300 23.92200
C  46.54100 26.28500 23.64300
C  45.04800 25.93200 23.60400
N  47.80100 26.63600 28.63000
C  48.30500 27.37900 27.57400
C  48.81600 28.67000 28.08500
C  48.62100 28.62300 29.50100
C  48.02800 27.36000 29.77800
C  49.32600 29.69900 27.23400
C  48.78000 29.38300 30.78800
O  49.25900 30.50000 30.97700
C  48.19600 28.42400 31.90200
C  49.31500 28.22400 32.91800
O  50.38800 27.60000 32.72600
O  48.96200 28.74900 34.10300
C  49.84200 28.59000 35.26600
H  45.43600 22.15400 32.05500
H  46.14700 21.64400 25.83900
H  48.68400 27.61800 25.58200
H  47.68600 26.13900 33.77800
H  45.33800 24.14600 33.61000
H  47.81300 23.87300 34.57200
H  47.76000 22.50200 33.32800
H  46.61500 22.66400 34.56200
H  44.76000 26.18500 33.67900
H  45.59900 27.56700 33.02400
H  44.76400 27.67600 35.29400
H  46.38000 28.18400 35.27500
H  45.06400 18.87000 30.44800
H  43.55900 19.70000 30.52200
H  44.77000 20.14000 31.56800
H  44.80800 17.82300 28.31300
H  43.57300 17.94700 27.09500
H  43.29400 18.69500 28.57200
H  46.37100 23.47300 23.78400
H  48.50200 25.41300 23.77700
H  48.40400 22.06000 24.71100
H  49.22500 23.26000 23.59300
H  47.92500 22.30300 23.02600
H  46.93400 26.46900 22.64300
H  46.67900 27.20300 24.21300
H  44.79100 25.04200 24.17900
H  44.77300 25.68400 22.57900
H  44.39400 26.70200 24.01300
H  49.08100 29.58800 26.17800
H  50.38900 29.70800 27.47700
H  48.94500 30.67700 27.52700
H  47.42000 28.90500 32.49700
H  50.31000 29.54800 35.49300
H  50.59400 27.87400 34.93500
H  49.28100 28.15800 36.09500

