158

Mg 8.54700 4.24600 27.79600
C  10.06100 2.96200 30.78200
C  6.55300 6.13900 29.86500
C  7.30000 5.54800 25.10200
C  10.11300 1.82900 25.97200
N  8.27800 4.36300 30.09500
C  9.07000 3.87000 31.09000
C  8.66200 4.36700 32.45300
C  7.37900 5.15300 32.13400
C  7.43000 5.28100 30.59600
C  6.00800 4.51800 32.51800
C  9.83900 5.11800 33.20400
C  10.49000 4.55700 34.49300
H  10.64800 5.39000 35.84400
N  7.28900 5.75000 27.53100
C  6.49600 6.37300 28.46000
C  5.75000 7.42100 27.74200
C  6.10800 7.37800 26.38000
C  6.93000 6.18500 26.32300
C  4.72300 8.30900 28.35600
C  5.63600 8.21600 25.21700
O  5.76600 7.94600 24.09100
C  4.97200 9.54600 25.49600
N  8.46200 3.60000 25.84000
C  8.03200 4.38200 24.91400
C  8.42200 3.95500 23.46100
C  9.32400 2.66200 23.75400
C  9.34000 2.75600 25.29900
C  7.13600 3.71600 22.58400
C  10.74200 2.71100 23.12400
C  11.10300 1.55400 22.16800
N  9.87800 2.71400 28.22700
C  10.41400 1.79600 27.39300
C  11.20400 0.84100 28.14000
C  11.15600 1.32200 29.51400
C  10.35400 2.42700 29.47600
C  12.01300 -0.19400 27.47400
C  11.55100 1.09500 30.84400
O  12.19500 0.12300 31.28200
C  10.96400 2.18400 31.75200
C  10.17700 1.36800 32.67600
O  9.20300 0.70900 32.42600
O  10.82000 1.38400 33.90300
C  10.07800 0.81900 35.09300
H  5.97000 6.77700 30.53300
H  7.20300 6.09900 24.16500
H  10.52700 1.10200 25.27000
H  8.41400 3.50800 33.07700
H  7.39500 6.08900 32.69300
H  5.61000 5.12900 33.32700
H  6.13400 3.50100 32.89000
H  5.25000 4.51400 31.73500
H  9.64400 6.14900 33.49800
H  10.66700 5.21100 32.50100
H  11.51100 4.31000 34.20300
H  9.83000 3.77500 34.87000
H  4.57200 8.13400 29.42100
H  3.74100 8.30200 27.88100
H  5.15900 9.30800 28.35600
H  4.02200 9.42500 26.01600
H  4.68500 9.92300 24.51500
H  5.72300 10.14200 26.01500
H  8.91200 4.75400 22.90300
H  8.62100 1.85400 23.54900
H  6.25000 3.78500 23.21500
H  7.28100 2.68100 22.27400
H  7.02000 4.24200 21.63700
H  11.49400 2.88000 23.89500
H  10.85600 3.58400 22.48200
H  11.57600 2.05300 21.32300
H  10.26400 0.91900 21.88300
H  11.81300 0.89100 22.66100
H  12.39100 0.13800 26.50800
H  11.37600 -1.06200 27.30400
H  12.84200 -0.50500 28.11000
H  11.63100 2.90100 32.23200
H  9.47300 1.61300 35.53100
H  10.88500 0.56200 35.77800
H  9.62000 -0.11600 34.77000
Mg 29.82000 58.06700 41.65400
C  26.96000 56.64000 39.99500
C  31.73300 55.99400 39.89800
C  32.34400 60.28300 42.22200
C  27.50800 60.66700 42.91800
N  29.40100 56.69200 40.06600
C  28.19600 56.16000 39.60100
C  28.36700 55.02700 38.64300
C  29.88300 54.64200 38.87600
C  30.36800 55.88900 39.65500
C  30.35100 53.26700 39.46500
C  27.99400 55.28800 37.11100
C  26.88000 54.46600 36.48100
H  26.16600 54.97400 35.25100
N  31.85700 57.97400 41.34600
C  32.45900 56.99100 40.59800
C  33.93700 57.19400 40.73600
C  34.09600 58.43700 41.44400
C  32.71900 58.98000 41.72100
C  34.82800 56.14400 40.11000
C  35.46800 59.17400 41.70500
O  36.52000 58.60100 41.48000
C  35.61500 60.57300 42.24900
N  29.89700 60.30600 42.38700
C  31.08200 60.92000 42.54800
C  30.90900 62.32800 43.07100
C  29.39200 62.34800 43.42100
C  28.85200 61.05500 42.84600
C  31.95800 62.88800 44.06800
C  28.60000 63.66200 43.12100
C  27.86500 64.35100 44.23300
N  27.65700 58.46900 41.71200
C  26.95400 59.55500 42.18000
C  25.56700 59.33400 41.90600
C  25.58600 58.14800 41.14100
C  26.85500 57.72300 40.92600
C  24.39600 60.05000 42.41500
C  24.73700 57.31800 40.42100
O  23.53200 57.43700 40.32100
C  25.55600 56.29200 39.66900
C  25.25700 54.96800 40.19100
O  25.51500 54.56200 41.34100
O  24.51300 54.20500 39.32300
C  23.76700 53.03000 39.77400
H  32.33200 55.14900 39.55200
H  33.15500 61.01200 42.28900
H  26.76300 61.37800 43.28300
H  27.69600 54.20800 38.89900
H  30.45700 54.74100 37.95500
H  30.59200 53.24400 40.52700
H  31.24000 52.93800 38.92600
H  29.52600 52.61500 39.17600
H  28.88500 55.03500 36.53700
H  27.71300 56.33700 37.01900
H  26.16000 54.32600 37.28600
H  27.30300 53.51400 36.16100
H  34.79400 55.21900 40.68600
H  35.82800 56.56700 40.02000
H  34.50700 55.96000 39.08500
H  35.27400 61.24000 41.45600
H  36.63100 60.79100 42.57800
H  34.93000 60.68100 43.09000
H  30.95100 62.97200 42.19200
H  29.29600 62.09400 44.47700
H  31.65700 62.75600 45.10700
H  32.14000 63.94700 43.88400
H  32.97300 62.50900 43.94800
H  27.82900 63.29300 42.44400
H  29.16600 64.42500 42.58600
H  27.92800 65.43000 44.08900
H  28.31500 64.15700 45.20700
H  26.81300 64.07000 44.18200
H  24.20900 59.69600 43.42900
H  23.48300 60.01900 41.81900
H  24.69300 61.08300 42.59500
H  25.22800 56.34200 38.63000
H  22.70100 53.22900 39.66900
H  23.95900 52.64400 40.77600
H  23.99300 52.21600 39.08600

