158

Mg 2.13500 -1.41800 43.99900
C  5.38200 -0.23500 43.78100
C  1.04500 1.42700 42.62300
C  -0.78700 -2.97700 43.24000
C  3.49600 -4.59800 44.74800
N  3.10600 0.40900 43.33700
C  4.46900 0.66700 43.33300
C  4.72600 2.11400 42.98600
C  3.20600 2.73600 43.18000
C  2.38400 1.50000 42.97900
C  2.93900 3.45500 44.59200
C  5.32300 2.29000 41.60000
C  6.70900 2.90700 41.48200
H  7.76600 2.32900 40.47800
N  0.36200 -0.80700 43.10900
C  0.12200 0.39800 42.56200
C  -1.25300 0.51600 42.18200
C  -1.85600 -0.66400 42.41200
C  -0.80200 -1.60400 42.99400
C  -1.85600 1.85400 41.69300
C  -3.33300 -1.02400 42.19000
O  -4.05400 -0.18700 41.66700
C  -3.83000 -2.25300 42.66900
N  1.43100 -3.46100 44.06400
C  0.15400 -3.82600 43.81700
C  -0.04600 -5.31600 43.97200
C  1.27500 -5.81900 44.57600
C  2.16800 -4.57300 44.48200
C  -1.25400 -5.77000 44.81400
C  1.90500 -7.16100 43.93900
C  1.80900 -8.37700 44.95800
N  4.00300 -2.28800 44.37900
C  4.42400 -3.56100 44.67000
C  5.85600 -3.56300 44.93900
C  6.27500 -2.30700 44.51700
C  5.06800 -1.59700 44.18200
C  6.75700 -4.65600 45.53700
C  7.43500 -1.44400 44.41100
O  8.57200 -1.67300 44.66100
C  6.90800 -0.10200 43.96200
C  7.31800 0.91800 44.92600
O  6.59200 1.19900 45.88400
O  8.43400 1.64500 44.50300
C  8.83200 2.91300 45.15500
H  0.63200 2.37700 42.27900
H  -1.73200 -3.52200 43.18900
H  3.96000 -5.54800 45.02200
H  5.34100 2.57200 43.76100
H  2.98100 3.47000 42.40600
H  3.08800 4.53500 44.58000
H  3.57400 3.08800 45.39800
H  1.86700 3.33900 44.75300
H  4.61000 2.85300 40.99800
H  5.32100 1.35400 41.04000
H  7.17300 2.80800 42.46400
H  6.53200 3.95800 41.25600
H  -2.59500 1.73800 40.90000
H  -1.09000 2.48600 41.24400
H  -2.26500 2.32800 42.58500
H  -3.54000 -2.27000 43.72000
H  -3.39700 -3.07400 42.09900
H  -4.89900 -2.20800 42.45900
H  -0.17800 -5.66400 42.94800
H  1.19400 -5.95200 45.65500
H  -0.89200 -6.42400 45.60700
H  -1.88000 -6.43200 44.21600
H  -1.81200 -4.93800 45.24400
H  2.98900 -7.05300 43.90100
H  1.45500 -7.45000 42.98900
H  2.78700 -8.53500 45.41100
H  1.43000 -9.26900 44.45800
H  1.10700 -8.19300 45.77200
H  6.70100 -5.46000 44.80300
H  6.48800 -5.10500 46.49300
H  7.78400 -4.30500 45.43800
H  7.41100 0.05900 43.00900
H  7.99500 3.36000 45.69100
H  9.32700 3.59200 44.46000
H  9.44700 2.63800 46.01100
Mg 0.74000 8.04300 26.06900
C  1.39800 10.26400 28.53500
C  1.21900 5.49100 28.07400
C  0.24900 6.03600 23.28700
C  0.52700 10.76600 23.77900
N  1.17700 7.99200 28.11800
C  1.34000 8.94000 29.02200
C  1.53400 8.34200 30.51100
C  1.55800 6.84500 30.25600
C  1.28400 6.75000 28.67200
C  2.91500 6.09600 30.70400
C  0.42000 8.91900 31.33600
C  0.19700 8.45000 32.80800
H  1.43200 8.12500 33.58400
N  0.65200 6.04100 25.71900
C  0.89700 5.12300 26.73000
C  0.78200 3.81700 26.26300
C  0.51300 3.93700 24.81000
C  0.45800 5.40800 24.52300
C  0.99200 2.59200 27.18400
C  0.46900 2.86900 23.79100
O  0.10700 2.95100 22.63400
C  0.67600 1.54100 24.25400
N  0.48300 8.40700 23.85100
C  0.32800 7.40100 22.99200
C  -0.13700 7.82900 21.57700
C  -0.39000 9.37700 21.78800
C  0.19700 9.57000 23.23400
C  0.90500 7.52100 20.50900
C  -1.85300 9.93100 21.68300
C  -2.24100 11.01200 20.69400
N  1.08700 10.06500 26.09600
C  0.97400 11.09500 25.11100
C  1.35300 12.32100 25.66100
C  1.50900 12.12400 27.04600
C  1.35900 10.70400 27.24000
C  1.43100 13.58900 24.98100
C  1.84600 12.72400 28.34700
O  2.28100 13.84000 28.59100
C  1.58800 11.58300 29.34600
C  2.81900 11.60500 30.19700
O  4.01500 11.39700 29.92700
O  2.47600 11.85500 31.50600
C  3.65400 11.97100 32.37600
H  1.41700 4.63700 28.72600
H  -0.04400 5.29500 22.54100
H  0.25500 11.58700 23.11300
H  2.48100 8.72200 30.89400
H  0.76600 6.35900 30.82500
H  2.66000 5.25300 31.34700
H  3.59200 6.76700 31.23300
H  3.41400 5.59900 29.87200
H  -0.52900 8.76800 30.82200
H  0.56400 9.99900 31.36700
H  -0.55300 7.66300 32.88900
H  -0.21300 9.35200 33.26200
H  1.04900 2.79700 28.25300
H  1.90200 2.08700 26.85900
H  0.19400 1.88100 26.97300
H  1.63900 1.46300 24.76000
H  0.68800 0.82200 23.43400
H  -0.09400 1.21500 24.95300
H  -1.08300 7.34000 21.34600
H  0.27100 10.01600 21.20200
H  0.89800 6.49900 20.12900
H  1.93700 7.69900 20.81100
H  0.79500 8.20100 19.66400
H  -2.13800 10.25200 22.68400
H  -2.47300 9.03700 21.60100
H  -3.15900 10.79600 20.14700
H  -1.52100 11.15600 19.88900
H  -2.20200 11.96100 21.22900
H  0.49000 14.11300 24.81600
H  1.84200 13.38200 23.99300
H  2.11800 14.19500 25.57200
H  0.66000 11.80800 29.87100
H  4.28100 11.08800 32.24900
H  3.41800 12.00000 33.44000
H  4.23100 12.89000 32.27700

