158

Mg 17.16900 52.85500 25.75200
C  18.95500 51.37100 28.52600
C  14.72400 53.70100 27.97800
C  15.37900 53.95600 23.17900
C  19.56800 51.51600 23.61000
N  16.85600 52.47500 27.95300
C  17.81400 52.10100 28.89500
C  17.30800 52.41600 30.29900
C  15.84800 52.89300 30.01200
C  15.75100 52.98000 28.54000
C  14.76800 51.94300 30.66600
C  18.19800 53.59500 31.02100
C  18.03600 53.87600 32.55800
H  17.12100 53.09300 33.42400
N  15.31900 53.80600 25.64800
C  14.44000 54.02500 26.67400
C  13.22400 54.66200 26.08200
C  13.39800 54.79100 24.68000
C  14.73800 54.13500 24.45000
C  12.00700 55.01900 26.84700
C  12.48100 55.34000 23.60500
O  12.81500 55.37200 22.41000
C  11.21600 55.92600 23.97200
N  17.37900 52.51000 23.67500
C  16.52000 53.23100 22.86100
C  17.02600 53.06100 21.41200
C  18.43700 52.27400 21.53700
C  18.42700 51.99000 22.98800
C  16.03100 52.30700 20.52000
C  19.63000 52.99300 20.92800
C  20.42700 52.36600 19.78100
N  18.91000 51.63800 25.91100
C  19.82500 51.32100 24.98900
C  20.98100 50.58600 25.59000
C  20.70600 50.64400 27.03300
C  19.40600 51.20600 27.13400
C  22.10200 50.03300 24.79800
C  21.09700 50.28200 28.41100
O  22.12000 49.73500 28.76500
C  20.03500 50.77000 29.35500
C  19.56100 49.51500 30.11700
O  19.25000 48.45200 29.52500
O  19.45300 49.74800 31.45900
C  18.83800 48.58600 32.20700
H  13.98500 54.08300 28.68600
H  14.73000 54.31000 22.37500
H  20.35600 51.22900 22.91000
H  17.42800 51.53400 30.92900
H  15.83100 53.81300 30.59600
H  15.16300 51.04400 31.13800
H  14.04500 51.76700 29.87000
H  14.27500 52.52700 31.44300
H  18.03600 54.53000 30.48300
H  19.25000 53.38400 30.83000
H  17.81700 54.93500 32.69600
H  18.98800 53.70200 33.05900
H  11.67200 56.02900 26.61100
H  12.27200 55.09200 27.90100
H  11.15200 54.34500 26.78300
H  11.42500 56.76700 24.63300
H  10.59500 55.16800 24.45100
H  10.78100 56.24600 23.02500
H  17.26800 54.09000 21.14400
H  18.38400 51.33100 20.99200
H  15.49900 52.92800 19.79900
H  15.27000 51.78200 21.09700
H  16.52000 51.61900 19.83000
H  20.35500 53.16200 21.72400
H  19.44500 54.02700 20.63600
H  20.49300 53.10200 18.97900
H  19.94200 51.45600 19.42900
H  21.42700 52.09900 20.12400
H  21.82200 50.02400 23.74500
H  22.18600 48.98100 25.07100
H  23.06500 50.54400 24.79800
H  20.51500 51.47400 30.03400
H  18.94300 48.88500 33.25000
H  19.34400 47.63800 32.02500
H  17.77100 48.47100 32.01600
Mg 9.69600 48.65300 25.59600
C  8.01400 48.79400 28.50400
C  12.55000 50.03600 27.15900
C  11.37300 48.50000 22.73800
C  6.75000 47.99600 23.89000
N  10.08700 49.47100 27.54000
C  9.32400 49.21200 28.66900
C  10.01900 49.62000 29.93700
C  11.22300 50.50400 29.34000
C  11.32800 49.98000 27.88100
C  11.13100 52.05000 29.38400
C  10.44500 48.48600 30.85700
C  9.85600 48.43700 32.28500
H  10.77700 48.98100 33.34900
N  11.71000 49.19400 25.01500
C  12.70900 49.56400 25.88200
C  13.94800 49.61300 25.18800
C  13.69400 49.21800 23.80300
C  12.22900 48.88200 23.76500
C  15.40500 49.97200 25.84300
C  14.59900 49.02300 22.65100
O  14.27100 48.55900 21.56100
C  15.95600 49.48300 22.86800
N  9.04700 48.39300 23.48800
C  10.01400 48.23800 22.56500
C  9.35200 48.07800 21.12900
C  7.80400 47.98500 21.50200
C  7.85600 48.14100 23.01600
C  9.60500 49.25400 20.14800
C  7.22400 46.65700 21.09900
C  6.21100 46.77700 19.90800
N  7.76100 48.34500 26.08000
C  6.65300 48.13800 25.28600
C  5.51300 47.90300 26.11800
C  6.00300 48.13200 27.43700
C  7.36500 48.42500 27.34800
C  4.16200 47.67600 25.57400
C  5.69600 48.10300 28.83000
O  4.67000 47.86000 29.39900
C  6.93200 48.56400 29.61100
C  7.18800 47.43800 30.48900
O  7.86000 46.46900 30.23200
O  6.52600 47.68300 31.63400
C  6.50800 46.62600 32.64900
H  13.41800 50.42800 27.69200
H  11.86500 48.32700 21.77800
H  5.79700 47.86500 23.37300
H  9.42900 50.27900 30.57300
H  12.20900 50.28800 29.75200
H  11.84800 52.44900 30.10200
H  10.18100 52.53700 29.60600
H  11.47600 52.44300 28.42800
H  11.51900 48.64200 30.95100
H  10.33000 47.56200 30.29000
H  9.64000 47.39700 32.53000
H  8.94000 49.01700 32.40200
H  15.38100 50.27400 26.89000
H  15.86100 50.79400 25.29200
H  16.08000 49.11800 25.77900
H  16.42600 49.03700 23.74400
H  15.88000 50.55300 23.05600
H  16.52300 49.22800 21.97200
H  9.78300 47.17000 20.70800
H  7.23200 48.80800 21.07400
H  9.03300 49.18500 19.22200
H  10.65900 49.43000 19.93600
H  9.31800 50.15900 20.68200
H  6.83100 46.00200 21.87700
H  7.96700 46.08900 20.53900
H  6.54500 46.13600 19.09300
H  6.18100 47.76500 19.44800
H  5.18600 46.57600 20.22000
H  3.85900 48.64000 25.16600
H  3.38400 47.48500 26.31300
H  4.21000 46.82500 24.89400
H  6.79700 49.51200 30.13200
H  6.90500 45.69200 32.25000
H  5.48100 46.59400 33.01200
H  7.18200 46.98000 33.42800

