158

Mg 24.46200 -5.96100 47.57000
C  27.06200 -3.90000 46.38400
C  22.46300 -4.47500 45.11800
C  22.05700 -8.30100 48.31500
C  26.70200 -7.68300 49.45800
N  24.81000 -4.46900 45.78900
C  25.90100 -3.66900 45.66500
C  25.66300 -2.67500 44.48300
C  24.13700 -2.62800 44.35900
C  23.74000 -3.95100 45.11900
C  23.48900 -1.18100 44.71900
C  26.41900 -3.22500 43.13900
C  27.25400 -2.08800 42.46300
H  26.96500 -1.77500 40.97400
N  22.44900 -6.28400 46.88100
C  21.89400 -5.64100 45.76400
C  20.54900 -6.24100 45.53900
C  20.42100 -7.25700 46.56900
C  21.57900 -7.31000 47.38600
C  19.59700 -5.69000 44.45800
C  19.14800 -8.04100 46.81100
O  18.14800 -7.85200 46.14900
C  19.01300 -9.13500 47.91200
N  24.40400 -7.63500 48.69800
C  23.31100 -8.41200 48.93600
C  23.66700 -9.81800 49.53900
C  25.13800 -9.49500 50.15100
C  25.45500 -8.21100 49.38000
C  22.72100 -10.41200 50.68900
C  26.17100 -10.69200 50.10000
C  26.71100 -11.12400 51.45000
N  26.50000 -5.84600 47.93200
C  27.24500 -6.59400 48.79400
C  28.59300 -6.08300 48.75800
C  28.53000 -5.04300 47.91600
C  27.24000 -4.93600 47.36900
C  29.76000 -6.41200 49.57700
C  29.28100 -3.86700 47.39600
O  30.37500 -3.40200 47.63100
C  28.36800 -3.21000 46.30800
C  28.41300 -1.70300 46.35800
O  28.75900 -0.97900 45.44500
O  27.97600 -1.20600 47.56900
C  27.51400 0.14200 47.40400
H  21.81500 -4.02500 44.36300
H  21.35800 -9.13300 48.42000
H  27.37700 -8.30000 50.05500
H  26.01500 -1.70900 44.84500
H  23.82300 -2.69400 43.31700
H  24.33300 -0.50200 44.84200
H  22.84400 -1.37900 45.57500
H  22.85900 -0.95400 43.85900
H  25.69300 -3.75100 42.51800
H  27.18200 -3.91200 43.50300
H  28.31900 -2.29500 42.57000
H  27.15000 -1.15600 43.01900
H  18.84500 -4.95000 44.73300
H  19.16100 -6.49800 43.87200
H  20.17500 -5.16600 43.69700
H  18.01900 -9.56800 47.80200
H  19.03000 -8.85600 48.96600
H  19.76500 -9.88500 47.66800
H  23.77200 -10.57000 48.75700
H  25.04400 -9.16600 51.18600
H  22.44500 -11.43100 50.41800
H  21.84400 -9.78200 50.84100
H  23.24200 -10.30000 51.64000
H  27.01500 -10.42600 49.46300
H  25.58600 -11.52000 49.69900
H  27.72200 -11.47900 51.25200
H  26.18400 -12.03200 51.74100
H  26.65800 -10.35600 52.22200
H  29.59400 -7.36000 50.09000
H  29.73600 -5.63700 50.34300
H  30.69400 -6.48000 49.02000
H  28.71800 -3.49600 45.31600
H  28.27300 0.89200 47.62600
H  26.66900 0.20400 48.09000
H  27.00000 0.46000 46.49700
Mg 9.35300 48.24200 26.58900
C  7.40600 48.40400 29.47100
C  11.98600 49.25500 28.63800
C  11.39000 47.98700 23.98500
C  6.60700 47.63000 24.67600
N  9.58600 48.83100 28.82700
C  8.69400 48.70900 29.83700
C  9.36400 48.99500 31.17300
C  10.58100 49.84800 30.72300
C  10.81700 49.28300 29.29100
C  10.35000 51.38100 30.80500
C  9.71400 47.62800 31.89500
C  10.10700 47.70400 33.41000
H  9.46500 46.56300 34.33100
N  11.35000 48.33400 26.35800
C  12.26500 48.81600 27.32700
C  13.65400 48.57200 26.79900
C  13.52000 48.21200 25.46400
C  12.04900 48.15000 25.19200
C  14.95300 48.80700 27.66100
C  14.66800 47.78100 24.42700
O  14.36600 47.30800 23.33200
C  16.10800 47.77500 24.87400
N  9.09800 47.70800 24.66500
C  10.06900 47.75400 23.72400
C  9.50700 47.49900 22.33000
C  7.93600 47.45100 22.48700
C  7.88500 47.56400 24.03100
C  9.96400 48.37200 21.15700
C  7.15500 46.25200 21.83100
C  6.14700 46.67000 20.77400
N  7.40000 48.19300 26.93300
C  6.37500 47.79800 26.03900
C  5.10300 47.63200 26.75800
C  5.51000 47.92600 28.11500
C  6.88400 48.24400 28.17100
C  3.80500 47.17300 26.24500
C  4.91200 47.98600 29.45900
O  3.73200 47.78800 29.76600
C  6.20000 48.16100 30.38500
C  6.37900 46.91800 31.14300
O  6.91000 45.86400 30.73600
O  5.92100 47.02900 32.47100
C  5.97700 45.71000 33.12300
H  12.80000 49.71800 29.19900
H  12.12400 47.93900 23.17900
H  5.73900 47.32900 24.08500
H  8.61500 49.49600 31.78700
H  11.41400 49.56700 31.36700
H  9.50000 51.64100 31.43600
H  10.12900 51.71000 29.79000
H  11.25500 51.93500 31.05400
H  10.64400 47.33800 31.40600
H  8.85300 46.97200 31.76600
H  9.91300 48.74900 33.65400
H  11.18300 47.53600 33.35600
H  14.72600 48.89400 28.72300
H  15.43100 49.77300 27.49800
H  15.58400 47.91900 27.62100
H  16.34700 48.76200 25.26900
H  16.73800 47.48200 24.03400
H  16.07600 46.95900 25.59600
H  9.87600 46.51100 22.05500
H  7.52200 48.41100 22.17800
H  9.17300 48.78200 20.52900
H  10.70700 47.80200 20.60000
H  10.49700 49.20800 21.60900
H  6.56500 45.76400 22.60600
H  7.89700 45.55300 21.44300
H  5.93200 45.82400 20.12300
H  6.61000 47.56100 20.34900
H  5.20100 46.99300 21.21000
H  4.02600 46.50600 25.41200
H  3.27600 48.06500 25.91200
H  3.19100 46.56400 26.90800
H  6.06600 49.01300 31.05100
H  5.91700 45.93800 34.18700
H  6.86700 45.17400 32.79300
H  5.14500 45.08500 32.79800

