158

Mg 17.21500 -1.81800 28.11800
C  16.25300 0.02000 30.96500
C  19.37500 -3.62900 30.26400
C  18.86800 -3.08800 25.47100
C  15.59000 0.44800 26.02800
N  17.88600 -1.68900 30.35200
C  17.25200 -0.94000 31.31500
C  17.69400 -1.31800 32.73800
C  18.83400 -2.37500 32.51600
C  18.71600 -2.62400 30.96300
C  20.27500 -1.95800 32.93500
C  16.59900 -1.89900 33.68600
C  16.36600 -1.07400 34.96100
H  17.57400 -0.64500 35.82400
N  18.77100 -3.28600 27.83300
C  19.48000 -3.95500 28.82600
C  20.35300 -4.93900 28.27700
C  20.25600 -4.74800 26.85400
C  19.25500 -3.71300 26.68900
C  21.19400 -5.91800 29.01000
C  20.86100 -5.49400 25.70700
O  20.50800 -5.34600 24.52800
C  21.88800 -6.51400 25.95900
N  17.23500 -1.37500 26.08500
C  17.92500 -2.06200 25.17700
C  17.60600 -1.65100 23.72500
C  16.32300 -0.82000 23.91900
C  16.41400 -0.53000 25.40000
C  18.83400 -0.85200 23.13000
C  15.00200 -1.61400 23.47300
C  14.36200 -1.36800 22.08100
N  16.12300 -0.05100 28.40900
C  15.49500 0.72800 27.43500
C  14.76200 1.73000 28.20200
C  14.90700 1.43000 29.52100
C  15.83800 0.43100 29.61900
C  13.89900 2.77300 27.63700
C  14.45000 1.75800 30.82800
O  13.59400 2.53800 31.19400
C  15.33500 0.92700 31.79800
C  16.17100 1.93000 32.45800
O  17.23700 2.37000 32.03900
O  15.49200 2.37600 33.57200
C  16.08600 3.35500 34.48100
H  19.97500 -4.21900 30.96000
H  19.42800 -3.39100 24.58400
H  14.93600 0.96800 25.32500
H  18.02400 -0.37200 33.16700
H  18.42500 -3.31000 32.90100
H  21.05300 -2.06600 32.17900
H  20.56900 -2.50100 33.83300
H  20.35800 -0.95500 33.35400
H  16.77700 -2.91900 34.02700
H  15.66400 -1.92300 33.12500
H  15.80500 -1.68900 35.66500
H  15.74400 -0.19700 34.78000
H  20.93000 -6.94900 28.77600
H  20.98900 -5.90800 30.08100
H  22.21000 -5.54100 28.89400
H  22.30700 -6.81100 24.99800
H  21.25800 -7.25400 26.45300
H  22.64100 -6.04400 26.59200
H  17.38400 -2.54900 23.14900
H  16.45300 0.10600 23.35900
H  19.77900 -0.83800 23.67400
H  18.50100 0.17300 22.96600
H  19.00700 -1.34300 22.17200
H  14.21800 -1.27600 24.15100
H  15.17400 -2.67900 23.62600
H  13.57900 -2.10900 21.91900
H  15.17700 -1.43100 21.36000
H  13.99000 -0.34400 22.10600
H  14.40200 3.74000 27.62300
H  13.10300 2.82500 28.37900
H  13.37000 2.48500 26.72900
H  14.70800 0.43700 32.54300
H  15.33400 3.68900 35.19600
H  16.51600 4.23300 33.99900
H  16.92500 2.88000 34.98900
Mg 34.95900 3.17200 30.01700
C  32.54000 4.03000 32.38600
C  37.26500 3.42100 32.63600
C  37.38200 2.57100 27.71800
C  32.57300 3.35200 27.58500
N  34.79800 3.51100 32.26200
C  33.77600 3.91200 32.96500
C  34.04300 3.87700 34.44300
C  35.59100 4.06600 34.50200
C  35.90800 3.60900 33.05600
C  36.06400 5.50500 34.99200
C  33.46200 2.67800 35.18800
C  32.99600 2.87200 36.60500
H  33.54400 4.07500 37.42100
N  37.01300 3.09800 30.11400
C  37.78300 3.13100 31.32400
C  39.10800 2.79700 31.01100
C  39.26300 2.53000 29.60800
C  37.82600 2.73800 29.07100
C  40.26400 2.78500 32.06400
C  40.51000 2.05100 28.76300
O  40.35400 1.90500 27.58300
C  41.92100 1.83600 29.40400
N  34.91700 2.89200 27.95100
C  36.06500 2.60300 27.21000
C  35.74000 2.37700 25.70800
C  34.23000 2.78000 25.65200
C  33.88000 3.11700 27.17100
C  36.64200 3.16500 24.79200
C  33.37700 1.60300 25.00500
C  32.47000 2.00100 23.78100
N  32.90300 3.56300 29.96100
C  32.05800 3.60200 28.86900
C  30.75000 3.90600 29.32700
C  30.83800 4.09600 30.70500
C  32.23200 3.83600 31.02200
C  29.58400 4.24200 28.47400
C  30.15500 4.47500 31.92300
O  28.98600 4.77800 32.12100
C  31.22200 4.36300 33.11000
C  31.29800 5.59700 33.90900
O  31.73200 6.65200 33.43200
O  30.75300 5.43700 35.22500
C  30.16700 6.62600 35.86400
H  38.03600 3.46000 33.40800
H  38.16900 2.35900 26.99200
H  31.72100 3.44100 26.90800
H  33.55600 4.76800 34.83800
H  36.00600 3.39400 35.25200
H  36.22100 5.49100 36.07100
H  35.29000 6.24800 34.79700
H  36.95800 5.79000 34.43800
H  34.15600 1.83800 35.21500
H  32.55100 2.38200 34.66800
H  33.25100 1.97300 37.16600
H  31.90800 2.93600 36.62200
H  40.04000 3.17100 33.05800
H  41.06700 3.36500 31.60700
H  40.69300 1.79700 32.22900
H  42.47200 2.76600 29.53700
H  42.54600 1.34500 28.65800
H  41.85100 1.21300 30.29600
H  35.85200 1.31100 25.50800
H  34.22000 3.69700 25.06300
H  36.94800 4.06900 25.31700
H  36.06400 3.55600 23.95500
H  37.40900 2.50200 24.39100
H  32.65200 1.30100 25.76100
H  33.95500 0.76900 24.60600
H  32.60200 1.35700 22.91200
H  32.87500 2.93700 23.39500
H  31.43800 2.20100 24.07200
H  29.12800 5.09700 28.97400
H  28.87400 3.41800 28.41200
H  29.90700 4.53500 27.47500
H  30.96800 3.53200 33.76900
H  29.98800 7.29100 35.01900
H  30.66200 7.11100 36.70600
H  29.19900 6.25700 36.20100

