158

Mg 35.45000 1.34400 29.49200
C  33.13300 2.53700 31.74400
C  37.87900 1.83300 32.01700
C  37.82100 0.25700 27.44800
C  33.19500 1.52100 26.95100
N  35.52900 2.31400 31.59000
C  34.38000 2.38400 32.34000
C  34.74800 2.50000 33.82600
C  36.19100 2.78400 33.75600
C  36.60800 2.17500 32.36300
C  36.63600 4.23400 34.01500
C  34.22200 1.21100 34.69600
C  34.32300 1.26600 36.27700
H  34.91900 2.53100 36.89900
N  37.67400 1.17400 29.66900
C  38.42200 1.37300 30.81700
C  39.77400 0.98000 30.51300
C  39.74500 0.36500 29.22300
C  38.37200 0.57200 28.68200
C  40.82200 1.05200 31.62000
C  40.81400 -0.25100 28.43200
O  40.74800 -0.54300 27.25900
C  42.11600 -0.42900 29.16900
N  35.48500 0.94200 27.54000
C  36.59300 0.51900 26.82700
C  36.32600 0.32100 25.34300
C  34.79000 0.62600 25.23900
C  34.40300 1.03400 26.65600
C  37.10800 1.36100 24.45400
C  33.81900 -0.62800 24.76900
C  33.82800 -1.86500 25.59100
N  33.54900 1.84600 29.28200
C  32.74200 1.94400 28.21500
C  31.44300 2.48900 28.59200
C  31.54700 2.72300 30.06500
C  32.84500 2.33000 30.36900
C  30.32200 2.62000 27.65400
C  30.92100 3.18800 31.22600
O  29.77700 3.62400 31.42200
C  31.89700 2.95500 32.36700
C  32.11000 4.29600 33.06000
O  32.63500 5.25400 32.54900
O  31.60000 4.25500 34.29300
C  31.98900 5.46400 35.04500
H  38.57000 2.06300 32.83000
H  38.56400 -0.11500 26.73900
H  32.46300 1.59900 26.14400
H  34.33800 3.40100 34.28100
H  36.73600 2.20800 34.50300
H  35.81100 4.94400 33.95900
H  37.37200 4.53300 33.26900
H  37.17700 4.32500 34.95700
H  34.87100 0.40700 34.35000
H  33.24300 1.05300 34.24400
H  34.87800 0.33600 36.39600
H  33.33600 1.08100 36.70100
H  41.12900 0.01200 31.72600
H  40.43600 1.34400 32.59700
H  41.66500 1.68600 31.34400
H  41.90500 -1.22400 29.88500
H  42.55500 0.50300 29.52300
H  42.82000 -0.86600 28.46100
H  36.52600 -0.69300 24.99700
H  34.54800 1.41900 24.53200
H  37.83900 1.97900 24.97500
H  36.44700 1.87200 23.75500
H  37.81300 0.73600 23.90500
H  34.06100 -0.99300 23.77100
H  32.80800 -0.25000 24.61200
H  34.87100 -1.95000 25.89800
H  33.59000 -2.75400 25.00700
H  33.14500 -1.75400 26.43300
H  30.54500 2.10700 26.71900
H  29.99400 3.63200 27.41700
H  29.49200 2.12800 28.16200
H  31.49100 2.27000 33.11100
H  32.96800 5.93000 34.93000
H  31.93200 5.26400 36.11500
H  31.31500 6.29800 34.85100
Mg -10.17700 18.42500 42.75500
C  -6.77000 17.47600 42.92900
C  -9.11200 21.60400 42.18000
C  -13.29200 19.31800 42.69700
C  -11.05000 14.93500 43.06700
N  -8.11500 19.35600 42.56500
C  -6.88700 18.83300 42.73600
C  -5.78700 19.86200 42.45900
C  -6.53400 21.23000 42.53400
C  -8.04500 20.70600 42.45600
C  -6.36800 22.09400 43.85200
C  -4.80000 19.56500 41.21300
C  -5.34600 18.62600 40.08900
H  -5.23800 19.10900 38.62000
N  -11.09100 20.26500 42.38500
C  -10.47600 21.44400 42.16100
C  -11.51400 22.48300 42.05700
C  -12.80400 21.77300 42.11400
C  -12.47400 20.42600 42.43600
C  -11.10700 23.99000 41.68300
C  -14.17800 22.40600 41.74700
O  -14.36400 23.61900 41.55400
C  -15.40300 21.58500 41.60700
N  -11.94500 17.22800 42.55400
C  -13.14700 17.91000 42.76500
C  -14.28700 16.87700 42.90100
C  -13.56500 15.53000 42.73100
C  -12.09100 15.81900 42.68800
C  -15.16700 17.06200 44.25900
C  -14.08000 14.75900 41.54100
C  -15.20900 13.78500 41.86700
N  -9.17600 16.53800 42.90500
C  -9.65600 15.20800 43.06300
C  -8.52800 14.30500 43.11200
C  -7.39100 15.13300 43.03900
C  -7.79300 16.45600 42.96900
C  -8.72200 12.76300 43.31200
C  -5.94600 15.20400 43.05800
O  -5.13400 14.28100 42.93500
C  -5.49800 16.68500 43.21200
C  -5.11300 16.80300 44.61100
O  -5.94000 16.83700 45.51600
O  -3.75900 16.66500 44.79200
C  -3.18200 16.38000 46.06900
H  -8.90300 22.66800 42.04700
H  -14.36000 19.48500 42.85500
H  -11.29600 13.88500 43.23500
H  -5.16100 19.84600 43.35200
H  -6.39700 21.87100 41.66300
H  -7.07900 21.70800 44.58200
H  -6.63300 23.11900 43.59200
H  -5.37000 22.01100 44.28200
H  -3.94100 19.06300 41.65800
H  -4.37300 20.50600 40.86500
H  -6.35300 18.27900 40.32400
H  -4.65100 17.78700 40.11300
H  -11.94000 24.68100 41.81000
H  -10.46900 24.09300 40.80500
H  -10.50300 24.32300 42.52700
H  -15.93400 21.59100 42.55900
H  -15.22000 20.53900 41.35900
H  -16.09700 21.98800 40.87000
H  -14.99500 17.07000 42.09600
H  -13.81400 14.88300 43.57200
H  -14.98900 18.02200 44.74400
H  -14.96400 16.34000 45.04900
H  -16.20700 17.15600 43.94500
H  -13.29900 14.16100 41.07200
H  -14.53500 15.29600 40.70900
H  -15.95100 13.97900 41.09300
H  -15.60600 13.82100 42.88200
H  -14.86700 12.77100 41.65900
H  -9.12000 12.54400 44.30200
H  -7.73100 12.31100 43.36600
H  -9.20200 12.38300 42.41000
H  -4.68500 16.95000 42.53600
H  -2.45900 15.57100 45.96100
H  -3.95200 16.12400 46.79700
H  -2.68300 17.24800 46.49900

