158

Mg 9.35900 48.54600 25.32700
C  7.31700 48.02500 28.09700
C  11.92700 49.35300 27.43200
C  11.23600 48.94300 22.64700
C  6.54000 48.18300 23.27700
N  9.56600 48.63000 27.52400
C  8.61700 48.36100 28.42500
C  9.06200 48.74200 29.87600
C  10.54400 49.21400 29.62800
C  10.72500 49.03900 28.10300
C  10.80100 50.65900 30.14200
C  9.01100 47.66300 30.96400
C  10.07900 47.73200 32.15800
H  9.74900 46.96300 33.48100
N  11.29700 49.03000 25.07500
C  12.22800 49.31300 26.03900
C  13.56600 49.35400 25.47900
C  13.42100 48.91300 24.09600
C  11.95800 48.93100 23.86300
C  14.79900 49.78500 26.25300
C  14.45700 48.84400 23.04000
O  14.17600 48.56100 21.87000
C  15.93000 49.05100 23.34600
N  8.99500 48.53200 23.30900
C  9.91500 48.85100 22.41600
C  9.29900 48.99500 20.99100
C  7.85000 48.43000 21.13100
C  7.75500 48.42100 22.65100
C  9.29400 50.42100 20.51200
C  7.62000 46.99500 20.57600
C  6.70100 46.80300 19.41600
N  7.33900 48.11800 25.60400
C  6.29600 47.89400 24.65000
C  5.05800 47.67500 25.36500
C  5.44500 47.68400 26.71000
C  6.81000 47.94300 26.78100
C  3.78000 47.61800 24.73000
C  4.99300 47.59100 28.07900
O  3.82900 47.46800 28.45000
C  6.17600 47.81000 29.04400
C  6.33900 46.44800 29.72700
O  6.83900 45.44600 29.31400
O  5.88800 46.46100 31.04500
C  6.08500 45.23200 31.89300
H  12.71700 49.62900 28.13400
H  11.86100 49.23300 21.80000
H  5.70400 48.01800 22.59400
H  8.43300 49.57400 30.19000
H  11.33500 48.53500 29.94600
H  10.97600 51.44200 29.40400
H  11.65700 50.62700 30.81700
H  9.90700 51.01500 30.65400
H  9.11600 46.66300 30.54300
H  8.00500 47.83200 31.34700
H  10.39300 48.75200 32.38000
H  10.87300 47.14700 31.69500
H  14.65100 49.88400 27.32800
H  15.16100 50.72000 25.82400
H  15.57400 49.02300 26.16600
H  16.30400 48.22400 23.94900
H  16.10000 50.01800 23.81800
H  16.57100 48.91000 22.47600
H  9.92200 48.29600 20.43400
H  7.03100 49.03200 20.73600
H  9.71200 51.00700 21.33100
H  8.37200 50.87700 20.15400
H  9.99600 50.38300 19.68000
H  7.29600 46.30100 21.35100
H  8.57700 46.60000 20.23800
H  7.22100 46.16300 18.70300
H  6.71700 47.78800 18.94800
H  5.74600 46.35700 19.69400
H  3.67100 46.77200 24.05200
H  3.67900 48.59800 24.26500
H  3.03500 47.58700 25.52500
H  5.95400 48.57600 29.78600
H  7.12800 45.33300 32.19100
H  5.92300 44.34000 31.28700
H  5.34600 45.10200 32.68300
Mg 0.88700 43.62800 25.40200
C  3.24400 43.12000 27.99400
C  -1.59300 42.86500 27.48900
C  -1.34000 43.69000 22.71200
C  3.46700 44.11500 23.19300
N  0.91300 42.89700 27.49000
C  1.93700 42.92200 28.43900
C  1.40700 42.70300 29.82500
C  -0.14100 42.42100 29.60000
C  -0.30000 42.80600 28.14400
C  -0.75700 41.07100 30.09900
C  1.72500 43.90200 30.76200
C  1.73400 43.71000 32.32900
H  1.70700 42.30500 32.95100
N  -1.19000 43.32200 25.08900
C  -2.02300 43.06400 26.14700
C  -3.38300 43.02000 25.71000
C  -3.37900 43.29500 24.36000
C  -1.94000 43.48300 23.98200
C  -4.56400 42.70500 26.56900
C  -4.50000 43.45300 23.32900
O  -4.35000 43.84100 22.19100
C  -5.91800 43.37100 23.74300
N  1.03800 43.74200 23.21600
C  -0.02600 43.86000 22.36700
C  0.43500 44.27800 20.97400
C  1.91900 44.54800 21.16500
C  2.20500 44.23000 22.66400
C  0.17100 43.12600 19.96500
C  2.45400 45.98900 20.74500
C  2.07000 47.09500 21.80100
N  2.97800 43.48200 25.53000
C  3.90800 43.77700 24.52800
C  5.26100 43.73600 25.16600
C  5.03800 43.34100 26.47100
C  3.63700 43.32000 26.67000
C  6.53300 44.04900 24.52800
C  5.62000 42.99800 27.75100
O  6.77200 42.95500 27.99400
C  4.48300 43.03700 28.82400
C  4.64300 41.79900 29.59300
O  4.47900 40.68100 29.08500
O  4.98200 41.98900 30.91400
C  5.51300 40.83700 31.57900
H  -2.40200 42.77900 28.21800
H  -2.00600 43.84200 21.86000
H  4.24500 44.39600 22.47900
H  1.93500 41.82100 30.18600
H  -0.69100 43.22400 30.09200
H  -1.13700 40.47700 29.26800
H  -1.46200 41.23400 30.91500
H  0.05800 40.57000 30.62100
H  0.98600 44.66400 30.51400
H  2.70300 44.34200 30.56600
H  0.97000 44.37400 32.73600
H  2.65600 44.18800 32.66000
H  -4.29300 42.30900 27.54800
H  -5.09800 41.99400 25.93900
H  -5.03800 43.65400 26.82000
H  -6.46500 43.59200 22.82600
H  -6.13000 44.27400 24.31400
H  -6.28600 42.50400 24.29100
H  -0.12800 45.14000 20.62000
H  2.45900 43.81300 20.56700
H  -0.26700 42.24000 20.42500
H  1.02500 42.61900 19.51700
H  -0.38600 43.64800 19.18700
H  1.95600 46.19400 19.79800
H  3.53400 45.90600 20.62300
H  1.36900 47.78700 21.33500
H  2.93600 47.72600 22.00100
H  1.64300 46.61700 22.68300
H  7.21700 43.22600 24.73300
H  6.92100 44.98400 24.93300
H  6.40800 44.36100 23.49200
H  4.39400 43.90500 29.47600
H  6.53300 40.65900 31.23800
H  4.95600 39.93400 31.32600
H  5.55000 40.84200 32.66800

