158

Mg 16.48300 -2.57000 28.15900
C  15.89500 -0.44200 30.90300
C  17.83400 -4.81300 30.41900
C  17.66000 -4.42200 25.50700
C  15.29600 -0.35000 26.07500
N  16.91400 -2.61200 30.48300
C  16.52200 -1.63900 31.27900
C  16.86000 -2.04600 32.75000
C  17.77900 -3.32500 32.55000
C  17.46300 -3.65900 31.09200
C  19.29900 -2.96700 32.77600
C  15.61900 -2.45400 33.56900
C  15.36800 -1.65500 34.87600
H  16.66800 -1.19400 35.64700
N  17.51000 -4.44500 27.97300
C  17.84500 -5.22300 29.01700
C  18.38200 -6.47800 28.48500
C  18.24400 -6.42200 27.04400
C  17.77200 -5.03900 26.77300
C  18.88300 -7.57600 29.36200
C  18.58600 -7.47600 25.97500
O  18.38000 -7.27800 24.74700
C  19.24500 -8.77700 26.51900
N  16.55400 -2.33400 26.08700
C  17.07600 -3.22800 25.19000
C  16.95300 -2.72600 23.77400
C  15.88000 -1.62600 23.97800
C  15.80700 -1.46500 25.48400
C  18.27100 -2.18000 23.21400
C  14.40000 -1.77800 23.38300
C  13.11300 -1.97100 24.22000
N  15.71900 -0.76700 28.34100
C  15.26600 0.03800 27.38400
C  14.67600 1.17300 27.93800
C  14.87900 1.08200 29.34900
C  15.57500 -0.13900 29.48000
C  13.99300 2.29800 27.22800
C  14.68600 1.59300 30.67700
O  14.16800 2.63700 31.04500
C  15.37800 0.63600 31.72800
C  16.41700 1.48600 32.33200
O  17.58900 1.41800 32.03300
O  15.85300 2.42600 33.13500
C  16.70400 3.48900 33.67500
H  18.26400 -5.46800 31.17900
H  18.05000 -5.05300 24.70600
H  14.90400 0.44700 25.44000
H  17.39300 -1.20400 33.19200
H  17.74700 -4.13100 33.28400
H  19.51500 -1.96500 33.14600
H  19.86200 -3.15900 31.86200
H  19.66000 -3.54700 33.62400
H  15.46200 -3.53200 33.58700
H  14.88900 -2.05900 32.86200
H  14.91600 -2.25500 35.66500
H  14.69300 -0.88400 34.50600
H  18.50500 -8.58400 29.19600
H  18.42000 -7.44000 30.33900
H  19.95700 -7.51800 29.54300
H  20.04200 -8.52600 27.21900
H  19.72400 -9.31900 25.70400
H  18.50000 -9.43100 26.97300
H  16.51100 -3.54600 23.20800
H  16.16400 -0.67400 23.52700
H  18.95800 -1.83000 23.98500
H  18.10800 -1.30600 22.58300
H  19.01400 -2.77100 22.67800
H  14.38400 -2.57100 22.63400
H  14.19300 -0.84500 22.85900
H  12.74200 -1.02900 24.62500
H  13.31900 -2.51800 25.14000
H  12.44400 -2.55000 23.58400
H  12.98600 1.93900 27.01300
H  14.56400 2.51300 26.32500
H  13.95700 3.25100 27.75500
H  14.69800 0.28000 32.50200
H  16.09500 4.05200 34.38200
H  17.01800 4.17400 32.88700
H  17.59000 3.02200 34.10500
Mg 8.60600 47.52400 27.76900
C  6.85400 47.21000 30.98800
C  11.45200 47.84300 29.49000
C  9.93400 48.45500 24.89700
C  5.36700 47.95000 26.29500
N  9.05600 47.64600 29.98500
C  8.27700 47.36100 31.16000
C  9.06000 47.55800 32.46400
C  10.46700 48.04900 31.88400
C  10.32100 47.79800 30.36500
C  10.85200 49.49100 32.42000
C  9.13700 46.39500 33.52500
C  9.09100 46.82200 35.02900
H  9.66300 45.89600 36.06700
N  10.48900 47.78800 27.14200
C  11.54700 47.82000 28.04700
C  12.76500 47.99200 27.29300
C  12.37900 48.19200 25.89200
C  10.86000 48.13600 25.87600
C  14.17300 48.18200 27.97600
C  13.29800 48.47100 24.69800
O  12.89500 49.07400 23.68200
C  14.75900 48.21800 24.85500
N  7.76800 48.28300 25.85900
C  8.57300 48.44500 24.83000
C  7.81400 48.58800 23.48000
C  6.32800 48.51000 23.97500
C  6.42900 48.15900 25.44300
C  8.09900 49.89600 22.69400
C  5.44200 47.47900 23.17100
C  5.47100 47.65900 21.69600
N  6.52700 47.50500 28.44400
C  5.32600 47.73200 27.71200
C  4.12600 47.44900 28.51900
C  4.68000 47.27300 29.79400
C  6.14300 47.36300 29.73700
C  2.70500 47.40100 27.99400
C  4.38000 47.05700 31.19600
O  3.32100 46.81700 31.77500
C  5.73500 47.09500 32.04200
C  5.84800 45.88800 32.85900
O  5.75900 44.78400 32.34500
O  5.90500 46.16500 34.21600
C  5.85800 44.99100 35.06400
H  12.39000 47.93800 30.04200
H  10.42500 48.77200 23.97500
H  4.38800 47.93600 25.81100
H  8.75800 48.39700 33.09200
H  11.25700 47.33300 32.11300
H  11.66200 49.20600 33.09100
H  10.13200 50.12200 32.94200
H  11.22300 50.17900 31.66000
H  10.00300 45.75300 33.36700
H  8.42500 45.59400 33.32700
H  8.01300 46.74300 35.17000
H  9.45100 47.84300 35.16200
H  14.84600 47.32500 27.96300
H  14.13400 48.51100 29.01500
H  14.49200 49.08100 27.44900
H  15.34500 49.03300 25.28100
H  15.12800 48.01300 23.85000
H  15.04100 47.34100 25.43700
H  8.12300 47.80500 22.78700
H  5.82900 49.47100 23.84700
H  8.90300 49.71800 21.97900
H  8.40500 50.76600 23.27500
H  7.27000 50.16700 22.04000
H  4.37300 47.53600 23.37700
H  5.84700 46.48600 23.36800
H  6.15200 46.96800 21.20000
H  5.68500 48.69100 21.41800
H  4.45400 47.39900 21.40000
H  2.59400 48.36200 27.49300
H  2.11400 47.31500 28.90600
H  2.42900 46.57400 27.34100
H  5.74200 47.95600 32.71200
H  6.92000 44.74400 35.06800
H  5.35600 44.08700 34.71800
H  5.48200 45.22900 36.05900

