158

Mg 17.03000 -1.77400 28.05100
C  16.04100 0.57400 30.63800
C  18.30800 -3.65500 30.51000
C  18.40600 -3.64300 25.74400
C  16.22500 0.67900 25.74000
N  17.23100 -1.48400 30.19800
C  16.72600 -0.55700 31.07800
C  17.13500 -0.86100 32.51600
C  18.17400 -2.06500 32.39000
C  17.92200 -2.40600 30.91700
C  19.64600 -1.66900 32.69100
C  15.96700 -1.17200 33.40000
C  15.97300 -0.67500 34.84000
H  17.29500 -0.07100 35.28000
N  18.03300 -3.50600 28.11500
C  18.42800 -4.16600 29.21200
C  18.84900 -5.49300 28.77300
C  18.90000 -5.49200 27.38500
C  18.45200 -4.15700 27.04200
C  19.30700 -6.50600 29.74100
C  19.35400 -6.56300 26.41500
O  19.41100 -6.38700 25.20800
C  19.72400 -7.86300 27.06600
N  17.19800 -1.48800 26.06700
C  17.86500 -2.44200 25.29900
C  18.04000 -1.89300 23.86400
C  17.28800 -0.53000 23.83600
C  16.89900 -0.41300 25.35600
C  19.52900 -1.77500 23.38400
C  16.03900 -0.50100 22.85800
C  15.76600 0.86800 22.11600
N  16.02500 0.10700 28.13300
C  15.79100 0.97900 27.07300
C  15.20900 2.20700 27.56700
C  15.31000 2.07100 28.93500
C  15.81100 0.82100 29.24700
C  14.74400 3.37600 26.71100
C  15.02500 2.70700 30.24000
O  14.41000 3.71900 30.53700
C  15.68300 1.84200 31.41500
C  16.80400 2.60800 31.99200
O  17.94600 2.74300 31.52700
O  16.38900 3.33000 33.13500
C  17.52600 3.93800 33.79300
H  18.59600 -4.19800 31.41200
H  18.79900 -4.13400 24.85100
H  16.14000 1.50300 25.02800
H  17.73900 0.01200 32.76200
H  17.82800 -2.90300 32.99500
H  19.75000 -0.64300 33.04300
H  20.20800 -1.62600 31.75800
H  20.10800 -2.45200 33.29200
H  15.63400 -2.20800 33.47400
H  15.11600 -0.73100 32.88200
H  15.54800 -1.40300 35.53200
H  15.23900 0.11100 35.01900
H  18.69200 -7.40500 29.77800
H  19.32400 -5.95300 30.68100
H  20.36100 -6.70900 29.55300
H  19.85300 -8.55500 26.23400
H  18.94100 -8.31400 27.67500
H  20.72500 -7.72100 27.47300
H  17.52500 -2.68800 23.32600
H  17.86900 0.35700 23.58200
H  20.13700 -1.95400 24.27100
H  19.87800 -0.84000 22.94600
H  19.72400 -2.53700 22.63000
H  15.17700 -0.93100 23.36800
H  16.16900 -1.19000 22.02300
H  14.87700 1.28700 22.58700
H  15.54400 0.84500 21.04900
H  16.68000 1.46200 22.11700
H  13.80900 3.24700 26.16700
H  15.36900 3.80600 25.93000
H  14.55100 4.17500 27.42700
H  14.92000 1.59500 32.15300
H  17.76300 4.95400 33.47900
H  18.49500 3.46400 33.95100
H  17.20500 4.02100 34.83100
Mg 48.45600 13.81500 27.81700
C  46.65500 14.21500 30.66200
C  50.94100 15.91100 29.14800
C  50.42400 13.37400 24.92000
C  45.92700 12.15800 26.40700
N  48.76200 14.89300 29.70000
C  47.83600 14.89100 30.71400
C  48.39100 15.59600 31.90500
C  49.45800 16.48000 31.23600
C  49.80700 15.64400 29.96500
C  49.03300 17.91100 30.94200
C  48.98100 14.56800 32.99800
C  48.37800 14.88100 34.38300
H  49.37300 14.85500 35.56900
N  50.35700 14.61600 27.14400
C  51.20200 15.45500 27.84700
C  52.43600 15.74900 27.11800
C  52.21400 15.11500 25.84200
C  50.97400 14.33700 25.88300
C  53.57300 16.45300 27.68200
C  53.08300 15.08400 24.60500
O  52.76500 14.78100 23.49000
C  54.53500 15.69600 24.62400
N  48.16900 12.99000 25.84900
C  49.14200 12.80200 24.88200
C  48.58500 12.04800 23.69200
C  47.12700 11.73600 24.21700
C  47.09300 12.28300 25.66400
C  48.72000 12.69700 22.31500
C  46.59000 10.26700 23.96500
C  46.91300 9.25800 25.01400
N  46.60100 13.33900 28.30700
C  45.68000 12.61700 27.65900
C  44.56100 12.34800 28.52700
C  44.89600 12.92900 29.73400
C  46.12500 13.58400 29.56600
C  43.25700 11.67200 28.13700
C  44.39000 13.23800 31.09100
O  43.34000 12.98500 31.71200
C  45.60900 13.94900 31.73500
C  45.04800 15.18300 32.27900
O  44.53200 16.12800 31.63400
O  45.16800 15.21700 33.61700
C  44.55900 16.32500 34.42400
H  51.60300 16.59600 29.68300
H  50.95500 13.23500 23.97500
H  45.08800 11.62000 25.95900
H  47.64300 16.33300 32.19800
H  50.39500 16.40000 31.78700
H  48.73200 18.46400 31.83200
H  48.23200 17.82800 30.20700
H  49.76300 18.48700 30.37300
H  50.06600 14.67500 33.00000
H  48.72200 13.52000 32.84700
H  47.68500 14.06500 34.59200
H  47.90900 15.85900 34.49400
H  53.45000 16.91000 28.66400
H  53.88500 17.33200 27.11700
H  54.42100 15.77100 27.73300
H  55.08300 15.20900 25.43100
H  54.39700 16.77500 24.68900
H  55.06700 15.54000 23.68500
H  49.11600 11.10300 23.57300
H  46.61300 12.46200 23.58800
H  49.27300 12.05700 21.62700
H  49.19000 13.63800 22.60100
H  47.75200 12.96100 21.88800
H  47.09600 9.87300 23.08300
H  45.51100 10.32600 23.82200
H  47.29100 9.69900 25.93700
H  47.71500 8.60900 24.66300
H  46.02900 8.67200 25.26600
H  42.36700 12.16700 28.52500
H  43.31100 10.61400 28.39300
H  43.02600 11.85700 27.08800
H  46.10600 13.41900 32.54700
H  43.48700 16.16700 34.54600
H  44.79300 17.30400 34.00700
H  45.03800 16.24900 35.40000

