158

Mg 16.75400 -3.27900 28.47800
C  15.42100 -1.26500 31.06000
C  18.73100 -4.74900 30.76900
C  18.41200 -4.79700 25.99100
C  15.04600 -1.27400 26.13100
N  17.08800 -2.89200 30.72500
C  16.34400 -2.19800 31.58000
C  16.75000 -2.51200 33.00000
C  17.95200 -3.44700 32.80700
C  17.92600 -3.73900 31.28600
C  19.35500 -2.97300 33.32200
C  15.55700 -3.07200 33.71700
C  15.15100 -2.44300 35.09200
H  16.13100 -1.39100 35.57100
N  18.22900 -4.66900 28.39100
C  18.96100 -5.11700 29.44700
C  19.83500 -6.19100 29.00300
C  19.67700 -6.30000 27.62300
C  18.70800 -5.22000 27.26100
C  20.77100 -6.94000 29.98500
C  20.38900 -7.21000 26.70000
O  20.30900 -7.07200 25.47400
C  21.15900 -8.31100 27.20100
N  16.86100 -2.89000 26.34700
C  17.64100 -3.68800 25.58500
C  17.56200 -3.22900 24.09700
C  16.37500 -2.26300 24.11700
C  16.04800 -2.15500 25.60000
C  18.83500 -2.69800 23.38000
C  15.10100 -2.58700 23.28200
C  14.72700 -1.73100 22.05500
N  15.48200 -1.68400 28.58100
C  14.80400 -1.02600 27.51600
C  13.89500 -0.05500 28.06700
C  14.13800 -0.06700 29.44900
C  15.06100 -1.11600 29.73500
C  12.96000 0.88200 27.30600
C  13.74200 0.49300 30.69900
O  12.95700 1.39000 30.93900
C  14.60700 -0.17800 31.78700
C  15.39200 0.85200 32.54400
O  16.59200 1.02900 32.54200
O  14.55700 1.48400 33.34100
C  15.13100 2.52100 34.18400
H  19.33600 -5.32000 31.47600
H  18.91600 -5.32700 25.18000
H  14.26000 -0.79100 25.54700
H  17.20700 -1.63400 33.45700
H  17.73700 -4.45900 33.15100
H  20.07000 -3.03700 32.50200
H  19.74000 -3.61200 34.11700
H  19.39600 -1.99200 33.79500
H  15.72400 -4.14400 33.82900
H  14.70300 -2.85500 33.07500
H  15.05500 -3.23200 35.83800
H  14.19300 -1.96200 34.89300
H  20.97400 -7.95400 29.64100
H  20.42400 -7.04300 31.01300
H  21.71900 -6.40100 30.01600
H  20.37200 -8.84100 27.73800
H  21.96500 -7.85100 27.77200
H  21.58900 -8.97900 26.45300
H  17.23500 -4.08100 23.50100
H  16.75700 -1.27700 23.85300
H  19.69600 -2.81200 24.03800
H  18.78400 -1.63000 23.16900
H  19.07600 -3.21900 22.45300
H  14.22300 -2.58500 23.92800
H  15.23100 -3.60200 22.90800
H  13.72600 -1.31100 22.15700
H  14.64300 -2.36900 21.17500
H  15.37000 -0.87400 21.85600
H  12.34300 0.20600 26.71500
H  13.46200 1.47200 26.53900
H  12.35700 1.46100 28.00500
H  13.92800 -0.59800 32.53000
H  15.32100 3.27600 33.42100
H  16.07900 2.28400 34.66600
H  14.43200 2.74800 34.98900
Mg 1.60500 43.36600 26.92000
C  3.34400 43.34000 29.98400
C  -1.04900 41.95600 28.67100
C  0.13400 42.87100 23.93500
C  4.49700 44.52500 25.49600
N  1.22800 42.77600 29.12100
C  2.02900 43.03100 30.14800
C  1.28600 42.76100 31.50700
C  -0.10300 41.97600 30.99500
C  -0.00700 42.30500 29.49500
C  -0.01000 40.55400 31.36200
C  1.06100 43.90800 32.50600
C  1.60500 43.64900 34.00700
H  0.60300 43.26400 35.07400
N  -0.23100 42.65200 26.41400
C  -1.19800 42.16600 27.30900
C  -2.45900 41.82300 26.54300
C  -2.15900 42.20700 25.15600
C  -0.71900 42.64600 25.15200
C  -3.72600 41.18400 27.09500
C  -3.06900 42.10000 23.92300
O  -2.61800 42.54000 22.86200
C  -4.57300 41.71400 24.02400
N  2.24800 43.55700 25.00100
C  1.47300 43.32800 23.87500
C  2.29300 43.63500 22.55100
C  3.48500 44.43300 23.10000
C  3.40000 44.24600 24.60900
C  2.58800 42.36300 21.66600
C  3.52100 45.99200 22.63200
C  4.54800 46.28400 21.46500
N  3.56200 43.90100 27.51600
C  4.59400 44.28500 26.82900
C  5.74700 44.28600 27.61100
C  5.35000 43.90500 28.86300
C  3.99700 43.73700 28.77300
C  7.18200 44.63700 27.14600
C  5.77300 43.66000 30.18200
O  6.90000 43.79700 30.61300
C  4.46100 43.30500 31.04100
C  4.69100 42.06200 31.85000
O  4.74900 40.89700 31.40800
O  4.85600 42.42800 33.20200
C  4.93200 41.37900 34.21400
H  -1.96300 41.68800 29.20500
H  -0.42300 42.66800 23.01800
H  5.38700 44.93400 25.01200
H  1.99900 42.13800 32.04700
H  -0.92100 42.49500 31.49400
H  0.56700 40.12300 30.54300
H  -1.03100 40.18100 31.28200
H  0.36600 40.38600 32.37100
H  -0.02300 43.94400 32.60800
H  1.39400 44.81800 32.00600
H  2.17000 44.51700 34.34800
H  2.30000 42.81000 33.99500
H  -3.76700 41.20000 28.18400
H  -3.81500 40.14500 26.77900
H  -4.55700 41.78800 26.73000
H  -4.69400 40.68300 24.35500
H  -5.01300 41.78900 23.03000
H  -4.98900 42.46000 24.70200
H  1.72100 44.35800 21.96800
H  4.37300 44.01900 22.62200
H  3.66400 42.23900 21.54400
H  2.22200 42.31600 20.64000
H  2.14600 41.54300 22.23300
H  3.83400 46.47900 23.55600
H  2.50200 46.29700 22.39300
H  5.09900 47.22400 21.46900
H  4.08100 46.18600 20.48500
H  5.28200 45.47800 21.46400
H  7.88200 44.42100 27.95200
H  7.15100 45.68600 26.85200
H  7.57500 44.10300 26.28100
H  4.34200 44.08700 31.79100
H  4.76100 40.41900 33.72600
H  4.24000 41.69500 34.99400
H  5.92300 41.32000 34.66300

