158

Mg -1.51000 16.87200 26.05400
C  -2.15800 14.36700 28.53900
C  -2.76800 19.11100 28.34500
C  -1.58300 19.08500 23.72100
C  -1.35600 14.24400 23.77300
N  -2.12600 16.70600 28.26100
C  -2.15800 15.64400 29.07400
C  -2.45100 16.03000 30.52300
C  -2.91600 17.52900 30.30100
C  -2.58800 17.84900 28.89300
C  -4.34700 17.86900 30.81300
C  -1.30900 15.82400 31.59700
C  -1.35700 16.77200 32.84500
H  -1.26000 16.18700 34.23700
N  -2.10200 18.92700 26.05200
C  -2.55100 19.66600 27.06400
C  -2.68100 20.99200 26.65900
C  -2.33600 21.02000 25.24200
C  -1.98200 19.63400 24.94400
C  -2.96900 22.10200 27.65500
C  -2.23900 22.22100 24.27900
O  -1.69500 22.22500 23.18800
C  -2.76100 23.52300 24.70800
N  -1.41300 16.67000 23.99500
C  -1.34400 17.79500 23.26000
C  -0.99600 17.42300 21.88400
C  -0.72800 15.85100 21.91100
C  -1.16800 15.56100 23.30900
C  -2.17900 17.72000 20.80500
C  0.74000 15.40700 21.62300
C  1.79700 15.34400 22.76700
N  -1.74000 14.74600 26.10000
C  -1.58100 13.82300 25.05000
C  -1.88700 12.50100 25.44500
C  -2.04600 12.64200 26.84600
C  -1.89500 13.99300 27.17800
C  -2.07400 11.31000 24.61200
C  -2.47100 11.96200 28.01000
O  -2.71500 10.74300 28.20100
C  -2.50200 12.97100 29.20200
C  -1.61000 12.46400 30.28400
O  -0.41600 12.76300 30.39000
O  -2.24500 11.67700 31.16100
C  -1.49900 11.41600 32.43000
H  -3.09700 19.78400 29.14000
H  -1.61000 19.88800 22.98100
H  -1.19700 13.45100 23.03900
H  -3.24700 15.44400 30.98200
H  -2.15500 18.19700 30.70500
H  -4.94700 18.48000 30.13900
H  -4.40500 18.38100 31.77300
H  -4.81700 16.89200 30.92500
H  -0.32800 15.98700 31.15000
H  -1.35900 14.79600 31.95500
H  -2.30300 17.31100 32.90300
H  -0.57700 17.52300 32.71600
H  -3.71400 22.74700 27.18700
H  -2.12200 22.73100 27.92700
H  -3.43600 21.72900 28.56600
H  -3.78000 23.19900 24.92000
H  -2.74700 24.16600 23.82900
H  -2.31900 24.06300 25.54600
H  -0.11000 17.99300 21.60400
H  -1.29000 15.24300 21.20200
H  -2.52800 16.76500 20.41100
H  -1.75600 18.32300 20.00200
H  -2.94500 18.28200 21.34000
H  1.22500 16.02500 20.86800
H  0.71900 14.37400 21.27500
H  2.24900 14.35200 22.74400
H  1.24500 15.56300 23.68100
H  2.58900 16.06100 22.55600
H  -2.33900 11.61100 23.59900
H  -2.84000 10.75000 25.14800
H  -1.13300 10.76200 24.65500
H  -3.49600 12.92900 29.64600
H  -0.45100 11.14600 32.30100
H  -2.05800 10.63000 32.93700
H  -1.56300 12.26700 33.10800
Mg 16.93900 52.21500 26.33500
C  18.53500 50.72300 28.99500
C  14.41100 53.04900 28.34600
C  15.19900 53.24200 23.56600
C  19.40700 51.03800 24.20700
N  16.49400 51.81000 28.37200
C  17.38200 51.40100 29.33100
C  16.85900 51.70400 30.77000
C  15.40100 52.03600 30.43300
C  15.41200 52.32400 28.96000
C  14.49000 50.78700 30.83800
C  17.69200 52.83600 31.36200
C  17.68600 53.01000 32.95000
H  16.72400 52.08400 33.76400
N  15.11200 53.08400 25.99000
C  14.20400 53.41000 26.96400
C  13.04200 54.09700 26.46700
C  13.32400 54.18200 25.04600
C  14.61800 53.37000 24.84100
C  11.84700 54.60600 27.30500
C  12.58300 54.90300 23.94000
O  12.76500 54.77800 22.75000
C  11.36100 55.61000 24.25700
N  17.17500 51.89900 24.08500
C  16.41500 52.58100 23.22900
C  17.07900 52.73700 21.82400
C  18.51600 52.26900 22.16100
C  18.38100 51.73300 23.56700
C  16.35000 51.73000 20.75100
C  19.52200 53.43300 22.00500
C  20.66700 53.09500 21.06100
N  18.64000 51.04700 26.46100
C  19.59300 50.67200 25.56500
C  20.67800 49.96900 26.26800
C  20.29200 49.94200 27.59500
C  18.96200 50.50200 27.66800
C  21.83600 49.26900 25.54800
C  20.72700 49.49800 28.92200
O  21.66500 48.84900 29.27800
C  19.56400 50.01500 29.92000
C  19.09400 48.87900 30.83100
O  18.35200 48.01600 30.40700
O  19.50500 49.11000 32.14600
C  18.92400 48.25300 33.20400
H  13.56600 53.32300 28.98100
H  14.62700 53.58100 22.70000
H  20.24400 50.71200 23.58600
H  16.80500 50.83500 31.42600
H  15.04900 52.85400 31.06100
H  13.77500 50.68600 30.02200
H  13.78300 50.87300 31.66300
H  15.08200 49.88000 30.71000
H  17.39300 53.73600 30.82600
H  18.69100 52.56900 31.01500
H  17.30000 54.01900 33.09400
H  18.72900 52.80200 33.19200
H  12.09100 55.61000 27.65200
H  11.75300 53.94800 28.16900
H  10.89500 54.58900 26.77400
H  11.62100 56.50000 24.83100
H  10.73400 54.85200 24.72600
H  10.82400 55.93800 23.36700
H  17.05400 53.78000 21.51000
H  18.81500 51.47600 21.47600
H  15.32500 51.54800 21.07200
H  16.82400 50.74900 20.70300
H  16.41300 52.14000 19.74300
H  19.86900 53.71800 22.99700
H  19.00400 54.30600 21.60800
H  21.19500 54.02400 20.84600
H  20.19400 52.55200 20.24300
H  21.44300 52.47800 21.51300
H  22.55800 48.91200 26.28200
H  22.30900 49.98800 24.87800
H  21.32000 48.42500 25.08900
H  20.10000 50.76400 30.50300
H  17.86500 48.11600 32.98500
H  18.93900 48.73400 34.18100
H  19.49200 47.33500 33.05200

