158

Mg 47.47200 24.88700 27.85100
C  47.89100 27.31400 30.34900
C  46.87100 22.59100 30.29200
C  46.81700 22.74300 25.43200
C  48.11500 27.54500 25.44400
N  47.13000 25.02200 30.02500
C  47.40900 26.08600 30.81600
C  47.07600 25.74800 32.30200
C  46.88000 24.17900 32.28000
C  47.03900 23.87100 30.71900
C  47.83100 23.20900 33.11200
C  45.95400 26.67600 32.92400
C  45.28500 26.26200 34.18500
H  45.39900 27.18300 35.40100
N  46.97400 22.87500 27.88400
C  46.83200 22.11600 28.99300
C  46.49000 20.72400 28.48400
C  46.36100 20.76000 27.03500
C  46.66500 22.17600 26.70400
C  46.09300 19.54800 29.41800
C  45.90500 19.61800 26.09700
O  45.95100 19.77200 24.89200
C  45.63800 18.13300 26.65800
N  47.44600 25.09200 25.74900
C  47.20200 24.00900 24.98300
C  47.32700 24.42100 23.45100
C  47.55200 25.99500 23.49600
C  47.69900 26.27000 24.99500
C  48.43200 23.66400 22.70400
C  46.40800 26.87700 22.89100
C  46.20200 26.61300 21.42200
N  48.07100 26.93900 27.86900
C  48.37700 27.83600 26.80100
C  48.57900 29.18600 27.36400
C  48.49900 28.96800 28.80300
C  48.18100 27.62100 29.00500
C  48.92800 30.41400 26.51000
C  48.51400 29.63700 30.05300
O  48.82600 30.79100 30.32600
C  48.08300 28.65300 31.14300
C  48.94700 28.62500 32.33100
O  50.06900 28.17100 32.38100
O  48.24800 29.16700 33.36100
C  48.96900 29.03900 34.63100
H  46.67800 21.81300 31.03300
H  46.47000 21.99000 24.72100
H  48.17700 28.34200 24.70000
H  47.95800 25.85700 32.93500
H  45.83300 23.91800 32.43200
H  48.40500 22.55100 32.45900
H  47.14500 22.67100 33.76600
H  48.39800 23.83200 33.80400
H  45.10700 26.80800 32.25100
H  46.46600 27.60000 33.19200
H  45.69500 25.26700 34.35500
H  44.22900 26.15800 33.93900
H  46.84500 18.76200 29.34900
H  45.11100 19.14900 29.16700
H  46.06300 19.80400 30.47700
H  44.57500 18.12800 26.90000
H  46.31600 17.85000 27.46300
H  45.89400 17.54800 25.77400
H  46.40100 24.27200 22.89600
H  48.47500 26.36500 23.04900
H  49.10800 24.37000 22.22000
H  48.01700 23.09500 21.87200
H  49.02000 23.02900 23.36700
H  46.65000 27.91600 23.11600
H  45.38400 26.79700 23.25500
H  45.37800 25.93400 21.20700
H  47.14500 26.22500 21.03600
H  45.99100 27.55500 20.91500
H  47.99300 30.95100 26.34400
H  49.17700 30.19800 25.47100
H  49.59200 31.06500 27.07900
H  47.15200 29.09300 31.50200
H  48.41200 29.74200 35.25100
H  49.89100 29.61400 34.53500
H  49.04700 28.09500 35.17000
Mg 30.08400 58.17500 39.25000
C  27.40200 55.91900 38.14800
C  32.21800 55.59700 38.56200
C  32.56100 60.42700 38.97200
C  27.76100 60.81600 38.91900
N  29.77300 55.97600 38.42600
C  28.63900 55.28600 38.20300
C  29.00400 53.77200 38.09800
C  30.51700 53.71300 38.24400
C  30.85800 55.21000 38.47500
C  30.91700 52.76900 39.42900
C  28.48000 53.17900 36.69200
C  29.04600 53.92700 35.42700
H  28.13100 54.82100 34.57200
N  32.12900 58.01200 38.93500
C  32.78300 56.91900 38.64900
C  34.19300 57.20000 38.53000
C  34.35100 58.59700 38.88200
C  32.99800 59.06500 38.91000
C  35.31200 56.19100 38.25400
C  35.61500 59.24900 39.19400
O  36.66300 58.59600 39.23800
C  35.76900 60.70000 39.44100
N  30.20500 60.30900 38.82200
C  31.34400 60.96400 39.05000
C  31.11700 62.44500 39.23100
C  29.55000 62.57400 39.28900
C  29.08900 61.16800 38.96200
C  31.90300 63.26700 40.33400
C  29.03300 63.70700 38.35100
C  28.95400 65.11000 39.13700
N  28.06100 58.34100 38.77600
C  27.23100 59.47300 38.80300
C  25.82500 59.08300 38.72400
C  25.91400 57.75600 38.50400
C  27.24700 57.34600 38.49000
C  24.70100 60.04500 38.81900
C  25.10100 56.52700 38.25700
O  23.88800 56.43900 38.14300
C  26.00800 55.29500 38.04200
C  25.70300 54.16200 39.00800
O  26.09400 54.08900 40.14100
O  24.80600 53.28500 38.49400
C  24.34900 52.22900 39.41000
H  32.78300 54.71200 38.26200
H  33.38200 61.14700 39.00800
H  27.06100 61.65300 38.86400
H  28.43900 53.20900 38.84100
H  30.88500 53.37500 37.27500
H  29.98900 52.30000 39.75600
H  31.54900 53.25100 40.17500
H  31.55000 51.99300 38.99800
H  27.39200 53.23500 36.66700
H  28.78800 52.13400 36.65400
H  29.52100 53.19100 34.77900
H  29.83800 54.59000 35.77500
H  34.79600 55.23700 38.14800
H  35.99500 55.99900 39.08100
H  35.80900 56.45700 37.32100
H  35.26400 61.00000 40.35900
H  35.43700 61.29800 38.59200
H  36.80500 60.97000 39.64500
H  31.43600 62.87600 38.28200
H  29.29700 62.74900 40.33400
H  31.13200 63.71900 40.95600
H  32.55100 63.95500 39.79100
H  32.45100 62.60500 41.00500
H  28.03700 63.48100 37.97000
H  29.80200 63.76500 37.58100
H  29.94700 65.53000 39.29700
H  28.53100 64.85200 40.10700
H  28.42400 65.89800 38.60200
H  23.83700 59.57000 39.28300
H  24.26800 60.34100 37.86400
H  25.06700 60.88200 39.41300
H  25.73600 54.93900 37.04800
H  24.24000 52.59200 40.43200
H  25.15100 51.50000 39.53000
H  23.50700 51.65200 39.02600

