158

Mg 29.84700 57.67400 40.25400
C  27.11300 55.65300 39.15800
C  32.01600 55.34700 39.48100
C  32.32400 60.04900 40.59300
C  27.49500 60.04800 41.27800
N  29.59900 55.86400 39.28600
C  28.40900 55.13500 39.08800
C  28.70000 53.65700 38.65300
C  30.27000 53.64200 38.72400
C  30.67100 55.06800 39.22500
C  30.81300 52.49500 39.71100
C  28.01100 53.13100 37.42800
C  27.61100 54.07700 36.24100
H  28.38300 54.02100 34.97500
N  31.96400 57.66300 40.00300
C  32.66500 56.55500 39.77700
C  34.09300 56.78300 39.74100
C  34.25200 58.11000 40.18800
C  32.83000 58.72400 40.27400
C  35.08600 55.72100 39.44500
C  35.60400 58.79600 40.46900
O  36.64300 58.09700 40.41400
C  35.66000 60.15000 40.79600
N  29.80900 59.76700 40.80600
C  31.01400 60.50100 40.86200
C  30.69100 61.91600 41.30900
C  29.16100 61.86000 41.54900
C  28.75200 60.41900 41.28700
C  31.43200 62.38200 42.59500
C  28.44000 62.91200 40.71500
C  27.28800 63.73700 41.42500
N  27.66700 57.87700 40.18700
C  26.88700 58.92700 40.64800
C  25.56300 58.66300 40.39100
C  25.55300 57.34400 39.84100
C  26.87400 56.93000 39.74300
C  24.38200 59.51700 40.72700
C  24.71300 56.22600 39.34600
O  23.48900 56.20700 39.28000
C  25.66600 55.10800 38.87700
C  25.25400 53.78600 39.63500
O  25.70800 53.39500 40.70000
O  24.22400 53.18900 38.93500
C  23.82200 51.92500 39.52400
H  32.69500 54.50600 39.32900
H  33.11900 60.76700 40.80400
H  26.79500 60.74000 41.75200
H  28.33600 52.97800 39.42400
H  30.84500 53.34500 37.84700
H  30.94200 52.79400 40.75100
H  31.78100 52.22400 39.29000
H  30.15700 51.63100 39.81600
H  27.15100 52.54900 37.76000
H  28.73100 52.43200 37.00400
H  27.76100 55.09700 36.59300
H  26.54100 54.06500 36.03500
H  36.10400 56.09700 39.33700
H  34.97900 55.12500 38.53900
H  35.02300 54.97200 40.23400
H  36.74000 60.29200 40.76700
H  35.11500 60.30400 41.72800
H  35.21500 60.83400 40.07300
H  30.97600 62.56800 40.48300
H  28.91200 62.06200 42.59100
H  32.25900 61.69700 42.78300
H  30.76300 62.43700 43.45400
H  31.88700 63.36100 42.44300
H  27.85100 62.35700 39.98400
H  29.15900 63.58000 40.24100
H  27.42900 63.55900 42.49100
H  26.24900 63.48500 41.21400
H  27.46800 64.78600 41.19300
H  23.60400 58.80500 40.99900
H  24.04100 60.14000 39.90000
H  24.60000 59.98700 41.68600
H  25.58700 55.00900 37.79400
H  24.70700 51.28900 39.50600
H  23.08600 51.39000 38.92500
H  23.56200 52.09500 40.56900
Mg -1.45300 33.81900 26.87800
C  -3.43800 32.27800 29.34100
C  -0.05600 35.83200 29.21000
C  0.38500 35.26300 24.45000
C  -3.19300 31.99500 24.33600
N  -1.98300 34.16400 29.02100
C  -2.67900 33.30800 29.85200
C  -2.37200 33.63600 31.31500
C  -1.43000 34.90700 31.29800
C  -1.12200 34.98300 29.72000
C  -2.01000 36.23600 31.86100
C  -1.72500 32.37200 32.07300
C  -2.36700 31.96100 33.43200
H  -1.44500 31.91700 34.71800
N  -0.10000 35.42000 26.81800
C  0.41800 36.05900 27.91500
C  1.57300 36.87500 27.43700
C  1.65500 36.79800 26.04600
C  0.62300 35.82300 25.70800
C  2.40200 37.70900 28.36500
C  2.59200 37.47300 25.10100
O  2.45600 37.31700 23.93500
C  3.70200 38.41500 25.42300
N  -1.56800 33.84200 24.64900
C  -0.59900 34.48600 23.88500
C  -0.79800 34.12700 22.37700
C  -1.89100 33.02400 22.42800
C  -2.24700 32.97100 23.90100
C  -1.19300 35.49100 21.54800
C  -1.35600 31.67300 21.89000
C  -0.95400 30.62300 22.93200
N  -3.07800 32.55200 26.79700
C  -3.58300 31.90300 25.71500
C  -4.61300 31.06800 26.20200
C  -4.56400 31.06300 27.58400
C  -3.60800 32.00700 27.90600
C  -5.56400 30.20600 25.35600
C  -5.15700 30.54800 28.82200
O  -6.07800 29.75500 29.01400
C  -4.34000 31.23100 30.02400
C  -5.38900 31.85500 30.87800
O  -5.94200 32.90900 30.65000
O  -5.64300 31.01200 31.88300
C  -6.54800 31.60600 32.84700
H  0.31900 36.34200 30.09900
H  1.07100 35.59400 23.66700
H  -3.62500 31.26800 23.64500
H  -3.35500 33.89500 31.70700
H  -0.56500 34.62100 31.89700
H  -1.91700 36.97100 31.06200
H  -1.27800 36.50000 32.62400
H  -3.01200 36.22000 32.28900
H  -0.66400 32.53700 32.26200
H  -1.86600 31.58900 31.32900
H  -2.82600 30.99100 33.23800
H  -3.19500 32.61200 33.71400
H  2.49800 37.01500 29.20000
H  1.81300 38.60300 28.56900
H  3.40500 37.86200 27.96500
H  3.38000 39.28300 25.99800
H  4.14100 38.69800 24.46600
H  4.45900 37.86800 25.98600
H  0.10800 33.69800 21.95000
H  -2.82400 33.30300 21.93900
H  -0.60800 35.67900 20.64800
H  -1.07000 36.28400 22.28500
H  -2.18600 35.17100 21.23000
H  -0.54400 31.77300 21.17000
H  -2.19500 31.18700 21.39200
H  -0.77300 31.13500 23.87700
H  0.02100 30.27700 22.58800
H  -1.74100 29.87200 23.00700
H  -4.91900 29.35500 25.13700
H  -5.86900 30.73700 24.45400
H  -6.40900 29.77800 25.89400
H  -3.81800 30.59900 30.74200
H  -6.04200 32.48800 33.24100
H  -6.83200 30.93000 33.65300
H  -7.45400 31.92400 32.33200

