158

Mg 9.49300 3.51300 27.96400
C  10.61400 1.99100 31.06800
C  7.83700 5.72700 30.03300
C  7.94500 4.56800 25.25300
C  10.90800 0.82000 26.20700
N  9.18800 3.73100 30.41800
C  9.92700 3.15900 31.43100
C  9.61000 3.80500 32.82700
C  8.61100 4.91900 32.39500
C  8.46300 4.75900 30.83200
C  7.22300 5.03100 33.03500
C  10.91700 4.36300 33.55300
C  11.33500 3.51900 34.77200
H  11.56100 4.48000 35.95400
N  8.15600 4.95600 27.66400
C  7.61500 5.82400 28.58600
C  6.81000 6.81300 27.87100
C  6.79100 6.47200 26.49800
C  7.69400 5.39000 26.41400
C  5.91700 7.74800 28.58300
C  6.11600 7.19100 25.29100
O  6.12000 6.83900 24.15500
C  5.42100 8.47500 25.68700
N  9.41200 2.77400 26.03000
C  8.69100 3.39300 25.07800
C  8.78700 2.57900 23.71400
C  9.78200 1.51700 24.04600
C  10.03000 1.66300 25.56100
C  7.43400 2.14000 23.10300
C  11.05700 1.40100 23.16600
C  10.94700 0.85100 21.73300
N  10.59800 1.81500 28.46700
C  11.17800 0.84500 27.60800
C  11.88500 -0.13200 28.43700
C  11.68500 0.23800 29.81300
C  10.87300 1.40500 29.79800
C  12.59300 -1.42300 27.99700
C  12.01800 -0.04000 31.19800
O  12.72100 -0.89700 31.64600
C  11.33200 1.09500 32.06700
C  10.46400 0.55600 33.13700
O  9.24900 0.40600 33.06500
O  11.23000 0.27100 34.21500
C  10.53000 -0.27400 35.30700
H  7.26300 6.43200 30.63700
H  7.57400 4.92700 24.29000
H  11.40200 0.02400 25.64600
H  8.98900 3.30600 33.57100
H  9.08200 5.90100 32.41900
H  7.12900 4.74200 34.08200
H  6.52000 4.49000 32.40000
H  6.80900 6.02900 32.89300
H  10.87800 5.41500 33.83200
H  11.68100 4.22100 32.78800
H  12.22000 2.92500 34.54700
H  10.54700 2.82200 35.06000
H  4.91200 7.33700 28.48100
H  5.85300 8.76500 28.19400
H  6.02600 7.89100 29.65800
H  4.61500 8.23600 26.38100
H  4.80200 8.76800 24.83900
H  6.09600 9.27600 25.99100
H  9.22200 3.29000 23.01100
H  9.30400 0.53800 24.05300
H  6.78300 1.58300 23.77700
H  7.49900 1.59200 22.16300
H  6.90400 3.07600 22.93200
H  11.77400 0.75700 23.67600
H  11.42800 2.42500 23.13400
H  9.88200 0.84200 21.50200
H  11.31300 -0.17400 21.66800
H  11.58100 1.48300 21.11100
H  12.87600 -1.31200 26.95000
H  12.02500 -2.33100 28.19500
H  13.46700 -1.47400 28.64700
H  12.20300 1.64300 32.42500
H  9.69400 0.39800 35.50000
H  11.22300 -0.14300 36.13700
H  10.26500 -1.31800 35.13500
Mg 36.03600 49.86300 25.47800
C  36.06500 48.02100 28.51100
C  35.68800 52.73400 27.24600
C  35.87700 51.27400 22.54200
C  36.41800 46.63500 23.92900
N  35.72500 50.27300 27.61200
C  35.86400 49.42000 28.68200
C  35.83300 50.22500 30.04000
C  35.60800 51.65600 29.57600
C  35.69900 51.59200 28.05400
C  34.41000 52.39200 30.07800
C  37.05200 50.01700 30.92500
C  36.75100 49.81900 32.44700
H  35.32200 49.81200 32.96300
N  35.80100 51.75300 24.98800
C  35.80800 52.80000 25.84200
C  35.78700 53.96300 25.11300
C  35.86100 53.66900 23.70300
C  35.84600 52.14000 23.66000
C  35.72100 55.32200 25.64300
C  35.91700 54.64100 22.41800
O  35.86700 54.11700 21.30700
C  35.94500 56.26600 22.47900
N  36.03300 49.07500 23.49900
C  36.06600 49.89500 22.42500
C  36.26200 49.15100 21.10000
C  36.64300 47.65100 21.52900
C  36.41100 47.79400 23.14000
C  34.97700 49.26200 20.11000
C  38.09600 47.26600 21.21400
C  38.22900 45.75500 21.07700
N  36.19400 47.86300 26.03100
C  36.29700 46.68300 25.26900
C  36.32000 45.46000 26.06600
C  36.24700 45.97000 27.37600
C  36.08800 47.40500 27.30700
C  36.46300 44.00400 25.58800
C  36.42500 45.57100 28.74000
O  36.63000 44.46900 29.24500
C  36.23400 46.85800 29.60400
C  34.99000 46.59800 30.38100
O  33.86800 46.79700 29.93900
O  35.26100 46.04600 31.59800
C  34.03800 45.68800 32.36500
H  35.64000 53.67100 27.80600
H  36.02100 51.73000 21.56000
H  36.57400 45.70300 23.38300
H  34.86000 49.85100 30.35600
H  36.45000 52.30500 29.81800
H  33.94500 53.04900 29.34300
H  34.72600 53.04400 30.89300
H  33.60500 51.79200 30.50500
H  37.71800 50.87800 30.86100
H  37.60700 49.16600 30.53000
H  37.33400 50.63100 32.88100
H  37.12600 48.83300 32.72300
H  36.29400 56.01800 25.02900
H  36.13800 55.47400 26.63800
H  34.65400 55.52600 25.55800
H  36.83500 56.59500 23.01600
H  35.14300 56.54900 23.16100
H  35.87200 56.67600 21.47200
H  37.13300 49.70300 20.74700
H  35.99900 46.87400 21.11900
H  35.24000 49.90300 19.26800
H  34.19600 49.77100 20.67500
H  34.66000 48.28800 19.73700
H  38.65000 47.53700 22.11300
H  38.46900 47.77000 20.32300
H  37.33500 45.21700 20.76100
H  38.61700 45.31400 21.99500
H  38.89400 45.65500 20.22000
H  36.41700 43.30700 26.42500
H  37.43500 43.81700 25.13300
H  35.62800 43.81400 24.91300
H  37.05200 46.97600 30.31400
H  33.90700 44.60700 32.33500
H  33.19600 46.27200 31.99400
H  34.15400 46.09000 33.37100

