158

Mg 46.64200 25.52700 28.62000
C  47.90500 27.50900 31.18900
C  45.75000 23.09000 31.21700
C  45.84000 23.28700 26.29800
C  48.13400 27.54700 26.40000
N  46.76600 25.35300 30.90000
C  47.23800 26.38000 31.68700
C  47.01000 26.05500 33.15600
C  46.45400 24.58600 33.18300
C  46.30000 24.30600 31.67600
C  47.24900 23.46600 33.97200
C  46.04800 27.17600 33.79100
C  46.50000 27.84300 35.11800
H  45.42900 28.02900 36.19700
N  45.76100 23.49600 28.73900
C  45.54100 22.66100 29.85900
C  44.82100 21.55200 29.36300
C  44.62700 21.59600 27.93700
C  45.46600 22.79100 27.59900
C  44.29600 20.49300 30.42700
C  43.96400 20.72800 26.94500
O  43.94800 20.96100 25.76100
C  43.18700 19.53400 27.49400
N  46.92000 25.45100 26.57500
C  46.47300 24.43800 25.78000
C  46.75400 24.71900 24.31800
C  47.34900 26.14600 24.33000
C  47.55300 26.43100 25.84300
C  47.64200 23.67000 23.60900
C  46.38600 27.15500 23.68400
C  46.99700 28.33600 23.00400
N  47.83100 27.20800 28.74600
C  48.36000 27.93000 27.70200
C  48.93400 29.13700 28.17500
C  48.83600 29.08700 29.56700
C  48.10300 27.83900 29.88300
C  49.55400 30.18600 27.35700
C  49.12200 29.77800 30.88200
O  49.77200 30.80700 31.12400
C  48.51200 28.70200 31.92300
C  49.45100 28.28400 32.99200
O  50.28000 27.41800 32.81200
O  49.45700 29.05700 34.13900
C  50.48500 29.03700 35.23200
H  45.61300 22.33400 31.99300
H  45.61100 22.73600 25.38300
H  48.47600 28.15700 25.56200
H  48.02100 26.11500 33.55900
H  45.43000 24.58200 33.55700
H  47.81500 22.87500 33.25100
H  46.64600 22.75600 34.53700
H  48.01400 23.86400 34.63900
H  45.17200 26.59000 34.06600
H  45.64500 27.89800 33.08100
H  46.88900 28.83000 34.86500
H  47.28900 27.21700 35.53300
H  44.75200 20.52300 31.41700
H  44.25400 19.46700 30.06200
H  43.26200 20.71100 30.69400
H  42.33500 19.90700 28.06300
H  43.79300 18.84100 28.07800
H  42.80900 19.00300 26.62000
H  45.81600 24.75300 23.76400
H  48.32100 26.16500 23.83700
H  47.44600 22.72900 24.12300
H  48.70300 23.88900 23.72600
H  47.33200 23.63900 22.56500
H  45.84700 27.70200 24.45800
H  45.60400 26.69600 23.08000
H  46.39900 28.40900 22.09500
H  48.07200 28.34200 22.82600
H  46.93900 29.26900 23.56400
H  49.32700 31.13900 27.83500
H  49.22300 30.24600 26.32100
H  50.63600 30.05700 27.31400
H  47.70300 29.29500 32.35000
H  50.20000 28.42900 36.09100
H  50.53000 30.08800 35.51500
H  51.46500 28.76600 34.84000
Mg 42.91500 42.21100 25.75800
C  42.07500 44.58200 28.36800
C  43.76500 40.02300 28.29100
C  43.94000 40.12600 23.32900
C  42.31300 44.63200 23.45100
N  42.87400 42.29400 28.13000
C  42.41600 43.32500 28.90600
C  42.49200 42.90700 30.41700
C  43.13800 41.50700 30.34300
C  43.25100 41.20800 28.81200
C  44.47100 41.29000 31.08600
C  41.11400 42.96700 30.99600
C  40.85500 42.27400 32.36100
H  41.25800 43.09200 33.59700
N  43.76500 40.33200 25.78600
C  44.01200 39.57900 26.97700
C  44.46800 38.23900 26.55400
C  44.56700 38.24800 25.08200
C  44.08900 39.59800 24.67600
C  45.00100 37.15700 27.38400
C  44.93700 37.11600 24.13500
O  45.19600 37.31800 23.01800
C  45.16800 35.73100 24.63600
N  43.07900 42.45300 23.71000
C  43.43000 41.35500 22.91000
C  43.28800 41.73300 21.45100
C  42.52200 42.98700 21.51300
C  42.56100 43.38600 23.00200
C  44.66600 41.86000 20.70700
C  41.05600 42.88200 20.95600
C  40.00900 42.34200 22.06000
N  42.50100 44.29100 25.84500
C  42.21300 45.06600 24.79500
C  41.84000 46.37300 25.27100
C  41.70300 46.18900 26.62900
C  42.06900 44.90700 26.95900
C  41.51500 47.45800 24.35200
C  41.29900 46.80400 27.83900
O  40.88800 47.93700 28.06700
C  41.54100 45.80200 29.09500
C  42.58100 46.41200 29.95600
O  43.64400 46.82800 29.49900
O  42.10400 46.62500 31.23200
C  42.95500 47.51700 32.03600
H  44.12400 39.31900 29.04500
H  44.27300 39.46500 22.52600
H  41.94800 45.41500 22.78300
H  43.01800 43.65600 31.00900
H  42.42300 40.80100 30.76600
H  45.23600 41.30800 30.31000
H  44.36100 40.31900 31.57000
H  44.66800 42.17300 31.69300
H  40.41100 42.45300 30.34000
H  40.69600 43.94500 31.23400
H  41.34100 41.30300 32.45700
H  39.78400 42.08800 32.44900
H  45.25100 37.58300 28.35600
H  45.99900 36.81300 27.11200
H  44.41600 36.24500 27.49700
H  44.99200 34.97100 23.87500
H  44.31500 35.50400 25.27600
H  46.16200 35.62700 25.07100
H  42.71500 41.02800 20.84900
H  42.92100 43.76500 20.86100
H  45.36600 41.17300 21.18300
H  45.09500 42.85600 20.81400
H  44.59700 41.65900 19.63800
H  41.01600 42.19300 20.11200
H  40.78300 43.86600 20.57500
H  40.55800 41.66000 22.70900
H  39.31400 41.62800 21.61600
H  39.38600 43.06300 22.58800
H  42.41200 47.80100 23.83600
H  41.17500 48.33600 24.90000
H  40.74800 47.24800 23.60700
H  40.57800 45.58700 29.55700
H  43.47300 46.84500 32.72100
H  42.34700 48.22500 32.60000
H  43.75800 47.94000 31.43300

