158

Mg 47.77600 15.78700 28.18700
C  45.91200 15.45000 31.20200
C  49.73200 18.16600 29.72300
C  49.18700 16.61500 25.19400
C  45.23100 13.91900 26.50000
N  47.80900 16.72500 30.22900
C  47.04000 16.30800 31.27300
C  47.58700 17.04900 32.48500
C  48.63600 18.06800 31.96600
C  48.83200 17.52800 30.56800
C  48.23000 19.61100 31.89100
C  48.10000 15.98900 33.53700
C  47.87800 16.18800 35.00500
H  47.89700 17.57200 35.56600
N  49.40200 17.01200 27.62200
C  50.07200 17.91800 28.35400
C  51.09600 18.55600 27.56400
C  51.05000 18.01800 26.27700
C  49.86500 17.07800 26.31400
C  52.04100 19.57500 28.13900
C  51.87700 18.31600 25.06000
O  51.79100 17.60100 24.08900
C  52.76700 19.45800 25.13400
N  47.31100 15.33700 26.18500
C  48.00100 15.83600 25.12500
C  47.38900 15.36900 23.76600
C  46.26800 14.41400 24.18300
C  46.31700 14.47100 25.74600
C  46.95300 16.56900 22.91500
C  46.36000 12.89300 23.75800
C  45.19900 12.34900 22.87100
N  45.96100 14.74300 28.70200
C  45.10100 13.97700 27.93800
C  44.07900 13.35900 28.82700
C  44.37000 13.92800 30.06500
C  45.51300 14.72100 29.98500
C  42.97400 12.54400 28.19700
C  43.94200 13.96100 31.45300
O  43.01800 13.39500 31.97100
C  44.89700 14.92100 32.20200
C  44.25600 16.01600 32.96900
O  44.10000 17.12500 32.37100
O  43.89800 15.68100 34.26700
C  43.15600 16.73200 34.99200
H  50.11200 19.10200 30.13600
H  49.49400 16.83100 24.16900
H  44.52700 13.32600 25.91300
H  46.71400 17.60100 32.83300
H  49.51600 17.90700 32.58800
H  48.01000 19.92400 30.87000
H  48.97700 20.26700 32.33800
H  47.26800 19.85700 32.33800
H  49.14700 15.77900 33.31700
H  47.79800 15.05200 33.07000
H  48.74000 15.67300 35.43000
H  46.96600 15.64800 35.25900
H  53.06700 19.37000 27.83300
H  52.03000 19.56900 29.22900
H  51.62600 20.49000 27.71500
H  52.07300 20.24900 25.41900
H  53.00800 19.84700 24.14500
H  53.64700 19.28000 25.75200
H  48.16100 14.75200 23.30600
H  45.31000 14.82100 23.86000
H  47.31500 16.44900 21.89400
H  47.47800 17.43600 23.31800
H  45.89200 16.74300 23.09400
H  46.42100 12.19000 24.58900
H  47.30900 12.70400 23.25700
H  45.68500 12.05100 21.94200
H  44.50500 13.12900 22.55800
H  44.61300 11.53100 23.29100
H  43.53100 11.79000 27.64000
H  42.26300 13.02600 27.52500
H  42.34500 12.08800 28.96100
H  45.47500 14.41400 32.97500
H  42.10400 16.70500 34.70800
H  43.57800 17.72000 34.80700
H  43.14400 16.44100 36.04200
Mg 0.77100 44.39900 25.09400
C  2.97100 43.89800 27.66300
C  -1.81700 43.86300 27.24300
C  -1.28100 44.18300 22.35300
C  3.44900 44.95800 22.86100
N  0.61800 43.86900 27.21000
C  1.65500 43.72400 28.10500
C  1.07600 43.74600 29.56000
C  -0.39100 43.49900 29.32900
C  -0.56600 43.86400 27.83700
C  -0.83500 42.03900 29.72100
C  1.27700 45.08100 30.39300
C  1.03000 45.03900 31.89300
H  1.11300 43.66000 32.55200
N  -1.26100 44.09400 24.83400
C  -2.20400 43.99200 25.81300
C  -3.55700 43.93200 25.27700
C  -3.28700 43.89100 23.85200
C  -1.86600 44.09000 23.63600
C  -4.77900 43.69900 26.16600
C  -4.30200 43.52400 22.70300
O  -4.00900 43.40600 21.50400
C  -5.73600 43.19300 23.06900
N  1.10500 44.29800 22.87700
C  0.05200 44.27600 22.00700
C  0.50200 44.55000 20.61500
C  2.12200 44.81300 20.75400
C  2.26100 44.67000 22.26600
C  0.16500 43.57000 19.44600
C  2.64700 46.13700 20.18600
C  2.51300 47.42800 20.89700
N  2.83500 44.32500 25.13800
C  3.79400 44.71200 24.18700
C  5.08900 44.76700 24.87700
C  4.80100 44.43300 26.18700
C  3.45100 44.15800 26.30200
C  6.38400 45.13800 24.26600
C  5.41100 44.23600 27.45900
O  6.59900 44.21500 27.82500
C  4.26200 43.96600 28.49900
C  4.45200 42.60200 28.99400
O  4.47100 41.58200 28.31900
O  4.75400 42.62100 30.32700
C  4.69000 41.31000 30.93900
H  -2.58500 43.54800 27.95300
H  -1.99600 44.37300 21.55000
H  4.27600 45.27600 22.22300
H  1.54700 42.95700 30.14700
H  -1.04500 44.12900 29.93200
H  -1.13900 41.51600 28.81400
H  -1.56800 42.05400 30.52700
H  -0.09200 41.42000 30.22500
H  0.53000 45.83300 30.13600
H  2.23200 45.39300 29.97200
H  0.04800 45.47900 32.07100
H  1.80800 45.66400 32.33100
H  -4.76000 42.61700 26.29800
H  -5.68800 43.98100 25.63400
H  -4.75800 44.10300 27.17800
H  -6.27500 43.09700 22.12700
H  -6.15400 44.02100 23.64300
H  -5.55800 42.26800 23.61800
H  -0.10600 45.45400 20.57800
H  2.68300 43.96600 20.36000
H  -0.76100 43.02800 19.63500
H  1.04000 42.92400 19.36700
H  0.08300 44.06800 18.48000
H  2.22500 46.25400 19.18800
H  3.68400 46.00600 19.87700
H  1.84900 47.40200 21.76100
H  2.13500 48.12200 20.14700
H  3.49500 47.78600 21.20800
H  6.54300 46.21500 24.20100
H  6.30100 44.76800 23.24400
H  7.17800 44.53000 24.70100
H  4.34100 44.54600 29.41900
H  5.48100 41.14100 31.67000
H  4.60600 40.44000 30.28700
H  3.74700 41.24700 31.48300

