158

Mg 55.12500 25.23100 44.15200
C  52.35000 27.54400 43.55600
C  53.21600 22.86700 42.46700
C  57.83200 23.60300 43.62000
C  56.91000 28.11500 45.02900
N  53.16000 25.32400 42.97300
C  52.16800 26.32000 42.94000
C  50.85300 25.83000 42.28600
C  51.11100 24.27000 42.47100
C  52.60000 24.10800 42.62300
C  50.30400 23.47000 43.51700
C  50.57900 26.48300 40.83700
C  50.77900 25.64600 39.60900
H  52.20400 25.29700 39.21800
N  55.45800 23.37700 43.34800
C  54.58700 22.53300 42.64700
C  55.29100 21.31100 42.45500
C  56.66900 21.54600 42.80000
C  56.75800 22.91500 43.23600
C  54.57700 20.12200 41.84400
C  57.68500 20.49000 42.71700
O  57.46000 19.35600 42.17000
C  59.12600 20.59400 43.21900
N  57.10000 25.82200 44.17300
C  58.04600 24.89500 44.04300
C  59.46100 25.53300 44.13400
C  59.16900 26.99900 44.56700
C  57.64100 26.99300 44.63400
C  60.37200 24.71100 45.11800
C  59.62900 28.11400 43.53000
C  58.65900 28.64400 42.43100
N  54.67800 27.42600 44.56400
C  55.51200 28.41800 44.97400
C  54.72700 29.58000 45.10000
C  53.44500 29.27200 44.60800
C  53.53800 27.95800 44.18700
C  55.12900 30.92700 45.60800
C  52.11900 29.83300 44.40600
O  51.58700 30.89400 44.71400
C  51.40100 28.77300 43.64400
C  51.13500 29.35900 42.37700
O  51.98800 29.70600 41.58800
O  49.76200 29.51700 42.16300
C  49.26500 30.26700 40.98500
H  52.59600 22.05200 42.08800
H  58.77100 23.05300 43.52000
H  57.64300 28.86700 45.32700
H  50.15800 26.18500 43.04700
H  50.82700 23.70400 41.58400
H  49.73900 24.24000 44.04300
H  50.89400 22.88200 44.22000
H  49.52700 22.81100 43.13200
H  51.36200 27.24100 40.83700
H  49.56200 26.87200 40.78300
H  50.43200 26.18900 38.72900
H  50.15200 24.75400 39.59500
H  55.21700 19.41700 41.31200
H  53.70100 20.36100 41.24100
H  54.04000 19.62500 42.65200
H  59.41000 19.58100 43.50300
H  59.01000 21.10800 44.17300
H  59.77700 21.03000 42.46000
H  60.00800 25.60700 43.19400
H  59.52500 27.27000 45.56100
H  61.17800 25.35400 45.47100
H  60.98500 23.91000 44.70300
H  59.80200 24.20600 45.89800
H  60.46300 27.76000 42.92400
H  59.90500 28.94500 44.18000
H  58.06900 27.79200 42.09300
H  59.25400 28.91500 41.56000
H  58.04400 29.42400 42.88000
H  54.26400 31.20600 46.21000
H  55.13800 31.65000 44.79300
H  56.03600 30.92900 46.21400
H  50.45300 28.56200 44.13900
H  49.43100 29.57200 40.16200
H  49.78600 31.20500 40.79500
H  48.29900 30.77300 40.97200
Mg -12.80700 17.22100 40.46900
C  -9.85400 15.38200 39.96700
C  -11.01500 20.06800 39.40600
C  -15.77300 18.89200 39.99900
C  -14.54900 14.18100 40.70800
N  -10.68000 17.66200 39.66500
C  -9.65900 16.72900 39.61500
C  -8.26700 17.33500 39.14200
C  -8.59600 18.83300 39.22000
C  -10.14400 18.89100 39.45100
C  -7.79900 19.45100 40.39400
C  -7.80600 16.82000 37.75400
C  -6.35000 16.44900 37.70800
H  -5.67500 16.56300 36.37200
N  -13.28300 19.24400 39.77900
C  -12.43700 20.24200 39.44900
C  -13.21200 21.46700 39.14900
C  -14.58400 21.16500 39.19500
C  -14.59900 19.70000 39.72200
C  -12.56800 22.73400 38.75000
C  -15.81100 22.02200 38.80400
O  -15.58700 23.16900 38.36000
C  -17.17800 21.55500 38.86600
N  -14.87700 16.65400 40.53400
C  -15.90100 17.51000 40.31500
C  -17.18800 16.86100 40.56200
C  -16.78600 15.32400 40.70200
C  -15.31300 15.35200 40.57300
C  -17.91400 17.43200 41.79400
C  -17.47300 14.36500 39.74600
C  -18.04500 13.07400 40.43400
N  -12.34300 15.20500 40.43900
C  -13.16100 14.07500 40.63700
C  -12.27200 12.90300 40.73300
C  -11.02400 13.37800 40.42700
C  -11.06000 14.82000 40.31600
C  -12.72500 11.49500 41.14400
C  -9.64700 12.95100 40.33000
O  -9.10200 11.87900 40.53800
C  -8.85100 14.27400 40.01700
C  -7.90000 14.43600 41.18500
O  -8.01100 14.37600 42.42000
O  -6.68600 14.38200 40.56500
C  -5.51500 14.20800 41.43900
H  -10.46200 21.00200 39.28400
H  -16.77700 19.27200 39.79600
H  -15.08000 13.28800 41.04500
H  -7.53700 16.98000 39.86900
H  -8.26700 19.25500 38.27000
H  -8.47100 19.68300 41.22000
H  -7.30300 20.30900 39.94100
H  -6.93100 18.86100 40.68900
H  -8.13600 17.50600 36.97400
H  -8.33700 15.90600 37.48900
H  -6.29900 15.41100 38.03800
H  -5.78000 17.09800 38.37200
H  -11.59100 22.82900 39.22300
H  -13.13100 23.64300 38.95900
H  -12.52300 22.75600 37.66100
H  -17.39300 21.17600 39.86600
H  -17.17300 20.73900 38.14400
H  -17.88100 22.31100 38.51600
H  -17.80200 16.97200 39.66800
H  -16.87700 14.88400 41.69500
H  -17.51200 18.33200 42.26000
H  -18.01300 16.66400 42.56100
H  -18.88900 17.75500 41.43000
H  -16.73500 13.87800 39.10900
H  -18.29000 14.78900 39.16200
H  -19.11400 13.22100 40.59000
H  -17.57900 12.87700 41.40000
H  -17.90800 12.21900 39.77100
H  -13.75000 11.22800 40.88600
H  -12.77500 11.52100 42.23200
H  -12.04700 10.71700 40.79300
H  -8.29500 14.19000 39.08300
H  -5.67200 13.44700 42.20300
H  -5.20500 15.18800 41.80300
H  -4.69800 13.74900 40.88200

