158

Mg 40.56600 9.68900 29.45500
C  42.47700 10.73400 32.21600
C  38.35200 8.29700 31.56100
C  39.08400 8.41400 26.73100
C  42.97200 11.21100 27.33600
N  40.57400 9.40300 31.67700
C  41.28700 10.09500 32.66400
C  40.60100 9.88900 34.04800
C  39.30700 9.11900 33.74200
C  39.36600 9.00400 32.17000
C  39.03300 7.79100 34.52300
C  40.34700 11.23300 34.89200
C  40.94200 11.24800 36.28200
H  40.60200 12.26800 37.27300
N  38.97900 8.55100 29.17900
C  38.14700 8.09000 30.17400
C  37.10000 7.32400 29.56400
C  37.28000 7.37400 28.18000
C  38.52100 8.13100 27.95600
C  36.06400 6.59400 30.44400
C  36.45900 6.82600 27.08300
O  36.55900 7.22100 25.95800
C  35.21100 5.92700 27.36600
N  40.97400 9.80700 27.29300
C  40.18100 9.21100 26.38100
C  40.67700 9.47600 24.94100
C  41.99800 10.30900 25.14900
C  41.90600 10.57300 26.66900
C  40.91000 8.23700 24.04900
C  42.07600 11.48100 24.27300
C  41.16100 12.75900 24.54100
N  42.32100 10.70900 29.63100
C  43.15300 11.28400 28.74300
C  44.21100 12.02600 29.39900
C  44.06500 11.67600 30.75900
C  42.85100 10.96400 30.90600
C  45.25500 12.86700 28.78700
C  44.50800 11.98500 32.06400
O  45.48600 12.66600 32.41100
C  43.53200 11.41400 33.06800
C  44.35300 10.48500 33.92400
O  44.68500 9.34200 33.68000
O  44.55600 11.05300 35.16700
C  45.23800 10.26500 36.13400
H  37.43300 8.30800 32.15000
H  38.70600 7.93400 25.82600
H  43.75300 11.58900 26.67300
H  41.30100 9.33000 34.66900
H  38.50600 9.82400 33.96500
H  37.98100 7.58300 34.32900
H  39.09300 7.87600 35.60800
H  39.67600 6.98600 34.16700
H  39.27500 11.34900 35.05100
H  40.59900 12.15400 34.36700
H  42.02300 11.33000 36.16800
H  40.75600 10.24200 36.65700
H  35.07400 6.85800 30.07300
H  36.18700 6.96300 31.46200
H  36.15100 5.50800 30.39500
H  35.54200 4.95600 27.73100
H  34.79400 5.69200 26.38600
H  34.45600 6.43600 27.96600
H  39.99100 10.16100 24.44200
H  42.91700 9.76100 24.94100
H  40.54800 7.38700 24.62700
H  41.94700 8.12100 23.73400
H  40.28400 8.31400 23.16000
H  41.81700 11.18300 23.25700
H  43.07200 11.92300 24.26200
H  40.35300 12.85400 23.81600
H  41.76300 13.66200 24.63500
H  40.74300 12.63500 25.54000
H  44.89000 13.13300 27.79500
H  46.09600 12.17400 28.76600
H  45.26000 13.73800 29.44300
H  43.06000 12.22100 33.62900
H  44.83100 9.25400 36.13100
H  45.04700 10.64700 37.13700
H  46.31000 10.20900 35.94400
Mg 6.40400 53.52800 41.00300
C  5.99900 49.97200 41.14600
C  9.67400 52.86800 39.81800
C  6.86600 56.83500 40.46300
C  3.09000 53.96500 41.49700
N  7.54200 51.64400 40.36400
C  7.23700 50.29700 40.54100
C  8.36000 49.36000 40.12200
C  9.54900 50.34600 40.11500
C  8.84000 51.73900 40.05500
C  10.54900 50.37800 41.31500
C  8.08000 48.67300 38.75100
C  7.12100 49.27000 37.81500
H  7.56800 50.45700 36.98700
N  8.07600 54.66900 40.30700
C  9.30600 54.25900 39.88100
C  10.14700 55.39600 39.73700
C  9.36400 56.58900 39.79300
C  8.01100 56.07900 40.19500
C  11.64200 55.28800 39.59700
C  9.91100 58.04400 39.77700
O  11.10400 58.27400 39.49700
C  9.00300 59.24400 39.86900
N  5.16600 55.05500 40.86500
C  5.53800 56.37900 40.74400
C  4.41400 57.29200 40.99400
C  3.20200 56.39500 41.02800
C  3.87200 55.04000 41.09900
C  4.73500 58.22900 42.27100
C  2.16800 56.49400 39.83800
C  0.75000 56.67000 40.31400
N  4.84700 52.25600 41.37200
C  3.53000 52.61500 41.51000
C  2.82200 51.38400 41.91500
C  3.73700 50.35500 41.70400
C  4.93500 50.92400 41.37500
C  1.49500 51.25700 42.38700
C  3.94900 48.96200 41.79500
O  3.14200 48.03700 42.06000
C  5.48200 48.65000 41.47100
C  5.25600 47.70600 40.31200
O  4.62400 47.89400 39.24000
O  5.90500 46.57000 40.56900
C  5.84600 45.54300 39.51100
H  10.65800 52.76900 39.35500
H  6.78900 57.89400 40.21000
H  2.08600 54.17700 41.86900
H  8.59700 48.66400 40.92700
H  10.20600 50.17300 39.26300
H  11.47100 49.92100 40.95500
H  10.13900 49.67900 42.04500
H  10.67300 51.38600 41.71100
H  7.94500 47.59200 38.76900
H  9.03100 48.72000 38.21900
H  6.21100 49.65200 38.27800
H  6.88300 48.55500 37.02700
H  11.95500 55.52000 38.57800
H  11.99900 54.27600 39.78700
H  12.27100 56.02400 40.09800
H  9.56000 60.18000 39.90500
H  8.51400 59.18700 40.84200
H  8.32100 59.25700 39.01900
H  4.32900 57.94300 40.12300
H  2.76100 56.49200 42.02000
H  4.46000 59.24700 41.99600
H  5.75700 58.12700 42.63700
H  4.05800 57.94200 43.07500
H  2.26300 55.56400 39.27700
H  2.47700 57.29900 39.17100
H  0.44400 57.68600 40.56300
H  0.74300 56.00400 41.17700
H  0.11600 56.28100 39.51700
H  0.78500 51.77300 41.74000
H  1.43500 51.72200 43.37000
H  1.28100 50.18900 42.43200
H  5.97700 48.11300 42.28000
H  6.54600 44.78600 39.86400
H  6.37100 45.80600 38.59200
H  4.87000 45.07500 39.38200

