158

Mg 1.88600 41.97100 25.44300
C  2.85400 42.23300 28.81400
C  -1.21600 40.95600 26.55400
C  1.17400 41.17000 22.32000
C  5.17700 42.86800 24.52700
N  0.97600 41.62400 27.52600
C  1.51800 41.99500 28.69700
C  0.36200 41.95700 29.77000
C  -0.82500 41.32800 29.07200
C  -0.36300 41.30200 27.61200
C  -1.09100 39.89700 29.58500
C  0.01900 43.26500 30.42300
C  -1.09300 43.22800 31.48300
H  -1.10400 42.11600 32.46700
N  0.12900 41.28500 24.55200
C  -0.99700 40.83300 25.18100
C  -1.94100 40.35700 24.19200
C  -1.26900 40.51100 22.89500
C  0.10500 40.98100 23.20700
C  -3.33300 39.77000 24.50900
C  -1.83700 40.18200 21.43100
O  -1.18200 40.32300 20.40200
C  -3.23900 39.72300 21.27900
N  3.07200 41.97300 23.67600
C  2.47400 41.66600 22.49900
C  3.39800 41.99600 21.29700
C  4.60400 42.77700 21.92500
C  4.30200 42.54400 23.46600
C  3.76100 40.72600 20.45900
C  4.60500 44.30000 21.53200
C  5.18200 44.82500 20.27000
N  3.73800 42.43400 26.40700
C  5.00700 42.70700 25.93100
C  5.86000 43.07600 27.08300
C  5.05700 42.87800 28.23500
C  3.78700 42.49900 27.76300
C  7.29600 43.43600 27.03300
C  5.08800 42.84800 29.61600
O  6.02400 43.08400 30.40500
C  3.64900 42.50100 30.12200
C  3.97700 41.25500 30.87900
O  4.20600 40.12100 30.44900
O  3.98300 41.66600 32.18600
C  4.14600 40.60800 33.11200
H  -2.20900 40.65300 26.89400
H  0.77600 41.03600 21.31200
H  6.18300 43.20100 24.26400
H  0.90000 41.34400 30.49400
H  -1.72700 41.94100 29.07200
H  -0.50500 39.78200 30.49700
H  -0.79800 39.18800 28.81000
H  -2.10500 39.73500 29.95100
H  -0.24500 43.99900 29.66100
H  0.95800 43.54100 30.90300
H  -2.05600 43.20700 30.97100
H  -0.95800 44.20000 31.95700
H  -3.55800 38.83800 23.99000
H  -4.21600 40.30900 24.16400
H  -3.39100 39.57200 25.57900
H  -3.43400 38.78100 21.79100
H  -3.57700 39.54200 20.25800
H  -3.76300 40.53600 21.78100
H  2.77600 42.60700 20.64400
H  5.54900 42.27200 21.72500
H  4.03600 39.93400 21.15600
H  4.68600 40.99400 19.94900
H  3.02700 40.41500 19.71700
H  4.88800 44.82200 22.44600
H  3.52700 44.45700 21.56900
H  4.35800 44.93000 19.56400
H  5.93200 44.17000 19.82600
H  5.64700 45.80100 20.41100
H  7.37600 44.52000 26.94700
H  7.85000 42.97500 26.21600
H  7.63300 43.06400 28.00000
H  3.13200 43.25900 30.71000
H  4.50600 41.02600 34.05200
H  4.80200 39.75800 32.92500
H  3.20000 40.12200 33.35000
Mg -5.46200 25.05000 26.59900
C  -4.06600 26.50200 29.47700
C  -7.63400 23.16200 28.53900
C  -6.44600 23.51900 23.88800
C  -3.13000 26.86300 24.74000
N  -5.77200 24.88600 28.75000
C  -5.08400 25.53100 29.74300
C  -5.47800 24.92600 31.04800
C  -6.53100 23.83000 30.77600
C  -6.67100 24.00100 29.25900
C  -6.15400 22.45500 31.34800
C  -5.94900 26.02700 32.03900
C  -5.64800 25.70700 33.50100
H  -5.08000 24.38200 33.88800
N  -6.90100 23.66300 26.30300
C  -7.65000 22.94100 27.20200
C  -8.59000 21.98700 26.51500
C  -8.30300 22.16000 25.15600
C  -7.16400 23.16800 25.06200
C  -9.45900 21.13600 27.24000
C  -9.04700 21.58600 23.98400
O  -8.66500 21.71800 22.82700
C  -10.27300 20.64000 24.20400
N  -4.88100 25.22600 24.63300
C  -5.42100 24.41800 23.68600
C  -4.70400 24.51900 22.31200
C  -3.86600 25.84200 22.58000
C  -3.97900 26.06300 24.06800
C  -3.91100 23.22800 21.77700
C  -4.40500 27.10400 21.84300
C  -3.51500 27.71000 20.78800
N  -3.92500 26.53000 26.96900
C  -3.06900 27.17700 26.13000
C  -2.13900 28.03700 26.82600
C  -2.44100 27.77600 28.17800
C  -3.58100 26.80200 28.17600
C  -1.04900 28.81700 26.16100
C  -2.09000 28.02800 29.57900
O  -1.35300 28.74500 30.20500
C  -3.13200 27.22700 30.40000
C  -2.41200 26.38800 31.33900
O  -2.05500 25.19900 31.09400
O  -1.99700 27.09900 32.47000
C  -1.38800 26.32100 33.50100
H  -8.42900 22.70600 29.13300
H  -6.70400 22.95700 22.98800
H  -2.38500 27.35100 24.10800
H  -4.51300 24.49600 31.31400
H  -7.48300 24.18600 31.17000
H  -6.16800 21.69100 30.57100
H  -6.86800 22.13200 32.10600
H  -5.17400 22.39100 31.82100
H  -7.02300 26.21600 32.06600
H  -5.53600 27.00100 31.77800
H  -6.50700 25.92500 34.13700
H  -4.93400 26.43200 33.89000
H  -9.18600 20.18300 26.78700
H  -10.48300 21.35200 26.93500
H  -9.34800 21.06200 28.32200
H  -10.02000 19.73200 24.75300
H  -10.50700 20.23400 23.22000
H  -11.10600 21.19600 24.63300
H  -5.47500 24.68500 21.56000
H  -2.82100 25.61900 22.36500
H  -2.83700 23.36400 21.65000
H  -4.28000 22.84400 20.82600
H  -3.99900 22.40600 22.48800
H  -4.68800 27.88600 22.54800
H  -5.34500 26.82900 21.36500
H  -4.15300 27.84600 19.91500
H  -2.61500 27.10300 20.68200
H  -3.22300 28.69600 21.14800
H  -0.48600 29.36300 26.91800
H  -1.26100 29.48800 25.32900
H  -0.29100 28.14400 25.76100
H  -3.63900 28.00200 30.97400
H  -2.10200 26.28100 34.32400
H  -0.53900 26.94600 33.77900
H  -1.09100 25.32600 33.16900

