158

Mg 40.88000 9.79100 29.93400
C  42.41200 10.71500 32.88000
C  38.38200 8.31400 31.81900
C  39.75500 8.23000 27.11600
C  43.74100 10.60900 28.21100
N  40.48700 9.53100 32.08000
C  41.21600 10.06100 33.11300
C  40.52000 9.86300 34.50100
C  39.30800 8.90900 34.10500
C  39.30600 9.02100 32.57200
C  39.43500 7.44200 34.61800
C  40.08700 11.16800 35.21000
C  40.58000 11.21200 36.68000
H  41.06000 12.57000 37.08100
N  39.18200 8.67200 29.50000
C  38.28000 8.16300 30.39800
C  37.29400 7.43800 29.67500
C  37.68200 7.42500 28.32000
C  38.96100 8.14600 28.28400
C  36.16700 6.71000 30.37900
C  36.93300 6.80300 27.09900
O  37.37800 6.89600 25.94200
C  35.59100 6.21000 27.26100
N  41.69900 9.21700 27.95900
C  40.99600 8.77000 26.91700
C  41.66800 8.84900 25.53600
C  42.90100 9.74600 25.94800
C  42.80300 9.84600 27.50100
C  41.91000 7.40200 24.98100
C  42.82000 11.14400 25.17600
C  41.69700 12.14800 25.62700
N  42.62600 10.60400 30.41700
C  43.74900 10.93500 29.57600
C  44.70300 11.71300 30.33100
C  44.19500 11.63400 31.63700
C  42.99800 10.94000 31.65500
C  46.04900 12.29900 29.82400
C  44.53100 11.99600 32.98000
O  45.44300 12.66900 33.38100
C  43.39600 11.36000 33.88900
C  44.11600 10.43400 34.82500
O  44.30700 9.26900 34.56100
O  44.51800 11.14000 35.92200
C  44.99300 10.34000 37.04300
H  37.66000 7.74500 32.40800
H  39.40900 7.89600 26.13500
H  44.55500 10.89700 27.54300
H  41.25600 9.29000 35.06600
H  38.34800 9.24500 34.49800
H  39.52300 7.48200 35.70300
H  40.37500 7.05900 34.22000
H  38.68000 6.71100 34.32600
H  39.00400 11.26600 35.13100
H  40.37000 12.06900 34.66500
H  41.45100 10.58400 36.86600
H  39.87500 10.95200 37.47000
H  36.37800 6.45800 31.41800
H  35.97400 5.72300 29.96100
H  35.19000 7.19300 30.36400
H  35.40700 5.18800 26.92900
H  34.99000 6.83500 26.60100
H  35.14800 6.43600 28.23100
H  41.04400 9.45000 24.87400
H  43.86800 9.39500 25.58900
H  41.66300 6.74600 25.81600
H  42.96800 7.34400 24.72400
H  41.37600 7.17100 24.06000
H  42.56900 10.85600 24.15500
H  43.74700 11.71500 25.12900
H  41.16300 11.68700 26.45800
H  40.97400 12.41900 24.85700
H  42.19600 13.05700 25.96300
H  45.88300 13.10100 29.10500
H  46.77600 11.50100 29.67300
H  46.30600 12.80500 30.75500
H  42.91700 12.17700 34.42800
H  45.21400 10.91400 37.94200
H  45.94400 9.93500 36.69800
H  44.35600 9.52200 37.38100
Mg 1.14600 42.08500 25.22800
C  1.97600 42.23400 28.72300
C  -1.89000 40.72100 26.31300
C  0.42200 41.71300 22.14400
C  4.32500 43.11700 24.58400
N  0.08600 41.71500 27.28100
C  0.61500 41.89900 28.49100
C  -0.43800 41.83500 29.63200
C  -1.62200 41.25100 28.79900
C  -1.12500 41.15100 27.35700
C  -2.32100 39.96900 29.40500
C  -0.78800 43.17100 30.38100
C  -1.35200 43.08900 31.80700
H  -1.97000 41.73000 32.22300
N  -0.53900 41.36700 24.34500
C  -1.68500 40.88300 24.90300
C  -2.57700 40.43500 23.93500
C  -1.97100 40.69400 22.63700
C  -0.66200 41.34200 23.00300
C  -3.85600 39.65900 24.10400
C  -2.43700 40.39700 21.21200
O  -1.83600 40.74800 20.25200
C  -3.72900 39.75800 20.97300
N  2.23600 42.22900 23.63700
C  1.69500 42.23500 22.38600
C  2.69100 42.44000 21.27000
C  3.89300 43.09500 22.07000
C  3.48900 42.81000 23.56200
C  3.11400 41.18400 20.50200
C  4.05200 44.64400 21.74400
C  2.85500 45.57400 21.91300
N  2.86200 42.63600 26.37000
C  4.12100 42.97300 25.91000
C  5.01300 43.22400 26.95600
C  4.21200 42.90400 28.09100
C  2.88500 42.59200 27.70000
C  6.51700 43.56700 26.78100
C  4.21100 42.68700 29.59000
O  5.10900 42.82600 30.43500
C  2.76900 42.25200 30.02400
C  2.72500 40.85300 30.55600
O  3.22900 39.94800 30.00700
O  1.93300 40.87500 31.71700
C  1.75000 39.49500 32.33700
H  -2.83800 40.30500 26.65900
H  0.13800 41.49200 21.11300
H  5.31100 43.46900 24.27500
H  -0.17200 41.03600 30.32400
H  -2.35400 42.05700 28.75000
H  -2.32100 39.11700 28.72400
H  -3.33800 40.30700 29.60800
H  -1.80500 39.68900 30.32400
H  -1.35600 43.84900 29.74500
H  0.17000 43.68700 30.31900
H  -2.26500 43.68300 31.78200
H  -0.74100 43.58200 32.56300
H  -3.91500 39.30200 25.13200
H  -3.94900 38.70100 23.59100
H  -4.76700 40.19500 23.83700
H  -4.65500 40.24800 21.27300
H  -3.70000 38.74200 21.36600
H  -3.89500 39.61400 19.90600
H  2.40900 43.15200 20.49400
H  4.87000 42.63100 21.93200
H  2.88300 41.37300 19.45400
H  2.60900 40.25300 20.75900
H  4.18900 41.09300 20.66200
H  4.59800 44.86000 20.82500
H  4.64400 44.97000 22.59900
H  1.86600 45.17500 22.13900
H  2.70900 46.03700 20.93700
H  3.10400 46.32300 22.66400
H  6.69000 43.97500 25.78600
H  7.12400 42.69700 27.03400
H  6.70100 44.35500 27.51100
H  2.28300 42.87700 30.77400
H  1.24800 38.81100 31.65300
H  1.06700 39.41500 33.18300
H  2.72600 39.11000 32.63100

