158

Mg 24.97700 1.52100 29.54400
C  27.12000 1.24700 32.45800
C  22.31700 1.97100 31.74900
C  22.93600 1.30400 27.03100
C  27.60800 0.57400 27.63800
N  24.80700 1.70000 31.81200
C  25.81300 1.59400 32.77200
C  25.26800 1.97200 34.19700
C  23.75700 2.10800 33.89300
C  23.55000 1.98000 32.35500
C  22.88100 1.13700 34.66200
C  25.96100 3.21900 34.84600
C  26.43200 3.06000 36.28100
H  25.97000 4.05500 37.44900
N  22.89000 1.63700 29.35700
C  21.98600 1.87500 30.39100
C  20.64500 2.04000 29.82700
C  20.83200 1.91700 28.39100
C  22.24700 1.59300 28.20300
C  19.40700 2.28400 30.65400
C  19.82500 2.07800 27.21400
O  20.10900 1.95000 26.02900
C  18.43600 2.50700 27.49500
N  25.24100 0.93400 27.65800
C  24.27200 1.02700 26.78300
C  24.79000 0.81700 25.29900
C  26.30900 0.80900 25.43200
C  26.38100 0.76200 27.00100
C  24.20400 -0.53500 24.81300
C  26.95200 2.03400 24.72200
C  26.68000 3.35900 25.42900
N  26.94300 0.98800 29.94400
C  27.92900 0.69800 29.00500
C  29.24300 0.49500 29.69000
C  28.97800 0.67800 31.08600
C  27.56100 0.98400 31.13500
C  30.53200 0.12700 28.98400
C  29.54900 0.75100 32.43200
O  30.67500 0.52800 32.82900
C  28.36300 1.14300 33.37800
C  28.25600 0.05900 34.38100
O  27.64100 -0.99300 34.13400
O  28.93800 0.31800 35.54100
C  29.44400 -0.75900 36.47200
H  21.44000 2.14300 32.37700
H  22.49000 1.33800 26.03500
H  28.41200 0.20200 27.00000
H  25.39100 1.11500 34.86000
H  23.30600 3.05800 34.18200
H  22.20600 1.69200 35.31400
H  23.41900 0.48900 35.35300
H  22.30500 0.45300 34.03900
H  25.38800 4.14600 34.87400
H  26.82700 3.49700 34.24400
H  27.51400 3.13400 36.16700
H  26.15700 2.07300 36.65300
H  18.69500 1.56000 30.25700
H  18.99100 3.27000 30.44700
H  19.49200 2.18000 31.73600
H  18.46100 3.59100 27.60800
H  17.94300 2.02700 28.34000
H  17.91400 2.13200 26.61400
H  24.44200 1.60500 24.63100
H  26.73000 -0.16000 25.16500
H  23.49000 -0.98500 25.50200
H  24.99100 -1.22500 24.50800
H  23.59800 -0.24500 23.95500
H  26.50300 2.00800 23.72900
H  28.01700 1.86300 24.56500
H  25.80300 3.24100 26.06500
H  26.51100 4.08900 24.63800
H  27.49500 3.68200 26.07700
H  30.37900 -0.02800 27.91600
H  30.85700 -0.81800 29.41900
H  31.31500 0.85800 29.18500
H  28.49200 1.98700 34.05600
H  29.31200 -1.70900 35.95500
H  28.93300 -0.65900 37.43000
H  30.50800 -0.52500 36.49900
Mg -12.39100 17.58900 41.29200
C  -9.02700 16.36200 40.76200
C  -11.20700 20.83700 40.58600
C  -15.48600 18.60400 40.66300
C  -13.43800 14.17000 41.18200
N  -10.37900 18.39700 40.72500
C  -9.10800 17.76700 40.59800
C  -7.91900 18.82400 40.32800
C  -8.74900 20.18700 40.35700
C  -10.25900 19.79400 40.59000
C  -8.23600 21.33800 41.34800
C  -7.15000 18.62600 39.01000
C  -5.75100 18.06800 39.21400
H  -5.40200 16.93000 38.16400
N  -13.18700 19.43700 40.71900
C  -12.59700 20.65000 40.52400
C  -13.55500 21.64000 40.01800
C  -14.85500 20.98600 40.03600
C  -14.56800 19.62200 40.46800
C  -13.22900 23.02100 39.59700
C  -16.17500 21.60900 39.59200
O  -16.18300 22.77200 39.15500
C  -17.52300 21.01100 39.81200
N  -14.21500 16.51000 40.97000
C  -15.34700 17.21600 40.83800
C  -16.54300 16.27200 40.77800
C  -15.90800 14.87100 41.23600
C  -14.44000 15.16500 41.04500
C  -17.85600 16.62600 41.53300
C  -16.54700 13.67100 40.40500
C  -17.57800 12.76300 41.15800
N  -11.46600 15.61600 41.16000
C  -12.06900 14.32400 41.11800
C  -11.02100 13.36800 40.95800
C  -9.82600 14.17600 40.92200
C  -10.14500 15.53000 41.01000
C  -11.15300 11.89300 40.88000
C  -8.38400 13.99100 40.67600
O  -7.75500 12.95300 40.53700
C  -7.78900 15.45300 40.54900
C  -6.67100 15.60100 41.61900
O  -6.78100 16.27800 42.63500
O  -5.58700 14.84400 41.28200
C  -4.64900 14.67400 42.42600
H  -10.73900 21.80500 40.39100
H  -16.54000 18.81700 40.47300
H  -13.80200 13.14100 41.22100
H  -7.24000 18.68100 41.16800
H  -8.87100 20.61000 39.36000
H  -7.23900 21.23100 41.77600
H  -9.02000 21.33000 42.10500
H  -8.29100 22.24300 40.74400
H  -7.05900 19.60500 38.54100
H  -7.74300 17.95200 38.39100
H  -5.56600 17.66300 40.20900
H  -5.06800 18.87200 38.94100
H  -13.51300 23.27100 38.57500
H  -12.16500 23.22100 39.72100
H  -13.76200 23.66300 40.29800
H  -17.63600 20.04900 39.31200
H  -18.25500 21.67100 39.34700
H  -17.67600 20.92900 40.88900
H  -16.79200 16.00500 39.75100
H  -15.99800 14.63000 42.29500
H  -18.49100 17.12900 40.80400
H  -17.80100 17.20200 42.45700
H  -18.35700 15.67700 41.72600
H  -15.69100 13.03100 40.19200
H  -17.14000 13.86100 39.51000
H  -17.35600 12.37700 42.15300
H  -17.65200 11.93800 40.44900
H  -18.54000 13.27400 41.18000
H  -11.07400 11.52200 41.90100
H  -10.45000 11.27700 40.32000
H  -12.13800 11.60000 40.51600
H  -7.38400 15.62700 39.55200
H  -4.13100 15.62300 42.57000
H  -3.96300 13.82900 42.47300
H  -5.18900 14.50800 43.35800

