158

Mg -2.50700 17.25800 27.70700
C  -2.64600 15.37100 30.59400
C  -3.05300 20.09700 29.62900
C  -2.36100 19.18800 24.84300
C  -2.19300 14.37800 25.69200
N  -2.81500 17.67100 29.87400
C  -2.76300 16.77000 30.92900
C  -2.63500 17.45300 32.29900
C  -2.95100 18.93800 31.95700
C  -2.96300 18.91400 30.41000
C  -4.24200 19.59100 32.62300
C  -1.29700 17.18800 33.13200
C  -0.95800 18.03200 34.41200
H  -0.77300 17.40700 35.82800
N  -2.69800 19.31000 27.22600
C  -2.86200 20.29200 28.21300
C  -2.65700 21.60900 27.54100
C  -2.57000 21.40200 26.17800
C  -2.60000 19.86900 26.00900
C  -2.49300 22.92600 28.27100
C  -2.28600 22.41600 25.01000
O  -2.13200 22.13600 23.82500
C  -2.08500 23.76500 25.34800
N  -2.23500 16.80900 25.59700
C  -2.24700 17.80300 24.63100
C  -2.09900 17.16900 23.30200
C  -1.56400 15.73700 23.61400
C  -2.12400 15.59600 25.01800
C  -3.42500 17.21900 22.40800
C  -0.04300 15.40500 23.52200
C  0.97800 16.39100 24.10400
N  -2.51300 15.29700 28.05200
C  -2.37100 14.20400 27.14900
C  -2.43700 12.98500 27.94400
C  -2.40800 13.36100 29.23400
C  -2.49100 14.78900 29.26300
C  -2.38800 11.60600 27.43800
C  -2.44300 12.85800 30.60700
O  -2.68400 11.71300 30.97200
C  -2.50900 14.10200 31.54400
C  -1.24700 13.94600 32.34300
O  -0.10800 14.07400 31.92400
O  -1.58600 13.60700 33.66300
C  -0.45300 13.16700 34.41200
H  -3.19200 20.97400 30.26500
H  -2.30900 19.80100 23.94100
H  -2.11800 13.51000 25.03400
H  -3.38500 17.06200 32.98700
H  -2.15400 19.58600 32.32200
H  -4.61600 18.86100 33.34100
H  -5.05600 19.80800 31.93200
H  -4.00900 20.44100 33.26500
H  -0.53600 17.33600 32.36600
H  -1.08200 16.15800 33.42000
H  -1.77400 18.75500 34.42200
H  -0.07500 18.58900 34.10100
H  -3.26800 23.59100 27.89100
H  -1.56000 23.44500 28.05100
H  -2.55000 22.71700 29.33900
H  -1.86600 24.45900 24.53700
H  -1.23900 23.71000 26.03200
H  -2.99700 24.11500 25.83000
H  -1.35800 17.65600 22.66700
H  -2.13900 15.02600 23.02200
H  -4.09400 17.91300 22.91700
H  -3.93700 16.25800 22.46000
H  -3.19800 17.56200 21.39900
H  0.21300 15.43800 22.46300
H  0.17100 14.39100 23.85900
H  0.47500 17.20500 24.62600
H  1.54600 16.85000 23.29500
H  1.69800 15.85200 24.71900
H  -1.91900 11.62700 26.45400
H  -3.40600 11.24800 27.27900
H  -1.97800 11.02900 28.26600
H  -3.41900 13.93500 32.11900
H  -0.69500 12.54100 35.27100
H  -0.10100 14.11900 34.80900
H  0.37300 12.73400 33.84800
Mg -1.91400 34.03000 27.13700
C  -3.38100 32.37900 29.79300
C  -0.63800 36.37900 29.34800
C  -1.03900 35.88800 24.47400
C  -3.61900 31.84200 24.92100
N  -2.08700 34.42600 29.31200
C  -2.62500 33.50100 30.18700
C  -2.36900 33.98200 31.66100
C  -1.56800 35.30500 31.51300
C  -1.44800 35.44400 29.94000
C  -2.26600 36.51200 32.27700
C  -1.74700 33.00200 32.66200
C  -2.60300 32.36600 33.78800
H  -1.86000 32.08900 35.10600
N  -0.89900 35.82600 26.95900
C  -0.41600 36.60100 27.97000
C  0.22000 37.76100 27.41700
C  0.24500 37.61500 25.98000
C  -0.57300 36.45500 25.69700
C  0.79900 38.83600 28.20800
C  0.89500 38.42100 24.93400
O  0.74600 38.17500 23.74300
C  1.79900 39.66400 25.16100
N  -2.34300 33.92500 24.97300
C  -1.84600 34.82000 24.06500
C  -2.25800 34.42400 22.67500
C  -2.79500 33.00700 22.83400
C  -2.95700 32.89900 24.32100
C  -3.28600 35.54800 22.14000
C  -1.83400 31.85400 22.23000
C  -0.78400 31.14100 23.11800
N  -3.14900 32.44200 27.29600
C  -3.80600 31.62400 26.31500
C  -4.70000 30.65200 26.88600
C  -4.52300 30.87600 28.30600
C  -3.62900 31.96400 28.42900
C  -5.67600 29.73800 26.21700
C  -4.82000 30.43300 29.65900
O  -5.49000 29.48700 30.07500
C  -4.20800 31.42000 30.65200
C  -5.31400 32.06200 31.39800
O  -5.91500 33.07000 31.03300
O  -5.56800 31.39400 32.55200
C  -6.50800 32.07200 33.41600
H  -0.22500 37.05100 30.10200
H  -0.62100 36.40700 23.60900
H  -4.05500 31.26700 24.10100
H  -3.38900 34.15100 32.00700
H  -0.61500 35.12200 32.00800
H  -1.37600 37.08800 32.53200
H  -2.74300 36.19900 33.20500
H  -2.87500 37.07900 31.57300
H  -0.88700 33.46000 33.14900
H  -1.40500 32.14700 32.07900
H  -3.07600 31.42500 33.50600
H  -3.31400 33.15700 34.02700
H  1.85300 38.77600 27.93500
H  0.76800 38.62900 29.27800
H  0.25100 39.76100 28.02700
H  2.32300 39.96500 24.25300
H  2.51100 39.40400 25.94400
H  1.15500 40.45300 25.54700
H  -1.42600 34.53400 21.98000
H  -3.74700 32.80900 22.34100
H  -3.24700 36.45800 22.73900
H  -4.30300 35.16700 22.23400
H  -3.04700 35.87000 21.12600
H  -1.35100 32.40300 21.42200
H  -2.57500 31.18000 21.80000
H  -0.70400 31.39500 24.17500
H  0.22800 31.40600 22.81200
H  -0.92300 30.06200 23.18400
H  -5.53300 28.75700 26.67000
H  -5.48500 29.58900 25.15500
H  -6.64700 30.15600 26.48500
H  -3.68700 30.68400 31.26400
H  -7.40700 32.35600 32.87000
H  -6.06400 33.01200 33.74400
H  -6.73800 31.43300 34.26900

