158

Mg 2.24800 -1.95700 44.07500
C  5.62400 -1.45200 43.43700
C  1.50600 0.79300 42.21800
C  -1.03800 -2.67600 44.46400
C  3.08900 -5.09700 45.54700
N  3.48500 -0.53700 42.95800
C  4.84000 -0.48500 42.77800
C  5.25900 0.71000 41.81900
C  3.92800 1.52000 41.73900
C  2.92300 0.50700 42.34800
C  3.96700 2.97500 42.32300
C  5.89000 0.28400 40.41300
C  6.55300 1.51500 39.71100
H  5.95300 1.96200 38.36500
N  0.47100 -1.05600 43.43200
C  0.36400 0.09000 42.66700
C  -0.95400 0.43900 42.36300
C  -1.72100 -0.51700 43.10200
C  -0.78100 -1.53900 43.72700
C  -1.38800 1.61300 41.57900
C  -3.25200 -0.49600 43.18400
O  -3.89000 0.46800 42.65200
C  -4.10800 -1.63400 43.77100
N  1.26500 -3.68800 44.78800
C  -0.09200 -3.65400 44.91100
C  -0.56100 -5.07100 45.49600
C  0.67700 -5.90900 45.68200
C  1.75500 -4.85600 45.35300
C  -1.42100 -4.98200 46.84800
C  0.81000 -7.12200 44.88000
C  0.21500 -8.36600 45.58300
N  4.00100 -3.06900 44.49200
C  4.16900 -4.27100 45.12200
C  5.55700 -4.53300 45.29300
C  6.21100 -3.44100 44.75100
C  5.21400 -2.59300 44.17600
C  6.29700 -5.77600 45.95500
C  7.47700 -2.79000 44.52400
O  8.58500 -3.06900 44.95000
C  7.20400 -1.50900 43.56900
C  7.71900 -0.26100 44.17800
O  8.69800 0.36400 43.78600
O  6.88000 0.12900 45.15400
C  7.16400 1.48200 45.71800
H  1.37200 1.74900 41.70600
H  -2.05600 -2.82700 44.82900
H  3.54700 -6.00600 45.94200
H  5.99500 1.15800 42.48600
H  3.66100 1.59600 40.68500
H  4.87100 3.09600 42.91900
H  3.15700 2.90400 43.05000
H  3.87100 3.71000 41.52400
H  5.15200 -0.16400 39.74800
H  6.70900 -0.42800 40.51500
H  7.61700 1.50900 39.47800
H  6.51400 2.27800 40.48800
H  -1.91100 1.26800 40.68700
H  -0.58000 2.25400 41.22600
H  -2.09200 2.26300 42.09800
H  -5.14600 -1.35700 43.58600
H  -3.92800 -1.75500 44.83900
H  -3.84600 -2.60000 43.34000
H  -1.02500 -5.54700 44.63200
H  0.76600 -6.18700 46.73300
H  -2.49700 -5.09600 46.71600
H  -1.14400 -4.18700 47.54100
H  -1.24400 -5.88600 47.43100
H  1.85100 -7.21100 44.56800
H  0.29700 -7.01900 43.92400
H  -0.41000 -8.10800 46.43800
H  0.98100 -9.06600 45.91500
H  -0.41000 -8.92300 44.88500
H  6.06200 -6.67600 45.38700
H  5.86200 -5.95900 46.93800
H  7.37300 -5.63800 46.06100
H  7.85500 -1.65700 42.70800
H  6.28600 1.96900 46.14300
H  7.45800 2.14500 44.90500
H  7.94200 1.44800 46.48100
Mg 24.68300 -5.32500 46.33500
C  26.73500 -2.78400 45.00000
C  22.20500 -4.43200 43.96800
C  22.98600 -8.03500 47.11200
C  27.52500 -6.65800 47.79800
N  24.60000 -3.87100 44.56800
C  25.54500 -2.90100 44.23400
C  25.07500 -1.94200 43.23600
C  23.59400 -2.52200 42.96100
C  23.40500 -3.61200 43.95100
C  22.36000 -1.49600 42.97400
C  26.01000 -1.94900 42.00500
C  26.07100 -0.61700 41.27700
H  25.53600 -0.45400 39.84600
N  22.78200 -5.92100 45.83800
C  21.96800 -5.46700 44.86400
C  20.78200 -6.21100 44.80000
C  21.02600 -7.34700 45.66400
C  22.32900 -7.12700 46.24400
C  19.54800 -5.86100 43.94200
C  20.03400 -8.41700 45.86400
O  18.99900 -8.43800 45.23200
C  20.09400 -9.53400 46.99800
N  25.18400 -7.00400 47.38500
C  24.25500 -8.01800 47.67000
C  24.89300 -9.24600 48.27600
C  26.40900 -8.81500 48.50300
C  26.43700 -7.43100 47.84800
C  24.19800 -9.70400 49.60600
C  27.53300 -9.89000 48.10800
C  28.53400 -10.38200 49.12400
N  26.67700 -4.82500 46.52400
C  27.72900 -5.40800 47.20200
C  28.90500 -4.65500 47.11500
C  28.55200 -3.59100 46.28800
C  27.20000 -3.71400 45.92200
C  30.11500 -4.79400 47.95400
C  29.09400 -2.35300 45.72100
O  30.23800 -1.95400 45.73800
C  27.91100 -1.78200 44.81800
C  27.63000 -0.40600 45.29500
O  26.93900 -0.11400 46.29500
O  28.10700 0.49800 44.41100
C  27.89800 1.91000 44.85400
H  21.33200 -4.14900 43.37700
H  22.40200 -8.95800 47.13800
H  28.37500 -7.16800 48.25700
H  24.97300 -0.90900 43.57000
H  23.58400 -3.00000 41.98200
H  21.57600 -1.85700 43.64000
H  21.98900 -1.42300 41.95200
H  22.65800 -0.46600 43.16900
H  25.55000 -2.64800 41.30600
H  27.02400 -2.25400 42.26500
H  27.11600 -0.31100 41.32800
H  25.51800 0.14300 41.82900
H  19.48300 -6.48700 43.05300
H  19.49300 -4.79200 43.73300
H  18.69800 -6.12800 44.56900
H  19.10900 -9.99500 47.07300
H  20.40500 -9.14100 47.96600
H  20.75600 -10.32100 46.63600
H  24.86200 -10.03200 47.52100
H  26.51000 -8.54100 49.55300
H  24.69500 -9.44800 50.54200
H  24.05500 -10.78100 49.52100
H  23.22600 -9.24200 49.78400
H  28.09700 -9.38000 47.32600
H  27.06400 -10.72400 47.58600
H  29.51600 -10.20300 48.68600
H  28.30700 -11.41900 49.37000
H  28.40400 -9.78900 50.02900
H  29.98400 -4.23600 48.88100
H  30.99700 -4.32700 47.51800
H  30.22700 -5.84800 48.20900
H  28.23100 -1.76800 43.77700
H  27.92700 2.01900 45.93800
H  26.96100 2.32100 44.47700
H  28.66600 2.50900 44.36600

