158

Mg 26.92600 51.13600 27.14900
C  24.52600 52.12900 29.45600
C  28.95200 50.22800 29.53500
C  29.12000 50.60700 24.78300
C  24.57300 52.24600 24.63500
N  26.73300 51.27500 29.33500
C  25.64100 51.51200 30.06000
C  25.84200 51.23400 31.50700
C  27.33400 50.56000 31.52900
C  27.69600 50.66800 30.04700
C  28.18900 51.31500 32.54500
C  24.76100 50.29800 32.07700
C  24.04400 50.72400 33.41000
H  24.19000 49.76500 34.58700
N  28.83000 50.56000 27.18200
C  29.53400 50.26700 28.26500
C  30.89700 49.93600 27.90200
C  30.96200 50.17300 26.47500
C  29.59500 50.46400 26.06300
C  31.96500 49.58000 28.81400
C  32.12100 50.08800 25.56200
O  32.14000 50.40300 24.34600
C  33.46700 49.60700 26.07600
N  26.78900 51.36700 25.01500
C  27.86400 51.00700 24.26700
C  27.69500 51.02100 22.82300
C  26.13200 51.31900 22.74900
C  25.73000 51.64800 24.23000
C  28.57100 52.05000 22.05200
C  25.16400 50.22000 22.19600
C  23.81200 50.75300 21.64700
N  24.95700 52.01700 27.02400
C  24.21400 52.45700 25.98300
C  23.01700 53.05300 26.41700
C  23.07100 52.91200 27.81700
C  24.26700 52.25500 28.10700
C  22.04200 53.74700 25.51400
C  22.38200 53.24400 29.05500
O  21.31500 53.77400 29.28500
C  23.24900 52.57200 30.12600
C  23.59800 53.62000 31.14600
O  24.42200 54.51200 31.08300
O  22.75000 53.45900 32.21400
C  23.00900 54.44000 33.31500
H  29.61500 49.89000 30.33400
H  29.79100 50.21700 24.01400
H  23.76100 52.33800 23.91100
H  25.81700 52.17500 32.05600
H  27.41000 49.50000 31.77300
H  29.14400 50.79600 32.63700
H  27.89600 51.28500 33.59500
H  28.38200 52.34500 32.24700
H  25.26500 49.36300 32.32000
H  23.90600 50.05300 31.44700
H  22.98900 50.87600 33.18100
H  24.37800 51.66800 33.84000
H  31.60400 49.74900 29.82800
H  32.88900 50.15200 28.72900
H  32.22100 48.54600 28.58100
H  34.14600 49.51500 25.22800
H  33.42000 48.62200 26.54000
H  33.82800 50.36000 26.77600
H  27.93500 50.02500 22.45300
H  26.00600 52.18900 22.10400
H  29.54200 52.03900 22.54700
H  28.15500 53.05600 22.10100
H  28.67000 51.74500 21.01000
H  24.88000 49.64900 23.08000
H  25.66100 49.52000 21.52400
H  23.67100 50.56600 20.58300
H  23.69500 51.79500 21.94600
H  22.99100 50.26300 22.17000
H  21.07500 53.74100 26.01800
H  21.79300 53.05800 24.70700
H  22.40100 54.75200 25.29500
H  22.64200 51.78100 30.56700
H  23.99700 54.39000 33.77300
H  22.30600 54.34700 34.14300
H  22.85100 55.47400 33.00700
Mg 16.83000 52.29200 26.56100
C  18.74400 50.95300 29.00800
C  14.40200 53.20200 28.83100
C  14.90900 53.54700 24.10800
C  19.24700 51.36100 24.13700
N  16.58700 52.04800 28.68300
C  17.54900 51.53800 29.49900
C  17.09500 51.72200 30.94100
C  15.63800 52.28600 30.83000
C  15.54400 52.55800 29.35200
C  14.46800 51.37700 31.37700
C  18.04900 52.73600 31.62000
C  17.90900 52.94400 33.16800
H  17.05300 51.98900 33.91100
N  14.88400 53.18600 26.46400
C  14.07200 53.51700 27.46400
C  12.94800 54.24500 27.00500
C  13.05000 54.40200 25.58200
C  14.31300 53.65900 25.31900
C  11.80100 54.59000 27.98100
C  12.13800 54.94300 24.60700
O  12.29500 54.87100 23.39200
C  10.84900 55.60500 25.10400
N  17.00200 52.22300 24.35300
C  16.06200 52.85800 23.62800
C  16.54800 52.95800 22.16800
C  18.05600 52.44800 22.24100
C  18.06200 51.88300 23.64500
C  15.66700 52.20300 21.15300
C  19.12900 53.46500 21.94100
C  20.00800 53.22300 20.76100
N  18.64300 51.27800 26.49800
C  19.48000 50.95600 25.49500
C  20.64400 50.29700 26.02600
C  20.43800 50.25200 27.42700
C  19.19900 50.92400 27.65000
C  21.82200 49.72700 25.29700
C  20.98700 49.78600 28.68500
O  21.93700 48.99300 28.97200
C  19.89400 50.31600 29.78100
C  19.54600 49.25500 30.77700
O  18.76600 48.36600 30.63200
O  20.33400 49.42500 31.94200
C  19.91500 48.54000 33.00400
H  13.64300 53.49800 29.55900
H  14.47500 53.98500 23.20600
H  20.06100 51.18300 23.43100
H  17.08700 50.73700 31.40900
H  15.47000 53.17700 31.43600
H  14.73300 50.73400 32.21600
H  13.94400 50.76100 30.64600
H  13.68300 51.96200 31.85700
H  17.85000 53.67700 31.10700
H  19.09900 52.60700 31.35600
H  17.45300 53.93400 33.17300
H  18.90900 53.14700 33.55100
H  10.86200 54.17300 27.61700
H  11.71600 55.63900 28.26400
H  11.84900 54.09700 28.95200
H  9.99900 55.46800 24.43600
H  11.13500 56.65700 25.10800
H  10.42400 55.26300 26.04700
H  16.47200 53.99400 21.83700
H  18.18800 51.56600 21.61400
H  16.04500 51.22200 20.86400
H  15.43400 52.81200 20.27900
H  14.72800 51.99300 21.66600
H  19.65300 53.65000 22.87900
H  18.61100 54.40600 21.76000
H  19.62400 53.79900 19.91900
H  20.03700 52.16000 20.52100
H  21.06800 53.45500 20.86400
H  22.59300 49.64300 26.06300
H  22.08000 50.48600 24.55900
H  21.62900 48.75600 24.84200
H  20.42100 51.12300 30.29000
H  20.39100 48.80500 33.94800
H  20.15900 47.50300 32.77300
H  18.83600 48.53000 33.15600

