158

Mg 40.64700 9.62200 30.17900
C  42.66400 11.10100 32.74800
C  38.68600 8.40300 32.61800
C  39.09100 7.98100 27.77500
C  43.07400 10.47300 27.76000
N  40.68200 9.79200 32.40300
C  41.56300 10.48500 33.24400
C  41.14700 10.37400 34.75900
C  39.93700 9.33800 34.64700
C  39.66400 9.22300 33.15600
C  40.20100 7.93900 35.29300
C  40.92100 11.74600 35.38200
C  40.02500 11.68000 36.63100
H  40.46400 12.45200 37.89400
N  39.11200 8.35300 30.18700
C  38.36000 7.99500 31.27200
C  37.25800 7.07500 30.86800
C  37.33200 7.07200 29.46400
C  38.58100 7.82100 29.06500
C  36.30700 6.46400 31.87000
C  36.25500 6.44400 28.53500
O  36.28000 6.57900 27.34700
C  35.10900 5.68600 29.00300
N  41.02100 9.23500 27.96600
C  40.19100 8.63300 27.17500
C  40.40000 8.75400 25.69200
C  41.71600 9.63900 25.71800
C  41.96000 9.79200 27.21800
C  40.59300 7.41000 24.98600
C  41.46900 11.09500 25.07000
C  42.62600 11.79400 24.22000
N  42.55300 10.45100 30.15900
C  43.37600 10.72700 29.11500
C  44.52200 11.46500 29.67000
C  44.33500 11.60500 31.01900
C  43.13900 10.95400 31.31600
C  45.54300 12.09600 28.85000
C  44.86000 12.26600 32.23700
O  45.75500 13.06300 32.32900
C  43.80000 11.90800 33.44400
C  44.68100 11.30200 34.46000
O  45.12800 10.17900 34.42800
O  44.99500 12.18200 35.45700
C  45.79700 11.69400 36.59400
H  38.12200 7.96800 33.44500
H  38.36800 7.54200 27.08500
H  43.79500 10.87300 27.04300
H  41.97000 9.99500 35.36600
H  39.04300 9.83100 35.02900
H  41.12000 7.98700 35.87700
H  40.42900 7.19100 34.53300
H  39.35400 7.69900 35.93600
H  40.39600 12.35200 34.64400
H  41.82900 12.24700 35.71900
H  39.98500 10.62200 36.88900
H  38.98200 11.90800 36.41100
H  36.55100 6.68400 32.91000
H  36.01900 5.43400 31.65900
H  35.30500 6.85600 31.69800
H  34.35500 5.53500 28.23000
H  34.59800 6.28700 29.75600
H  35.53500 4.74600 29.35300
H  39.52400 9.23400 25.25600
H  42.61100 9.20200 25.27400
H  39.68000 7.16500 24.44400
H  40.81400 6.63700 25.72300
H  41.41800 7.38500 24.27400
H  41.23500 11.71200 25.93700
H  40.53100 11.07000 24.51600
H  42.32700 12.01500 23.19500
H  43.53700 11.20400 24.31700
H  42.86000 12.74700 24.69300
H  45.25500 13.10500 28.55400
H  45.75400 11.53800 27.93700
H  46.47800 12.12300 29.40800
H  43.43100 12.90100 33.70000
H  45.12800 11.27900 37.34800
H  46.27800 12.53700 37.09100
H  46.55400 10.99200 36.24500
Mg -2.55700 34.51100 27.38100
C  -4.13100 32.43800 29.78000
C  -1.05400 36.20500 29.75800
C  -1.30900 36.58500 25.02000
C  -4.25900 32.84000 24.78400
N  -2.77200 34.45900 29.52500
C  -3.39000 33.45600 30.33600
C  -3.19300 33.72500 31.79800
C  -2.41000 35.10800 31.74200
C  -2.01000 35.28400 30.24600
C  -3.18600 36.33900 32.27900
C  -2.49700 32.55600 32.57800
C  -3.16500 32.25100 34.05500
H  -2.25100 32.57900 35.27100
N  -1.24400 36.10500 27.35600
C  -0.62700 36.57300 28.45500
C  0.40900 37.43100 28.09100
C  0.14100 37.79900 26.71900
C  -0.91200 36.80900 26.28700
C  1.42300 37.87300 29.08600
C  0.78900 38.96000 25.86800
O  0.50200 39.11000 24.68300
C  1.94500 39.76200 26.28100
N  -2.51100 34.48200 25.13800
C  -2.15200 35.62200 24.51000
C  -2.53900 35.54900 23.04300
C  -3.60900 34.41600 23.00900
C  -3.42600 33.86300 24.39000
C  -3.17000 36.86800 22.38400
C  -3.62600 33.36900 21.85400
C  -2.68300 32.13000 22.08200
N  -3.83300 33.01000 27.26600
C  -4.42900 32.42300 26.15400
C  -5.27200 31.34600 26.62100
C  -5.12000 31.23300 28.00400
C  -4.23400 32.29900 28.38900
C  -6.09800 30.47500 25.77300
C  -5.62200 30.63100 29.23500
O  -6.46800 29.78900 29.41800
C  -4.85000 31.26500 30.42600
C  -5.83700 31.58600 31.49400
O  -6.77300 32.38800 31.43400
O  -5.64800 30.72700 32.58600
C  -6.49300 30.84800 33.75300
H  -0.56200 36.73200 30.57800
H  -0.98800 37.22900 24.19800
H  -5.05600 32.45000 24.14800
H  -4.20100 33.88900 32.18000
H  -1.45000 35.03100 32.25200
H  -4.07700 36.01300 32.81400
H  -3.49800 36.93900 31.42400
H  -2.63600 36.83200 33.08100
H  -1.46400 32.88800 32.68100
H  -2.47600 31.68300 31.92500
H  -3.36300 31.18400 33.94900
H  -4.16200 32.66100 34.21900
H  1.23000 37.40700 30.05200
H  1.45100 38.95000 29.24700
H  2.46900 37.74400 28.81000
H  1.77900 40.34600 27.18700
H  2.15600 40.55400 25.56300
H  2.81300 39.11600 26.41000
H  -1.71000 35.19800 22.42900
H  -4.55200 34.95200 23.11500
H  -3.13400 37.73400 23.04500
H  -4.22000 36.65600 22.18200
H  -2.63700 37.15600 21.47800
H  -3.24800 33.82300 20.93700
H  -4.67100 33.08200 21.73900
H  -3.18900 31.26800 22.51600
H  -1.78300 32.30800 22.67200
H  -2.34400 31.83900 21.08800
H  -5.73700 30.31400 24.75700
H  -7.15300 30.74900 25.74900
H  -6.06400 29.47500 26.20700
H  -4.18000 30.49800 30.81500
H  -6.91700 29.84500 33.68700
H  -7.29700 31.55500 33.55200
H  -5.91900 31.16300 34.62400

