158

Mg 36.54900 0.43400 30.51100
C  34.24700 1.69400 32.97500
C  38.89500 0.33700 32.99200
C  38.59200 -0.41000 28.05700
C  33.99000 0.91000 28.20700
N  36.51700 0.90800 32.72100
C  35.51600 1.35400 33.48800
C  35.90500 1.52300 34.86200
C  37.46900 1.43000 34.80300
C  37.68300 0.81200 33.42200
C  38.22900 2.80000 35.00200
C  35.26600 0.32900 35.70500
C  34.98700 0.63500 37.21400
H  35.61900 1.93200 37.80200
N  38.50400 -0.10900 30.53300
C  39.33600 -0.08700 31.64000
C  40.66400 -0.41400 31.25400
C  40.63600 -0.63000 29.81000
C  39.18700 -0.34900 29.37500
C  41.83700 -0.59600 32.19100
C  41.64800 -1.13000 28.96000
O  41.43700 -1.28300 27.75900
C  42.95100 -1.63500 29.48600
N  36.32400 0.20800 28.48400
C  37.29300 -0.12400 27.63000
C  36.87300 -0.21000 26.18800
C  35.32100 0.02100 26.32800
C  35.14100 0.29600 27.79300
C  37.58900 0.79400 25.29800
C  34.40300 -1.19800 25.89900
C  33.74200 -1.09500 24.51100
N  34.50900 1.13200 30.48500
C  33.57100 1.20600 29.43000
C  32.36700 1.66000 29.95800
C  32.54500 1.91800 31.30300
C  33.92500 1.57500 31.62200
C  31.13400 1.80600 29.04400
C  31.91400 2.27500 32.53800
O  30.73500 2.48100 32.75200
C  32.98200 2.19900 33.64600
C  33.09500 3.50400 34.29100
O  33.84200 4.38200 33.90200
O  32.43800 3.55600 35.51800
C  32.82300 4.60800 36.52300
H  39.58100 0.31800 33.84100
H  39.29000 -0.47200 27.21900
H  33.24000 0.82100 27.41800
H  35.50100 2.47100 35.21800
H  37.85900 0.73500 35.54700
H  37.62200 3.67700 34.77700
H  39.11800 2.83400 34.37200
H  38.46100 2.66500 36.05900
H  35.82800 -0.60500 35.72800
H  34.35300 -0.04700 35.24300
H  35.16200 -0.29000 37.76300
H  33.91700 0.82300 37.28900
H  42.83900 -0.38000 31.81900
H  41.75800 -1.61300 32.57300
H  41.73000 0.08900 33.03200
H  43.57400 -0.80700 29.82600
H  43.54400 -2.35800 28.92600
H  42.69100 -2.26500 30.33700
H  37.04000 -1.20500 25.77600
H  35.08700 0.92100 25.75900
H  36.85600 1.32900 24.69500
H  38.26000 0.28600 24.60500
H  38.23200 1.48000 25.85000
H  33.66000 -1.47900 26.64600
H  35.10700 -2.03000 25.89700
H  32.72200 -0.71200 24.55700
H  33.85700 -2.06400 24.02600
H  34.24900 -0.44100 23.80200
H  30.59800 2.70900 29.33500
H  30.52200 0.90500 29.09200
H  31.48100 1.85600 28.01200
H  32.59500 1.59200 34.46400
H  33.62300 5.23400 36.12900
H  33.22500 4.21700 37.45700
H  31.93000 5.19100 36.74700
Mg 47.10800 34.15100 26.81800
C  45.65000 32.53000 29.59200
C  47.36000 37.01100 28.72300
C  48.28800 35.75600 24.17900
C  46.58200 31.33500 24.95400
N  46.43100 34.73500 28.85700
C  45.89100 33.90700 29.79100
C  45.56300 34.74000 31.03900
C  46.14400 36.09400 30.79900
C  46.70700 35.98300 29.38500
C  45.01700 37.19200 31.04400
C  45.97200 34.05400 32.34500
C  46.26500 35.00700 33.55300
H  47.68000 35.48300 33.93300
N  47.77700 36.12200 26.49200
C  47.78700 37.12800 27.41600
C  48.54900 38.27700 26.82500
C  48.76200 37.95800 25.48000
C  48.20800 36.58400 25.30700
C  48.75700 39.53500 27.64400
C  49.31000 38.85900 24.34200
O  49.62100 38.37700 23.22900
C  49.63700 40.21900 24.65700
N  47.37400 33.60200 24.92800
C  47.90500 34.42400 23.96200
C  48.04500 33.75500 22.55300
C  47.67500 32.32300 22.95300
C  47.17100 32.41000 24.32200
C  47.23500 34.47800 21.41700
C  48.79800 31.34000 22.72300
C  48.44100 29.88100 22.26100
N  46.19800 32.31400 27.10500
C  46.02800 31.24800 26.21600
C  45.38600 30.18400 26.88400
C  45.28700 30.61900 28.25000
C  45.73900 31.95900 28.33100
C  45.09500 28.81700 26.33900
C  44.84400 30.15800 29.50000
O  44.48800 29.07800 29.85600
C  45.11100 31.39800 30.48900
C  46.05500 30.92000 31.53000
O  47.28700 30.81900 31.46300
O  45.40000 30.60800 32.67300
C  46.25100 30.09700 33.75900
H  47.38600 37.94500 29.28800
H  48.61300 36.30400 23.29200
H  46.44400 30.45500 24.32300
H  44.47600 34.71800 31.11800
H  46.92800 36.23500 31.54300
H  45.41400 37.85100 31.81600
H  44.00300 36.85700 31.26300
H  44.94600 37.79200 30.13700
H  46.93100 33.56100 32.18800
H  45.28400 33.26500 32.64700
H  45.70200 34.60500 34.39500
H  45.69500 35.92800 33.43100
H  47.89300 39.64900 28.29900
H  48.59900 40.46100 27.09000
H  49.67300 39.63700 28.22700
H  48.76600 40.78500 24.98900
H  49.86200 40.74700 23.73100
H  50.54500 40.37000 25.24200
H  49.10800 33.85300 22.33300
H  46.74600 32.01400 22.47400
H  46.41400 35.03300 21.87200
H  46.90400 33.72100 20.70700
H  47.81700 35.23800 20.89600
H  49.29900 31.13100 23.66800
H  49.59800 31.70800 22.08000
H  49.01800 29.71800 21.35000
H  47.39700 29.79400 21.95900
H  48.72600 29.13600 23.00400
H  45.89300 28.09300 26.50900
H  44.82200 28.85200 25.28500
H  44.18000 28.49400 26.83600
H  44.16100 31.64300 30.96500
H  45.66900 29.89800 34.65900
H  47.12100 30.68200 34.05600
H  46.69100 29.13500 33.49400

