158

Mg -2.05800 17.41700 26.25000
C  -2.28700 15.36100 29.03300
C  -2.79900 20.17200 28.22500
C  -2.07700 19.43700 23.49400
C  -2.07500 14.56100 24.28600
N  -2.52600 17.71000 28.36800
C  -2.37500 16.75500 29.34600
C  -2.51800 17.42000 30.79300
C  -3.05200 18.89800 30.42000
C  -2.70300 18.96700 28.87400
C  -4.52700 19.30300 30.62100
C  -1.21800 17.42700 31.68300
C  -1.35400 18.06900 33.09600
H  -1.31100 17.16900 34.37800
N  -2.32200 19.51700 25.95900
C  -2.57200 20.48700 26.87200
C  -2.62900 21.74400 26.33100
C  -2.26100 21.55700 24.97800
C  -2.27700 20.07800 24.75200
C  -2.65800 23.09700 27.04100
C  -1.89500 22.58800 23.89500
O  -1.80700 22.28500 22.75200
C  -1.82600 24.00400 24.22200
N  -2.30100 17.03200 24.12600
C  -2.10900 18.02400 23.24900
C  -1.99800 17.38100 21.88300
C  -1.86100 15.85800 22.11000
C  -2.02600 15.80100 23.64500
C  -3.25000 17.73500 20.97400
C  -0.51700 15.14400 21.59900
C  0.80700 15.75300 22.11000
N  -2.07600 15.37300 26.57400
C  -2.12800 14.33300 25.65000
C  -2.17800 13.09900 26.31100
C  -2.29200 13.41800 27.71300
C  -2.11400 14.82500 27.77500
C  -2.25500 11.69900 25.72500
C  -2.44400 12.97200 29.13400
O  -2.57700 11.85100 29.61800
C  -2.45300 14.19600 29.94200
C  -1.42600 14.05500 30.93300
O  -0.22700 14.27500 30.79500
O  -2.04000 13.47400 32.03000
C  -1.25000 13.00100 33.21700
H  -3.20000 21.05200 28.73200
H  -1.99900 20.02000 22.57400
H  -2.04700 13.65100 23.68100
H  -3.40100 16.93900 31.21200
H  -2.56000 19.64800 31.03900
H  -4.87800 19.80000 29.71600
H  -4.62200 20.02100 31.43600
H  -5.12000 18.42800 30.88600
H  -0.36600 17.85000 31.14900
H  -0.91600 16.40100 31.89500
H  -2.35700 18.44200 33.30600
H  -0.67600 18.91600 33.20100
H  -2.70500 23.07700 28.13000
H  -3.46400 23.74000 26.69100
H  -1.73300 23.63100 26.82300
H  -2.66600 24.41100 24.78500
H  -1.87500 24.50500 23.25600
H  -0.91100 24.13200 24.80100
H  -1.19200 17.87900 21.34500
H  -2.65200 15.25900 21.65700
H  -3.89400 18.31400 21.63600
H  -3.84800 16.88200 20.65200
H  -3.00600 18.38500 20.13400
H  -0.42100 15.12800 20.51400
H  -0.47600 14.10600 21.92800
H  1.38000 15.01200 22.66700
H  0.57600 16.55900 22.80600
H  1.40500 16.07100 21.25500
H  -3.18700 11.19800 25.98900
H  -1.42100 11.15900 26.17400
H  -1.95800 11.68300 24.67600
H  -3.44400 14.26600 30.38900
H  -0.24300 13.36700 33.01700
H  -1.20500 11.91200 33.22200
H  -1.61800 13.35400 34.18100
Mg 40.47800 41.69400 27.07800
C  39.67700 44.09100 29.61600
C  41.31500 39.48700 29.60100
C  41.40700 39.64300 24.64400
C  40.10600 44.43900 24.85400
N  40.47500 41.79200 29.37600
C  40.06300 42.86200 30.16200
C  40.03100 42.42900 31.66400
C  40.61300 40.94500 31.63200
C  40.82900 40.68400 30.13200
C  41.85800 40.64400 32.53000
C  38.60400 42.61500 32.32800
C  38.33100 41.74100 33.55200
H  37.61100 42.46400 34.59000
N  41.27000 39.79500 27.10300
C  41.51000 39.03300 28.24000
C  42.04300 37.72400 27.77900
C  42.09400 37.75300 26.34500
C  41.59600 39.08300 25.95200
C  42.36000 36.57000 28.82000
C  42.54700 36.71600 25.34600
O  42.81000 36.95400 24.16200
C  42.88200 35.33300 25.89000
N  40.77000 42.01200 25.02800
C  41.14300 40.99000 24.22300
C  41.29100 41.44600 22.79000
C  40.80200 42.88900 22.85200
C  40.47800 43.17100 24.33900
C  42.76100 41.31700 22.21100
C  39.71800 43.14100 21.79300
C  38.31500 43.36900 22.36900
N  40.04800 43.80300 27.16200
C  39.96200 44.74000 26.16700
C  39.50100 46.02100 26.69100
C  39.36900 45.82100 28.06200
C  39.80000 44.46200 28.26500
C  39.14800 47.34200 26.06200
C  38.95900 46.39600 29.33200
O  38.60800 47.50000 29.52800
C  39.17100 45.32500 30.40700
C  40.09400 45.87100 31.46900
O  41.31200 45.89400 31.35700
O  39.37900 46.33800 32.53700
C  40.18300 46.85500 33.62900
H  41.41000 38.81300 30.45500
H  41.53300 38.94200 23.81600
H  39.82600 45.14400 24.06900
H  40.67600 43.09800 32.23500
H  39.85200 40.22200 31.92800
H  41.73000 39.68800 33.03900
H  42.00200 41.42600 33.27500
H  42.71500 40.49200 31.87300
H  37.76800 42.36300 31.67600
H  38.64400 43.66100 32.63200
H  39.22600 41.35000 34.03700
H  37.71300 40.86600 33.34700
H  41.63000 35.76100 28.79700
H  42.23600 36.80400 29.87700
H  43.37000 36.20300 28.63700
H  41.96000 35.09400 26.42000
H  43.79900 35.34200 26.48000
H  43.03200 34.66000 25.04500
H  40.69400 40.89800 22.06000
H  41.60200 43.59300 22.62500
H  43.21600 40.52700 22.80900
H  43.36300 42.21300 22.35900
H  42.77100 40.97900 21.17400
H  39.78700 42.36700 21.02900
H  40.07100 44.04900 21.30300
H  37.86200 44.32700 22.11300
H  38.16800 43.15200 23.42700
H  37.76500 42.62600 21.79000
H  38.94900 48.08100 26.83800
H  38.27900 47.23100 25.41300
H  39.91400 47.82200 25.45400
H  38.21700 45.12000 30.89300
H  40.90200 47.59700 33.28000
H  40.79200 46.13100 34.16900
H  39.56100 47.41000 34.33100

