158

Mg -2.40400 17.19800 27.04200
C  -2.64600 14.68100 29.65100
C  -2.71500 19.58400 29.30000
C  -2.51500 19.37900 24.52100
C  -2.57800 14.48700 24.72600
N  -2.59500 17.03600 29.18500
C  -2.65000 15.97400 30.15400
C  -2.88400 16.61200 31.51000
C  -2.92600 18.17400 31.33400
C  -2.72000 18.25800 29.81100
C  -4.17700 18.88300 31.99100
C  -1.83300 16.15000 32.51400
C  -1.44000 16.94100 33.65300
H  -0.88600 16.17000 34.83400
N  -2.45600 19.22900 26.87800
C  -2.50900 20.06900 27.96100
C  -2.39500 21.43900 27.60200
C  -2.42600 21.43600 26.17600
C  -2.47200 19.98000 25.78400
C  -2.37600 22.56000 28.61600
C  -2.34500 22.55400 25.12200
O  -2.38900 22.39400 23.94600
C  -2.25200 23.94200 25.64500
N  -2.70800 16.91000 24.91200
C  -2.58700 18.01200 24.15000
C  -2.41600 17.63200 22.61300
C  -2.52600 16.10200 22.70200
C  -2.58600 15.76700 24.18300
C  -3.57600 18.15100 21.70500
C  -1.40000 15.33200 21.96400
C  -0.01000 15.34400 22.56400
N  -2.49500 15.06700 27.11000
C  -2.53800 14.14800 26.08000
C  -2.41600 12.77900 26.57800
C  -2.46300 12.96500 27.99800
C  -2.61200 14.35100 28.27300
C  -2.27000 11.49600 25.83300
C  -2.47300 12.21200 29.30000
O  -2.58900 11.03800 29.55400
C  -2.54300 13.37700 30.41100
C  -1.20000 13.23100 31.12300
O  -0.14100 13.45900 30.62500
O  -1.30000 12.61900 32.35400
C  -0.02000 12.48300 33.02500
H  -2.99300 20.32000 30.05700
H  -2.41900 20.11300 23.71800
H  -2.49400 13.63800 24.04300
H  -3.79400 16.12800 31.86400
H  -2.06500 18.70400 31.74000
H  -4.77000 19.45800 31.28100
H  -3.75600 19.72900 32.53500
H  -4.75000 18.27800 32.69400
H  -0.89700 16.09700 31.95700
H  -2.14600 15.13700 32.76500
H  -2.43500 17.33000 33.87200
H  -0.76000 17.76200 33.42700
H  -1.57900 23.26600 28.38300
H  -2.17100 22.26700 29.64500
H  -3.35600 23.03500 28.57100
H  -2.51200 24.57700 24.79700
H  -1.30900 24.29500 26.06000
H  -2.97800 23.84200 26.45200
H  -1.41800 18.00100 22.37600
H  -3.48700 15.82000 22.27100
H  -4.40400 18.44300 22.35000
H  -3.84100 17.38100 20.98000
H  -3.17100 18.91600 21.04300
H  -1.46600 15.65700 20.92600
H  -1.70000 14.28800 22.05800
H  0.31400 14.33200 22.80700
H  0.02200 15.87400 23.51600
H  0.69700 15.81400 21.87900
H  -3.25600 11.32900 25.39800
H  -2.01900 10.71600 26.55000
H  -1.50100 11.52500 25.06000
H  -3.28800 13.26000 31.19800
H  0.51900 13.42800 32.95800
H  0.61300 11.67000 32.66900
H  -0.30700 12.23900 34.04800
Mg 16.80700 52.17200 26.14600
C  18.84900 50.74300 28.56600
C  14.56100 52.81200 28.69700
C  14.78300 53.39300 23.81400
C  18.89000 50.91700 23.65200
N  16.70800 51.73900 28.31000
C  17.75200 51.34600 29.09900
C  17.41800 51.41600 30.56100
C  15.87200 51.66600 30.55000
C  15.69800 52.10100 29.12700
C  14.99000 50.47800 30.98800
C  18.29000 52.49700 31.25800
C  18.49400 52.50200 32.80000
H  17.57600 51.56900 33.63800
N  14.96400 52.93700 26.27500
C  14.22200 53.28200 27.35200
C  13.10400 53.99900 27.01100
C  13.03700 54.11700 25.59900
C  14.28300 53.44700 25.14200
C  12.11100 54.57100 28.13300
C  12.01200 54.78200 24.62900
O  12.12100 54.89000 23.41600
C  10.85900 55.64000 25.25200
N  16.76400 52.05300 23.99800
C  15.87800 52.72700 23.25400
C  16.29000 52.84300 21.79100
C  17.62100 52.11100 21.74200
C  17.84700 51.65800 23.23100
C  15.22700 52.41200 20.71600
C  18.85900 53.00700 21.35400
C  20.01000 52.20200 20.78200
N  18.62400 51.13900 26.08600
C  19.24900 50.59700 24.98800
C  20.47300 49.96700 25.46700
C  20.32000 49.92400 26.89800
C  19.18100 50.66800 27.20000
C  21.55800 49.25200 24.66100
C  20.97500 49.41200 28.11900
O  22.01000 48.75900 28.24600
C  19.97400 49.95300 29.28700
C  19.69000 48.79700 30.18000
O  18.90800 47.92500 29.81800
O  20.22900 48.91500 31.45400
C  19.83100 47.92900 32.44900
H  13.80300 52.94700 29.47100
H  14.23900 53.87000 22.99600
H  19.54200 50.51700 22.87200
H  17.51700 50.43500 31.02600
H  15.69500 52.48900 31.24300
H  15.53500 49.60600 31.34800
H  14.30000 50.31100 30.16100
H  14.44100 50.77500 31.88100
H  17.80900 53.46300 31.10900
H  19.29600 52.53700 30.83900
H  18.30800 53.50200 33.19200
H  19.52200 52.18300 32.97600
H  11.12400 54.11200 28.19600
H  11.87200 55.57900 27.79700
H  12.39500 54.74800 29.17100
H  10.08600 55.80100 24.50200
H  11.28700 56.62800 25.42300
H  10.36100 55.18600 26.10900
H  16.30900 53.90800 21.56100
H  17.41800 51.27300 21.07500
H  14.73800 53.24100 20.20400
H  14.47800 51.83900 21.26200
H  15.61800 51.67100 20.01800
H  19.27300 53.48400 22.24200
H  18.48700 53.67400 20.57600
H  19.84400 51.13600 20.63000
H  20.97100 52.40800 21.25300
H  20.15900 52.58800 19.77300
H  22.32900 49.97300 24.38900
H  21.26300 48.76000 23.73500
H  21.94000 48.50100 25.35300
H  20.59000 50.59300 29.91800
H  18.76100 48.00800 32.64300
H  20.43000 48.06700 33.34900
H  20.14800 46.94500 32.10400

