158

Mg 9.36300 4.93800 28.39300
C  10.75200 3.20900 31.11100
C  7.36700 6.59400 30.44200
C  8.10400 6.58900 25.75400
C  11.27400 2.97700 26.15100
N  9.32900 4.99000 30.62900
C  9.91200 4.18900 31.55700
C  9.40200 4.46500 32.96000
C  8.31700 5.59700 32.75800
C  8.26200 5.69000 31.17800
C  6.89200 5.33500 33.44500
C  10.60400 4.90300 33.82300
C  10.31500 5.88100 34.97500
H  11.01100 5.73600 36.34500
N  7.80100 6.34500 28.08700
C  7.12400 6.91000 29.08000
C  6.10600 7.76100 28.49000
C  6.42900 7.86700 27.07700
C  7.47400 6.90700 26.92200
C  5.09200 8.36400 29.41500
C  5.82700 8.71700 26.02300
O  6.22900 8.87800 24.91600
C  4.65900 9.51700 26.50900
N  9.45900 4.61300 26.18200
C  9.00500 5.61100 25.40900
C  9.35900 5.41300 23.97000
C  10.67600 4.49500 24.07600
C  10.48600 3.95300 25.54500
C  8.21300 4.98700 23.06100
C  11.99100 5.26000 23.80000
C  12.28000 6.48200 24.67400
N  10.61700 3.34200 28.55200
C  11.30700 2.62700 27.53900
C  12.06100 1.60800 28.17100
C  11.89600 1.83200 29.55500
C  11.04100 2.89900 29.71700
C  12.77200 0.37000 27.57000
C  12.24400 1.28500 30.83000
O  12.97800 0.30600 31.10100
C  11.51600 2.17500 31.95600
C  10.57900 1.23900 32.65300
O  9.85100 0.46300 32.01900
O  10.88900 1.11400 33.98200
C  10.04000 0.22100 34.66400
H  6.75600 7.28200 31.02900
H  7.92000 7.19900 24.86700
H  11.88700 2.40000 25.45500
H  9.02700 3.51300 33.33500
H  8.75100 6.53700 33.10000
H  6.15200 5.19400 32.65800
H  6.71000 6.20100 34.08200
H  6.97900 4.43300 34.05100
H  11.23200 5.46200 33.13000
H  11.12100 3.99900 34.14300
H  9.28300 6.09800 35.25000
H  10.64900 6.87600 34.68200
H  4.92700 7.80700 30.33700
H  4.12400 8.43000 28.91900
H  5.48100 9.33300 29.72800
H  4.31300 10.12400 25.67300
H  4.86700 10.27100 27.26900
H  3.85400 8.87900 26.87300
H  9.73400 6.39600 23.68600
H  10.60300 3.77200 23.26400
H  8.15100 3.98600 22.63300
H  8.18500 5.71400 22.24900
H  7.26100 5.05800 23.58600
H  11.91500 5.66500 22.79100
H  12.75500 4.48900 23.69900
H  11.48700 6.66300 25.40000
H  12.42100 7.31300 23.98300
H  13.22000 6.25700 25.17900
H  12.07800 -0.05200 26.84300
H  13.06800 -0.35000 28.33300
H  13.68200 0.65100 27.04200
H  12.25700 2.65600 32.59400
H  9.16500 0.63000 35.16800
H  10.62700 -0.19700 35.48200
H  9.82600 -0.63600 34.02600
Mg 35.98000 49.18200 25.72400
C  36.10200 47.15400 28.53000
C  34.47000 51.58700 27.61400
C  35.78300 51.00600 22.96500
C  36.79800 46.39100 23.79600
N  35.18500 49.22800 27.86900
C  35.52300 48.46900 28.86800
C  35.18200 49.00900 30.22700
C  34.41600 50.32700 29.89500
C  34.66300 50.42800 28.35700
C  32.98900 50.46600 30.33300
C  36.39900 49.02600 31.10200
C  36.18500 48.72900 32.54000
H  34.79000 48.92700 33.13600
N  35.37900 51.08800 25.39200
C  34.76200 51.92000 26.30400
C  34.57200 53.20200 25.69000
C  35.02200 53.10400 24.31300
C  35.48000 51.70300 24.17100
C  34.03700 54.37000 26.36700
C  35.06700 54.15100 23.27800
O  35.51700 53.87300 22.16500
C  34.62300 55.49000 23.49900
N  36.03900 48.66500 23.66300
C  36.03700 49.64700 22.71800
C  36.11100 49.05100 21.30500
C  36.53500 47.61800 21.62100
C  36.52300 47.53200 23.14000
C  34.81100 49.05900 20.42800
C  37.91600 47.17000 20.90900
C  39.21300 47.87400 21.41400
N  36.33600 47.17200 26.03100
C  36.72200 46.20700 25.22600
C  37.10000 44.99200 25.95500
C  36.91000 45.33300 27.27100
C  36.42300 46.62500 27.25900
C  37.66800 43.68000 25.38100
C  37.03200 44.87600 28.69700
O  37.49900 43.84000 29.16900
C  36.62700 46.07300 29.57800
C  35.50800 45.66600 30.43300
O  34.31700 45.46400 30.09200
O  35.92900 45.32500 31.68300
C  35.00100 44.83000 32.71300
H  33.93600 52.33100 28.20800
H  35.74400 51.52100 22.00200
H  37.12600 45.54900 23.18400
H  34.44600 48.29200 30.59200
H  35.03900 51.12400 30.30000
H  32.81000 51.37100 30.91300
H  32.75000 49.54700 30.86800
H  32.30200 50.50900 29.48700
H  36.82700 50.02400 31.01400
H  37.21400 48.46300 30.64800
H  36.87400 49.47000 32.94400
H  36.53900 47.71700 32.74100
H  33.47400 53.99200 27.22000
H  33.35300 54.99800 25.79600
H  34.91500 54.94300 26.66700
H  35.29300 55.94400 24.22900
H  33.57500 55.44200 23.79400
H  34.74400 56.11400 22.61300
H  36.92500 49.49700 20.73200
H  35.74000 46.92100 21.35600
H  34.59800 48.11800 19.92100
H  34.98400 49.82900 19.67600
H  33.90700 49.30300 20.98500
H  37.93300 47.36600 19.83600
H  38.04600 46.09100 20.99500
H  39.74900 47.05700 21.89600
H  38.99700 48.52900 22.25800
H  39.77900 48.40000 20.64400
H  38.59100 43.27500 25.79700
H  37.84000 43.71400 24.30500
H  36.97900 42.88100 25.65400
H  37.50300 46.34300 30.16900
H  34.59600 43.87300 32.38500
H  34.24300 45.60400 32.83200
H  35.60000 44.74400 33.62000

