158

Mg 17.22800 -0.01600 28.24400
C  16.00600 1.73200 30.97700
C  18.99000 -2.02400 30.34600
C  18.27200 -1.76100 25.55500
C  14.94700 1.92500 26.13300
N  17.50200 -0.00200 30.40400
C  16.86400 0.70900 31.33700
C  17.11700 0.17200 32.78500
C  18.22700 -0.85900 32.52800
C  18.24400 -1.01300 30.99700
C  19.56100 -0.45400 33.27300
C  15.83300 -0.38100 33.54300
C  15.29500 0.37800 34.76900
H  16.36000 0.88100 35.73500
N  18.60500 -1.60000 28.00600
C  19.16400 -2.33500 28.99000
C  19.97000 -3.42300 28.38500
C  19.75800 -3.30600 26.99200
C  18.84300 -2.19300 26.76600
C  20.71700 -4.41100 29.23200
C  20.28000 -4.22900 25.82800
O  20.01200 -4.03700 24.63900
C  21.13700 -5.37000 26.09900
N  16.64400 0.12900 26.09800
C  17.28000 -0.78100 25.21600
C  16.84500 -0.42300 23.79600
C  15.55300 0.56600 24.01100
C  15.70600 0.91600 25.48000
C  18.08900 0.25400 23.02200
C  14.21300 -0.08400 23.56300
C  13.49500 0.66800 22.32100
N  15.88800 1.61100 28.46300
C  15.02200 2.30700 27.51700
C  14.33700 3.32300 28.25000
C  14.68900 3.11000 29.61900
C  15.67800 2.11100 29.62900
C  13.43500 4.31600 27.63100
C  14.34700 3.51400 30.97000
O  13.48200 4.25300 31.35500
C  15.25600 2.66700 31.90100
C  16.16500 3.62200 32.59300
O  17.17200 4.14900 32.10300
O  15.76900 3.81000 33.90900
C  16.43600 4.96700 34.62100
H  19.62900 -2.70500 30.91200
H  18.50700 -2.29900 24.63500
H  14.30600 2.58000 25.53900
H  17.49800 1.05100 33.30400
H  17.94700 -1.85400 32.87300
H  19.46600 0.15200 34.17400
H  20.21600 0.04300 32.55700
H  20.07400 -1.33800 33.65300
H  15.95100 -1.39900 33.91500
H  15.00200 -0.32700 32.84000
H  14.71100 -0.33100 35.35500
H  14.70200 1.26500 34.54700
H  20.45700 -4.33400 30.28800
H  21.79800 -4.38400 29.09100
H  20.31100 -5.35200 28.86100
H  20.53700 -6.10200 26.64000
H  21.97100 -5.04000 26.71800
H  21.41700 -5.78800 25.13200
H  16.59700 -1.27900 23.16800
H  15.70300 1.44900 23.39000
H  18.18600 -0.23800 22.05400
H  19.00000 0.03300 23.57800
H  17.90200 1.30500 22.80000
H  13.45200 -0.02000 24.34000
H  14.21400 -1.12800 23.25100
H  12.61200 1.18900 22.68900
H  13.12600 -0.10100 21.64200
H  14.27400 1.23400 21.81000
H  12.54700 3.78600 27.28900
H  13.94200 4.78900 26.79000
H  13.10400 4.98100 28.42900
H  14.66000 2.19800 32.68400
H  16.64700 5.81600 33.97100
H  17.21100 4.41900 35.15600
H  15.71400 5.29200 35.37000
Mg -12.69000 15.77100 42.43400
C  -9.48900 14.38300 42.49800
C  -11.32200 18.58300 40.84000
C  -15.77300 16.97900 41.93300
C  -13.98900 12.61200 43.18900
N  -10.65000 16.34200 41.69700
C  -9.47800 15.61700 41.89200
C  -8.31100 16.23100 41.12000
C  -8.93500 17.65100 40.71200
C  -10.44000 17.55200 41.11700
C  -8.39200 18.96800 41.34300
C  -8.02800 15.36400 39.82200
C  -6.54300 15.27000 39.40200
H  -6.16700 16.10500 38.20500
N  -13.42900 17.59200 41.51400
C  -12.70400 18.59800 40.94200
C  -13.66900 19.64500 40.45400
C  -15.00900 19.22700 40.91500
C  -14.79900 17.86700 41.46600
C  -13.24100 21.07800 39.91300
C  -16.28800 19.99200 40.67700
O  -16.35600 21.08600 40.13900
C  -17.63800 19.53800 41.20600
N  -14.59000 14.85300 42.39200
C  -15.71000 15.63500 42.25100
C  -16.95100 14.74500 42.49400
C  -16.38700 13.29700 42.77600
C  -14.87000 13.60300 42.76400
C  -17.89900 15.37000 43.53300
C  -16.81400 12.19000 41.75200
C  -18.01100 11.27600 42.28300
N  -11.89700 13.85100 42.93700
C  -12.52300 12.67300 43.25700
C  -11.54600 11.71600 43.59400
C  -10.29400 12.33800 43.25400
C  -10.61100 13.64900 42.82900
C  -11.75900 10.35300 44.19800
C  -8.79500 12.15500 43.24400
O  -8.05600 11.18900 43.53500
C  -8.20200 13.52000 42.64800
C  -7.14200 14.14400 43.60700
O  -7.28600 14.75000 44.64300
O  -5.87500 13.89700 43.01700
C  -4.76400 14.62600 43.64900
H  -11.06600 19.59600 40.52200
H  -16.79900 17.30800 41.75800
H  -14.38200 11.63100 43.46600
H  -7.52700 16.27300 41.87700
H  -9.01800 17.81100 39.63700
H  -9.11300 19.08100 42.15200
H  -8.46400 19.75800 40.59600
H  -7.38600 18.90300 41.75900
H  -8.53600 15.69400 38.91600
H  -8.50100 14.39000 39.94900
H  -6.33700 14.22000 39.19900
H  -6.00000 15.62200 40.27900
H  -13.98200 21.82400 40.20000
H  -12.99700 21.11300 38.85100
H  -12.36100 21.48600 40.41100
H  -18.00300 18.62300 40.73900
H  -18.29800 20.38500 41.02100
H  -17.45400 19.51600 42.28000
H  -17.55600 14.80300 41.59000
H  -16.47400 12.99300 43.81900
H  -18.92300 15.26100 43.17500
H  -17.67800 16.41000 43.77500
H  -17.80400 14.89700 44.51100
H  -15.99900 11.57100 41.37800
H  -17.22000 12.78000 40.93100
H  -17.64300 10.25200 42.34400
H  -18.74600 11.38400 41.48500
H  -18.36100 11.51500 43.28700
H  -11.91300 9.48800 43.55300
H  -12.62200 10.41700 44.86200
H  -10.88700 10.14600 44.81800
H  -7.68600 13.23400 41.73200
H  -4.23100 14.12000 44.45400
H  -5.03300 15.66300 43.84800
H  -4.01800 14.56700 42.85600

