158

Mg 41.25500 7.24500 28.79700
C  42.97100 8.33800 31.67500
C  38.95800 5.88900 31.11500
C  39.91000 5.55300 26.27800
C  43.87700 8.25800 26.79000
N  41.07700 7.15600 31.23400
C  41.82400 7.81100 32.16000
C  41.09100 7.89900 33.48800
C  39.89700 6.86300 33.26700
C  39.92200 6.60300 31.80900
C  39.94700 5.55000 34.17600
C  40.68700 9.30100 33.80100
C  39.90800 9.53700 35.06300
H  40.52000 10.48000 36.12300
N  39.56000 6.08100 28.68000
C  38.81700 5.59800 29.74900
C  37.69300 4.81900 29.18800
C  37.82700 4.88200 27.76400
C  39.20800 5.45300 27.46200
C  36.58400 4.22800 30.04900
C  36.94600 4.47200 26.58600
O  37.18800 4.42900 25.40600
C  35.55200 4.03300 26.94700
N  42.00000 6.66100 26.97700
C  41.21300 6.02600 26.07500
C  41.74800 6.11800 24.61300
C  42.99200 7.04700 24.76300
C  42.91100 7.37700 26.27700
C  41.87900 4.69500 23.99200
C  42.97800 8.26200 23.84300
C  41.87200 9.28700 24.13400
N  43.00000 8.07700 29.10700
C  43.92800 8.60000 28.16900
C  44.85700 9.37900 28.83300
C  44.47100 9.40500 30.18000
C  43.43000 8.50200 30.32400
C  46.05900 9.85000 28.09400
C  44.90700 9.88000 31.50300
O  45.88500 10.56600 31.86200
C  43.84700 9.23900 32.45800
C  44.43100 8.57200 33.61000
O  45.20400 7.59300 33.60100
O  44.05800 9.24600 34.73300
C  44.61500 8.83900 35.97500
H  38.16900 5.53500 31.78200
H  39.52200 5.11800 25.35500
H  44.64400 8.68700 26.14100
H  41.87900 7.48900 34.12000
H  38.97200 7.40300 33.46800
H  40.78800 5.67500 34.85800
H  39.96900 4.64700 33.56600
H  39.03600 5.48000 34.77100
H  40.19600 9.73800 32.93200
H  41.50800 9.99400 33.98300
H  39.56800 8.59400 35.49200
H  39.02300 10.10700 34.78100
H  36.28200 3.25900 29.65200
H  35.76700 4.93600 30.19200
H  36.98800 4.02700 31.04100
H  35.47500 3.07900 27.47000
H  35.03100 3.92200 25.99600
H  34.95300 4.78500 27.46100
H  41.13700 6.76800 23.98600
H  43.90800 6.45900 24.71700
H  41.45100 4.59500 22.99500
H  41.33700 4.05500 24.68900
H  42.85500 4.26900 24.22500
H  42.94300 7.81700 22.84800
H  43.90800 8.82500 23.76300
H  41.32100 9.11800 25.06000
H  41.14900 9.27200 23.31800
H  42.35900 10.26100 24.09600
H  46.64100 10.40300 28.83200
H  45.86700 10.44500 27.20100
H  46.60500 8.93700 27.85900
H  43.19000 10.02300 32.83500
H  43.88100 8.64800 36.75800
H  45.30300 9.65400 36.19800
H  45.09700 7.86200 35.93800
Mg 26.01000 51.43000 26.26100
C  23.76500 52.55400 28.57100
C  28.09000 50.41300 28.97100
C  28.43100 50.86700 24.10900
C  24.04100 52.83300 23.72600
N  26.03800 51.74300 28.54600
C  24.91200 52.10500 29.26400
C  25.18900 52.01500 30.81300
C  26.63200 51.57000 30.80000
C  27.01100 51.21600 29.35100
C  27.59700 52.67700 31.34500
C  24.18400 50.97700 31.55300
C  23.47300 51.51500 32.75600
H  24.27300 51.94300 34.04300
N  27.93200 50.64100 26.48000
C  28.52700 50.23800 27.60100
C  29.90500 49.91300 27.30800
C  30.10300 50.08500 25.89800
C  28.76300 50.58200 25.41700
C  30.87600 49.31300 28.44100
C  31.24200 49.83100 24.94600
O  31.22900 50.04100 23.72500
C  32.47400 49.36200 25.56900
N  26.23100 51.94800 24.17800
C  27.30300 51.44800 23.48700
C  27.14400 51.79700 22.03200
C  25.64200 52.25100 21.85500
C  25.28000 52.36300 23.32500
C  28.28700 52.61300 21.32600
C  24.83600 51.13700 21.12400
C  23.61400 51.60600 20.41200
N  24.16200 52.38100 26.15200
C  23.46900 52.78700 25.04000
C  22.09600 53.24700 25.49100
C  22.20900 53.12400 26.88000
C  23.45900 52.58300 27.19700
C  20.95600 53.83300 24.63100
C  21.47600 53.41800 28.14600
O  20.36400 53.86300 28.40100
C  22.51600 53.07000 29.29000
C  22.73800 54.29700 30.13100
O  23.83200 54.93900 30.16400
O  21.77900 54.37200 31.13700
C  22.11800 55.27900 32.23600
H  28.68300 50.12300 29.84000
H  29.19600 50.66500 23.35700
H  23.49200 53.18700 22.85100
H  25.03900 53.01000 31.23000
H  26.77100 50.69300 31.43300
H  27.08400 53.28600 32.09000
H  27.92200 53.29500 30.50900
H  28.56600 52.27500 31.64100
H  24.86800 50.22900 31.95300
H  23.44200 50.57700 30.86200
H  22.77200 50.70200 32.94300
H  23.01800 52.43800 32.39700
H  30.29600 48.95500 29.29200
H  31.50300 50.11000 28.84100
H  31.48400 48.48400 28.07800
H  32.32100 48.33000 25.88300
H  32.70600 49.90100 26.48800
H  33.30000 49.52600 24.87800
H  27.35100 50.80600 21.62800
H  25.59300 53.24400 21.40800
H  29.05700 52.73900 22.08800
H  28.00500 53.57900 20.90900
H  28.77500 51.95500 20.60600
H  24.45900 50.44100 21.87300
H  25.44900 50.64700 20.36900
H  23.94000 51.99900 19.44800
H  23.06800 52.29900 21.05200
H  23.00900 50.73200 20.17100
H  20.85900 53.23700 23.72400
H  21.24300 54.80500 24.23000
H  20.00700 53.89800 25.16400
H  22.07400 52.24800 29.85300
H  23.12700 54.93100 32.45500
H  21.37800 55.41300 33.02500
H  22.26800 56.30600 31.90300

