158

Mg 1.36300 -0.81800 43.01700
C  4.89600 -0.41100 42.72000
C  0.93400 1.86900 40.93800
C  -1.96500 -1.58200 42.91900
C  2.03400 -3.99500 44.25300
N  2.79800 0.43100 41.76800
C  4.15100 0.48000 41.94000
C  4.73500 1.56700 40.99700
C  3.56500 2.44300 40.52900
C  2.33700 1.54900 41.06600
C  3.41300 3.87900 41.08400
C  5.44700 0.88900 39.76600
C  6.88900 1.28300 39.49500
H  7.12300 2.12400 38.27200
N  -0.33500 0.15000 42.18100
C  -0.28100 1.21700 41.41800
C  -1.64700 1.67500 41.13800
C  -2.56100 0.80500 41.75400
C  -1.64300 -0.29100 42.36600
C  -1.92400 2.96300 40.32300
C  -4.02500 0.82700 41.77800
O  -4.70100 1.63600 41.20300
C  -4.72700 -0.19500 42.52500
N  0.25600 -2.57900 43.33300
C  -1.13200 -2.60800 43.38900
C  -1.67100 -3.98100 43.63100
C  -0.36900 -4.77100 44.00300
C  0.73200 -3.65600 43.94000
C  -2.88400 -4.12000 44.63300
C  -0.12900 -6.06900 43.15500
C  -0.13300 -7.49100 43.86800
N  3.02700 -2.00900 43.50700
C  3.12400 -3.24900 43.95800
C  4.57700 -3.57400 44.24200
C  5.30000 -2.55000 43.70100
C  4.32500 -1.57300 43.32900
C  5.16100 -4.81500 44.96300
C  6.59100 -2.03800 43.41900
O  7.69600 -2.55500 43.55500
C  6.37500 -0.56900 42.92000
C  7.03700 0.22100 43.98100
O  6.54500 0.44600 45.05500
O  8.21600 0.79500 43.59600
C  9.16500 1.44600 44.50000
H  0.80600 2.80900 40.39700
H  -2.99900 -1.91000 42.79100
H  2.19100 -4.96200 44.73500
H  5.38700 2.15400 41.64400
H  3.51100 2.54100 39.44500
H  4.33000 4.34400 41.44600
H  2.66500 3.82400 41.87500
H  3.22300 4.65000 40.33700
H  4.84600 1.04000 38.86900
H  5.57700 -0.18100 39.92800
H  7.66400 0.53500 39.66000
H  7.10000 2.07800 40.21000
H  -1.56400 2.93100 39.29400
H  -1.45800 3.81400 40.81800
H  -2.96400 3.27400 40.42200
H  -5.81000 -0.17900 42.39800
H  -4.31000 -0.26200 43.53000
H  -4.56100 -1.09000 41.92500
H  -2.14200 -4.22400 42.67900
H  -0.50000 -5.11200 45.03000
H  -3.33400 -3.13200 44.72500
H  -2.54300 -4.37800 45.63600
H  -3.58500 -4.86900 44.26300
H  0.83300 -6.04600 42.64300
H  -0.95300 -6.15500 42.44700
H  -0.58800 -7.41000 44.85500
H  0.86800 -7.92000 43.85800
H  -0.68500 -8.27100 43.34300
H  6.24100 -4.84400 45.10300
H  4.73800 -5.67500 44.44300
H  4.64800 -4.80200 45.92500
H  6.96200 -0.58400 42.00200
H  9.35700 0.81600 45.36800
H  8.75000 2.41100 44.79400
H  10.11900 1.56300 43.98600
Mg 26.24100 -1.19200 29.90900
C  28.09600 -0.81400 32.72600
C  23.49300 -0.67700 31.83100
C  24.30500 -1.63900 27.14300
C  29.19600 -1.73100 28.03500
N  25.80000 -0.80000 32.00700
C  26.70400 -0.51700 32.97900
C  26.05400 -0.28300 34.39800
C  24.54200 -0.69400 34.11800
C  24.55000 -0.78500 32.57700
C  23.94000 -1.91200 34.90700
C  26.34300 1.15000 35.00500
C  26.87800 0.97000 36.47800
H  26.12800 1.84500 37.54500
N  24.18500 -1.27600 29.60000
C  23.25100 -0.96800 30.51600
C  21.92900 -0.93600 29.86800
C  22.16500 -1.22800 28.51000
C  23.59100 -1.39500 28.38400
C  20.61900 -0.65500 30.66800
C  21.20900 -1.17200 27.30700
O  21.57200 -1.40800 26.14500
C  19.75900 -0.84500 27.58400
N  26.68800 -1.86800 27.91800
C  25.69900 -1.78800 26.95200
C  26.36300 -1.85600 25.52800
C  27.89100 -1.82800 25.83800
C  28.02700 -1.72900 27.35400
C  25.97400 -3.13600 24.64900
C  28.61000 -0.58300 25.14000
C  28.40600 0.87500 25.66600
N  28.22100 -1.36400 30.26000
C  29.34400 -1.60700 29.41600
C  30.52400 -1.49000 30.24200
C  30.07300 -1.21600 31.57200
C  28.64400 -1.16300 31.50500
C  31.79300 -1.72200 29.68100
C  30.53000 -0.94700 32.93200
O  31.65400 -0.96800 33.38800
C  29.20600 -0.70800 33.77300
C  29.18900 -1.60800 34.98800
O  28.56100 -2.62200 35.13200
O  29.86700 -0.96900 35.97100
C  29.67900 -1.42100 37.39000
H  22.61200 -0.58500 32.46900
H  23.77000 -1.69100 26.19200
H  30.10200 -1.94400 27.46500
H  26.65300 -1.08600 34.82900
H  23.91700 0.13800 34.44300
H  23.23400 -1.62200 35.68500
H  24.61200 -2.60400 35.41500
H  23.58800 -2.65700 34.19300
H  25.45900 1.78600 35.04900
H  27.04800 1.71200 34.39100
H  27.90800 1.31600 36.39400
H  26.87900 -0.01900 36.93500
H  20.17800 0.33400 30.54100
H  20.84300 -0.83400 31.71900
H  19.93500 -1.40800 30.27900
H  19.31900 -0.63600 26.60900
H  19.69300 0.12500 28.07700
H  19.29700 -1.69700 28.08300
H  25.93800 -1.04000 24.94300
H  28.27500 -2.75100 25.40400
H  25.81900 -3.96200 25.34300
H  26.75400 -3.39900 23.93400
H  25.10500 -2.85100 24.05600
H  28.20800 -0.57700 24.12700
H  29.64700 -0.92000 25.13600
H  29.33300 1.17800 26.15400
H  27.69500 0.92600 26.49100
H  28.21400 1.65400 24.92800
H  31.91800 -1.65900 28.60000
H  32.13300 -2.69400 30.03800
H  32.49100 -1.00200 30.10800
H  29.29200 0.35200 34.01300
H  30.36500 -2.25000 37.56400
H  28.67100 -1.80600 37.54300
H  29.99900 -0.76500 38.19900

