158

Mg 1.16600 -2.04600 42.88000
C  4.48800 -1.61700 41.89700
C  0.37800 0.87900 41.15300
C  -2.00800 -2.86500 43.09600
C  2.08900 -5.20200 44.11800
N  2.28600 -0.60400 41.55300
C  3.61600 -0.63000 41.35800
C  4.13000 0.65400 40.67100
C  2.72200 1.43200 40.46600
C  1.76100 0.52600 41.15500
C  2.71500 2.84200 41.12700
C  4.96100 0.39100 39.32800
C  4.46000 -0.79800 38.50700
H  5.18600 -1.06800 37.13600
N  -0.56800 -1.10200 42.42300
C  -0.68800 0.11000 41.67600
C  -2.08600 0.40800 41.51300
C  -2.84900 -0.60900 42.03400
C  -1.81800 -1.59300 42.56400
C  -2.64400 1.68300 40.81900
C  -4.37200 -0.63300 42.09700
O  -5.03400 0.17200 41.51100
C  -5.08600 -1.71400 42.85100
N  0.20500 -3.85700 43.44600
C  -1.12600 -3.91900 43.43900
C  -1.62500 -5.30800 43.97000
C  -0.36200 -5.92100 44.58500
C  0.77000 -4.96100 44.09500
C  -2.88900 -5.30800 44.81700
C  -0.08500 -7.36400 44.13900
C  0.39100 -8.34900 45.23800
N  2.95800 -3.15600 43.12500
C  3.14600 -4.35500 43.68200
C  4.56300 -4.60600 43.80900
C  5.18400 -3.53800 43.12700
C  4.10300 -2.75000 42.65700
C  5.20200 -5.72400 44.49700
C  6.42700 -2.94500 42.67800
O  7.58900 -3.28200 42.86900
C  6.07900 -1.64100 41.94600
C  6.76700 -0.46000 42.56400
O  7.64200 0.20400 42.10200
O  6.26400 -0.35000 43.80900
C  6.58800 0.84000 44.65100
H  0.14600 1.81700 40.64300
H  -3.03100 -3.23700 43.18800
H  2.31600 -6.22600 44.42100
H  4.72800 1.15600 41.43200
H  2.36100 1.50600 39.44000
H  3.65100 3.16100 41.58500
H  1.94700 2.86000 41.90000
H  2.21500 3.46700 40.38600
H  6.01200 0.23800 39.57300
H  4.88100 1.27500 38.69500
H  3.39500 -0.61100 38.37100
H  4.66000 -1.70200 39.08200
H  -3.13700 1.46600 39.87200
H  -1.76700 2.29400 40.60400
H  -3.33800 2.21700 41.46800
H  -6.07800 -1.41900 43.19300
H  -4.52300 -1.91300 43.76300
H  -5.22400 -2.55800 42.17500
H  -1.89300 -5.88900 43.08800
H  -0.36300 -5.83400 45.67200
H  -3.79000 -5.66900 44.32100
H  -3.13400 -4.32300 45.21400
H  -2.64700 -6.05900 45.57000
H  0.72800 -7.28100 43.41700
H  -1.00300 -7.70200 43.66000
H  1.27000 -8.89400 44.89300
H  -0.48500 -8.96900 45.43200
H  0.59500 -7.89600 46.20900
H  4.75600 -6.01800 45.44700
H  6.24000 -5.41800 44.62600
H  5.05100 -6.50600 43.75300
H  6.57000 -1.63100 40.97300
H  6.10600 0.96600 45.62100
H  6.36200 1.70800 44.03200
H  7.65000 0.73600 44.87200
Mg 9.86900 49.22000 26.67300
C  8.25800 49.00200 29.58100
C  12.77500 50.00200 28.22200
C  11.45100 48.95300 23.73100
C  6.94000 48.50700 24.85500
N  10.46300 49.63100 28.66900
C  9.57000 49.36400 29.70900
C  10.32000 49.56000 31.06100
C  11.77100 49.99500 30.61500
C  11.72200 49.86000 29.09400
C  12.10700 51.48400 30.98400
C  10.42700 48.37800 32.01800
C  9.81300 48.50400 33.48400
H  10.76300 48.87300 34.57400
N  11.79200 49.65700 25.94000
C  12.86800 49.87300 26.80400
C  14.08900 49.81300 26.01700
C  13.76600 49.50600 24.64900
C  12.28100 49.32100 24.72600
C  15.44300 50.03200 26.64400
C  14.71400 49.24700 23.40600
O  14.28300 49.03900 22.28700
C  16.17900 49.32500 23.61600
N  9.18600 49.13600 24.43100
C  10.10700 48.86400 23.53200
C  9.56300 48.38300 22.23200
C  8.10200 48.09800 22.61800
C  8.03400 48.68700 24.00100
C  9.67600 49.34500 21.06400
C  7.76500 46.66900 22.70200
C  8.49300 45.79800 23.66500
N  8.00500 48.80300 27.14000
C  6.86000 48.57700 26.32100
C  5.69600 48.35000 27.17700
C  6.20100 48.57800 28.44300
C  7.62200 48.64700 28.37600
C  4.33000 48.04900 26.82700
C  5.80200 48.73800 29.83100
O  4.76500 48.70300 30.42000
C  7.16100 48.85500 30.66500
C  7.32300 47.76400 31.59500
O  7.81800 46.70100 31.29600
O  6.67200 48.11600 32.71500
C  6.44100 47.04600 33.70800
H  13.63400 50.20900 28.86400
H  12.06300 48.56600 22.91400
H  5.99800 48.18000 24.41000
H  9.81300 50.36300 31.59600
H  12.51300 49.31900 31.03900
H  11.28600 52.19100 31.10000
H  12.67200 51.91700 30.15900
H  12.69800 51.56700 31.89500
H  11.48600 48.24700 32.23800
H  10.13900 47.45200 31.52000
H  9.31000 47.56600 33.72100
H  9.03300 49.22400 33.23700
H  15.45700 49.91300 27.72800
H  15.89700 51.02000 26.56500
H  16.09300 49.23500 26.28400
H  16.68500 49.38800 22.65300
H  16.50100 48.42400 24.13900
H  16.37900 50.23400 24.18300
H  10.06100 47.50500 21.82100
H  7.39100 48.70000 22.05100
H  10.56500 49.97600 21.06300
H  8.96900 50.17400 21.10000
H  9.65500 48.78700 20.12800
H  7.92800 46.20100 21.73100
H  6.72700 46.59200 23.02400
H  8.99600 46.37100 24.44400
H  9.26500 45.25400 23.12000
H  7.79000 45.10700 24.13100
H  3.56300 48.59700 27.37500
H  4.24400 46.98000 27.02100
H  4.18000 48.23500 25.76400
H  7.08500 49.71800 31.32600
H  5.35700 46.96000 33.78700
H  6.83500 47.28400 34.69500
H  6.70700 46.03600 33.39400

