158

Mg 54.05700 24.59900 44.40800
C  51.46800 26.98500 44.02100
C  51.68800 22.20500 43.53100
C  56.56100 22.61100 43.54300
C  56.31100 27.30800 45.04000
N  51.87100 24.65100 43.73400
C  51.02700 25.70700 43.78500
C  49.62800 25.21100 43.38000
C  49.67800 23.77700 43.87300
C  51.15900 23.54400 43.69500
C  49.03100 23.57400 45.22300
C  49.29600 25.32300 41.80100
C  50.48000 25.51100 40.81000
H  51.22000 24.31300 40.47000
N  54.14200 22.61600 43.67800
C  53.06800 21.81700 43.43100
C  53.54600 20.47900 43.14300
C  54.95400 20.60200 43.09000
C  55.29900 21.97600 43.43100
C  52.60800 19.33700 42.75900
C  55.89500 19.45900 42.81500
O  55.46600 18.35900 42.50600
C  57.41900 19.58800 43.11200
N  56.10200 24.84100 44.51400
C  56.95000 23.82600 44.11300
C  58.36900 24.24900 44.38200
C  58.30400 25.77900 44.53600
C  56.80900 26.01300 44.75000
C  59.10500 23.44500 45.44600
C  58.80900 26.63100 43.44500
C  58.09800 26.53800 42.03300
N  53.89700 26.68200 44.69600
C  54.93100 27.67300 45.04400
C  54.34500 28.92600 45.14100
C  52.98500 28.67400 44.73400
C  52.77800 27.35200 44.41900
C  55.06000 30.14700 45.61700
C  51.76000 29.29800 44.51400
O  51.48600 30.46600 44.48200
C  50.71900 28.31200 43.90900
C  50.29700 28.73100 42.49400
O  51.07700 29.01400 41.60200
O  48.99900 28.66500 42.32900
C  48.47000 29.02600 41.03900
H  50.93000 21.42200 43.46600
H  57.53300 22.16600 43.31600
H  57.06100 28.09800 45.12200
H  48.88100 25.85000 43.85000
H  49.22600 23.11000 43.13900
H  48.20200 22.86700 45.23700
H  48.52800 24.48900 45.53300
H  49.77700 23.27100 45.95800
H  48.65400 26.18700 41.62800
H  48.68800 24.45900 41.53300
H  51.07500 26.34400 41.18200
H  50.13600 25.95500 39.87600
H  53.25500 18.45900 42.74400
H  52.13800 19.55800 41.80100
H  51.78200 19.21200 43.45900
H  57.98000 20.08800 42.32200
H  57.84600 18.58900 43.20600
H  57.68700 20.16300 43.99800
H  58.94900 23.93700 43.51300
H  58.77400 26.02500 45.48800
H  59.68200 22.66100 44.95800
H  58.37700 22.89700 46.04500
H  59.75000 24.06200 46.07200
H  59.83800 26.27700 43.38300
H  58.78500 27.69200 43.69500
H  57.79800 27.55600 41.78600
H  57.22800 25.88300 42.07000
H  58.66000 26.05000 41.23700
H  55.02400 30.16700 46.70600
H  54.44500 31.01200 45.36900
H  56.06100 30.15600 45.18600
H  49.86800 28.49600 44.56500
H  47.58900 29.66700 41.01900
H  48.22700 28.23400 40.33100
H  49.05000 29.79100 40.52200
Mg 49.44800 45.67400 42.76300
C  45.94500 45.60700 42.13400
C  49.50900 42.30400 41.87200
C  52.71500 45.82300 42.55700
C  49.21300 49.04700 43.22000
N  47.86300 44.14300 42.10100
C  46.50600 44.33200 41.96200
C  45.73800 42.94200 41.77500
C  46.92500 41.95800 41.87500
C  48.17800 42.85900 41.96200
C  46.95700 40.91700 43.08200
C  44.96200 42.75800 40.44100
C  45.60800 43.36400 39.25300
H  45.63500 42.56600 37.94500
N  50.91600 44.21600 42.36900
C  50.73600 42.92100 42.08400
C  52.02200 42.28400 41.88500
C  53.02600 43.27100 42.11300
C  52.26400 44.53000 42.32000
C  52.23800 40.79200 41.43100
C  54.52200 43.03200 41.83200
O  54.92700 41.89100 41.79900
C  55.39800 44.22500 41.53900
N  50.71100 47.33900 42.71000
C  52.04400 47.05500 42.85600
C  52.81000 48.29900 43.30800
C  51.75300 49.36600 43.41400
C  50.46500 48.56900 43.15000
C  53.64500 48.17700 44.60800
C  52.00600 50.65800 42.52100
C  51.69100 52.04200 43.21800
N  47.87100 47.10100 42.69000
C  47.93700 48.43600 42.88500
C  46.59700 48.99700 42.77100
C  45.75300 47.87500 42.50900
C  46.62300 46.79700 42.37600
C  46.11900 50.41000 42.90500
C  44.35300 47.38300 42.32000
O  43.30400 47.93300 42.24500
C  44.46500 45.85700 42.14000
C  43.70800 45.11200 43.14200
O  42.80600 44.32000 42.91300
O  44.26900 45.38000 44.40700
C  43.67000 44.47900 45.47000
H  49.52700 41.22100 41.73100
H  53.80100 45.91200 42.62300
H  49.14700 50.13000 43.34200
H  45.00200 42.68800 42.53700
H  47.06200 41.46400 40.91300
H  46.10700 41.04700 43.75200
H  47.93500 40.85000 43.55800
H  46.85900 39.91500 42.66300
H  43.99100 43.22800 40.59100
H  44.87900 41.69400 40.21700
H  46.65400 43.54300 39.50400
H  45.00400 44.23900 39.01400
H  52.99900 40.88800 40.65600
H  51.35100 40.27300 41.06700
H  52.71700 40.20100 42.21100
H  55.54100 44.74700 42.48500
H  54.93900 44.95200 40.86800
H  56.32900 43.94300 41.04700
H  53.53200 48.35300 42.49400
H  51.74700 49.55800 44.48700
H  53.30600 47.38100 45.27200
H  53.80400 49.14900 45.07500
H  54.59900 47.85400 44.19300
H  51.32300 50.58200 41.67400
H  53.03300 50.72800 42.16400
H  51.19500 52.64500 42.45700
H  52.63200 52.48900 43.54000
H  51.15700 52.10600 44.16600
H  45.04500 50.51400 43.05900
H  46.44800 51.03000 42.07100
H  46.67900 50.81900 43.74600
H  43.90100 45.62100 41.23800
H  43.36200 43.49000 45.13300
H  42.85200 45.03500 45.92800
H  44.43500 44.26200 46.21600

