158

Mg 1.08800 7.90700 26.87100
C  2.14000 9.57900 29.66000
C  0.54200 5.15300 28.94900
C  0.82400 5.98500 24.11200
C  1.60700 10.55900 24.90100
N  1.31900 7.43000 29.14600
C  1.66200 8.30400 30.06800
C  1.42300 7.79900 31.50400
C  1.19900 6.18100 31.11800
C  0.98400 6.23600 29.63300
C  2.54100 5.33300 31.44700
C  0.32500 8.44900 32.41100
C  0.69600 8.91400 33.80800
H  1.90700 8.21500 34.56700
N  0.70800 5.86500 26.59300
C  0.45000 4.95100 27.57300
C  0.01200 3.74000 26.98800
C  0.09900 3.86600 25.55400
C  0.63300 5.22600 25.36300
C  -0.42000 2.55400 27.78000
C  -0.38500 2.98500 24.43700
O  -0.39900 3.43000 23.27500
C  -0.84000 1.60900 24.61200
N  0.93300 8.24700 24.75900
C  0.98900 7.35800 23.73900
C  0.86600 8.01700 22.31700
C  0.78000 9.52600 22.78900
C  1.19900 9.44200 24.22900
C  2.12900 7.57600 21.38800
C  -0.59700 10.16900 22.57200
C  -0.70800 11.61200 21.89400
N  1.72700 9.68700 27.17800
C  1.84000 10.74700 26.29900
C  2.28900 11.90800 27.02900
C  2.38800 11.45600 28.37000
C  2.06300 10.11600 28.42300
C  2.46100 13.31800 26.51800
C  2.77800 12.02600 29.67000
O  3.09400 13.14600 30.05800
C  2.65000 10.73100 30.56800
C  3.94100 10.42400 31.30500
O  4.85600 9.75800 30.93500
O  3.97000 11.06900 32.53800
C  5.01600 11.04700 33.57600
H  0.20400 4.33900 29.59400
H  0.67800 5.40900 23.19600
H  1.78800 11.48200 24.34600
H  2.37600 7.82200 32.03300
H  0.31200 5.62000 31.41200
H  2.48200 4.78000 32.38500
H  3.39200 6.01100 31.39200
H  2.82300 4.73700 30.57900
H  -0.40300 7.65100 32.55900
H  -0.04200 9.33700 31.89700
H  -0.11300 8.80300 34.53000
H  1.06900 9.93100 33.68800
H  -1.50300 2.60600 27.89400
H  -0.09800 2.48000 28.81900
H  -0.26400 1.64700 27.19700
H  -1.45400 1.55400 25.51100
H  0.02500 0.96300 24.76100
H  -1.37800 1.17600 23.76800
H  -0.09600 7.70000 21.91500
H  1.58500 10.06800 22.29300
H  2.94100 8.29200 21.52000
H  1.89400 7.64000 20.32600
H  2.48600 6.59600 21.70600
H  -1.17000 10.25000 23.49500
H  -1.22000 9.48800 21.99200
H  -1.01900 12.33200 22.65100
H  -1.39400 11.70700 21.05200
H  0.21700 12.06400 21.53700
H  2.08500 13.35200 25.49600
H  3.52400 13.48500 26.69300
H  1.91100 14.11000 27.02700
H  1.96200 11.06900 31.34300
H  5.36600 12.06800 33.73200
H  5.76000 10.29600 33.31000
H  4.51500 10.74400 34.49500
Mg 45.13100 3.70800 47.27800
C  43.15000 6.79500 46.89900
C  42.22100 2.06000 46.92400
C  47.02700 1.04900 47.10900
C  48.01300 5.86700 47.07800
N  42.92600 4.34700 46.69600
C  42.38200 5.61100 46.85500
C  40.82600 5.51100 46.92000
C  40.55900 3.97700 47.02300
C  42.00700 3.40100 46.86100
C  39.87400 3.46100 48.37500
C  40.06800 6.30000 45.80600
C  40.81900 6.57600 44.42800
H  40.07000 6.05400 43.16900
N  44.69400 1.77700 47.08100
C  43.44900 1.23700 46.96300
C  43.57000 -0.15500 46.78700
C  44.93000 -0.49000 46.92500
C  45.62200 0.75700 47.07200
C  42.40200 -1.03600 46.46700
C  45.48700 -1.93900 46.87000
O  44.68600 -2.89100 46.72400
C  46.90000 -2.27200 46.86600
N  47.16500 3.54800 46.94300
C  47.67900 2.31000 47.07900
C  49.22900 2.38900 47.11100
C  49.60700 3.90300 47.09100
C  48.16800 4.53300 46.90700
C  49.94700 1.58800 48.18200
C  50.45800 4.38400 45.89200
C  51.81800 5.12200 46.37600
N  45.53900 5.84900 47.08400
C  46.77100 6.54200 47.00500
C  46.51700 8.04600 47.05200
C  45.12900 8.07700 47.15400
C  44.54500 6.79500 47.02900
C  47.57800 9.04000 46.81700
C  43.95600 8.98000 47.25600
O  44.00800 10.24600 47.41700
C  42.63600 8.24900 47.05000
C  41.76400 8.47500 48.24200
O  41.78600 7.75000 49.26000
O  40.90100 9.48300 47.95100
C  40.03600 9.96500 49.01300
H  41.32000 1.44600 46.86100
H  47.72200 0.24400 47.35700
H  48.93800 6.42200 47.24500
H  40.57600 6.00600 47.85900
H  39.93500 3.61100 46.20800
H  39.01700 2.83600 48.12600
H  39.57800 4.33900 48.94900
H  40.59100 2.82700 48.89700
H  39.85800 7.22900 46.33600
H  39.14000 5.76700 45.59900
H  41.76000 6.02700 44.47300
H  40.91700 7.66100 44.41200
H  41.61900 -0.43000 46.01200
H  41.98600 -1.52100 47.35000
H  42.62200 -1.87000 45.80000
H  46.91300 -3.35400 46.73400
H  47.48600 -1.89200 47.70200
H  47.39100 -1.79800 46.01600
H  49.56700 1.95600 46.16900
H  49.95000 4.25100 48.06600
H  50.47800 0.73200 47.76600
H  49.14200 1.20700 48.81100
H  50.69100 2.09300 48.79700
H  49.93800 5.12700 45.28700
H  50.77400 3.57000 45.23900
H  52.72000 4.56100 46.13000
H  51.69700 5.46000 47.40500
H  51.92200 6.05700 45.82600
H  48.34200 9.01200 47.59400
H  47.18800 10.05700 46.78300
H  48.04000 8.81200 45.85600
H  42.19500 8.65900 46.14200
H  40.40700 9.57100 49.95900
H  38.99600 9.69600 48.82800
H  40.09200 11.05100 49.09400

