158

Mg -2.41500 16.50200 26.87900
C  -2.87100 14.72200 29.84400
C  -2.37600 19.43900 28.80600
C  -2.37700 18.20900 24.02400
C  -2.80400 13.47600 25.15100
N  -2.60000 16.96300 29.09500
C  -2.82700 16.11900 30.11400
C  -2.86900 16.80600 31.47500
C  -2.77000 18.29600 31.11200
C  -2.52000 18.26800 29.58600
C  -3.91700 19.21200 31.49400
C  -1.77800 16.39000 32.54900
C  -1.61800 17.34900 33.76500
H  -0.84300 16.91300 35.05100
N  -2.36000 18.52900 26.47800
C  -2.32900 19.53400 27.40200
C  -2.26400 20.79300 26.66500
C  -2.21500 20.58500 25.25900
C  -2.27800 19.05900 25.14800
C  -2.30700 22.19200 27.45500
C  -2.08700 21.53900 24.09200
O  -1.94500 21.11900 22.93800
C  -1.99500 23.01700 24.33600
N  -2.76400 15.92900 24.85900
C  -2.44600 16.79900 23.87800
C  -2.46400 16.09000 22.52400
C  -2.28800 14.58100 22.90800
C  -2.62300 14.61200 24.40800
C  -3.72900 16.43400 21.66100
C  -0.79100 14.13400 22.68400
C  -0.48500 13.75700 21.18600
N  -2.79400 14.59500 27.28700
C  -2.86800 13.41700 26.52100
C  -2.98900 12.27300 27.33600
C  -2.96200 12.76400 28.60400
C  -2.85600 14.18000 28.60000
C  -3.08700 10.89500 26.78300
C  -3.00700 12.39900 29.94600
O  -3.25100 11.27400 30.39000
C  -2.92700 13.65500 30.80200
C  -1.72200 13.39400 31.56900
O  -0.58200 13.73600 31.25900
O  -2.13700 12.67700 32.64600
C  -1.05900 12.43400 33.55100
H  -2.29500 20.32800 29.43600
H  -2.31900 18.69600 23.04900
H  -2.67300 12.54100 24.60200
H  -3.89900 16.62700 31.78400
H  -1.93200 18.81300 31.58000
H  -3.56300 20.22300 31.69400
H  -4.42600 18.81600 32.37200
H  -4.67100 19.36000 30.72100
H  -0.79400 16.24700 32.10100
H  -1.94300 15.41500 33.00500
H  -2.55300 17.79800 34.09900
H  -0.99700 18.12500 33.31800
H  -1.24600 22.34300 27.65500
H  -2.91900 22.17800 28.35700
H  -2.59200 23.06300 26.86600
H  -2.09400 23.49600 23.36200
H  -1.00800 23.30100 24.70000
H  -2.87800 23.35400 24.88000
H  -1.65800 16.42400 21.87100
H  -2.97000 13.99000 22.29600
H  -4.13300 15.52400 21.21900
H  -3.45700 17.02200 20.78500
H  -4.47900 16.99700 22.21800
H  -0.53700 13.30000 23.34000
H  -0.08800 14.95400 22.83200
H  0.16500 12.88200 21.17700
H  0.10500 14.59800 20.82200
H  -1.39900 13.76300 20.59200
H  -2.30600 10.74700 26.03800
H  -4.01500 10.81600 26.21700
H  -2.94400 10.22100 27.62800
H  -3.83600 13.73200 31.39800
H  -0.02700 12.44300 33.20100
H  -1.28500 11.47100 34.00800
H  -1.24200 13.22400 34.28000
Mg 53.68200 24.04500 45.12300
C  50.96700 26.12400 44.53400
C  51.75700 21.41500 43.79500
C  56.41400 22.02500 44.98300
C  55.52800 26.71300 46.03100
N  51.66800 23.83200 44.17700
C  50.72400 24.87700 44.09000
C  49.41800 24.29100 43.64900
C  49.59500 22.76800 44.00400
C  51.10600 22.61500 44.04800
C  48.98200 22.16600 45.27500
C  48.89400 24.68800 42.21500
C  50.00000 24.67800 41.16200
H  50.53300 23.30800 40.75700
N  54.02000 21.97600 44.51400
C  53.13700 21.08900 44.05100
C  53.79100 19.79800 44.00800
C  55.08800 19.97200 44.58500
C  55.24000 21.32600 44.74300
C  53.07500 18.54100 43.46700
C  56.03800 18.78600 44.90300
O  55.74600 17.62600 44.61400
C  57.27200 18.95400 45.80200
N  55.73200 24.42700 45.15100
C  56.66100 23.41600 45.25100
C  58.03300 24.02300 45.71600
C  57.66200 25.48400 46.01100
C  56.18200 25.56200 45.70400
C  58.78400 23.34600 46.85700
C  58.41200 26.51000 45.14900
C  57.90900 26.71600 43.61600
N  53.36900 25.98200 45.36800
C  54.17200 26.98700 45.81100
C  53.44600 28.18500 46.07400
C  52.23400 27.90800 45.41600
C  52.21300 26.58700 45.05100
C  53.84000 29.41400 46.68700
C  50.93400 28.45800 45.02300
O  50.54800 29.60700 45.12600
C  50.06000 27.30000 44.50200
C  49.68500 27.79300 43.10300
O  50.40300 28.01000 42.12000
O  48.30300 27.75800 43.06000
C  47.67200 28.47400 41.93700
H  51.22700 20.52100 43.45900
H  57.37400 21.53500 45.15400
H  56.17200 27.55000 46.31000
H  48.67300 24.70400 44.33000
H  49.12500 22.23700 43.17500
H  48.50900 22.89100 45.93700
H  49.72600 21.67300 45.90100
H  48.29800 21.39300 44.92400
H  48.33400 25.61700 42.32400
H  48.14300 23.99700 41.83200
H  50.86300 25.25200 41.49700
H  49.72900 25.13200 40.20800
H  53.61200 18.33600 42.54100
H  52.01700 18.65400 43.23100
H  52.95900 17.67100 44.11300
H  57.49900 18.12100 46.46800
H  57.18300 19.86200 46.39800
H  58.15000 18.91900 45.15700
H  58.67100 24.02600 44.83200
H  57.72800 25.68800 47.08000
H  59.64200 22.80100 46.46200
H  58.12700 22.64900 47.37800
H  59.22100 24.08000 47.53400
H  59.41200 26.07800 45.11600
H  58.49800 27.49900 45.59900
H  57.02900 26.11000 43.39700
H  58.78100 26.49600 43.00000
H  57.63100 27.76400 43.51000
H  54.22600 30.09400 45.92800
H  54.60500 29.21000 47.43700
H  52.93400 29.87000 47.08600
H  49.18200 27.18000 45.13700
H  48.29800 29.11000 41.31100
H  46.94900 29.22100 42.26300
H  47.14000 27.74400 41.32700

