158

Mg 40.68300 10.07500 29.73300
C  42.49600 10.69700 32.81400
C  38.21000 8.70600 31.79700
C  38.92200 9.28300 27.07100
C  43.44500 11.02100 27.99100
N  40.48000 9.60000 32.04300
C  41.23200 10.22300 33.01800
C  40.57800 10.07600 34.41300
C  39.30400 9.17400 34.02900
C  39.31600 9.18300 32.52100
C  39.43800 7.74500 34.59700
C  40.32700 11.36300 35.22900
C  39.72600 11.26800 36.63900
H  40.46300 11.87900 37.82600
N  38.73200 9.25600 29.49600
C  37.91100 8.72300 30.46800
C  36.71000 8.15000 29.81700
C  36.80700 8.58600 28.43400
C  38.20800 9.02900 28.26600
C  35.78100 7.33100 30.64600
C  35.71700 8.40400 27.34100
O  35.91800 8.66600 26.15900
C  34.35700 7.96700 27.67700
N  41.25300 10.02500 27.71400
C  40.23800 9.69800 26.79400
C  40.86300 9.88400 25.39000
C  42.28800 10.40200 25.67500
C  42.37200 10.52800 27.22700
C  40.86900 8.61800 24.37400
C  42.81900 11.60800 24.77900
C  42.10700 12.93800 25.09900
N  42.56000 10.72500 30.25400
C  43.63400 11.12400 29.42300
C  44.75500 11.49300 30.12500
C  44.37000 11.31700 31.50700
C  43.03900 10.83400 31.54400
C  46.01300 11.94400 29.45500
C  44.84000 11.47900 32.86100
O  45.93300 11.78800 33.29000
C  43.59000 11.20000 33.76900
C  44.00200 10.26800 34.83000
O  44.19700 9.06400 34.64900
O  43.85000 10.87100 36.05700
C  44.09800 10.02700 37.23300
H  37.50000 8.29800 32.52000
H  38.25000 9.15200 26.22000
H  44.28100 11.24500 27.32600
H  41.39000 9.52000 34.88200
H  38.39100 9.68000 34.34100
H  40.37400 7.54800 35.11900
H  39.40700 7.07000 33.74100
H  38.57100 7.60100 35.24200
H  39.62500 11.95300 34.64000
H  41.21900 11.98900 35.20700
H  39.26500 10.32300 36.92600
H  38.83300 11.88300 36.52800
H  36.40100 6.60500 31.17300
H  35.13200 6.73800 30.00200
H  35.27700 7.98500 31.35800
H  33.77100 7.98900 26.75800
H  33.89900 8.58100 28.45300
H  34.47500 6.95300 28.05800
H  40.30600 10.62400 24.81600
H  42.91700 9.52700 25.51000
H  40.33900 7.77100 24.81000
H  41.82800 8.37700 23.91700
H  40.30300 8.91600 23.49100
H  42.71100 11.43400 23.70900
H  43.86400 11.78000 25.03600
H  41.46500 13.25900 24.27800
H  42.78000 13.75400 25.36400
H  41.42300 12.79700 25.93600
H  46.74500 12.04800 30.25600
H  45.81100 12.84900 28.88200
H  46.28500 11.19000 28.71700
H  43.20700 12.10600 34.23800
H  43.50000 9.12000 37.13800
H  43.93800 10.45300 38.22300
H  45.12000 9.65200 37.18200
Mg 50.12600 47.24700 43.40900
C  46.60600 47.19600 42.60200
C  50.24200 43.98500 42.53000
C  53.51200 47.37300 43.44800
C  49.82400 50.69700 43.56800
N  48.55900 45.86400 42.56600
C  47.26300 45.98400 42.38300
C  46.53700 44.70800 41.99700
C  47.64600 43.65700 42.32700
C  48.92200 44.58000 42.44700
C  47.44200 42.77200 43.58900
C  45.87500 44.57900 40.58000
C  46.68300 45.32600 39.47000
H  46.76200 44.58500 38.09600
N  51.72700 45.79200 43.15400
C  51.50300 44.48000 42.86500
C  52.73600 43.79200 42.79000
C  53.77400 44.72300 42.90900
C  53.05100 46.04000 43.27000
C  52.78800 42.34300 42.53600
C  55.29900 44.34500 42.85600
O  55.69400 43.21300 42.73100
C  56.26900 45.35000 43.32000
N  51.51400 48.79400 43.53900
C  52.83900 48.58800 43.60900
C  53.50700 49.97200 43.75400
C  52.36200 50.98800 43.91900
C  51.12600 50.09700 43.72500
C  54.71500 50.10700 44.80700
C  52.40600 52.16900 42.87700
C  52.03700 53.58500 43.39700
N  48.58300 48.75000 43.10600
C  48.58300 50.10800 43.30500
C  47.28000 50.64400 43.30000
C  46.44100 49.54900 42.98200
C  47.33000 48.41900 42.85900
C  46.84300 52.10600 43.51200
C  45.04000 49.13700 42.72600
O  43.97100 49.69300 42.73300
C  45.13600 47.58300 42.40400
C  44.19600 46.96600 43.34200
O  44.41700 46.65700 44.53600
O  42.99900 46.81200 42.68700
C  41.99100 45.91600 43.31100
H  50.08600 42.92800 42.30400
H  54.59500 47.39800 43.31300
H  49.76500 51.78200 43.68200
H  45.76500 44.57500 42.75500
H  47.66100 42.94200 41.50400
H  48.40700 42.72800 44.09300
H  47.20800 41.73600 43.34300
H  46.73700 43.15900 44.32600
H  44.81500 44.79800 40.71000
H  45.84800 43.52900 40.28900
H  47.67700 45.64200 39.78800
H  46.10200 46.22700 39.27300
H  52.04900 41.73800 43.06200
H  53.67100 41.84200 42.93400
H  52.70700 42.30100 41.45000
H  55.75400 45.60000 44.24800
H  56.38200 46.25900 42.73000
H  57.19400 44.84200 43.59300
H  54.10200 50.14600 42.85700
H  52.30900 51.44000 44.90900
H  55.09100 49.10700 45.02200
H  54.57600 50.57100 45.78400
H  55.54500 50.63400 44.33600
H  51.73100 52.03700 42.03100
H  53.39600 52.16300 42.42200
H  51.13100 53.90300 42.88100
H  52.81600 54.31900 43.19100
H  51.83000 53.60000 44.46700
H  47.34300 52.48200 44.40500
H  45.75600 52.09000 43.58800
H  47.20500 52.77800 42.73400
H  44.81400 47.35200 41.38800
H  42.21800 44.86400 43.13800
H  40.98200 46.07800 42.93000
H  41.90300 46.12200 44.37800

