158

Mg 54.49700 25.08100 44.08400
C  51.43900 26.60200 43.45400
C  52.78300 22.05800 43.22000
C  57.47000 23.57300 43.70700
C  55.85000 28.16400 44.73900
N  52.44500 24.40800 43.21500
C  51.37700 25.24300 43.06400
C  50.09300 24.49500 42.56000
C  50.45400 23.03700 42.90300
C  51.98200 23.15300 43.18100
C  49.76100 22.42100 44.18400
C  49.92200 24.65600 41.01700
C  48.62000 24.08800 40.47700
H  48.45400 24.10200 38.93200
N  55.02200 23.03300 43.68100
C  54.16700 21.98800 43.41100
C  55.03500 20.81700 43.22700
C  56.43600 21.23000 43.29000
C  56.37600 22.64600 43.60400
C  54.42600 19.44500 42.89200
C  57.58700 20.38400 42.93500
O  57.40800 19.18500 42.76300
C  59.00500 20.94100 42.81700
N  56.42000 25.82900 43.86000
C  57.49200 25.00100 43.90800
C  58.71800 25.82000 44.29700
C  58.18000 27.27600 44.46100
C  56.69600 27.10100 44.37700
C  59.65500 25.33500 45.46300
C  58.81200 28.37600 43.43600
C  60.28200 28.71000 43.67700
N  53.82200 27.03500 44.22000
C  54.45800 28.16500 44.55300
C  53.48800 29.29700 44.70600
C  52.24700 28.67800 44.24800
C  52.54000 27.31900 43.92100
C  53.79500 30.72000 45.03600
C  50.84500 28.88500 44.01200
O  50.10200 29.83400 44.21800
C  50.30600 27.60900 43.34800
C  50.01500 28.07200 41.91200
O  50.80500 28.16400 40.99000
O  48.72300 28.30200 41.84800
C  48.15700 28.63600 40.52900
H  52.18900 21.19200 42.92100
H  58.46700 23.16100 43.87800
H  56.25300 29.10600 45.11500
H  49.21200 24.90700 43.04900
H  50.46600 22.34600 42.06100
H  49.03700 21.67600 43.85600
H  49.19400 23.27800 44.54800
H  50.53000 22.13600 44.90200
H  50.65300 24.00600 40.53700
H  49.93600 25.68300 40.65100
H  47.72800 24.50400 40.94500
H  48.56300 23.06600 40.85300
H  54.54100 19.10300 41.86300
H  53.39500 19.25500 43.18900
H  54.95100 18.71300 43.50600
H  59.59700 20.13600 42.38000
H  59.33800 21.11100 43.84100
H  59.13600 21.78600 42.14200
H  59.32500 25.77200 43.39300
H  58.39100 27.76000 45.41400
H  59.22300 24.51200 46.03100
H  59.77400 26.09700 46.23400
H  60.63300 25.08900 45.04800
H  58.34700 29.34600 43.61100
H  58.93000 28.02300 42.41200
H  60.73400 27.95800 44.32300
H  60.39600 29.73000 44.04400
H  60.83700 28.71600 42.73800
H  54.11400 31.29600 44.16800
H  54.56500 30.81600 45.80200
H  52.88900 31.20000 45.40500
H  49.33800 27.39400 43.80000
H  48.71900 29.55600 40.36800
H  47.10900 28.90100 40.66800
H  48.21600 27.88800 39.73800
Mg 48.52600 16.24000 28.43700
C  46.36300 16.13500 31.31500
C  50.59700 18.27900 30.11400
C  50.26900 16.49600 25.66500
C  45.82900 14.62300 26.69300
N  48.46700 16.96600 30.58200
C  47.54800 16.78900 31.54200
C  48.05400 17.44300 32.83100
C  49.19600 18.43400 32.34700
C  49.47300 17.86100 30.94700
C  48.86500 19.98800 32.34100
C  48.45100 16.41100 33.84400
C  47.66600 16.54600 35.18500
H  47.91900 17.79100 35.99500
N  50.19000 17.22200 27.98700
C  50.92500 17.96300 28.80400
C  52.11600 18.38600 28.10900
C  52.09400 17.84000 26.78600
C  50.82700 17.16300 26.74800
C  53.17000 19.26600 28.85400
C  53.21600 17.91400 25.73500
O  53.03600 17.49100 24.55000
C  54.57400 18.43300 26.18300
N  48.07200 15.76000 26.43700
C  48.98100 15.92900 25.48400
C  48.30200 15.66000 24.09500
C  46.95000 14.99300 24.41600
C  46.96400 15.03800 25.96200
C  48.14100 16.91500 23.25100
C  46.84000 13.56600 23.92900
C  45.61400 13.27800 22.98900
N  46.58000 15.49800 28.85000
C  45.61000 14.78800 28.09000
C  44.41900 14.50100 28.87900
C  44.68200 15.04400 30.13000
C  45.98400 15.54400 30.07600
C  43.26300 13.76600 28.43800
C  44.15200 15.17700 31.49400
O  43.04700 14.78900 31.93200
C  45.27100 15.89400 32.32100
C  44.69700 17.13700 32.88200
O  44.55500 18.16700 32.27900
O  44.19600 16.85600 34.16300
C  43.34200 17.86000 34.86500
H  51.30300 18.90600 30.66300
H  50.83200 16.52200 24.73000
H  45.10300 14.09100 26.07400
H  47.18200 17.99000 33.19000
H  50.13400 18.30900 32.88900
H  47.80400 20.05400 32.58400
H  49.17500 20.35900 31.36400
H  49.31000 20.59900 33.12600
H  49.49900 16.47500 34.14000
H  48.41500 15.37800 33.49700
H  47.84200 15.68700 35.83200
H  46.59100 16.61100 35.02000
H  53.74500 19.95000 28.23100
H  53.83700 18.65000 29.45900
H  52.64000 19.88900 29.57400
H  54.90400 18.02800 27.14000
H  54.52700 19.51900 26.26800
H  55.34200 18.18500 25.45000
H  49.00100 14.95600 23.64400
H  46.03500 15.52700 24.16000
H  47.11400 17.27800 23.20800
H  48.30800 16.66200 22.20400
H  48.82500 17.70400 23.56300
H  46.78600 12.95900 24.83200
H  47.72300 13.19700 23.40600
H  44.95000 14.13300 22.86800
H  45.02700 12.45800 23.40400
H  45.94000 12.91700 22.01400
H  42.49200 13.88500 29.19900
H  43.54400 12.71400 28.38200
H  42.88400 14.21900 27.52200
H  45.68500 15.31000 33.14300
H  43.84300 18.21200 35.76600
H  42.39300 17.37000 35.08300
H  43.15900 18.74300 34.25200

