158

Mg 0.41500 7.57400 25.75100
C  1.23000 9.72600 28.51200
C  0.92200 4.88800 27.71800
C  -0.28100 5.78100 23.03000
C  0.74100 10.56500 23.65300
N  1.06800 7.35000 27.91100
C  1.18200 8.39200 28.83300
C  1.25000 7.74300 30.24600
C  1.38300 6.17500 29.95300
C  1.02000 6.11900 28.47500
C  2.72400 5.52200 30.34900
C  -0.08500 8.15400 31.08600
C  0.06700 8.16800 32.56000
H  1.33000 7.54400 33.20000
N  0.29800 5.69600 25.40600
C  0.61800 4.71800 26.35700
C  0.34700 3.42400 25.83200
C  -0.05400 3.56400 24.47300
C  -0.09100 5.04500 24.20200
C  0.62100 2.13700 26.61800
C  -0.39900 2.53800 23.38500
O  -0.67900 2.86600 22.25800
C  -0.29900 1.09500 23.69000
N  0.22400 8.18500 23.67700
C  -0.12800 7.16500 22.78900
C  -0.07600 7.75500 21.32300
C  0.22700 9.28000 21.56600
C  0.38000 9.39200 23.04500
C  1.02100 7.10300 20.41200
C  -0.80100 10.17300 20.88200
C  -2.17900 10.13000 21.50800
N  0.85100 9.68400 25.99200
C  0.94200 10.78600 25.06000
C  1.24600 12.05300 25.76600
C  1.26800 11.63500 27.12100
C  1.10400 10.23100 27.20400
C  1.28900 13.49200 25.23100
C  1.50900 12.17000 28.44300
O  1.76700 13.28300 28.83100
C  1.37100 10.94000 29.42900
C  2.57500 10.97000 30.25000
O  3.69800 10.79500 29.80200
O  2.15100 11.18000 31.61100
C  3.13900 11.11100 32.62100
H  1.00400 4.06900 28.43600
H  -0.52000 5.17400 22.15400
H  0.65300 11.44200 23.00900
H  2.04200 8.10000 30.90500
H  0.62200 5.67400 30.55100
H  3.42300 6.23800 30.78000
H  3.15500 4.95500 29.52400
H  2.55400 4.87500 31.21000
H  -0.80900 7.37100 30.86100
H  -0.49300 9.08800 30.70200
H  -0.81700 7.63900 32.91900
H  0.01900 9.13900 33.05200
H  0.69600 1.14500 26.17400
H  0.03800 2.09700 27.53800
H  1.59100 2.19500 27.11100
H  -0.85600 0.77400 22.80900
H  -0.91800 0.73500 24.51200
H  0.74600 0.78800 23.72300
H  -1.01700 7.54600 20.81500
H  1.24700 9.54300 21.28800
H  0.87900 7.46700 19.39500
H  1.03600 6.01600 20.33700
H  2.02200 7.35200 20.76500
H  -0.94900 9.89000 19.84000
H  -0.48000 11.21300 20.93800
H  -2.87200 10.62000 20.82500
H  -2.15800 10.74800 22.40600
H  -2.45800 9.09700 21.71700
H  1.08400 13.43500 24.16200
H  2.20600 13.94700 25.60700
H  0.40400 13.88900 25.72800
H  0.51000 11.16700 30.05900
H  3.44300 12.15400 32.71000
H  3.94700 10.44300 32.32000
H  2.75300 10.78500 33.58700
Mg -11.88500 16.30900 40.76500
C  -8.72000 14.83400 40.34700
C  -10.52900 19.22100 39.31900
C  -15.04300 17.64600 40.45900
C  -13.25300 13.02400 40.89100
N  -9.78200 16.92000 39.93200
C  -8.66300 16.21000 40.05100
C  -7.55600 17.04900 39.44000
C  -8.11900 18.46600 39.29500
C  -9.55500 18.20800 39.54200
C  -7.44400 19.55200 40.14300
C  -7.06500 16.45800 38.11500
C  -5.48500 16.49500 37.86800
H  -5.01700 17.07600 36.56500
N  -12.65500 18.19500 40.10400
C  -11.90100 19.20500 39.60100
C  -12.76400 20.37000 39.27700
C  -14.10500 19.96500 39.67900
C  -13.99600 18.60300 40.20600
C  -12.21100 21.69100 38.83500
C  -15.34100 20.88000 39.56700
O  -15.23600 22.04300 39.21200
C  -16.70500 20.36800 39.93400
N  -13.84200 15.41700 40.53200
C  -14.96400 16.15200 40.55600
C  -16.21700 15.26100 40.50800
C  -15.65700 13.84300 40.82800
C  -14.14200 14.12500 40.80700
C  -17.37200 15.73800 41.39600
C  -16.17900 12.73700 39.81100
C  -17.01000 11.64900 40.45900
N  -11.20500 14.31500 40.76900
C  -11.87600 13.15100 40.86200
C  -10.89000 12.04000 40.87000
C  -9.67100 12.69200 40.72200
C  -9.90000 14.05000 40.62200
C  -11.13900 10.55600 41.04900
C  -8.22400 12.40600 40.58800
O  -7.62000 11.30800 40.62000
C  -7.58500 13.77300 40.26900
C  -6.60100 13.92900 41.36900
O  -6.78900 14.10600 42.57500
O  -5.39500 14.10200 40.79400
C  -4.26600 14.44100 41.63000
H  -10.05700 20.12800 38.93500
H  -16.05100 18.06600 40.48300
H  -13.72600 12.04200 40.95800
H  -6.69400 17.17600 40.09600
H  -8.01000 18.86700 38.28700
H  -6.39200 19.30200 40.27700
H  -8.00900 19.72700 41.05900
H  -7.48900 20.49000 39.58900
H  -7.47400 17.12200 37.35300
H  -7.41700 15.44800 37.90000
H  -5.15700 15.46500 38.01000
H  -5.00400 17.10000 38.63700
H  -11.45000 21.54400 38.06800
H  -11.66100 22.21800 39.61500
H  -12.86900 22.48900 38.49300
H  -17.37600 21.22300 39.85500
H  -16.69000 20.02300 40.96800
H  -17.04600 19.66100 39.17900
H  -16.54300 15.36200 39.47300
H  -15.87100 13.61400 41.87200
H  -17.06200 16.15000 42.35600
H  -17.91000 14.83200 41.67600
H  -18.09800 16.34600 40.85600
H  -15.37700 12.24000 39.26500
H  -16.84400 13.18300 39.07200
H  -16.64300 10.68900 40.09500
H  -18.06100 11.75700 40.19000
H  -16.86400 11.58600 41.53700
H  -11.35600 10.36400 42.09900
H  -10.29700 9.92900 40.75300
H  -12.08800 10.38400 40.54200
H  -7.12200 13.83800 39.28400
H  -4.59300 14.65400 42.64800
H  -3.93100 15.41900 41.28700
H  -3.51700 13.64800 41.63500

