158

Mg 47.44300 25.68200 27.79600
C  48.69600 27.52600 30.51100
C  46.79500 23.03600 30.01900
C  46.45700 23.72300 25.22900
C  48.60500 28.08200 25.67900
N  47.68300 25.40000 29.98900
C  48.07600 26.32500 30.88800
C  47.87600 25.85700 32.34400
C  47.41100 24.44600 32.16500
C  47.32700 24.19500 30.62500
C  48.34900 23.40800 32.87300
C  46.85600 26.82300 32.99500
C  46.12000 26.35100 34.28500
H  45.84600 27.29800 35.45000
N  46.74900 23.68300 27.69000
C  46.66700 22.72800 28.66300
C  46.20400 21.48200 28.10800
C  45.98500 21.65200 26.72400
C  46.37600 23.07900 26.47400
C  46.05200 20.24100 28.95300
C  45.36300 20.82600 25.69200
O  45.09000 21.26400 24.57000
C  44.99400 19.42100 26.07900
N  47.66500 25.80700 25.79600
C  47.07500 24.91000 24.87200
C  47.49500 25.24500 23.45800
C  47.95600 26.67900 23.58600
C  48.04600 26.93900 25.08900
C  48.48100 24.11000 22.91100
C  47.08800 27.74400 22.95800
C  47.78200 28.73000 21.92000
N  48.38500 27.48000 27.95300
C  48.77500 28.33900 27.01200
C  49.43200 29.52300 27.63500
C  49.47800 29.17500 29.00500
C  48.80200 27.92500 29.13500
C  49.88900 30.76600 27.00300
C  49.83600 29.74800 30.28200
O  50.44800 30.80600 30.50100
C  49.21300 28.66200 31.37800
C  50.24700 28.34000 32.40500
O  51.14900 27.52300 32.25300
O  49.87300 28.98900 33.58800
C  50.62100 28.54000 34.77000
H  46.56000 22.34000 30.82700
H  46.13600 23.12500 24.37400
H  49.12600 28.73000 24.97100
H  48.85000 25.92400 32.82900
H  46.36500 24.42300 32.46900
H  48.88000 22.80400 32.13800
H  47.72400 22.65600 33.35500
H  49.09300 23.68000 33.62200
H  46.05900 27.21700 32.36600
H  47.38600 27.74300 33.24100
H  46.65800 25.46000 34.60900
H  45.10600 25.98500 34.12500
H  45.02600 19.97900 29.21400
H  46.64500 20.40900 29.85200
H  46.48400 19.32300 28.55300
H  44.43100 18.96500 25.26500
H  44.46300 19.45500 27.03000
H  45.88400 18.80100 26.19000
H  46.56600 25.13400 22.89800
H  48.95000 26.73200 23.14300
H  48.00600 23.67300 22.03200
H  48.54800 23.34000 23.67900
H  49.47400 24.50700 22.70000
H  46.66100 28.49300 23.62500
H  46.27400 27.36200 22.34300
H  48.63200 28.27400 21.41300
H  48.19100 29.55400 22.50500
H  47.07100 28.96600 21.12900
H  49.09600 31.06000 26.31500
H  50.74300 30.62400 26.34000
H  50.19600 31.45800 27.78700
H  48.32300 29.15000 31.77600
H  49.98500 28.62400 35.65200
H  51.59400 29.02900 34.82100
H  50.83500 27.47300 34.69900
Mg 26.95000 50.42500 26.17800
C  24.96700 51.38100 28.93000
C  29.20500 49.28000 28.43600
C  28.85100 49.90200 23.62200
C  24.38600 51.79900 24.10800
N  26.89200 50.10600 28.41700
C  26.02600 50.65100 29.33600
C  26.50900 50.43800 30.78200
C  27.98100 49.88400 30.56500
C  28.06700 49.64500 29.08100
C  29.16000 50.65000 31.17700
C  25.49000 49.43000 31.56000
C  24.96800 49.85900 32.92200
H  25.88400 50.27500 34.09500
N  28.76200 49.70500 26.04400
C  29.62800 49.32800 27.05300
C  30.91900 48.88200 26.50500
C  30.72600 48.93800 25.11700
C  29.41400 49.53600 24.85900
C  32.14200 48.39100 27.41800
C  31.61700 48.47800 24.00200
O  31.38400 48.48300 22.82000
C  32.99200 48.04800 24.43800
N  26.78400 51.08200 24.24100
C  27.68500 50.59300 23.33900
C  27.23300 50.90700 21.88800
C  25.74400 51.21200 22.09000
C  25.59500 51.30500 23.60000
C  28.04900 52.00500 21.31500
C  24.63900 50.29100 21.45600
C  23.50700 50.99700 20.62400
N  25.06100 51.39500 26.41500
C  24.14800 51.89500 25.46700
C  23.01900 52.45600 26.14600
C  23.26400 52.31200 27.50700
C  24.56300 51.68400 27.62300
C  21.79200 53.10000 25.55900
C  22.79700 52.63700 28.89800
O  21.77700 53.12600 29.30400
C  23.81800 51.95000 29.83100
C  24.22100 53.01400 30.77400
O  25.14800 53.82000 30.56400
O  23.41600 53.06100 31.85000
C  23.74900 54.02100 32.91600
H  30.03100 48.98800 29.08800
H  29.48000 49.73700 22.74500
H  23.52400 51.97400 23.46000
H  26.61100 51.36900 31.33900
H  28.00200 48.93500 31.10100
H  29.76900 51.01500 30.35000
H  29.75600 50.02000 31.83800
H  28.82300 51.50600 31.76200
H  25.76200 48.37400 31.57100
H  24.62100 49.51100 30.90700
H  24.38800 48.97700 33.19300
H  24.20100 50.61900 32.77500
H  31.76800 48.21700 28.42800
H  32.76400 49.28200 27.33600
H  32.71600 47.53600 27.06100
H  32.93300 47.04100 24.85100
H  33.34800 48.79500 25.14700
H  33.63200 47.88200 23.57000
H  27.53200 49.98900 21.38200
H  25.51200 52.24000 21.81200
H  28.76300 52.39200 22.04200
H  27.35100 52.81900 21.11800
H  28.59100 51.60400 20.45900
H  24.21600 49.53200 22.11300
H  25.22400 49.68900 20.76100
H  23.72800 52.05300 20.47000
H  22.51200 50.88700 21.05700
H  23.68800 50.56400 19.64100
H  20.96800 53.09700 26.27300
H  21.53200 52.54800 24.65600
H  21.96400 54.14000 25.28300
H  23.30200 51.11000 30.29500
H  24.15400 53.52100 33.79600
H  22.86300 54.56400 33.24200
H  24.53300 54.69600 32.57500

