158

Mg 24.71700 -5.76200 46.17200
C  26.51700 -2.96000 45.09200
C  22.10400 -4.60500 44.02200
C  23.22300 -8.60100 46.67600
C  27.63400 -6.98700 47.82100
N  24.47200 -4.02800 44.65200
C  25.30700 -3.05000 44.38400
C  24.73300 -2.07500 43.32700
C  23.22000 -2.34000 43.52300
C  23.27400 -3.74500 44.11400
C  22.37500 -1.37600 44.45700
C  25.35600 -2.61700 41.98400
C  25.65200 -1.55400 40.88200
H  25.27100 -1.95300 39.46200
N  22.85600 -6.51200 45.50300
C  22.00900 -5.91200 44.63600
C  20.92100 -6.86400 44.40700
C  21.16400 -8.03400 45.16700
C  22.44800 -7.73800 45.87600
C  19.70400 -6.47400 43.65700
C  20.37900 -9.30000 45.12600
O  19.44600 -9.21700 44.32000
C  20.65200 -10.47300 45.92100
N  25.35400 -7.57800 47.05200
C  24.45300 -8.54800 47.23700
C  25.12500 -9.76300 47.91500
C  26.49700 -9.12100 48.40400
C  26.57700 -7.82500 47.64600
C  24.37700 -10.49100 49.04300
C  27.76100 -10.00200 48.23000
C  28.62300 -9.82700 46.94900
N  26.60800 -5.12300 46.51800
C  27.71800 -5.71900 47.18200
C  28.83200 -4.81400 47.05000
C  28.44600 -3.75500 46.21600
C  27.06500 -3.89500 46.00500
C  30.20900 -4.99700 47.70300
C  28.92100 -2.59300 45.50900
O  29.99000 -1.99000 45.56400
C  27.64900 -2.01400 44.76200
C  27.33600 -0.66400 45.17200
O  26.42900 -0.25300 45.81300
O  28.31100 0.10100 44.65100
C  28.15500 1.46100 45.03900
H  21.31800 -4.24400 43.35600
H  22.77800 -9.58200 46.85800
H  28.54000 -7.31300 48.33700
H  25.06500 -1.05100 43.49400
H  22.65900 -2.31500 42.58900
H  21.70100 -1.87300 45.15600
H  21.70100 -0.75200 43.87000
H  23.01900 -0.70500 45.02400
H  24.54500 -3.18000 41.52200
H  26.29800 -3.16500 42.01300
H  26.71700 -1.32500 40.86700
H  25.02200 -0.68400 41.07000
H  18.80900 -6.84600 44.15600
H  19.84600 -6.77900 42.62000
H  19.60100 -5.39200 43.73300
H  19.81300 -11.15500 45.78300
H  20.79100 -10.16200 46.95600
H  21.56700 -10.85200 45.46700
H  25.43000 -10.53200 47.20400
H  26.56100 -8.90000 49.47000
H  24.17900 -11.51600 48.73000
H  23.41400 -10.04700 49.29200
H  24.90700 -10.41200 49.99300
H  27.34300 -11.00600 48.15000
H  28.30700 -9.95800 49.17300
H  28.76500 -10.80400 46.48700
H  29.62200 -9.48800 47.22600
H  28.24400 -9.11300 46.21800
H  30.09400 -5.22500 48.76300
H  30.82300 -4.09900 47.64800
H  30.83500 -5.74200 47.21200
H  27.65100 -2.16400 43.68200
H  28.93500 2.05300 44.56000
H  28.13000 1.48300 46.12800
H  27.22800 1.94700 44.73400
Mg 1.83000 42.82200 25.35500
C  3.45000 42.86900 28.53300
C  -0.92700 41.81300 26.90200
C  0.63200 42.66200 22.23600
C  5.13400 43.68000 23.91600
N  1.36200 42.29000 27.53200
C  2.09000 42.50500 28.64700
C  1.18300 42.35300 29.88800
C  -0.16300 41.86500 29.27000
C  0.09500 42.02800 27.79700
C  -0.59100 40.40200 29.60100
C  1.05300 43.81400 30.53600
C  1.48800 43.98200 32.03500
H  0.90100 43.18000 33.15800
N  0.12400 42.38300 24.70600
C  -0.94400 41.97100 25.50200
C  -2.05300 41.80500 24.63600
C  -1.65000 42.18800 23.33000
C  -0.24100 42.41400 23.33300
C  -3.39800 41.24700 25.18200
C  -2.49100 42.30000 22.00800
O  -1.97500 42.68300 20.92100
C  -4.00300 42.10800 22.14500
N  2.81600 42.97300 23.38100
C  1.98900 42.99000 22.25500
C  2.80600 43.23900 21.00300
C  4.14300 43.74900 21.55100
C  4.06300 43.43600 23.03200
C  3.03200 41.96800 20.11700
C  4.40200 45.23100 21.30000
C  4.70900 45.65200 19.87600
N  3.83700 43.37300 25.99200
C  5.01600 43.60800 25.32800
C  6.04200 43.82800 26.31900
C  5.50200 43.44900 27.59300
C  4.16200 43.18300 27.32700
C  7.35500 44.32200 26.12800
C  5.84900 43.20500 28.98300
O  6.87300 43.28600 29.54600
C  4.47000 43.02800 29.70100
C  4.52100 41.77300 30.52200
O  4.87300 40.66800 30.19900
O  4.21400 42.10200 31.83100
C  4.51100 41.22800 32.91100
H  -1.88300 41.56600 27.36900
H  0.23000 42.65100 21.22100
H  6.15500 43.86800 23.57800
H  1.59000 41.62100 30.58600
H  -1.01300 42.49800 29.52400
H  -1.67300 40.28900 29.67000
H  -0.25400 40.07700 30.58600
H  -0.29500 39.73100 28.79500
H  0.00400 44.10800 30.51400
H  1.72400 44.41200 29.91900
H  1.26500 45.03000 32.23500
H  2.56900 43.88800 32.14500
H  -4.26000 41.89800 25.04100
H  -3.36400 41.04200 26.25200
H  -3.69400 40.36500 24.61500
H  -4.50800 42.04700 21.18100
H  -4.36200 42.86900 22.83700
H  -4.15200 41.14400 22.63100
H  2.34600 44.06300 20.45800
H  5.08700 43.29100 21.25500
H  4.07000 41.64900 20.02300
H  2.81000 42.18400 19.07200
H  2.59900 41.07200 20.56200
H  5.23400 45.49800 21.95200
H  3.53500 45.86100 21.49900
H  4.97900 44.85700 19.18000
H  5.56600 46.32600 19.89300
H  3.79500 46.14400 19.54300
H  7.82200 44.48600 27.09900
H  7.40200 45.15200 25.42400
H  7.97200 43.48900 25.79100
H  4.29500 43.85800 30.38500
H  5.59700 41.13100 32.90800
H  3.99500 40.27400 32.79700
H  4.11700 41.56100 33.87100

