158

Mg 2.44100 -0.84900 43.23500
C  5.87200 0.01600 43.13200
C  1.71800 2.13000 41.83900
C  -0.74700 -1.98700 42.81700
C  3.47500 -4.13200 43.97800
N  3.74800 0.71800 42.43100
C  5.06200 0.96900 42.57000
C  5.40400 2.33800 42.08800
C  4.01300 3.13600 42.29800
C  3.08700 1.95500 42.19400
C  3.83800 4.00500 43.63000
C  5.78700 2.40500 40.54800
C  5.64000 1.10400 39.72900
H  6.38200 1.02400 38.41300
N  0.68800 -0.02000 42.40900
C  0.62300 1.26400 41.86300
C  -0.72800 1.56200 41.53000
C  -1.43900 0.39800 41.89500
C  -0.55000 -0.58600 42.40500
C  -1.17700 2.87700 40.91600
C  -2.99000 0.31800 41.88000
O  -3.64500 1.22500 41.35200
C  -3.70800 -0.73300 42.46200
N  1.47900 -2.80700 43.56100
C  0.13700 -3.03600 43.25200
C  -0.15000 -4.51500 43.03800
C  1.22500 -5.11100 43.45000
C  2.13400 -3.94700 43.67500
C  -1.39100 -5.04800 43.90300
C  1.72200 -6.12700 42.34800
C  1.72600 -7.63000 42.59200
N  4.26800 -1.88100 43.65400
C  4.48800 -3.16200 43.97500
C  5.87700 -3.34100 44.34300
C  6.51700 -2.12000 43.99800
C  5.49700 -1.24700 43.57500
C  6.65300 -4.60100 44.71800
C  7.79800 -1.39200 43.85300
O  8.96100 -1.70100 44.03300
C  7.37200 0.07100 43.28400
C  7.72500 1.19600 44.20000
O  8.55200 2.01900 43.95900
O  6.99500 1.15800 45.36500
C  7.21000 2.23800 46.28200
H  1.41800 3.14600 41.57700
H  -1.68800 -2.42000 42.47300
H  3.75900 -5.18300 44.06400
H  6.20800 2.71500 42.72000
H  3.88300 3.78200 41.43000
H  3.44600 5.01200 43.49000
H  4.72800 3.83700 44.23700
H  2.97500 3.59500 44.15400
H  6.76100 2.84500 40.33300
H  5.12400 3.11600 40.05500
H  4.59400 0.80200 39.66800
H  6.10100 0.31800 40.32800
H  -1.69400 2.68500 39.97600
H  -0.34300 3.55800 40.75200
H  -1.89100 3.42300 41.53300
H  -3.39100 -0.89400 43.49200
H  -3.77300 -1.62700 41.84100
H  -4.77700 -0.54000 42.54700
H  -0.31400 -4.60400 41.96500
H  1.15300 -5.70100 44.36300
H  -1.88000 -4.18300 44.35000
H  -1.13700 -5.71000 44.73200
H  -2.02700 -5.67700 43.28000
H  2.73100 -5.89600 42.00500
H  1.03400 -6.11600 41.50300
H  2.78200 -7.86900 42.71700
H  1.35700 -8.21800 41.75200
H  1.13600 -7.94600 43.45300
H  6.86100 -4.81200 45.76700
H  7.63200 -4.63500 44.23900
H  6.08300 -5.45500 44.35200
H  7.89300 0.25300 42.34400
H  6.41700 2.16700 47.02600
H  7.10500 3.17000 45.72700
H  8.14200 2.17600 46.84300
Mg 6.09500 57.12200 42.15600
C  5.30700 53.46300 41.92600
C  9.07200 56.21200 40.54000
C  6.46400 60.23800 41.84100
C  2.81000 57.53100 43.29000
N  7.01600 55.03800 41.36300
C  6.53400 53.75400 41.33900
C  7.54400 52.71100 40.72800
C  8.78500 53.65300 40.48400
C  8.30800 55.04200 40.83600
C  10.08100 53.24000 41.25500
C  7.00800 52.09200 39.50000
C  7.53900 50.67000 39.23700
H  7.05400 50.11000 37.87900
N  7.54100 58.10600 41.37600
C  8.71500 57.68900 40.77600
C  9.44500 58.77800 40.37800
C  8.74800 59.95200 40.69700
C  7.54500 59.45400 41.31100
C  10.84900 58.58800 39.70200
C  9.40300 61.36900 40.57600
O  10.43300 61.62400 39.97400
C  8.70800 62.57500 41.30800
N  4.65200 58.67600 42.22200
C  5.26600 59.87200 42.39800
C  4.23900 60.86400 42.91500
C  2.97200 60.05200 43.27300
C  3.51900 58.67600 42.94100
C  4.70500 61.87100 43.97200
C  1.67400 60.45300 42.42700
C  0.28000 60.29700 43.06200
N  4.47100 55.84100 42.72200
C  3.25400 56.22300 43.21000
C  2.54800 54.99500 43.58300
C  3.33400 53.89400 43.15900
C  4.46700 54.43600 42.55400
C  1.26400 54.99900 44.20800
C  3.43700 52.45600 43.16100
O  2.71300 51.59400 43.63900
C  4.74000 52.11900 42.36600
C  4.46200 51.02300 41.33900
O  3.68400 51.02800 40.38900
O  5.22900 49.94600 41.73600
C  4.91200 48.70100 41.04000
H  10.06300 56.07200 40.10300
H  6.75000 61.29200 41.82100
H  1.84800 57.81500 43.72300
H  7.67500 51.95700 41.50400
H  9.08500 53.66700 39.43600
H  9.94400 52.42100 41.96200
H  10.39300 54.08100 41.87400
H  10.95500 52.89700 40.70100
H  7.08400 52.67200 38.58000
H  5.92900 52.00300 39.62400
H  7.27400 49.98700 40.04400
H  8.62000 50.80800 39.22200
H  11.39400 57.80700 40.23100
H  11.44200 59.50200 39.65400
H  10.69900 58.06500 38.75800
H  8.74800 62.48600 42.39300
H  7.78400 62.68600 40.74000
H  9.39200 63.40500 41.13100
H  4.06900 61.45900 42.01800
H  2.67900 60.18000 44.31500
H  5.67300 62.22100 43.61500
H  5.03000 61.41900 44.90900
H  4.11200 62.77800 44.08900
H  1.54000 59.70000 41.65100
H  1.77500 61.43300 41.96200
H  -0.45400 60.69300 42.35900
H  0.25500 60.68200 44.08100
H  0.01200 59.25000 43.20400
H  0.77200 54.03100 44.10900
H  0.67200 55.79900 43.76300
H  1.21900 55.09500 45.29300
H  5.36900 51.71800 43.16000
H  3.84100 48.64400 40.84700
H  5.26100 47.84000 41.61100
H  5.40500 48.56100 40.07800

