158

Mg -1.27300 16.74500 26.17000
C  -1.50100 14.59600 28.98300
C  -1.88200 19.36600 28.25100
C  -1.57100 18.71200 23.40500
C  -0.68700 14.01200 24.12700
N  -1.48600 17.00800 28.40700
C  -1.48800 15.96900 29.32400
C  -1.84000 16.48900 30.80200
C  -2.18800 18.02700 30.50400
C  -1.87500 18.13500 28.95900
C  -3.60700 18.44100 30.77200
C  -0.73500 16.40900 31.90100
C  -1.09300 15.72100 33.21700
H  -1.92500 16.34600 34.34800
N  -1.45600 18.79400 25.91000
C  -1.76000 19.74100 26.89200
C  -1.73900 21.00700 26.30100
C  -1.56600 20.85000 24.93700
C  -1.55400 19.37400 24.65700
C  -1.92700 22.29300 27.12500
C  -1.35500 21.87700 23.85300
O  -1.37500 21.60400 22.63800
C  -0.99100 23.34400 24.23300
N  -1.24400 16.41000 24.05600
C  -1.24000 17.37200 23.14500
C  -1.15000 16.79000 21.79500
C  -0.53600 15.39400 21.99500
C  -0.86400 15.24000 23.52000
C  -2.49000 16.95000 20.98900
C  1.01500 15.19900 21.62100
C  2.08200 15.57100 22.57900
N  -1.21300 14.68200 26.43500
C  -1.00700 13.67300 25.50000
C  -1.00700 12.43100 26.15600
C  -1.28300 12.72000 27.49500
C  -1.33600 14.09300 27.65400
C  -0.89000 11.10900 25.53200
C  -1.52500 12.14600 28.78900
O  -1.56900 10.96400 29.13500
C  -1.77600 13.35500 29.81700
C  -0.95200 13.00900 30.96900
O  0.18700 13.27500 31.14100
O  -1.71000 12.30900 31.86100
C  -1.09500 12.12600 33.18300
H  -2.36800 20.10800 28.88800
H  -1.64000 19.38000 22.54500
H  -0.43100 13.12200 23.54800
H  -2.74600 15.95200 31.08300
H  -1.60100 18.74700 31.07300
H  -4.01100 17.89500 31.62500
H  -4.20700 18.25100 29.88200
H  -3.67400 19.48900 31.06400
H  -0.47200 17.42000 32.21400
H  0.20700 15.99000 31.54700
H  -0.22600 15.13200 33.51600
H  -1.71800 14.85500 32.99800
H  -2.62600 22.94100 26.59500
H  -1.08200 22.93700 27.37000
H  -2.24000 21.95600 28.11300
H  -0.15100 23.36300 24.92800
H  -1.89700 23.83100 24.59100
H  -0.67600 23.85500 23.32300
H  -0.42400 17.45500 21.32800
H  -1.19100 14.62200 21.59200
H  -3.21100 17.45900 21.62800
H  -2.93500 16.02300 20.62800
H  -2.22300 17.72000 20.26500
H  1.32300 15.77300 20.74700
H  1.03400 14.14300 21.35200
H  1.72300 16.00500 23.51300
H  2.74300 16.32700 22.15500
H  2.74700 14.71600 22.70000
H  -0.23200 11.26200 24.67600
H  -1.87200 10.72900 25.25100
H  -0.29900 10.49400 26.21000
H  -2.83200 13.37200 30.08700
H  -1.41300 12.98100 33.78000
H  -0.02900 11.91500 33.10200
H  -1.45400 11.20300 33.63700
Mg 43.92400 2.67200 47.88500
C  41.85400 5.32400 46.96800
C  41.11500 0.67800 47.91400
C  45.89300 -0.08600 47.97400
C  46.71000 4.54700 47.19000
N  41.69300 2.99600 47.34800
C  41.08100 4.16700 47.09600
C  39.57500 3.88700 46.80700
C  39.34900 2.48500 47.43200
C  40.82300 1.98500 47.53200
C  38.47800 2.47400 48.74100
C  39.17300 4.00300 45.30200
C  38.26100 5.27100 45.01700
H  38.76000 6.23500 43.89200
N  43.56100 0.61400 48.02200
C  42.33100 0.01900 48.07700
C  42.52900 -1.38400 48.33600
C  43.94400 -1.73300 48.19200
C  44.50800 -0.36400 47.99600
C  41.35000 -2.32200 48.55100
C  44.54500 -3.10600 48.35500
O  43.79500 -4.09000 48.63100
C  45.99100 -3.37000 48.20100
N  46.03900 2.16700 47.37400
C  46.61600 1.01200 47.75800
C  48.17900 1.17100 47.66400
C  48.37600 2.69300 47.40000
C  46.94300 3.16300 47.26400
C  49.02300 0.75700 48.85800
C  49.34500 3.03000 46.21400
C  50.32700 4.22900 46.51600
N  44.24000 4.51900 47.31000
C  45.39700 5.18900 47.11500
C  45.15200 6.55200 46.92600
C  43.75300 6.65800 46.83600
C  43.23000 5.43700 47.07500
C  46.15800 7.65400 46.64400
C  42.64900 7.60200 46.54900
O  42.64900 8.82000 46.32400
C  41.32800 6.73100 46.65300
C  40.39400 7.29000 47.53600
O  40.06900 6.79500 48.60200
O  39.92600 8.47200 47.06100
C  38.97100 9.24100 47.86200
H  40.24900 0.05300 48.14100
H  46.55900 -0.91400 48.22500
H  47.56800 5.20800 47.05500
H  38.94100 4.54600 47.39900
H  38.89800 1.77700 46.73600
H  37.67400 1.74100 48.81500
H  38.01800 3.44200 48.94100
H  39.13700 2.38300 49.60300
H  38.54700 3.17400 44.97200
H  40.12300 3.98600 44.76600
H  37.99000 5.81600 45.92200
H  37.33200 4.87900 44.60300
H  40.43800 -1.78000 48.29900
H  41.26700 -2.54400 49.61500
H  41.14500 -3.29100 48.09500
H  46.27400 -2.90300 47.25800
H  46.33900 -4.40000 48.27800
H  46.51500 -2.81300 48.97900
H  48.48300 0.71500 46.72200
H  48.70200 3.25600 48.27400
H  49.84400 1.45700 49.01300
H  49.45900 -0.22800 48.69000
H  48.49900 0.62100 49.80400
H  48.80900 3.29000 45.30100
H  49.76000 2.05300 45.97000
H  51.33700 3.95800 46.20800
H  50.29700 4.43300 47.58600
H  50.00000 5.15800 46.04800
H  46.84100 7.80500 47.47900
H  45.64600 8.61600 46.68200
H  46.72700 7.52500 45.72200
H  40.86400 6.70100 45.66700
H  38.33500 9.82800 47.19900
H  39.55900 9.87300 48.52800
H  38.32200 8.68600 48.53900

