158

Mg 26.75700 0.82800 29.31300
C  28.45900 1.01700 32.35100
C  23.82700 1.73700 31.09300
C  24.98900 0.62500 26.43100
C  29.55000 -0.21800 27.74300
N  26.20500 1.40200 31.51500
C  27.04100 1.34700 32.61600
C  26.34900 1.65800 34.02500
C  24.87300 1.69000 33.49100
C  24.98800 1.58900 31.91000
C  24.01700 0.54700 34.08900
C  26.82700 3.02200 34.53900
C  27.50300 3.00500 35.90000
H  26.82600 3.67100 37.04400
N  24.65000 1.07900 28.86600
C  23.63400 1.41900 29.69700
C  22.43300 1.58900 28.99100
C  22.75800 1.33300 27.63200
C  24.18100 0.90400 27.57300
C  21.06400 1.85400 29.69900
C  21.88600 1.43100 26.35900
O  22.27200 1.20900 25.17200
C  20.44500 1.91900 26.54800
N  27.22700 0.38800 27.40100
C  26.34400 0.32200 26.35200
C  27.01800 0.09800 25.03100
C  28.54200 -0.22400 25.41200
C  28.49300 0.04900 26.90900
C  26.33500 -0.94500 24.12300
C  29.55700 0.64300 24.55400
C  30.53900 -0.21000 23.71700
N  28.56700 0.36900 29.93700
C  29.65000 -0.00600 29.12100
C  30.84100 0.01800 29.92600
C  30.49400 0.36600 31.16200
C  29.03100 0.57000 31.14300
C  32.13200 -0.27500 29.42700
C  30.92100 0.77200 32.47500
O  32.05000 0.89800 32.98900
C  29.65000 0.95300 33.35300
C  29.69200 -0.13500 34.41200
O  29.35600 -1.29500 34.19800
O  30.16500 0.32600 35.64700
C  29.88100 -0.51600 36.79000
H  23.01300 2.05100 31.75000
H  24.41700 0.64600 25.50100
H  30.52500 -0.38500 27.28100
H  26.63400 0.88500 34.73900
H  24.32500 2.60200 33.73000
H  23.27500 1.08400 34.68000
H  24.75700 -0.13200 34.51300
H  23.61800 -0.04900 33.26900
H  26.07000 3.80300 34.60200
H  27.60500 3.29900 33.82800
H  28.46700 3.49400 35.76300
H  27.72000 1.97700 36.19000
H  20.51500 2.61300 29.14100
H  21.12400 2.06500 30.76600
H  20.55700 0.90300 29.53800
H  20.01700 1.82200 25.55100
H  20.54000 2.96800 26.82500
H  19.83800 1.43300 27.31200
H  26.97500 1.07500 24.54800
H  28.71100 -1.28900 25.25000
H  25.58900 -1.46600 24.72300
H  27.12400 -1.58500 23.72700
H  25.83800 -0.38600 23.33000
H  30.06000 1.26300 25.29600
H  28.97700 1.15400 23.78600
H  31.54500 0.15100 23.93000
H  30.38800 0.01900 22.66200
H  30.46500 -1.28800 23.85900
H  32.56200 0.57600 28.89900
H  31.98900 -1.10300 28.73100
H  32.82500 -0.59700 30.20400
H  29.91400 1.85600 33.90400
H  29.48600 0.06300 37.62400
H  30.79300 -0.94500 37.20400
H  29.09700 -1.23900 36.56900
Mg 41.17900 8.64700 29.65700
C  43.04500 9.49300 32.40300
C  38.85700 7.31000 31.71100
C  39.60200 7.47500 26.98800
C  44.03900 9.08900 27.56300
N  41.02300 8.26900 31.86300
C  41.81800 8.92600 32.78700
C  41.16400 8.81400 34.21500
C  40.07200 7.70000 33.99300
C  39.98400 7.75500 32.41500
C  40.54700 6.29000 34.58200
C  40.63900 10.22600 34.69700
C  40.43700 10.47200 36.23300
H  41.48000 11.22000 37.04200
N  39.32800 7.64400 29.33300
C  38.50100 7.21400 30.34600
C  37.20500 6.84100 29.74000
C  37.37200 6.93600 28.30500
C  38.76500 7.35400 28.10400
C  35.98500 6.46600 30.56100
C  36.43300 6.61900 27.03100
O  36.87400 6.57200 25.87400
C  35.05600 6.42600 27.25800
N  41.91100 8.00700 27.72000
C  40.93400 7.69400 26.80700
C  41.47600 7.52000 25.35900
C  42.86900 8.18500 25.49600
C  42.94800 8.44400 27.00200
C  41.44200 6.03000 24.85000
C  43.03900 9.54200 24.67500
C  41.91100 10.59300 24.72100
N  43.24700 9.16500 29.84500
C  44.30100 9.33800 28.93700
C  45.36200 9.94000 29.76500
C  44.92100 10.09400 31.06200
C  43.64500 9.53800 31.06800
C  46.61300 10.50200 29.21200
C  45.26300 10.60200 32.37800
O  46.17600 11.29100 32.77700
C  44.10200 10.14700 33.30900
C  44.62500 9.22100 34.33000
O  44.50300 8.01000 34.30200
O  45.42100 9.96400 35.19600
C  46.29300 9.14700 36.15700
H  38.12400 7.05400 32.48000
H  39.08500 7.35900 26.03300
H  44.88900 9.37100 26.93700
H  41.96500 8.43900 34.85300
H  39.09200 7.95200 34.39900
H  41.61300 6.37800 34.78900
H  40.33700 5.53400 33.82500
H  39.87600 5.88500 35.34000
H  39.73100 10.40300 34.12100
H  41.43600 10.86700 34.32000
H  40.22900 9.51700 36.71700
H  39.51000 11.03500 36.33700
H  35.95300 5.37800 30.62100
H  35.03000 6.76000 30.12400
H  36.01300 6.81300 31.59400
H  34.64100 6.09300 26.30700
H  34.58100 7.33900 27.61900
H  34.85600 5.56700 27.89800
H  40.89700 8.07700 24.62200
H  43.67400 7.47700 25.29600
H  40.43400 5.67700 24.63500
H  41.93500 5.33800 25.53400
H  42.06800 6.01000 23.95800
H  43.34000 9.13200 23.71100
H  43.90800 10.06300 25.07700
H  41.63200 10.84700 23.69900
H  42.37300 11.48200 25.15000
H  41.03700 10.29300 25.29900
H  46.42100 11.23800 28.43100
H  47.05400 9.61900 28.75000
H  47.04800 11.04100 30.05300
H  43.71200 11.05000 33.77900
H  46.78600 8.38800 35.55000
H  45.65000 8.67100 36.89700
H  46.92600 9.83500 36.71800

