158

Mg -0.27600 7.53100 25.48500
C  0.60900 9.57500 28.07900
C  -0.38700 4.83200 27.69200
C  -0.40400 5.31500 22.85700
C  0.13800 10.13600 23.21500
N  0.14200 7.24400 27.60800
C  0.43100 8.24200 28.53200
C  0.63000 7.68100 29.96400
C  0.45300 6.15100 29.69400
C  0.09000 6.01700 28.22100
C  1.75300 5.23700 29.91100
C  -0.48600 8.22600 30.86100
C  -0.17700 8.14000 32.35800
H  1.04000 7.40700 32.92700
N  -0.35800 5.31800 25.28700
C  -0.45900 4.43500 26.31900
C  -0.73200 3.17400 25.79900
C  -0.60900 3.24400 24.35300
C  -0.45600 4.64700 24.05500
C  -0.96700 2.02600 26.69300
C  -0.63100 2.18000 23.35700
O  -0.29900 2.43000 22.20000
C  -1.07900 0.78000 23.73600
N  0.08700 7.66300 23.30700
C  -0.20000 6.67300 22.49200
C  -0.50300 7.13800 21.06800
C  -0.53800 8.67300 21.22800
C  -0.11500 8.88800 22.65600
C  0.53600 6.65400 20.04600
C  -1.92300 9.22900 20.90800
C  -1.88300 10.61700 20.22300
N  0.28400 9.51800 25.58000
C  0.32800 10.46000 24.62300
C  0.62300 11.73700 25.17400
C  0.76900 11.48900 26.59900
C  0.48300 10.08100 26.77900
C  0.81600 12.98500 24.40500
C  1.14300 12.03900 27.95600
O  1.66200 13.07500 28.23900
C  0.85400 10.88900 28.96400
C  2.07200 10.81800 29.84000
O  3.18600 10.39000 29.49700
O  1.68100 11.12000 31.14900
C  2.75700 11.24800 32.16200
H  -0.68700 3.99200 28.32300
H  -0.46500 4.65000 21.99300
H  0.10300 11.01400 22.56700
H  1.59600 8.05400 30.30400
H  -0.34500 5.75400 30.32100
H  1.58800 4.19800 30.19600
H  2.41300 5.79700 30.57300
H  2.14600 5.07800 28.90700
H  -1.43600 7.72200 30.68700
H  -0.75900 9.22600 30.52400
H  -0.98000 7.64200 32.90100
H  -0.16500 9.19600 32.62400
H  -0.45800 2.02900 27.65600
H  -0.45600 1.16600 26.26100
H  -2.04100 1.83800 26.67500
H  -0.24100 0.25700 24.19700
H  -1.26100 0.27300 22.78900
H  -1.97000 0.67300 24.35500
H  -1.45700 6.65800 20.85000
H  0.15600 9.08000 20.49400
H  1.25100 7.33000 19.57700
H  0.13800 6.05700 19.22500
H  1.17900 5.86500 20.43500
H  -2.53400 9.37900 21.79800
H  -2.41900 8.52100 20.24400
H  -1.92500 10.54400 19.13600
H  -1.01400 11.18900 20.54800
H  -2.72600 11.12900 20.68700
H  1.80400 12.99100 23.94500
H  0.52000 13.88900 24.93800
H  0.06800 12.99800 23.61300
H  -0.00500 11.16300 29.57600
H  2.66800 12.27400 32.51900
H  3.72600 10.94700 31.76400
H  2.52400 10.50300 32.92300
Mg 27.07700 50.12300 26.74500
C  24.99800 51.06700 29.51200
C  29.34700 49.07100 29.15100
C  29.05400 49.49600 24.20800
C  24.74200 51.57500 24.65700
N  27.15800 50.12300 29.12200
C  26.19900 50.60800 30.00500
C  26.65900 50.41900 31.42600
C  28.11200 49.85800 31.33700
C  28.20400 49.62000 29.81500
C  29.28600 50.80500 31.83500
C  25.74200 49.54100 32.39100
C  25.54400 50.18100 33.87700
H  25.44100 49.14600 34.99200
N  28.91400 49.39400 26.69900
C  29.69700 49.03000 27.74400
C  30.84700 48.39800 27.19100
C  30.89700 48.57900 25.79600
C  29.56300 49.12900 25.53900
C  32.04900 47.82700 28.00800
C  32.00500 48.45100 24.81700
O  31.89200 48.63200 23.65100
C  33.34700 48.05300 25.11500
N  27.02700 50.63600 24.76000
C  27.90300 50.17400 23.88500
C  27.58900 50.47200 22.50400
C  26.09400 50.96000 22.56200
C  25.93000 51.09500 24.06600
C  28.53500 51.50800 21.86900
C  25.06100 49.92500 21.93100
C  23.83200 50.38900 21.11700
N  25.23000 51.13300 26.99800
C  24.43300 51.69500 25.99100
C  23.30100 52.34200 26.64500
C  23.47300 52.09300 28.00000
C  24.60200 51.31100 28.18800
C  22.26900 53.12300 25.86700
C  22.84200 52.32400 29.25800
O  21.75700 52.81700 29.45200
C  23.84700 51.67900 30.34100
C  24.20300 52.70200 31.33200
O  25.20400 53.31600 31.36600
O  23.21000 52.72000 32.33000
C  23.52900 53.55300 33.45400
H  30.10400 48.72800 29.85800
H  29.65300 49.15700 23.36000
H  23.88500 51.74700 24.00300
H  26.69300 51.42300 31.84900
H  28.22100 48.96000 31.94600
H  29.94500 51.08800 31.01500
H  29.90400 50.32300 32.59200
H  28.98900 51.72300 32.34100
H  26.21500 48.57300 32.56100
H  24.82100 49.31000 31.85600
H  24.57500 50.67300 33.79100
H  26.12400 51.05100 34.18600
H  31.97000 47.92600 29.09100
H  32.93400 48.45200 27.89000
H  32.14700 46.76200 27.79800
H  33.27700 47.04300 25.52000
H  33.63500 48.76600 25.88700
H  33.97000 47.97400 24.22400
H  27.59700 49.59200 21.86000
H  26.00800 51.85600 21.94700
H  29.50400 51.45700 22.36400
H  28.11500 52.51400 21.88600
H  28.79700 51.13400 20.88000
H  24.67800 49.21300 22.66200
H  25.66200 49.41800 21.17400
H  23.78500 50.02000 20.09200
H  23.72400 51.47300 21.07600
H  22.92000 50.01400 21.58100
H  22.83600 53.71300 25.14700
H  21.75300 53.77800 26.56800
H  21.46500 52.52700 25.43400
H  23.30500 50.86400 30.82000
H  23.63400 54.60100 33.17400
H  24.43100 53.18200 33.94100
H  22.68000 53.60700 34.13600

