158

Mg 46.47600 24.42800 28.13500
C  47.00500 26.71000 30.82000
C  45.22600 22.16800 30.23300
C  46.57600 22.21900 25.60600
C  47.53300 27.00200 25.98300
N  46.08400 24.49800 30.30600
C  46.45900 25.46100 31.23700
C  45.87900 25.01900 32.59800
C  45.28300 23.59400 32.38700
C  45.51600 23.40000 30.88300
C  45.86200 22.46800 33.30500
C  44.92400 26.01100 33.32100
C  45.25400 26.81500 34.57500
H  44.32500 26.80600 35.82800
N  45.99400 22.40100 27.98800
C  45.46200 21.65200 29.01400
C  45.23100 20.29800 28.48000
C  45.69800 20.31100 27.11600
C  46.19800 21.62600 26.86900
C  44.78200 19.22700 29.48400
C  45.73000 19.19700 26.12100
O  46.28800 19.25200 25.06100
C  45.11200 17.95400 26.55400
N  47.03400 24.63200 26.09400
C  46.87100 23.54700 25.19000
C  47.01900 24.02400 23.67600
C  47.12200 25.58800 23.87700
C  47.26300 25.76500 25.42100
C  48.17800 23.30900 22.99200
C  45.97600 26.49000 23.34600
C  44.55800 26.16300 23.68600
N  47.26900 26.44000 28.29400
C  47.68000 27.32200 27.32500
C  48.14100 28.60400 27.99000
C  47.92600 28.42300 29.35900
C  47.40000 27.09100 29.48900
C  48.68300 29.79800 27.24500
C  47.94100 28.94400 30.72400
O  48.37200 30.05700 31.09000
C  47.35500 27.91300 31.76100
C  48.42500 27.58000 32.76700
O  49.58500 27.17600 32.51300
O  48.09000 28.04100 34.10700
C  49.12700 28.00500 35.13200
H  44.69400 21.59800 30.99800
H  46.59800 21.56400 24.73200
H  47.89300 27.85400 25.40300
H  46.64800 24.78700 33.33500
H  44.19600 23.57100 32.46500
H  45.06600 21.86200 33.73900
H  46.46600 22.84700 34.12900
H  46.55000 21.78100 32.81200
H  44.04800 25.40200 33.54200
H  44.57600 26.69500 32.54700
H  45.40200 27.83900 34.23300
H  46.16900 26.44800 35.04100
H  43.71900 19.08300 29.29300
H  44.73000 19.55100 30.52400
H  45.31800 18.27800 29.47500
H  45.54600 17.52000 27.45500
H  44.89700 17.27800 25.72600
H  44.07800 18.21200 26.78600
H  46.07500 23.85300 23.15700
H  48.02800 25.97900 23.41400
H  48.60900 22.51400 23.59900
H  48.89000 24.05000 22.62800
H  47.72600 22.88400 22.09600
H  46.06000 26.52300 22.25900
H  46.20500 27.54400 23.50400
H  44.51200 25.20300 24.20100
H  43.99400 25.99000 22.77000
H  44.14800 26.92900 24.34500
H  48.55800 30.68600 27.86500
H  47.90900 29.96900 26.49700
H  49.65500 29.69300 26.76300
H  46.50400 28.36100 32.27400
H  49.97200 27.34900 34.92300
H  48.71700 27.71400 36.09900
H  49.47400 29.02900 35.26900
Mg 46.91200 44.83700 42.80200
C  43.84300 43.39500 42.36500
C  48.40000 41.89600 41.67400
C  49.81500 46.55800 42.20400
C  45.25000 48.04700 43.28900
N  46.19900 42.87100 41.95900
C  44.91100 42.47400 42.09300
C  44.76800 40.90200 41.94200
C  46.26300 40.46700 41.85500
C  47.01800 41.83300 41.81900
C  46.82800 39.74700 43.07400
C  43.97500 40.43400 40.67200
C  44.07500 41.32900 39.43300
H  44.07900 40.75500 38.02100
N  48.82800 44.30000 42.14100
C  49.22200 42.99800 41.81300
C  50.63500 43.02200 41.41500
C  51.04300 44.38300 41.49300
C  49.88200 45.17300 41.92000
C  51.43200 41.75600 40.93500
C  52.32000 44.85900 40.98400
O  53.14200 44.07000 40.50100
C  52.77000 46.32400 41.00700
N  47.44500 47.03000 42.72000
C  48.74100 47.36100 42.60800
C  48.95300 48.84400 42.99100
C  47.52300 49.22800 43.55800
C  46.67000 48.04600 43.15000
C  49.97700 49.25100 43.89100
C  46.86100 50.53000 42.97400
C  46.58100 51.74000 43.87300
N  44.98800 45.58800 42.96500
C  44.46600 46.87100 43.18500
C  43.03000 46.74400 43.26300
C  42.71600 45.37100 42.96100
C  43.95000 44.75600 42.70500
C  42.20100 47.96100 43.68600
C  41.68500 44.43000 42.86900
O  40.46400 44.54000 43.08700
C  42.34400 43.08600 42.52400
C  42.06700 42.11600 43.61800
O  42.20300 42.27000 44.81500
O  41.57900 40.95200 43.13900
C  40.93700 39.95000 44.03500
H  48.82900 40.90700 41.50400
H  50.79200 47.04400 42.24900
H  44.75200 48.94300 43.66500
H  44.23100 40.52200 42.81100
H  46.32500 39.83700 40.96800
H  45.98800 39.15500 43.43900
H  46.94100 40.40300 43.93700
H  47.72400 39.21000 42.76400
H  42.98000 40.22400 41.06400
H  44.34300 39.45100 40.37500
H  44.96000 41.96000 39.52600
H  43.24700 42.03800 39.45200
H  52.06600 41.97400 40.07600
H  50.69800 41.01600 40.61700
H  52.15300 41.39700 41.67000
H  51.94800 46.91200 40.59700
H  53.54200 46.44000 40.24600
H  53.15100 46.66800 41.96800
H  49.06900 49.38500 42.05200
H  47.54300 49.31500 44.64500
H  49.65700 49.74600 44.80800
H  50.59600 49.93200 43.30700
H  50.43600 48.33100 44.25200
H  45.97400 50.43400 42.34800
H  47.56600 50.88400 42.22100
H  47.27000 52.55900 43.66800
H  46.70200 51.46800 44.92100
H  45.59300 52.15500 43.67200
H  42.53300 48.07900 44.71700
H  41.11500 47.87300 43.67700
H  42.59600 48.75200 43.04900
H  41.85600 42.78500 41.59800
H  41.44000 39.81000 44.99200
H  40.89600 39.01600 43.47500
H  39.89600 40.24100 44.17400

